MODEL 1
REMARK VINA RESULT:    -7.499      0.000      0.000
REMARK INTER + INTRA:          -9.617
REMARK INTER:                  -9.253
REMARK INTRA:                  -0.364
REMARK UNBOUND:                -0.364
REMARK SMILES Oc1cc(O)c2cc(O)c(-c3cc(O)c(O)c(O)c3)[o+]c2c1
REMARK SMILES IDX 10 1 20 2 21 3 22 4 2 5 3 6 4 7 6 8 7 9 8 10 11 11 12 12
REMARK SMILES IDX 13 13 19 14 15 15 17 16 14 17 16 19 18 21 9 23 1 25 5 27
REMARK H PARENT 14 18 16 20 18 22 9 24 1 26 5 28
REMARK Flexibility Score: inf
ROOT
ATOM      1  C   UNL     1     -31.776  13.721   1.624  1.00  0.00     0.402 A 
ATOM      2  O   UNL     1     -31.140  12.876   0.816  1.00  0.00    -0.202 OA
ATOM      3  C   UNL     1     -29.817  12.787   0.748  1.00  0.00     0.368 A 
ATOM      4  C   UNL     1     -29.240  11.870  -0.134  1.00  0.00     0.162 A 
ATOM      5  C   UNL     1     -27.852  11.757  -0.228  1.00  0.00     0.128 A 
ATOM      6  C   UNL     1     -27.033  12.567   0.566  1.00  0.00     0.093 A 
ATOM      7  C   UNL     1     -27.585  13.494   1.458  1.00  0.00     0.136 A 
ATOM      8  C   UNL     1     -28.997  13.610   1.558  1.00  0.00     0.125 A 
ATOM      9  C   UNL     1     -29.638  14.501   2.433  1.00  0.00     0.078 A 
ATOM     10  C   UNL     1     -31.034  14.555   2.479  1.00  0.00     0.223 A 
ENDROOT
BRANCH   1  11
ATOM     11  C   UNL     1     -33.257  13.733   1.599  1.00  0.00     0.091 A 
ATOM     12  C   UNL     1     -33.967  14.453   0.624  1.00  0.00     0.068 A 
ATOM     13  C   UNL     1     -35.368  14.434   0.604  1.00  0.00     0.162 A 
ATOM     14  C   UNL     1     -33.968  12.965   2.533  1.00  0.00     0.068 A 
ATOM     15  C   UNL     1     -36.073  13.681   1.557  1.00  0.00     0.200 A 
ATOM     16  C   UNL     1     -35.366  12.942   2.521  1.00  0.00     0.162 A 
BRANCH  13  17
ATOM     17  O   UNL     1     -36.062  15.158  -0.365  1.00  0.00    -0.504 OA
ATOM     18  H   UNL     1     -36.964  14.854  -0.711  1.00  0.00     0.293 HD
ENDBRANCH  13  17
BRANCH  15  19
ATOM     19  O   UNL     1     -37.468  13.656   1.555  1.00  0.00    -0.502 OA
ATOM     20  H   UNL     1     -37.993  12.802   1.402  1.00  0.00     0.293 HD
ENDBRANCH  15  19
BRANCH  16  21
ATOM     21  O   UNL     1     -36.037  12.178   3.477  1.00  0.00    -0.504 OA
ATOM     22  H   UNL     1     -36.932  12.457   3.860  1.00  0.00     0.293 HD
ENDBRANCH  16  21
ENDBRANCH   1  11
BRANCH  10  23
ATOM     23  O   UNL     1     -31.671  15.404   3.385  1.00  0.00    -0.500 OA
ATOM     24  H   UNL     1     -31.165  15.863   4.133  1.00  0.00     0.294 HD
ENDBRANCH  10  23
BRANCH   5  25
ATOM     25  O   UNL     1     -27.298  10.837  -1.115  1.00  0.00    -0.507 OA
ATOM     26  H   UNL     1     -26.348  10.500  -1.003  1.00  0.00     0.293 HD
ENDBRANCH   5  25
BRANCH   7  27
ATOM     27  O   UNL     1     -26.699  14.267   2.213  1.00  0.00    -0.507 OA
ATOM     28  H   UNL     1     -25.877  14.719   1.841  1.00  0.00     0.293 HD
ENDBRANCH   7  27
TORSDOF 7
ENDMDL
MODEL 2
REMARK VINA RESULT:    -7.356      0.173      1.800
REMARK INTER + INTRA:          -9.440
REMARK INTER:                  -9.084
REMARK INTRA:                  -0.356
REMARK UNBOUND:                -0.364
REMARK SMILES Oc1cc(O)c2cc(O)c(-c3cc(O)c(O)c(O)c3)[o+]c2c1
REMARK SMILES IDX 10 1 20 2 21 3 22 4 2 5 3 6 4 7 6 8 7 9 8 10 11 11 12 12
REMARK SMILES IDX 13 13 19 14 15 15 17 16 14 17 16 19 18 21 9 23 1 25 5 27
REMARK H PARENT 14 18 16 20 18 22 9 24 1 26 5 28
REMARK Flexibility Score: inf
ROOT
ATOM      1  C   UNL     1     -31.803  13.760   1.585  1.00  0.00     0.402 A 
ATOM      2  O   UNL     1     -31.145  12.901   0.810  1.00  0.00    -0.202 OA
ATOM      3  C   UNL     1     -29.819  12.812   0.780  1.00  0.00     0.368 A 
ATOM      4  C   UNL     1     -29.219  11.879  -0.068  1.00  0.00     0.162 A 
ATOM      5  C   UNL     1     -27.829  11.766  -0.123  1.00  0.00     0.128 A 
ATOM      6  C   UNL     1     -27.032  12.591   0.677  1.00  0.00     0.093 A 
ATOM      7  C   UNL     1     -27.609  13.534   1.537  1.00  0.00     0.136 A 
ATOM      8  C   UNL     1     -29.022  13.650   1.596  1.00  0.00     0.125 A 
ATOM      9  C   UNL     1     -29.687  14.558   2.437  1.00  0.00     0.078 A 
ATOM     10  C   UNL     1     -31.084  14.611   2.444  1.00  0.00     0.223 A 
ENDROOT
BRANCH   1  11
ATOM     11  C   UNL     1     -33.282  13.770   1.520  1.00  0.00     0.091 A 
ATOM     12  C   UNL     1     -34.061  13.093   2.474  1.00  0.00     0.068 A 
ATOM     13  C   UNL     1     -35.460  13.134   2.410  1.00  0.00     0.162 A 
ATOM     14  C   UNL     1     -33.923  14.515   0.520  1.00  0.00     0.068 A 
ATOM     15  C   UNL     1     -36.094  13.864   1.391  1.00  0.00     0.200 A 
ATOM     16  C   UNL     1     -35.319  14.559   0.447  1.00  0.00     0.162 A 
BRANCH  13  17
ATOM     17  O   UNL     1     -36.223  12.453   3.358  1.00  0.00    -0.504 OA
ATOM     18  H   UNL     1     -37.175  12.727   3.570  1.00  0.00     0.293 HD
ENDBRANCH  13  17
BRANCH  15  19
ATOM     19  O   UNL     1     -37.486  13.910   1.308  1.00  0.00    -0.502 OA
ATOM     20  H   UNL     1     -38.043  14.520   1.896  1.00  0.00     0.293 HD
ENDBRANCH  15  19
BRANCH  16  21
ATOM     21  O   UNL     1     -35.919  15.300  -0.572  1.00  0.00    -0.504 OA
ATOM     22  H   UNL     1     -35.851  16.311  -0.616  1.00  0.00     0.293 HD
ENDBRANCH  16  21
ENDBRANCH   1  11
BRANCH  10  23
ATOM     23  O   UNL     1     -31.746  15.477   3.316  1.00  0.00    -0.500 OA
ATOM     24  H   UNL     1     -31.732  16.481   3.183  1.00  0.00     0.294 HD
ENDBRANCH  10  23
BRANCH   5  25
ATOM     25  O   UNL     1     -27.250  10.829  -0.976  1.00  0.00    -0.507 OA
ATOM     26  H   UNL     1     -27.520   9.852  -0.952  1.00  0.00     0.293 HD
ENDBRANCH   5  25
BRANCH   7  27
ATOM     27  O   UNL     1     -26.744  14.322   2.301  1.00  0.00    -0.507 OA
ATOM     28  H   UNL     1     -26.984  15.224   2.687  1.00  0.00     0.293 HD
ENDBRANCH   7  27
TORSDOF 7
ENDMDL
MODEL 3
REMARK VINA RESULT:    -7.307      2.411      3.474
REMARK INTER + INTRA:          -9.379
REMARK INTER:                  -9.059
REMARK INTRA:                  -0.321
REMARK UNBOUND:                -0.364
REMARK SMILES Oc1cc(O)c2cc(O)c(-c3cc(O)c(O)c(O)c3)[o+]c2c1
REMARK SMILES IDX 10 1 20 2 21 3 22 4 2 5 3 6 4 7 6 8 7 9 8 10 11 11 12 12
REMARK SMILES IDX 13 13 19 14 15 15 17 16 14 17 16 19 18 21 9 23 1 25 5 27
REMARK H PARENT 14 18 16 20 18 22 9 24 1 26 5 28
REMARK Flexibility Score: inf
ROOT
ATOM      1  C   UNL     1     -31.158  14.054   0.909  1.00  0.00     0.402 A 
ATOM      2  O   UNL     1     -30.143  14.061   1.769  1.00  0.00    -0.202 OA
ATOM      3  C   UNL     1     -29.044  14.788   1.595  1.00  0.00     0.368 A 
ATOM      4  C   UNL     1     -28.030  14.727   2.554  1.00  0.00     0.162 A 
ATOM      5  C   UNL     1     -26.863  15.477   2.396  1.00  0.00     0.128 A 
ATOM      6  C   UNL     1     -26.708  16.294   1.271  1.00  0.00     0.093 A 
ATOM      7  C   UNL     1     -27.710  16.373   0.295  1.00  0.00     0.136 A 
ATOM      8  C   UNL     1     -28.899  15.614   0.454  1.00  0.00     0.125 A 
ATOM      9  C   UNL     1     -29.960  15.640  -0.465  1.00  0.00     0.078 A 
ATOM     10  C   UNL     1     -31.103  14.867  -0.238  1.00  0.00     0.223 A 
ENDROOT
BRANCH   1  11
ATOM     11  C   UNL     1     -32.325  13.193   1.209  1.00  0.00     0.091 A 
ATOM     12  C   UNL     1     -33.277  13.561   2.175  1.00  0.00     0.068 A 
ATOM     13  C   UNL     1     -34.387  12.744   2.429  1.00  0.00     0.162 A 
ATOM     14  C   UNL     1     -32.516  12.011   0.478  1.00  0.00     0.068 A 
ATOM     15  C   UNL     1     -34.558  11.550   1.708  1.00  0.00     0.200 A 
ATOM     16  C   UNL     1     -33.620  11.189   0.727  1.00  0.00     0.162 A 
BRANCH  13  17
ATOM     17  O   UNL     1     -35.322  13.116   3.394  1.00  0.00    -0.504 OA
ATOM     18  H   UNL     1     -35.051  13.300   4.353  1.00  0.00     0.293 HD
ENDBRANCH  13  17
BRANCH  15  19
ATOM     19  O   UNL     1     -35.654  10.722   1.953  1.00  0.00    -0.502 OA
ATOM     20  H   UNL     1     -35.855   9.909   1.382  1.00  0.00     0.293 HD
ENDBRANCH  15  19
BRANCH  16  21
ATOM     21  O   UNL     1     -33.766  10.015  -0.012  1.00  0.00    -0.504 OA
ATOM     22  H   UNL     1     -34.648   9.752  -0.438  1.00  0.00     0.293 HD
ENDBRANCH  16  21
ENDBRANCH   1  11
BRANCH  10  23
ATOM     23  O   UNL     1     -32.178  14.932  -1.125  1.00  0.00    -0.500 OA
ATOM     24  H   UNL     1     -32.288  14.265  -1.879  1.00  0.00     0.294 HD
ENDBRANCH  10  23
BRANCH   5  25
ATOM     25  O   UNL     1     -25.864  15.402   3.363  1.00  0.00    -0.507 OA
ATOM     26  H   UNL     1     -24.922  15.730   3.178  1.00  0.00     0.293 HD
ENDBRANCH   5  25
BRANCH   7  27
ATOM     27  O   UNL     1     -27.478  17.210  -0.799  1.00  0.00    -0.507 OA
ATOM     28  H   UNL     1     -26.901  16.967  -1.591  1.00  0.00     0.293 HD
ENDBRANCH   7  27
TORSDOF 7
ENDMDL
MODEL 4
REMARK VINA RESULT:    -6.842      1.108      2.653
REMARK INTER + INTRA:          -8.807
REMARK INTER:                  -8.426
REMARK INTRA:                  -0.380
REMARK UNBOUND:                -0.364
REMARK SMILES Oc1cc(O)c2cc(O)c(-c3cc(O)c(O)c(O)c3)[o+]c2c1
REMARK SMILES IDX 10 1 20 2 21 3 22 4 2 5 3 6 4 7 6 8 7 9 8 10 11 11 12 12
REMARK SMILES IDX 13 13 19 14 15 15 17 16 14 17 16 19 18 21 9 23 1 25 5 27
REMARK H PARENT 14 18 16 20 18 22 9 24 1 26 5 28
REMARK Flexibility Score: inf
ROOT
ATOM      1  C   UNL     1     -32.125  12.523   0.785  1.00  0.00     0.402 A 
ATOM      2  O   UNL     1     -31.154  13.182   1.412  1.00  0.00    -0.202 OA
ATOM      3  C   UNL     1     -29.864  13.009   1.146  1.00  0.00     0.368 A 
ATOM      4  C   UNL     1     -28.917  13.745   1.860  1.00  0.00     0.162 A 
ATOM      5  C   UNL     1     -27.554  13.582   1.604  1.00  0.00     0.128 A 
ATOM      6  C   UNL     1     -27.135  12.676   0.624  1.00  0.00     0.093 A 
ATOM      7  C   UNL     1     -28.064  11.925  -0.107  1.00  0.00     0.136 A 
ATOM      8  C   UNL     1     -29.450  12.091   0.150  1.00  0.00     0.125 A 
ATOM      9  C   UNL     1     -30.453  11.391  -0.542  1.00  0.00     0.078 A 
ATOM     10  C   UNL     1     -31.799  11.611  -0.235  1.00  0.00     0.223 A 
ENDROOT
BRANCH   1  11
ATOM     11  C   UNL     1     -33.526  12.797   1.180  1.00  0.00     0.091 A 
ATOM     12  C   UNL     1     -34.273  13.817   0.568  1.00  0.00     0.068 A 
ATOM     13  C   UNL     1     -35.605  14.045   0.940  1.00  0.00     0.162 A 
ATOM     14  C   UNL     1     -34.140  11.986   2.147  1.00  0.00     0.068 A 
ATOM     15  C   UNL     1     -36.205  13.244   1.925  1.00  0.00     0.200 A 
ATOM     16  C   UNL     1     -35.468  12.209   2.525  1.00  0.00     0.162 A 
BRANCH  13  17
ATOM     17  O   UNL     1     -36.336  15.065   0.329  1.00  0.00    -0.504 OA
ATOM     18  H   UNL     1     -36.384  15.153  -0.678  1.00  0.00     0.293 HD
ENDBRANCH  13  17
BRANCH  15  19
ATOM     19  O   UNL     1     -37.528  13.461   2.311  1.00  0.00    -0.502 OA
ATOM     20  H   UNL     1     -37.839  14.342   2.703  1.00  0.00     0.293 HD
ENDBRANCH  15  19
BRANCH  16  21
ATOM     21  O   UNL     1     -36.037  11.390   3.500  1.00  0.00    -0.504 OA
ATOM     22  H   UNL     1     -36.379  11.757   4.381  1.00  0.00     0.293 HD
ENDBRANCH  16  21
ENDBRANCH   1  11
BRANCH  10  23
ATOM     23  O   UNL     1     -32.796  10.954  -0.957  1.00  0.00    -0.500 OA
ATOM     24  H   UNL     1     -33.737  11.324  -1.024  1.00  0.00     0.294 HD
ENDBRANCH  10  23
BRANCH   5  25
ATOM     25  O   UNL     1     -26.626  14.326   2.328  1.00  0.00    -0.507 OA
ATOM     26  H   UNL     1     -26.911  15.100   2.916  1.00  0.00     0.293 HD
ENDBRANCH   5  25
BRANCH   7  27
ATOM     27  O   UNL     1     -27.565  11.039  -1.065  1.00  0.00    -0.507 OA
ATOM     28  H   UNL     1     -27.791  11.075  -2.048  1.00  0.00     0.293 HD
ENDBRANCH   7  27
TORSDOF 7
ENDMDL
MODEL 5
REMARK VINA RESULT:    -6.791      2.375      3.602
REMARK INTER + INTRA:          -8.743
REMARK INTER:                  -8.490
REMARK INTRA:                  -0.254
REMARK UNBOUND:                -0.364
REMARK SMILES Oc1cc(O)c2cc(O)c(-c3cc(O)c(O)c(O)c3)[o+]c2c1
REMARK SMILES IDX 10 1 20 2 21 3 22 4 2 5 3 6 4 7 6 8 7 9 8 10 11 11 12 12
REMARK SMILES IDX 13 13 19 14 15 15 17 16 14 17 16 19 18 21 9 23 1 25 5 27
REMARK H PARENT 14 18 16 20 18 22 9 24 1 26 5 28
REMARK Flexibility Score: inf
ROOT
ATOM      1  C   UNL     1     -33.577  13.314   1.438  1.00  0.00     0.402 A 
ATOM      2  O   UNL     1     -32.509  13.482   2.215  1.00  0.00    -0.202 OA
ATOM      3  C   UNL     1     -31.417  14.129   1.824  1.00  0.00     0.368 A 
ATOM      4  C   UNL     1     -30.345  14.251   2.711  1.00  0.00     0.162 A 
ATOM      5  C   UNL     1     -29.183  14.922   2.326  1.00  0.00     0.128 A 
ATOM      6  C   UNL     1     -29.091  15.476   1.044  1.00  0.00     0.093 A 
ATOM      7  C   UNL     1     -30.152  15.367   0.136  1.00  0.00     0.136 A 
ATOM      8  C   UNL     1     -31.336  14.687   0.525  1.00  0.00     0.125 A 
ATOM      9  C   UNL     1     -32.452  14.541  -0.313  1.00  0.00     0.078 A 
ATOM     10  C   UNL     1     -33.586  13.861   0.142  1.00  0.00     0.223 A 
ENDROOT
BRANCH   1  11
ATOM     11  C   UNL     1     -34.731  12.565   1.986  1.00  0.00     0.091 A 
ATOM     12  C   UNL     1     -35.955  13.200   2.255  1.00  0.00     0.068 A 
ATOM     13  C   UNL     1     -37.043  12.469   2.752  1.00  0.00     0.162 A 
ATOM     14  C   UNL     1     -34.620  11.182   2.190  1.00  0.00     0.068 A 
ATOM     15  C   UNL     1     -36.916  11.088   2.975  1.00  0.00     0.200 A 
ATOM     16  C   UNL     1     -35.700  10.445   2.687  1.00  0.00     0.162 A 
BRANCH  13  17
ATOM     17  O   UNL     1     -38.251  13.111   3.022  1.00  0.00    -0.504 OA
ATOM     18  H   UNL     1     -38.385  14.096   2.824  1.00  0.00     0.293 HD
ENDBRANCH  13  17
BRANCH  15  19
ATOM     19  O   UNL     1     -37.987  10.346   3.474  1.00  0.00    -0.502 OA
ATOM     20  H   UNL     1     -38.648   9.875   2.868  1.00  0.00     0.293 HD
ENDBRANCH  15  19
BRANCH  16  21
ATOM     21  O   UNL     1     -35.545   9.073   2.889  1.00  0.00    -0.504 OA
ATOM     22  H   UNL     1     -35.496   8.416   2.118  1.00  0.00     0.293 HD
ENDBRANCH  16  21
ENDBRANCH   1  11
BRANCH  10  23
ATOM     23  O   UNL     1     -34.715  13.760  -0.672  1.00  0.00    -0.500 OA
ATOM     24  H   UNL     1     -34.639  13.644  -1.676  1.00  0.00     0.294 HD
ENDBRANCH  10  23
BRANCH   5  25
ATOM     25  O   UNL     1     -28.125  15.033   3.225  1.00  0.00    -0.507 OA
ATOM     26  H   UNL     1     -28.245  14.832   4.211  1.00  0.00     0.293 HD
ENDBRANCH   5  25
BRANCH   7  27
ATOM     27  O   UNL     1     -29.981  15.945  -1.125  1.00  0.00    -0.507 OA
ATOM     28  H   UNL     1     -30.276  16.879  -1.370  1.00  0.00     0.293 HD
ENDBRANCH   7  27
TORSDOF 7
ENDMDL
MODEL 6
REMARK VINA RESULT:    -6.779      2.233      6.926
REMARK INTER + INTRA:          -8.728
REMARK INTER:                  -8.443
REMARK INTRA:                  -0.285
REMARK UNBOUND:                -0.364
REMARK SMILES Oc1cc(O)c2cc(O)c(-c3cc(O)c(O)c(O)c3)[o+]c2c1
REMARK SMILES IDX 10 1 20 2 21 3 22 4 2 5 3 6 4 7 6 8 7 9 8 10 11 11 12 12
REMARK SMILES IDX 13 13 19 14 15 15 17 16 14 17 16 19 18 21 9 23 1 25 5 27
REMARK H PARENT 14 18 16 20 18 22 9 24 1 26 5 28
REMARK Flexibility Score: inf
ROOT
ATOM      1  C   UNL     1     -31.140  13.194   0.845  1.00  0.00     0.402 A 
ATOM      2  O   UNL     1     -32.187  13.455   1.623  1.00  0.00    -0.202 OA
ATOM      3  C   UNL     1     -33.295  12.722   1.627  1.00  0.00     0.368 A 
ATOM      4  C   UNL     1     -34.344  13.078   2.478  1.00  0.00     0.162 A 
ATOM      5  C   UNL     1     -35.521  12.328   2.500  1.00  0.00     0.128 A 
ATOM      6  C   UNL     1     -35.652  11.213   1.665  1.00  0.00     0.093 A 
ATOM      7  C   UNL     1     -34.615  10.836   0.802  1.00  0.00     0.136 A 
ATOM      8  C   UNL     1     -33.416  11.595   0.779  1.00  0.00     0.125 A 
ATOM      9  C   UNL     1     -32.321  11.283  -0.044  1.00  0.00     0.078 A 
ATOM     10  C   UNL     1     -31.171  12.076  -0.008  1.00  0.00     0.223 A 
ENDROOT
BRANCH   1  11
ATOM     11  C   UNL     1     -29.966  14.093   0.926  1.00  0.00     0.091 A 
ATOM     12  C   UNL     1     -29.601  14.919  -0.151  1.00  0.00     0.068 A 
ATOM     13  C   UNL     1     -28.500  15.780  -0.047  1.00  0.00     0.162 A 
ATOM     14  C   UNL     1     -29.233  14.165   2.120  1.00  0.00     0.068 A 
ATOM     15  C   UNL     1     -27.758  15.829   1.144  1.00  0.00     0.200 A 
ATOM     16  C   UNL     1     -28.132  15.020   2.231  1.00  0.00     0.162 A 
BRANCH  13  17
ATOM     17  O   UNL     1     -28.144  16.591  -1.125  1.00  0.00    -0.504 OA
ATOM     18  H   UNL     1     -27.422  16.316  -1.780  1.00  0.00     0.293 HD
ENDBRANCH  13  17
BRANCH  15  19
ATOM     19  O   UNL     1     -26.656  16.676   1.263  1.00  0.00    -0.502 OA
ATOM     20  H   UNL     1     -25.774  16.483   0.803  1.00  0.00     0.293 HD
ENDBRANCH  15  19
BRANCH  16  21
ATOM     21  O   UNL     1     -27.421  15.052   3.431  1.00  0.00    -0.504 OA
ATOM     22  H   UNL     1     -27.625  14.418   4.196  1.00  0.00     0.293 HD
ENDBRANCH  16  21
ENDBRANCH   1  11
BRANCH  10  23
ATOM     23  O   UNL     1     -30.063  11.737  -0.788  1.00  0.00    -0.500 OA
ATOM     24  H   UNL     1     -29.838  12.238  -1.639  1.00  0.00     0.294 HD
ENDBRANCH  10  23
BRANCH   5  25
ATOM     25  O   UNL     1     -36.554  12.699   3.357  1.00  0.00    -0.507 OA
ATOM     26  H   UNL     1     -36.730  13.671   3.585  1.00  0.00     0.293 HD
ENDBRANCH   5  25
BRANCH   7  27
ATOM     27  O   UNL     1     -34.825   9.712  -0.002  1.00  0.00    -0.507 OA
ATOM     28  H   UNL     1     -35.720   9.442  -0.383  1.00  0.00     0.293 HD
ENDBRANCH   7  27
TORSDOF 7
ENDMDL
MODEL 7
REMARK VINA RESULT:    -6.772      2.222      7.145
REMARK INTER + INTRA:          -8.719
REMARK INTER:                  -8.458
REMARK INTRA:                  -0.261
REMARK UNBOUND:                -0.364
REMARK SMILES Oc1cc(O)c2cc(O)c(-c3cc(O)c(O)c(O)c3)[o+]c2c1
REMARK SMILES IDX 10 1 20 2 21 3 22 4 2 5 3 6 4 7 6 8 7 9 8 10 11 11 12 12
REMARK SMILES IDX 13 13 19 14 15 15 17 16 14 17 16 19 18 21 9 23 1 25 5 27
REMARK H PARENT 14 18 16 20 18 22 9 24 1 26 5 28
REMARK Flexibility Score: inf
ROOT
ATOM      1  C   UNL     1     -31.107  13.229   0.913  1.00  0.00     0.402 A 
ATOM      2  O   UNL     1     -32.162  13.476   1.686  1.00  0.00    -0.202 OA
ATOM      3  C   UNL     1     -33.266  12.736   1.672  1.00  0.00     0.368 A 
ATOM      4  C   UNL     1     -34.323  13.075   2.519  1.00  0.00     0.162 A 
ATOM      5  C   UNL     1     -35.496  12.318   2.524  1.00  0.00     0.128 A 
ATOM      6  C   UNL     1     -35.613  11.212   1.675  1.00  0.00     0.093 A 
ATOM      7  C   UNL     1     -34.568  10.850   0.816  1.00  0.00     0.136 A 
ATOM      8  C   UNL     1     -33.373  11.617   0.811  1.00  0.00     0.125 A 
ATOM      9  C   UNL     1     -32.270  11.321  -0.006  1.00  0.00     0.078 A 
ATOM     10  C   UNL     1     -31.125  12.121   0.047  1.00  0.00     0.223 A 
ENDROOT
BRANCH   1  11
ATOM     11  C   UNL     1     -29.940  14.134   1.012  1.00  0.00     0.091 A 
ATOM     12  C   UNL     1     -29.128  14.159   2.159  1.00  0.00     0.068 A 
ATOM     13  C   UNL     1     -28.014  15.006   2.226  1.00  0.00     0.162 A 
ATOM     14  C   UNL     1     -29.601  14.946  -0.080  1.00  0.00     0.068 A 
ATOM     15  C   UNL     1     -27.696  15.832   1.135  1.00  0.00     0.200 A 
ATOM     16  C   UNL     1     -28.492  15.796  -0.022  1.00  0.00     0.162 A 
BRANCH  13  17
ATOM     17  O   UNL     1     -27.219  15.026   3.372  1.00  0.00    -0.504 OA
ATOM     18  H   UNL     1     -26.662  14.226   3.646  1.00  0.00     0.293 HD
ENDBRANCH  13  17
BRANCH  15  19
ATOM     19  O   UNL     1     -26.593  16.686   1.187  1.00  0.00    -0.502 OA
ATOM     20  H   UNL     1     -26.566  17.498   1.792  1.00  0.00     0.293 HD
ENDBRANCH  15  19
BRANCH  16  21
ATOM     21  O   UNL     1     -28.197  16.597  -1.125  1.00  0.00    -0.504 OA
ATOM     22  H   UNL     1     -27.741  16.230  -1.952  1.00  0.00     0.293 HD
ENDBRANCH  16  21
ENDBRANCH   1  11
BRANCH  10  23
ATOM     23  O   UNL     1     -30.010  11.797  -0.728  1.00  0.00    -0.500 OA
ATOM     24  H   UNL     1     -29.086  11.710  -0.321  1.00  0.00     0.294 HD
ENDBRANCH  10  23
BRANCH   5  25
ATOM     25  O   UNL     1     -36.538  12.673   3.377  1.00  0.00    -0.507 OA
ATOM     26  H   UNL     1     -37.435  12.980   3.017  1.00  0.00     0.293 HD
ENDBRANCH   5  25
BRANCH   7  27
ATOM     27  O   UNL     1     -34.764   9.734  -0.002  1.00  0.00    -0.507 OA
ATOM     28  H   UNL     1     -34.221   9.530  -0.828  1.00  0.00     0.293 HD
ENDBRANCH   7  27
TORSDOF 7
ENDMDL
MODEL 8
REMARK VINA RESULT:    -6.756      2.068      2.828
REMARK INTER + INTRA:          -8.700
REMARK INTER:                  -9.022
REMARK INTRA:                   0.323
REMARK UNBOUND:                -0.364
REMARK SMILES Oc1cc(O)c2cc(O)c(-c3cc(O)c(O)c(O)c3)[o+]c2c1
REMARK SMILES IDX 10 1 20 2 21 3 22 4 2 5 3 6 4 7 6 8 7 9 8 10 11 11 12 12
REMARK SMILES IDX 13 13 19 14 15 15 17 16 14 17 16 19 18 21 9 23 1 25 5 27
REMARK H PARENT 14 18 16 20 18 22 9 24 1 26 5 28
REMARK Flexibility Score: inf
ROOT
ATOM      1  C   UNL     1     -33.588  12.672   1.805  1.00  0.00     0.402 A 
ATOM      2  O   UNL     1     -32.688  11.996   1.095  1.00  0.00    -0.202 OA
ATOM      3  C   UNL     1     -31.505  12.493   0.751  1.00  0.00     0.368 A 
ATOM      4  C   UNL     1     -30.628  11.707   0.001  1.00  0.00     0.162 A 
ATOM      5  C   UNL     1     -29.380  12.205  -0.377  1.00  0.00     0.128 A 
ATOM      6  C   UNL     1     -29.005  13.500  -0.002  1.00  0.00     0.093 A 
ATOM      7  C   UNL     1     -29.866  14.309   0.749  1.00  0.00     0.136 A 
ATOM      8  C   UNL     1     -31.135  13.805   1.137  1.00  0.00     0.125 A 
ATOM      9  C   UNL     1     -32.056  14.539   1.902  1.00  0.00     0.078 A 
ATOM     10  C   UNL     1     -33.286  13.972   2.250  1.00  0.00     0.223 A 
ENDROOT
BRANCH   1  11
ATOM     11  C   UNL     1     -34.875  12.011   2.116  1.00  0.00     0.091 A 
ATOM     12  C   UNL     1     -35.976  12.741   2.595  1.00  0.00     0.068 A 
ATOM     13  C   UNL     1     -37.194  12.101   2.862  1.00  0.00     0.162 A 
ATOM     14  C   UNL     1     -35.021  10.637   1.875  1.00  0.00     0.068 A 
ATOM     15  C   UNL     1     -37.324  10.720   2.640  1.00  0.00     0.200 A 
ATOM     16  C   UNL     1     -36.232   9.990   2.140  1.00  0.00     0.162 A 
BRANCH  13  17
ATOM     17  O   UNL     1     -38.278  12.835   3.344  1.00  0.00    -0.504 OA
ATOM     18  H   UNL     1     -38.208  13.394   4.185  1.00  0.00     0.293 HD
ENDBRANCH  13  17
BRANCH  15  19
ATOM     19  O   UNL     1     -38.527  10.066   2.905  1.00  0.00    -0.502 OA
ATOM     20  H   UNL     1     -38.567   9.197   3.425  1.00  0.00     0.293 HD
ENDBRANCH  15  19
BRANCH  16  21
ATOM     21  O   UNL     1     -36.331   8.619   1.901  1.00  0.00    -0.504 OA
ATOM     22  H   UNL     1     -36.365   7.941   2.653  1.00  0.00     0.293 HD
ENDBRANCH  16  21
ENDBRANCH   1  11
BRANCH  10  23
ATOM     23  O   UNL     1     -34.181  14.682   3.052  1.00  0.00    -0.500 OA
ATOM     24  H   UNL     1     -35.102  14.942   2.720  1.00  0.00     0.294 HD
ENDBRANCH  10  23
BRANCH   5  25
ATOM     25  O   UNL     1     -28.520  11.404  -1.125  1.00  0.00    -0.507 OA
ATOM     26  H   UNL     1     -27.516  11.437  -0.992  1.00  0.00     0.293 HD
ENDBRANCH   5  25
BRANCH   7  27
ATOM     27  O   UNL     1     -29.419  15.591   1.081  1.00  0.00    -0.507 OA
ATOM     28  H   UNL     1     -28.456  15.828   1.272  1.00  0.00     0.293 HD
ENDBRANCH   7  27
TORSDOF 7
ENDMDL
