MODEL 1
REMARK VINA RESULT:    -5.331      0.000      0.000
REMARK INTER + INTRA:         -10.971
REMARK INTER:                  -9.071
REMARK INTRA:                  -1.900
REMARK UNBOUND:                -1.900
REMARK SMILES CCCCCCCCCCCCCC(=O)[O-]
REMARK SMILES IDX 8 1 9 2 10 3 11 4 12 5 13 6 14 7 15 8 16 9 7 10 6 11 5 12
REMARK SMILES IDX 4 13 3 14 2 15 1 16
REMARK H PARENT
REMARK Flexibility Score: inf
ROOT
ATOM      1  C   UNL     1      53.137  16.943  -1.497  1.00  0.00     0.000 C 
ENDROOT
BRANCH   1   2
ATOM      2  C   UNL     1      53.688  15.564  -1.878  1.00  0.00     0.000 C 
BRANCH   2   3
ATOM      3  C   UNL     1      53.091  14.466  -0.985  1.00  0.00     0.000 C 
BRANCH   3   4
ATOM      4  C   UNL     1      54.008  14.081   0.189  1.00  0.00     0.000 C 
BRANCH   4   5
ATOM      5  C   UNL     1      55.155  13.114  -0.169  1.00  0.00     0.006 C 
BRANCH   5   6
ATOM      6  C   UNL     1      56.539  13.550   0.337  1.00  0.00     0.053 C 
BRANCH   6   7
ATOM      7  C   UNL     1      57.453  12.382   0.550  1.00  0.00     0.041 C 
ATOM      8  O   UNL     1      58.688  12.498   0.332  1.00  0.00    -0.550 OA
ATOM      9  O   UNL     1      56.947  11.178   1.022  1.00  0.00    -0.550 OA
ENDBRANCH   6   7
ENDBRANCH   5   6
ENDBRANCH   4   5
ENDBRANCH   3   4
ENDBRANCH   2   3
ENDBRANCH   1   2
BRANCH   1  10
ATOM     10  C   UNL     1      54.264  17.873  -1.020  1.00  0.00     0.000 C 
BRANCH  10  11
ATOM     11  C   UNL     1      55.620  17.155  -0.918  1.00  0.00    -0.000 C 
BRANCH  11  12
ATOM     12  C   UNL     1      56.158  17.109   0.520  1.00  0.00    -0.000 C 
BRANCH  12  13
ATOM     13  C   UNL     1      55.281  17.943   1.462  1.00  0.00    -0.000 C 
BRANCH  13  14
ATOM     14  C   UNL     1      54.533  17.044   2.457  1.00  0.00    -0.000 C 
BRANCH  14  15
ATOM     15  C   UNL     1      53.082  17.494   2.685  1.00  0.00    -0.003 C 
ATOM     16  C   UNL     1      52.079  16.694   1.853  1.00  0.00     0.004 C 
ENDBRANCH  14  15
ENDBRANCH  13  14
ENDBRANCH  12  13
ENDBRANCH  11  12
ENDBRANCH  10  11
ENDBRANCH   1  10
TORSDOF 12
ENDMDL
MODEL 2
REMARK VINA RESULT:    -5.276      4.077      6.190
REMARK INTER + INTRA:         -10.878
REMARK INTER:                  -8.937
REMARK INTRA:                  -1.941
REMARK UNBOUND:                -1.900
REMARK SMILES CCCCCCCCCCCCCC(=O)[O-]
REMARK SMILES IDX 8 1 9 2 10 3 11 4 12 5 13 6 14 7 15 8 16 9 7 10 6 11 5 12
REMARK SMILES IDX 4 13 3 14 2 15 1 16
REMARK H PARENT
REMARK Flexibility Score: inf
ROOT
ATOM      1  C   UNL     1      56.154  17.177   0.648  1.00  0.00     0.000 C 
ENDROOT
BRANCH   1   2
ATOM      2  C   UNL     1      55.151  17.930   1.532  1.00  0.00     0.000 C 
BRANCH   2   3
ATOM      3  C   UNL     1      54.520  16.993   2.571  1.00  0.00     0.000 C 
BRANCH   3   4
ATOM      4  C   UNL     1      53.032  16.706   2.298  1.00  0.00     0.000 C 
BRANCH   4   5
ATOM      5  C   UNL     1      52.108  17.940   2.361  1.00  0.00     0.006 C 
BRANCH   5   6
ATOM      6  C   UNL     1      50.944  17.917   1.358  1.00  0.00     0.053 C 
BRANCH   6   7
ATOM      7  C   UNL     1      50.269  19.250   1.250  1.00  0.00     0.041 C 
ATOM      8  O   UNL     1      49.941  19.704   0.122  1.00  0.00    -0.550 OA
ATOM      9  O   UNL     1      49.970  19.974   2.397  1.00  0.00    -0.550 OA
ENDBRANCH   6   7
ENDBRANCH   5   6
ENDBRANCH   4   5
ENDBRANCH   3   4
ENDBRANCH   2   3
ENDBRANCH   1   2
BRANCH   1  10
ATOM     10  C   UNL     1      55.644  17.073  -0.797  1.00  0.00     0.000 C 
BRANCH  10  11
ATOM     11  C   UNL     1      54.322  17.828  -1.014  1.00  0.00    -0.000 C 
BRANCH  11  12
ATOM     12  C   UNL     1      53.174  16.902  -1.443  1.00  0.00    -0.000 C 
BRANCH  12  13
ATOM     13  C   UNL     1      53.690  15.489  -1.737  1.00  0.00    -0.000 C 
BRANCH  13  14
ATOM     14  C   UNL     1      53.053  14.462  -0.790  1.00  0.00    -0.000 C 
BRANCH  14  15
ATOM     15  C   UNL     1      54.012  14.009   0.323  1.00  0.00    -0.003 C 
ATOM     16  C   UNL     1      55.207  13.221  -0.213  1.00  0.00     0.004 C 
ENDBRANCH  14  15
ENDBRANCH  13  14
ENDBRANCH  12  13
ENDBRANCH  11  12
ENDBRANCH  10  11
ENDBRANCH   1  10
TORSDOF 12
ENDMDL
MODEL 3
REMARK VINA RESULT:    -5.115      4.131      5.909
REMARK INTER + INTRA:         -10.603
REMARK INTER:                  -8.524
REMARK INTRA:                  -2.079
REMARK UNBOUND:                -1.900
REMARK SMILES CCCCCCCCCCCCCC(=O)[O-]
REMARK SMILES IDX 8 1 9 2 10 3 11 4 12 5 13 6 14 7 15 8 16 9 7 10 6 11 5 12
REMARK SMILES IDX 4 13 3 14 2 15 1 16
REMARK H PARENT
REMARK Flexibility Score: inf
ROOT
ATOM      1  C   UNL     1      55.854  16.988  -0.741  1.00  0.00     0.000 C 
ENDROOT
BRANCH   1   2
ATOM      2  C   UNL     1      54.523  17.672  -1.076  1.00  0.00     0.000 C 
BRANCH   2   3
ATOM      3  C   UNL     1      53.585  16.716  -1.825  1.00  0.00     0.000 C 
BRANCH   3   4
ATOM      4  C   UNL     1      52.117  17.177  -1.809  1.00  0.00     0.000 C 
BRANCH   4   5
ATOM      5  C   UNL     1      51.825  18.393  -0.907  1.00  0.00     0.006 C 
BRANCH   5   6
ATOM      6  C   UNL     1      50.383  18.919  -0.991  1.00  0.00     0.053 C 
BRANCH   6   7
ATOM      7  C   UNL     1      49.694  18.883   0.338  1.00  0.00     0.041 C 
ATOM      8  O   UNL     1      49.941  17.957   1.155  1.00  0.00    -0.550 OA
ATOM      9  O   UNL     1      48.805  19.892   0.689  1.00  0.00    -0.550 OA
ENDBRANCH   6   7
ENDBRANCH   5   6
ENDBRANCH   4   5
ENDBRANCH   3   4
ENDBRANCH   2   3
ENDBRANCH   1   2
BRANCH   1  10
ATOM     10  C   UNL     1      56.270  17.276   0.710  1.00  0.00     0.000 C 
BRANCH  10  11
ATOM     11  C   UNL     1      55.142  17.921   1.532  1.00  0.00    -0.000 C 
BRANCH  11  12
ATOM     12  C   UNL     1      54.483  16.936   2.509  1.00  0.00    -0.000 C 
BRANCH  12  13
ATOM     13  C   UNL     1      52.994  16.757   2.186  1.00  0.00    -0.000 C 
BRANCH  13  14
ATOM     14  C   UNL     1      52.741  15.412   1.488  1.00  0.00    -0.000 C 
BRANCH  14  15
ATOM     15  C   UNL     1      53.968  14.489   1.519  1.00  0.00    -0.003 C 
ATOM     16  C   UNL     1      54.229  13.808   0.175  1.00  0.00     0.004 C 
ENDBRANCH  14  15
ENDBRANCH  13  14
ENDBRANCH  12  13
ENDBRANCH  11  12
ENDBRANCH  10  11
ENDBRANCH   1  10
TORSDOF 12
ENDMDL
MODEL 4
REMARK VINA RESULT:    -5.020      1.813      4.000
REMARK INTER + INTRA:         -10.442
REMARK INTER:                  -8.809
REMARK INTRA:                  -1.633
REMARK UNBOUND:                -1.900
REMARK SMILES CCCCCCCCCCCCCC(=O)[O-]
REMARK SMILES IDX 8 1 9 2 10 3 11 4 12 5 13 6 14 7 15 8 16 9 7 10 6 11 5 12
REMARK SMILES IDX 4 13 3 14 2 15 1 16
REMARK H PARENT
REMARK Flexibility Score: inf
ROOT
ATOM      1  C   UNL     1      52.579  15.624   1.663  1.00  0.00     0.000 C 
ENDROOT
BRANCH   1   2
ATOM      2  C   UNL     1      53.114  16.967   2.177  1.00  0.00     0.000 C 
BRANCH   2   3
ATOM      3  C   UNL     1      54.640  16.929   2.333  1.00  0.00     0.000 C 
BRANCH   3   4
ATOM      4  C   UNL     1      55.373  17.792   1.290  1.00  0.00     0.000 C 
BRANCH   4   5
ATOM      5  C   UNL     1      56.856  17.427   1.068  1.00  0.00     0.006 C 
BRANCH   5   6
ATOM      6  C   UNL     1      57.086  16.039   0.451  1.00  0.00     0.053 C 
BRANCH   6   7
ATOM      7  C   UNL     1      58.467  15.526   0.721  1.00  0.00     0.041 C 
ATOM      8  O   UNL     1      58.659  14.296   0.912  1.00  0.00    -0.550 OA
ATOM      9  O   UNL     1      59.546  16.400   0.728  1.00  0.00    -0.550 OA
ENDBRANCH   6   7
ENDBRANCH   5   6
ENDBRANCH   4   5
ENDBRANCH   3   4
ENDBRANCH   2   3
ENDBRANCH   1   2
BRANCH   1  10
ATOM     10  C   UNL     1      53.708  14.782   1.050  1.00  0.00     0.000 C 
BRANCH  10  11
ATOM     11  C   UNL     1      53.468  14.460  -0.434  1.00  0.00    -0.000 C 
BRANCH  11  12
ATOM     12  C   UNL     1      53.944  15.582  -1.369  1.00  0.00    -0.000 C 
BRANCH  12  13
ATOM     13  C   UNL     1      52.754  16.306  -2.008  1.00  0.00    -0.000 C 
BRANCH  13  14
ATOM     14  C   UNL     1      52.570  17.705  -1.402  1.00  0.00    -0.000 C 
BRANCH  14  15
ATOM     15  C   UNL     1      51.150  18.257  -1.606  1.00  0.00    -0.003 C 
ATOM     16  C   UNL     1      50.428  18.530  -0.286  1.00  0.00     0.004 C 
ENDBRANCH  14  15
ENDBRANCH  13  14
ENDBRANCH  12  13
ENDBRANCH  11  12
ENDBRANCH  10  11
ENDBRANCH   1  10
TORSDOF 12
ENDMDL
MODEL 5
REMARK VINA RESULT:    -5.007      4.191      5.906
REMARK INTER + INTRA:         -10.419
REMARK INTER:                  -8.350
REMARK INTRA:                  -2.069
REMARK UNBOUND:                -1.900
REMARK SMILES CCCCCCCCCCCCCC(=O)[O-]
REMARK SMILES IDX 8 1 9 2 10 3 11 4 12 5 13 6 14 7 15 8 16 9 7 10 6 11 5 12
REMARK SMILES IDX 4 13 3 14 2 15 1 16
REMARK H PARENT
REMARK Flexibility Score: inf
ROOT
ATOM      1  C   UNL     1      54.030  13.972   0.039  1.00  0.00     0.000 C 
ENDROOT
BRANCH   1   2
ATOM      2  C   UNL     1      53.040  14.694  -0.884  1.00  0.00     0.000 C 
BRANCH   2   3
ATOM      3  C   UNL     1      53.778  15.589  -1.890  1.00  0.00     0.000 C 
BRANCH   3   4
ATOM      4  C   UNL     1      53.279  17.045  -1.879  1.00  0.00     0.000 C 
BRANCH   4   5
ATOM      5  C   UNL     1      51.758  17.212  -1.676  1.00  0.00     0.006 C 
BRANCH   5   6
ATOM      6  C   UNL     1      51.364  18.312  -0.679  1.00  0.00     0.053 C 
BRANCH   6   7
ATOM      7  C   UNL     1      49.900  18.621  -0.733  1.00  0.00     0.041 C 
ATOM      8  O   UNL     1      49.311  19.077   0.283  1.00  0.00    -0.550 OA
ATOM      9  O   UNL     1      49.192  18.439  -1.914  1.00  0.00    -0.550 OA
ENDBRANCH   6   7
ENDBRANCH   5   6
ENDBRANCH   4   5
ENDBRANCH   3   4
ENDBRANCH   2   3
ENDBRANCH   1   2
BRANCH   1  10
ATOM     10  C   UNL     1      53.900  14.473   1.485  1.00  0.00     0.000 C 
BRANCH  10  11
ATOM     11  C   UNL     1      52.892  15.626   1.623  1.00  0.00    -0.000 C 
BRANCH  11  12
ATOM     12  C   UNL     1      53.458  16.817   2.411  1.00  0.00    -0.000 C 
BRANCH  12  13
ATOM     13  C   UNL     1      54.274  17.740   1.499  1.00  0.00    -0.000 C 
BRANCH  13  14
ATOM     14  C   UNL     1      55.778  17.456   1.632  1.00  0.00    -0.000 C 
BRANCH  14  15
ATOM     15  C   UNL     1      56.420  17.034   0.301  1.00  0.00    -0.003 C 
ATOM     16  C   UNL     1      57.369  15.846   0.454  1.00  0.00     0.004 C 
ENDBRANCH  14  15
ENDBRANCH  13  14
ENDBRANCH  12  13
ENDBRANCH  11  12
ENDBRANCH  10  11
ENDBRANCH   1  10
TORSDOF 12
ENDMDL
MODEL 6
REMARK VINA RESULT:    -4.980      1.491      3.962
REMARK INTER + INTRA:         -10.374
REMARK INTER:                  -8.635
REMARK INTRA:                  -1.739
REMARK UNBOUND:                -1.900
REMARK SMILES CCCCCCCCCCCCCC(=O)[O-]
REMARK SMILES IDX 8 1 9 2 10 3 11 4 12 5 13 6 14 7 15 8 16 9 7 10 6 11 5 12
REMARK SMILES IDX 4 13 3 14 2 15 1 16
REMARK H PARENT
REMARK Flexibility Score: inf
ROOT
ATOM      1  C   UNL     1      52.450  16.957   1.598  1.00  0.00     0.000 C 
ENDROOT
BRANCH   1   2
ATOM      2  C   UNL     1      53.606  17.768   2.198  1.00  0.00     0.000 C 
BRANCH   2   3
ATOM      3  C   UNL     1      54.927  16.991   2.109  1.00  0.00     0.000 C 
BRANCH   3   4
ATOM      4  C   UNL     1      55.830  17.470   0.958  1.00  0.00     0.000 C 
BRANCH   4   5
ATOM      5  C   UNL     1      56.759  16.391   0.365  1.00  0.00     0.006 C 
BRANCH   5   6
ATOM      6  C   UNL     1      58.171  16.361   0.970  1.00  0.00     0.053 C 
BRANCH   6   7
ATOM      7  C   UNL     1      58.920  15.122   0.589  1.00  0.00     0.041 C 
ATOM      8  O   UNL     1      58.408  14.294  -0.211  1.00  0.00    -0.550 OA
ATOM      9  O   UNL     1      60.196  14.897   1.090  1.00  0.00    -0.550 OA
ENDBRANCH   6   7
ENDBRANCH   5   6
ENDBRANCH   4   5
ENDBRANCH   3   4
ENDBRANCH   2   3
ENDBRANCH   1   2
BRANCH   1  10
ATOM     10  C   UNL     1      51.747  17.746   0.482  1.00  0.00     0.000 C 
BRANCH  10  11
ATOM     11  C   UNL     1      52.634  17.931  -0.761  1.00  0.00    -0.000 C 
BRANCH  11  12
ATOM     12  C   UNL     1      52.467  16.797  -1.783  1.00  0.00    -0.000 C 
BRANCH  12  13
ATOM     13  C   UNL     1      53.650  15.823  -1.720  1.00  0.00    -0.000 C 
BRANCH  13  14
ATOM     14  C   UNL     1      53.213  14.462  -1.158  1.00  0.00    -0.000 C 
BRANCH  14  15
ATOM     15  C   UNL     1      54.026  14.043   0.076  1.00  0.00    -0.003 C 
ATOM     16  C   UNL     1      55.101  13.005  -0.250  1.00  0.00     0.004 C 
ENDBRANCH  14  15
ENDBRANCH  13  14
ENDBRANCH  12  13
ENDBRANCH  11  12
ENDBRANCH  10  11
ENDBRANCH   1  10
TORSDOF 12
ENDMDL
MODEL 7
REMARK VINA RESULT:    -4.969      4.094      5.614
REMARK INTER + INTRA:         -10.354
REMARK INTER:                  -8.814
REMARK INTRA:                  -1.540
REMARK UNBOUND:                -1.900
REMARK SMILES CCCCCCCCCCCCCC(=O)[O-]
REMARK SMILES IDX 8 1 9 2 10 3 11 4 12 5 13 6 14 7 15 8 16 9 7 10 6 11 5 12
REMARK SMILES IDX 4 13 3 14 2 15 1 16
REMARK H PARENT
REMARK Flexibility Score: inf
ROOT
ATOM      1  C   UNL     1      54.066  14.467   0.224  1.00  0.00     0.000 C 
ENDROOT
BRANCH   1   2
ATOM      2  C   UNL     1      53.287  14.227  -1.076  1.00  0.00     0.000 C 
BRANCH   2   3
ATOM      3  C   UNL     1      53.291  15.481  -1.961  1.00  0.00     0.000 C 
BRANCH   3   4
ATOM      4  C   UNL     1      52.844  16.748  -1.210  1.00  0.00     0.000 C 
BRANCH   4   5
ATOM      5  C   UNL     1      51.791  17.604  -1.945  1.00  0.00     0.006 C 
BRANCH   5   6
ATOM      6  C   UNL     1      51.350  18.864  -1.183  1.00  0.00     0.053 C 
BRANCH   6   7
ATOM      7  C   UNL     1      49.929  18.771  -0.720  1.00  0.00     0.041 C 
ATOM      8  O   UNL     1      49.672  18.571   0.497  1.00  0.00    -0.550 OA
ATOM      9  O   UNL     1      48.888  18.939  -1.624  1.00  0.00    -0.550 OA
ENDBRANCH   6   7
ENDBRANCH   5   6
ENDBRANCH   4   5
ENDBRANCH   3   4
ENDBRANCH   2   3
ENDBRANCH   1   2
BRANCH   1  10
ATOM     10  C   UNL     1      55.428  13.759   0.188  1.00  0.00     0.000 C 
BRANCH  10  11
ATOM     11  C   UNL     1      56.606  14.729   0.379  1.00  0.00    -0.000 C 
BRANCH  11  12
ATOM     12  C   UNL     1      56.268  16.163  -0.055  1.00  0.00    -0.000 C 
BRANCH  12  13
ATOM     13  C   UNL     1      56.527  17.157   1.084  1.00  0.00    -0.000 C 
BRANCH  13  14
ATOM     14  C   UNL     1      55.243  17.912   1.459  1.00  0.00    -0.000 C 
BRANCH  14  15
ATOM     15  C   UNL     1      54.420  17.184   2.534  1.00  0.00    -0.003 C 
ATOM     16  C   UNL     1      52.927  17.501   2.449  1.00  0.00     0.004 C 
ENDBRANCH  14  15
ENDBRANCH  13  14
ENDBRANCH  12  13
ENDBRANCH  11  12
ENDBRANCH  10  11
ENDBRANCH   1  10
TORSDOF 12
ENDMDL
MODEL 8
REMARK VINA RESULT:    -4.964      4.113      5.892
REMARK INTER + INTRA:         -10.346
REMARK INTER:                  -8.490
REMARK INTRA:                  -1.856
REMARK UNBOUND:                -1.900
REMARK SMILES CCCCCCCCCCCCCC(=O)[O-]
REMARK SMILES IDX 8 1 9 2 10 3 11 4 12 5 13 6 14 7 15 8 16 9 7 10 6 11 5 12
REMARK SMILES IDX 4 13 3 14 2 15 1 16
REMARK H PARENT
REMARK Flexibility Score: inf
ROOT
ATOM      1  C   UNL     1      53.935  14.019  -0.160  1.00  0.00     0.000 C 
ENDROOT
BRANCH   1   2
ATOM      2  C   UNL     1      53.945  14.431   1.318  1.00  0.00     0.000 C 
BRANCH   2   3
ATOM      3  C   UNL     1      52.789  15.391   1.630  1.00  0.00     0.000 C 
BRANCH   3   4
ATOM      4  C   UNL     1      53.238  16.642   2.405  1.00  0.00     0.000 C 
BRANCH   4   5
ATOM      5  C   UNL     1      52.267  17.839   2.333  1.00  0.00     0.006 C 
BRANCH   5   6
ATOM      6  C   UNL     1      51.355  17.846   1.096  1.00  0.00     0.053 C 
BRANCH   6   7
ATOM      7  C   UNL     1      50.378  18.981   1.126  1.00  0.00     0.041 C 
ATOM      8  O   UNL     1      49.612  19.182   0.146  1.00  0.00    -0.550 OA
ATOM      9  O   UNL     1      50.289  19.795   2.248  1.00  0.00    -0.550 OA
ENDBRANCH   6   7
ENDBRANCH   5   6
ENDBRANCH   4   5
ENDBRANCH   3   4
ENDBRANCH   2   3
ENDBRANCH   1   2
BRANCH   1  10
ATOM     10  C   UNL     1      52.952  14.883  -0.965  1.00  0.00     0.000 C 
BRANCH  10  11
ATOM     11  C   UNL     1      53.663  15.834  -1.941  1.00  0.00    -0.000 C 
BRANCH  11  12
ATOM     12  C   UNL     1      53.920  17.222  -1.335  1.00  0.00    -0.000 C 
BRANCH  12  13
ATOM     13  C   UNL     1      55.414  17.431  -1.057  1.00  0.00    -0.000 C 
BRANCH  13  14
ATOM     14  C   UNL     1      55.689  17.491   0.453  1.00  0.00    -0.000 C 
BRANCH  14  15
ATOM     15  C   UNL     1      57.082  16.958   0.822  1.00  0.00    -0.003 C 
ATOM     16  C   UNL     1      57.338  15.552   0.278  1.00  0.00     0.004 C 
ENDBRANCH  14  15
ENDBRANCH  13  14
ENDBRANCH  12  13
ENDBRANCH  11  12
ENDBRANCH  10  11
ENDBRANCH   1  10
TORSDOF 12
ENDMDL
MODEL 9
REMARK VINA RESULT:    -4.866      4.359      6.438
REMARK INTER + INTRA:         -10.179
REMARK INTER:                  -8.751
REMARK INTRA:                  -1.428
REMARK UNBOUND:                -1.900
REMARK SMILES CCCCCCCCCCCCCC(=O)[O-]
REMARK SMILES IDX 8 1 9 2 10 3 11 4 12 5 13 6 14 7 15 8 16 9 7 10 6 11 5 12
REMARK SMILES IDX 4 13 3 14 2 15 1 16
REMARK H PARENT
REMARK Flexibility Score: inf
ROOT
ATOM      1  C   UNL     1      54.192  16.925   2.301  1.00  0.00     0.000 C 
ENDROOT
BRANCH   1   2
ATOM      2  C   UNL     1      52.897  17.660   2.667  1.00  0.00     0.000 C 
BRANCH   2   3
ATOM      3  C   UNL     1      51.770  17.312   1.684  1.00  0.00     0.000 C 
BRANCH   3   4
ATOM      4  C   UNL     1      50.511  18.173   1.883  1.00  0.00     0.000 C 
BRANCH   4   5
ATOM      5  C   UNL     1      49.740  18.511   0.590  1.00  0.00     0.006 C 
BRANCH   5   6
ATOM      6  C   UNL     1      50.612  19.067  -0.546  1.00  0.00     0.053 C 
BRANCH   6   7
ATOM      7  C   UNL     1      49.893  19.063  -1.860  1.00  0.00     0.041 C 
ATOM      8  O   UNL     1      50.431  18.544  -2.874  1.00  0.00    -0.550 OA
ATOM      9  O   UNL     1      48.616  19.599  -1.957  1.00  0.00    -0.550 OA
ENDBRANCH   6   7
ENDBRANCH   5   6
ENDBRANCH   4   5
ENDBRANCH   3   4
ENDBRANCH   2   3
ENDBRANCH   1   2
BRANCH   1  10
ATOM     10  C   UNL     1      55.116  17.823   1.464  1.00  0.00     0.000 C 
BRANCH  10  11
ATOM     11  C   UNL     1      56.023  17.020   0.517  1.00  0.00    -0.000 C 
BRANCH  11  12
ATOM     12  C   UNL     1      55.581  17.116  -0.951  1.00  0.00    -0.000 C 
BRANCH  12  13
ATOM     13  C   UNL     1      54.202  17.777  -1.066  1.00  0.00    -0.000 C 
BRANCH  13  14
ATOM     14  C   UNL     1      53.152  16.775  -1.570  1.00  0.00    -0.000 C 
BRANCH  14  15
ATOM     15  C   UNL     1      53.735  15.371  -1.797  1.00  0.00    -0.003 C 
ATOM     16  C   UNL     1      53.316  14.377  -0.713  1.00  0.00     0.004 C 
ENDBRANCH  14  15
ENDBRANCH  13  14
ENDBRANCH  12  13
ENDBRANCH  11  12
ENDBRANCH  10  11
ENDBRANCH   1  10
TORSDOF 12
ENDMDL
