MODEL 1
REMARK VINA RESULT:    -4.263      0.000      0.000
REMARK INTER + INTRA:          -7.527
REMARK INTER:                  -6.257
REMARK INTRA:                  -1.269
REMARK UNBOUND:                -1.269
REMARK SMILES CCCOC(=O)c1ccccc1C(=O)OCCC
REMARK SMILES IDX 7 1 8 2 9 3 10 4 11 5 12 6 5 7 6 8 4 9 3 10 2 11 1 12 13 13
REMARK SMILES IDX 14 14 15 15 16 16 17 17 18 18
REMARK H PARENT
REMARK Flexibility Score: inf
ROOT
ATOM      1  C   UNL     1     -11.453   0.098  -2.704  1.00  0.00     0.074 A 
ATOM      2  C   UNL     1     -12.032   1.222  -2.090  1.00  0.00     0.016 A 
ATOM      3  C   UNL     1     -11.386   2.459  -2.110  1.00  0.00     0.001 A 
ATOM      4  C   UNL     1     -10.153   2.592  -2.744  1.00  0.00     0.001 A 
ATOM      5  C   UNL     1      -9.571   1.495  -3.379  1.00  0.00     0.016 A 
ATOM      6  C   UNL     1     -10.214   0.244  -3.389  1.00  0.00     0.074 A 
ENDROOT
BRANCH   1   7
ATOM      7  C   UNL     1     -12.137  -1.205  -2.552  1.00  0.00     0.339 C 
ATOM      8  O   UNL     1     -12.856  -1.659  -3.485  1.00  0.00    -0.246 OA
BRANCH   7   9
ATOM      9  O   UNL     1     -11.932  -1.959  -1.389  1.00  0.00    -0.462 OA
BRANCH   9  10
ATOM     10  C   UNL     1     -12.544  -3.226  -1.156  1.00  0.00     0.233 C 
BRANCH  10  11
ATOM     11  C   UNL     1     -11.493  -4.263  -0.750  1.00  0.00     0.038 C 
ATOM     12  C   UNL     1     -11.147  -4.148   0.730  1.00  0.00     0.007 C 
ENDBRANCH  10  11
ENDBRANCH   9  10
ENDBRANCH   7   9
ENDBRANCH   1   7
BRANCH   6  13
ATOM     13  C   UNL     1      -9.595  -0.844  -4.180  1.00  0.00     0.339 C 
ATOM     14  O   UNL     1     -10.005  -1.094  -5.347  1.00  0.00    -0.246 OA
BRANCH  13  15
ATOM     15  O   UNL     1      -8.518  -1.558  -3.640  1.00  0.00    -0.462 OA
BRANCH  15  16
ATOM     16  C   UNL     1      -8.581  -2.286  -2.414  1.00  0.00     0.233 C 
BRANCH  16  17
ATOM     17  C   UNL     1      -7.913  -1.507  -1.276  1.00  0.00     0.038 C 
ATOM     18  C   UNL     1      -8.882  -1.171  -0.146  1.00  0.00     0.007 C 
ENDBRANCH  16  17
ENDBRANCH  15  16
ENDBRANCH  13  15
ENDBRANCH   6  13
TORSDOF 8
ENDMDL
MODEL 2
REMARK VINA RESULT:    -4.214      1.320      2.265
REMARK INTER + INTRA:          -7.454
REMARK INTER:                  -6.173
REMARK INTRA:                  -1.281
REMARK UNBOUND:                -1.269
REMARK SMILES CCCOC(=O)c1ccccc1C(=O)OCCC
REMARK SMILES IDX 7 1 8 2 9 3 10 4 11 5 12 6 5 7 6 8 4 9 3 10 2 11 1 12 13 13
REMARK SMILES IDX 14 14 15 15 16 16 17 17 18 18
REMARK H PARENT
REMARK Flexibility Score: inf
ROOT
ATOM      1  C   UNL     1     -11.618  -0.175  -1.897  1.00  0.00     0.074 A 
ATOM      2  C   UNL     1     -12.256   1.067  -2.053  1.00  0.00     0.016 A 
ATOM      3  C   UNL     1     -11.588   2.256  -1.756  1.00  0.00     0.001 A 
ATOM      4  C   UNL     1     -10.272   2.222  -1.300  1.00  0.00     0.001 A 
ATOM      5  C   UNL     1      -9.612   1.002  -1.160  1.00  0.00     0.016 A 
ATOM      6  C   UNL     1     -10.260  -0.208  -1.473  1.00  0.00     0.074 A 
ENDROOT
BRANCH   1   7
ATOM      7  C   UNL     1     -12.418  -1.399  -2.124  1.00  0.00     0.339 C 
ATOM      8  O   UNL     1     -12.708  -1.760  -3.298  1.00  0.00    -0.246 OA
BRANCH   7   9
ATOM      9  O   UNL     1     -12.797  -2.187  -1.029  1.00  0.00    -0.462 OA
BRANCH   9  10
ATOM     10  C   UNL     1     -12.963  -3.602  -1.100  1.00  0.00     0.233 C 
BRANCH  10  11
ATOM     11  C   UNL     1     -11.644  -4.313  -0.786  1.00  0.00     0.038 C 
ATOM     12  C   UNL     1     -11.301  -4.210   0.697  1.00  0.00     0.007 C 
ENDBRANCH  10  11
ENDBRANCH   9  10
ENDBRANCH   7   9
ENDBRANCH   1   7
BRANCH   6  13
ATOM     13  C   UNL     1      -9.463  -1.454  -1.412  1.00  0.00     0.339 C 
ATOM     14  O   UNL     1      -8.988  -1.852  -0.313  1.00  0.00    -0.246 OA
BRANCH  13  15
ATOM     15  O   UNL     1      -9.287  -2.214  -2.575  1.00  0.00    -0.462 OA
BRANCH  15  16
ATOM     16  C   UNL     1      -8.565  -1.761  -3.719  1.00  0.00     0.233 C 
BRANCH  16  17
ATOM     17  C   UNL     1      -9.497  -1.076  -4.724  1.00  0.00     0.038 C 
ATOM     18  C   UNL     1      -9.240   0.424  -4.834  1.00  0.00     0.007 C 
ENDBRANCH  16  17
ENDBRANCH  15  16
ENDBRANCH  13  15
ENDBRANCH   6  13
TORSDOF 8
ENDMDL
MODEL 3
REMARK VINA RESULT:    -4.173      1.647      3.685
REMARK INTER + INTRA:          -7.394
REMARK INTER:                  -6.121
REMARK INTRA:                  -1.274
REMARK UNBOUND:                -1.269
REMARK SMILES CCCOC(=O)c1ccccc1C(=O)OCCC
REMARK SMILES IDX 7 1 8 2 9 3 10 4 11 5 12 6 5 7 6 8 4 9 3 10 2 11 1 12 13 13
REMARK SMILES IDX 14 14 15 15 16 16 17 17 18 18
REMARK H PARENT
REMARK Flexibility Score: inf
ROOT
ATOM      1  C   UNL     1      -9.785  -1.761  -2.195  1.00  0.00     0.074 A 
ATOM      2  C   UNL     1      -8.398  -1.837  -2.406  1.00  0.00     0.016 A 
ATOM      3  C   UNL     1      -7.827  -1.353  -3.584  1.00  0.00     0.001 A 
ATOM      4  C   UNL     1      -8.632  -0.784  -4.567  1.00  0.00     0.001 A 
ATOM      5  C   UNL     1     -10.008  -0.677  -4.369  1.00  0.00     0.016 A 
ATOM      6  C   UNL     1     -10.603  -1.140  -3.180  1.00  0.00     0.074 A 
ENDROOT
BRANCH   1   7
ATOM      7  C   UNL     1     -10.337  -2.391  -0.975  1.00  0.00     0.339 C 
ATOM      8  O   UNL     1     -10.355  -1.757   0.116  1.00  0.00    -0.246 OA
BRANCH   7   9
ATOM      9  O   UNL     1     -10.894  -3.674  -1.055  1.00  0.00    -0.462 OA
BRANCH   9  10
ATOM     10  C   UNL     1     -11.973  -4.114  -0.233  1.00  0.00     0.233 C 
BRANCH  10  11
ATOM     11  C   UNL     1     -13.316  -3.816  -0.905  1.00  0.00     0.038 C 
ATOM     12  C   UNL     1     -14.025  -2.648  -0.228  1.00  0.00     0.007 C 
ENDBRANCH  10  11
ENDBRANCH   9  10
ENDBRANCH   7   9
ENDBRANCH   1   7
BRANCH   6  13
ATOM     13  C   UNL     1     -12.049  -0.889  -2.988  1.00  0.00     0.339 C 
ATOM     14  O   UNL     1     -12.902  -1.673  -3.488  1.00  0.00    -0.246 OA
BRANCH  13  15
ATOM     15  O   UNL     1     -12.460   0.195  -2.202  1.00  0.00    -0.462 OA
BRANCH  15  16
ATOM     16  C   UNL     1     -11.566   1.159  -1.648  1.00  0.00     0.233 C 
BRANCH  16  17
ATOM     17  C   UNL     1     -11.380   2.348  -2.595  1.00  0.00     0.038 C 
ATOM     18  C   UNL     1      -9.910   2.696  -2.819  1.00  0.00     0.007 C 
ENDBRANCH  16  17
ENDBRANCH  15  16
ENDBRANCH  13  15
ENDBRANCH   6  13
TORSDOF 8
ENDMDL
MODEL 4
REMARK VINA RESULT:    -4.162      1.648      4.410
REMARK INTER + INTRA:          -7.378
REMARK INTER:                  -6.136
REMARK INTRA:                  -1.242
REMARK UNBOUND:                -1.269
REMARK SMILES CCCOC(=O)c1ccccc1C(=O)OCCC
REMARK SMILES IDX 7 1 8 2 9 3 10 4 11 5 12 6 5 7 6 8 4 9 3 10 2 11 1 12 13 13
REMARK SMILES IDX 14 14 15 15 16 16 17 17 18 18
REMARK H PARENT
REMARK Flexibility Score: inf
ROOT
ATOM      1  C   UNL     1     -10.577  -1.151  -3.155  1.00  0.00     0.074 A 
ATOM      2  C   UNL     1     -10.035  -0.654  -4.353  1.00  0.00     0.016 A 
ATOM      3  C   UNL     1      -8.660  -0.703  -4.589  1.00  0.00     0.001 A 
ATOM      4  C   UNL     1      -7.807  -1.248  -3.634  1.00  0.00     0.001 A 
ATOM      5  C   UNL     1      -8.325  -1.767  -2.448  1.00  0.00     0.016 A 
ATOM      6  C   UNL     1      -9.710  -1.748  -2.198  1.00  0.00     0.074 A 
ENDROOT
BRANCH   1   7
ATOM      7  C   UNL     1     -12.027  -0.969  -2.922  1.00  0.00     0.339 C 
ATOM      8  O   UNL     1     -12.866  -1.647  -3.576  1.00  0.00    -0.246 OA
BRANCH   7   9
ATOM      9  O   UNL     1     -12.458  -0.082  -1.927  1.00  0.00    -0.462 OA
BRANCH   9  10
ATOM     10  C   UNL     1     -12.676   1.309  -2.156  1.00  0.00     0.233 C 
BRANCH  10  11
ATOM     11  C   UNL     1     -11.401   2.107  -1.868  1.00  0.00     0.038 C 
ATOM     12  C   UNL     1     -10.873   2.777  -3.131  1.00  0.00     0.007 C 
ENDBRANCH  10  11
ENDBRANCH   9  10
ENDBRANCH   7   9
ENDBRANCH   1   7
BRANCH   6  13
ATOM     13  C   UNL     1     -10.201  -2.419  -0.973  1.00  0.00     0.339 C 
ATOM     14  O   UNL     1     -10.222  -1.800   0.127  1.00  0.00    -0.246 OA
BRANCH  13  15
ATOM     15  O   UNL     1     -10.689  -3.729  -1.056  1.00  0.00    -0.462 OA
BRANCH  15  16
ATOM     16  C   UNL     1     -11.802  -4.212  -0.306  1.00  0.00     0.233 C 
BRANCH  16  17
ATOM     17  C   UNL     1     -13.120  -3.948  -1.042  1.00  0.00     0.038 C 
ATOM     18  C   UNL     1     -14.011  -2.949  -0.308  1.00  0.00     0.007 C 
ENDBRANCH  16  17
ENDBRANCH  15  16
ENDBRANCH  13  15
ENDBRANCH   6  13
TORSDOF 8
ENDMDL
MODEL 5
REMARK VINA RESULT:    -4.124      0.526      3.419
REMARK INTER + INTRA:          -7.323
REMARK INTER:                  -6.009
REMARK INTRA:                  -1.313
REMARK UNBOUND:                -1.269
REMARK SMILES CCCOC(=O)c1ccccc1C(=O)OCCC
REMARK SMILES IDX 7 1 8 2 9 3 10 4 11 5 12 6 5 7 6 8 4 9 3 10 2 11 1 12 13 13
REMARK SMILES IDX 14 14 15 15 16 16 17 17 18 18
REMARK H PARENT
REMARK Flexibility Score: inf
ROOT
ATOM      1  C   UNL     1     -10.076   0.228  -3.089  1.00  0.00     0.074 A 
ATOM      2  C   UNL     1      -9.440   1.482  -3.075  1.00  0.00     0.016 A 
ATOM      3  C   UNL     1     -10.132   2.628  -2.682  1.00  0.00     0.001 A 
ATOM      4  C   UNL     1     -11.467   2.540  -2.297  1.00  0.00     0.001 A 
ATOM      5  C   UNL     1     -12.111   1.303  -2.282  1.00  0.00     0.016 A 
ATOM      6  C   UNL     1     -11.427   0.131  -2.654  1.00  0.00     0.074 A 
ENDROOT
BRANCH   1   7
ATOM      7  C   UNL     1      -9.318  -0.927  -3.621  1.00  0.00     0.339 C 
ATOM      8  O   UNL     1      -9.193  -1.087  -4.866  1.00  0.00    -0.246 OA
BRANCH   7   9
ATOM      9  O   UNL     1      -8.691  -1.807  -2.729  1.00  0.00    -0.462 OA
BRANCH   9  10
ATOM     10  C   UNL     1      -7.930  -1.374  -1.603  1.00  0.00     0.233 C 
BRANCH  10  11
ATOM     11  C   UNL     1      -8.663  -1.707  -0.301  1.00  0.00     0.038 C 
ATOM     12  C   UNL     1      -9.204  -0.446   0.366  1.00  0.00     0.007 C 
ENDBRANCH  10  11
ENDBRANCH   9  10
ENDBRANCH   7   9
ENDBRANCH   1   7
BRANCH   6  13
ATOM     13  C   UNL     1     -12.136  -1.160  -2.504  1.00  0.00     0.339 C 
ATOM     14  O   UNL     1     -12.816  -1.627  -3.458  1.00  0.00    -0.246 OA
BRANCH  13  15
ATOM     15  O   UNL     1     -12.001  -1.882  -1.312  1.00  0.00    -0.462 OA
BRANCH  15  16
ATOM     16  C   UNL     1     -12.558  -3.179  -1.101  1.00  0.00     0.233 C 
BRANCH  16  17
ATOM     17  C   UNL     1     -11.471  -4.192  -0.726  1.00  0.00     0.038 C 
ATOM     18  C   UNL     1     -11.178  -4.210   0.773  1.00  0.00     0.007 C 
ENDBRANCH  16  17
ENDBRANCH  15  16
ENDBRANCH  13  15
ENDBRANCH   6  13
TORSDOF 8
ENDMDL
MODEL 6
REMARK VINA RESULT:    -4.104     10.504     12.561
REMARK INTER + INTRA:          -7.292
REMARK INTER:                  -5.997
REMARK INTRA:                  -1.295
REMARK UNBOUND:                -1.269
REMARK SMILES CCCOC(=O)c1ccccc1C(=O)OCCC
REMARK SMILES IDX 7 1 8 2 9 3 10 4 11 5 12 6 5 7 6 8 4 9 3 10 2 11 1 12 13 13
REMARK SMILES IDX 14 14 15 15 16 16 17 17 18 18
REMARK H PARENT
REMARK Flexibility Score: inf
ROOT
ATOM      1  C   UNL     1      -7.330 -11.388  -4.536  1.00  0.00     0.074 A 
ATOM      2  C   UNL     1      -6.824 -10.125  -4.182  1.00  0.00     0.016 A 
ATOM      3  C   UNL     1      -6.329  -9.888  -2.899  1.00  0.00     0.001 A 
ATOM      4  C   UNL     1      -6.330 -10.909  -1.952  1.00  0.00     0.001 A 
ATOM      5  C   UNL     1      -6.806 -12.176  -2.288  1.00  0.00     0.016 A 
ATOM      6  C   UNL     1      -7.291 -12.442  -3.582  1.00  0.00     0.074 A 
ENDROOT
BRANCH   1   7
ATOM      7  C   UNL     1      -7.939 -11.539  -5.876  1.00  0.00     0.339 C 
ATOM      8  O   UNL     1      -7.216 -11.792  -6.879  1.00  0.00    -0.246 OA
BRANCH   7   9
ATOM      9  O   UNL     1      -9.332 -11.461  -6.012  1.00  0.00    -0.462 OA
BRANCH   9  10
ATOM     10  C   UNL     1     -10.134 -12.532  -6.506  1.00  0.00     0.233 C 
BRANCH  10  11
ATOM     11  C   UNL     1     -11.414 -11.992  -7.149  1.00  0.00     0.038 C 
ATOM     12  C   UNL     1     -11.264 -10.521  -7.525  1.00  0.00     0.007 C 
ENDBRANCH  10  11
ENDBRANCH   9  10
ENDBRANCH   7   9
ENDBRANCH   1   7
BRANCH   6  13
ATOM     13  C   UNL     1      -7.671 -13.837  -3.903  1.00  0.00     0.339 C 
ATOM     14  O   UNL     1      -8.782 -14.297  -3.520  1.00  0.00    -0.246 OA
BRANCH  13  15
ATOM     15  O   UNL     1      -6.811 -14.621  -4.681  1.00  0.00    -0.462 OA
BRANCH  15  16
ATOM     16  C   UNL     1      -5.401 -14.699  -4.474  1.00  0.00     0.233 C 
BRANCH  16  17
ATOM     17  C   UNL     1      -4.645 -13.848  -5.499  1.00  0.00     0.038 C 
ATOM     18  C   UNL     1      -3.875 -12.698  -4.854  1.00  0.00     0.007 C 
ENDBRANCH  16  17
ENDBRANCH  15  16
ENDBRANCH  13  15
ENDBRANCH   6  13
TORSDOF 8
ENDMDL
MODEL 7
REMARK VINA RESULT:    -4.079      4.380      7.363
REMARK INTER + INTRA:          -7.256
REMARK INTER:                  -5.815
REMARK INTRA:                  -1.441
REMARK UNBOUND:                -1.269
REMARK SMILES CCCOC(=O)c1ccccc1C(=O)OCCC
REMARK SMILES IDX 7 1 8 2 9 3 10 4 11 5 12 6 5 7 6 8 4 9 3 10 2 11 1 12 13 13
REMARK SMILES IDX 14 14 15 15 16 16 17 17 18 18
REMARK H PARENT
REMARK Flexibility Score: inf
ROOT
ATOM      1  C   UNL     1     -12.485  -4.826   3.182  1.00  0.00     0.074 A 
ATOM      2  C   UNL     1     -13.479  -5.624   3.774  1.00  0.00     0.016 A 
ATOM      3  C   UNL     1     -14.824  -5.453   3.442  1.00  0.00     0.001 A 
ATOM      4  C   UNL     1     -15.196  -4.483   2.514  1.00  0.00     0.001 A 
ATOM      5  C   UNL     1     -14.224  -3.695   1.898  1.00  0.00     0.016 A 
ATOM      6  C   UNL     1     -12.861  -3.865   2.202  1.00  0.00     0.074 A 
ENDROOT
BRANCH   1   7
ATOM      7  C   UNL     1     -11.094  -4.985   3.659  1.00  0.00     0.339 C 
ATOM      8  O   UNL     1     -10.280  -5.706   3.018  1.00  0.00    -0.246 OA
BRANCH   7   9
ATOM      9  O   UNL     1     -10.669  -4.279   4.793  1.00  0.00    -0.462 OA
BRANCH   9  10
ATOM     10  C   UNL     1     -11.109  -2.958   5.105  1.00  0.00     0.233 C 
BRANCH  10  11
ATOM     11  C   UNL     1     -11.998  -2.970   6.352  1.00  0.00     0.038 C 
ATOM     12  C   UNL     1     -13.445  -2.639   6.002  1.00  0.00     0.007 C 
ENDBRANCH  10  11
ENDBRANCH   9  10
ENDBRANCH   7   9
ENDBRANCH   1   7
BRANCH   6  13
ATOM     13  C   UNL     1     -11.876  -3.076   1.426  1.00  0.00     0.339 C 
ATOM     14  O   UNL     1     -11.660  -1.867   1.716  1.00  0.00    -0.246 OA
BRANCH  13  15
ATOM     15  O   UNL     1     -11.150  -3.699   0.404  1.00  0.00    -0.462 OA
BRANCH  15  16
ATOM     16  C   UNL     1     -11.743  -4.246  -0.773  1.00  0.00     0.233 C 
BRANCH  16  17
ATOM     17  C   UNL     1     -12.584  -3.196  -1.507  1.00  0.00     0.038 C 
ATOM     18  C   UNL     1     -13.994  -3.689  -1.822  1.00  0.00     0.007 C 
ENDBRANCH  16  17
ENDBRANCH  15  16
ENDBRANCH  13  15
ENDBRANCH   6  13
TORSDOF 8
ENDMDL
MODEL 8
REMARK VINA RESULT:    -4.073      1.900      4.436
REMARK INTER + INTRA:          -7.248
REMARK INTER:                  -5.963
REMARK INTRA:                  -1.285
REMARK UNBOUND:                -1.269
REMARK SMILES CCCOC(=O)c1ccccc1C(=O)OCCC
REMARK SMILES IDX 7 1 8 2 9 3 10 4 11 5 12 6 5 7 6 8 4 9 3 10 2 11 1 12 13 13
REMARK SMILES IDX 14 14 15 15 16 16 17 17 18 18
REMARK H PARENT
REMARK Flexibility Score: inf
ROOT
ATOM      1  C   UNL     1     -10.748  -2.294  -0.959  1.00  0.00     0.074 A 
ATOM      2  C   UNL     1     -11.040  -3.665  -0.854  1.00  0.00     0.016 A 
ATOM      3  C   UNL     1     -12.325  -4.143  -1.114  1.00  0.00     0.001 A 
ATOM      4  C   UNL     1     -13.337  -3.260  -1.483  1.00  0.00     0.001 A 
ATOM      5  C   UNL     1     -13.064  -1.899  -1.615  1.00  0.00     0.016 A 
ATOM      6  C   UNL     1     -11.770  -1.398  -1.378  1.00  0.00     0.074 A 
ENDROOT
BRANCH   1   7
ATOM      7  C   UNL     1      -9.396  -1.841  -0.564  1.00  0.00     0.339 C 
ATOM      8  O   UNL     1      -8.461  -1.815  -1.411  1.00  0.00    -0.246 OA
BRANCH   7   9
ATOM      9  O   UNL     1      -9.177  -1.384   0.742  1.00  0.00    -0.462 OA
BRANCH   9  10
ATOM     10  C   UNL     1      -8.855  -2.246   1.832  1.00  0.00     0.233 C 
BRANCH  10  11
ATOM     11  C   UNL     1     -10.109  -2.565   2.652  1.00  0.00     0.038 C 
ATOM     12  C   UNL     1     -10.390  -4.064   2.671  1.00  0.00     0.007 C 
ENDBRANCH  10  11
ENDBRANCH   9  10
ENDBRANCH   7   9
ENDBRANCH   1   7
BRANCH   6  13
ATOM     13  C   UNL     1     -11.525   0.037  -1.650  1.00  0.00     0.339 C 
ATOM     14  O   UNL     1     -11.662   0.890  -0.731  1.00  0.00    -0.246 OA
BRANCH  13  15
ATOM     15  O   UNL     1     -11.088   0.430  -2.921  1.00  0.00    -0.462 OA
BRANCH  15  16
ATOM     16  C   UNL     1      -9.782   0.938  -3.191  1.00  0.00     0.233 C 
BRANCH  16  17
ATOM     17  C   UNL     1      -9.181   0.278  -4.436  1.00  0.00     0.038 C 
ATOM     18  C   UNL     1      -9.786  -1.094  -4.723  1.00  0.00     0.007 C 
ENDBRANCH  16  17
ENDBRANCH  15  16
ENDBRANCH  13  15
ENDBRANCH   6  13
TORSDOF 8
ENDMDL
