MODEL 1
REMARK VINA RESULT:    -4.046      0.000      0.000
REMARK INTER + INTRA:          -4.299
REMARK INTER:                  -4.283
REMARK INTRA:                  -0.016
REMARK UNBOUND:                -0.016
REMARK SMILES O=C([O-])c1cccnc1
REMARK SMILES IDX 4 1 5 2 9 3 6 4 8 5 7 6 2 7 1 8 3 9
REMARK H PARENT
REMARK Flexibility Score: inf
ROOT
ATOM      1  C   UNL     1      30.821   4.839 -26.328  1.00  0.00     0.016 A 
ATOM      2  C   UNL     1      30.866   4.058 -25.161  1.00  0.00     0.013 A 
ATOM      3  C   UNL     1      30.834   6.237 -26.198  1.00  0.00     0.120 A 
ATOM      4  C   UNL     1      30.923   4.673 -23.908  1.00  0.00     0.021 A 
ATOM      5  N   UNL     1      30.890   6.812 -24.966  1.00  0.00    -0.264 NA
ATOM      6  C   UNL     1      30.935   6.066 -23.831  1.00  0.00     0.111 A 
ENDROOT
BRANCH   1   7
ATOM      7  C   UNL     1      30.760   4.207 -27.664  1.00  0.00     0.073 C 
ATOM      8  O   UNL     1      31.817   3.962 -28.305  1.00  0.00    -0.545 OA
ATOM      9  O   UNL     1      29.536   3.875 -28.231  1.00  0.00    -0.545 OA
ENDBRANCH   1   7
TORSDOF 1
ENDMDL
MODEL 2
REMARK VINA RESULT:    -4.027      1.653      2.091
REMARK INTER + INTRA:          -4.279
REMARK INTER:                  -4.255
REMARK INTRA:                  -0.024
REMARK UNBOUND:                -0.016
REMARK SMILES O=C([O-])c1cccnc1
REMARK SMILES IDX 4 1 5 2 9 3 6 4 8 5 7 6 2 7 1 8 3 9
REMARK H PARENT
REMARK Flexibility Score: inf
ROOT
ATOM      1  C   UNL     1      29.990   4.060 -26.238  1.00  0.00     0.016 A 
ATOM      2  C   UNL     1      31.356   4.019 -25.908  1.00  0.00     0.013 A 
ATOM      3  C   UNL     1      29.057   4.218 -25.199  1.00  0.00     0.120 A 
ATOM      4  C   UNL     1      31.759   4.134 -24.576  1.00  0.00     0.021 A 
ATOM      5  N   UNL     1      29.476   4.328 -23.910  1.00  0.00    -0.264 NA
ATOM      6  C   UNL     1      30.794   4.290 -23.581  1.00  0.00     0.111 A 
ENDROOT
BRANCH   1   7
ATOM      7  C   UNL     1      29.543   3.940 -27.641  1.00  0.00     0.073 C 
ATOM      8  O   UNL     1      28.314   3.893 -27.920  1.00  0.00    -0.545 OA
ATOM      9  O   UNL     1      30.470   3.875 -28.674  1.00  0.00    -0.545 OA
ENDBRANCH   1   7
TORSDOF 1
ENDMDL
MODEL 3
REMARK VINA RESULT:    -3.984      1.591      1.898
REMARK INTER + INTRA:          -4.233
REMARK INTER:                  -4.210
REMARK INTRA:                  -0.024
REMARK UNBOUND:                -0.016
REMARK SMILES O=C([O-])c1cccnc1
REMARK SMILES IDX 4 1 5 2 9 3 6 4 8 5 7 6 2 7 1 8 3 9
REMARK H PARENT
REMARK Flexibility Score: inf
ROOT
ATOM      1  C   UNL     1      31.398   5.481 -25.179  1.00  0.00     0.016 A 
ATOM      2  C   UNL     1      31.512   4.222 -24.567  1.00  0.00     0.013 A 
ATOM      3  C   UNL     1      31.270   6.614 -24.358  1.00  0.00     0.120 A 
ATOM      4  C   UNL     1      31.497   4.115 -23.175  1.00  0.00     0.021 A 
ATOM      5  N   UNL     1      31.258   6.483 -23.004  1.00  0.00    -0.264 NA
ATOM      6  C   UNL     1      31.368   5.269 -22.402  1.00  0.00     0.111 A 
ENDROOT
BRANCH   1   7
ATOM      7  C   UNL     1      31.412   5.616 -26.651  1.00  0.00     0.073 C 
ATOM      8  O   UNL     1      31.305   6.750 -27.192  1.00  0.00    -0.545 OA
ATOM      9  O   UNL     1      31.541   4.493 -27.460  1.00  0.00    -0.545 OA
ENDBRANCH   1   7
TORSDOF 1
ENDMDL
MODEL 4
REMARK VINA RESULT:    -3.980      3.064      3.780
REMARK INTER + INTRA:          -4.229
REMARK INTER:                  -4.211
REMARK INTRA:                  -0.018
REMARK UNBOUND:                -0.016
REMARK SMILES O=C([O-])c1cccnc1
REMARK SMILES IDX 4 1 5 2 9 3 6 4 8 5 7 6 2 7 1 8 3 9
REMARK H PARENT
REMARK Flexibility Score: inf
ROOT
ATOM      1  C   UNL     1      31.152   4.728 -24.074  1.00  0.00     0.016 A 
ATOM      2  C   UNL     1      31.674   3.891 -25.074  1.00  0.00     0.013 A 
ATOM      3  C   UNL     1      30.705   6.008 -24.441  1.00  0.00     0.120 A 
ATOM      4  C   UNL     1      31.741   4.335 -26.396  1.00  0.00     0.021 A 
ATOM      5  N   UNL     1      30.780   6.417 -25.736  1.00  0.00    -0.264 NA
ATOM      6  C   UNL     1      31.283   5.615 -26.711  1.00  0.00     0.111 A 
ENDROOT
BRANCH   1   7
ATOM      7  C   UNL     1      31.073   4.277 -22.668  1.00  0.00     0.073 C 
ATOM      8  O   UNL     1      32.118   3.951 -22.041  1.00  0.00    -0.545 OA
ATOM      9  O   UNL     1      29.847   4.204 -22.019  1.00  0.00    -0.545 OA
ENDBRANCH   1   7
TORSDOF 1
ENDMDL
MODEL 5
REMARK VINA RESULT:    -3.979      2.912      3.791
REMARK INTER + INTRA:          -4.227
REMARK INTER:                  -4.206
REMARK INTRA:                  -0.022
REMARK UNBOUND:                -0.016
REMARK SMILES O=C([O-])c1cccnc1
REMARK SMILES IDX 4 1 5 2 9 3 6 4 8 5 7 6 2 7 1 8 3 9
REMARK H PARENT
REMARK Flexibility Score: inf
ROOT
ATOM      1  C   UNL     1      30.413   5.312 -25.667  1.00  0.00     0.016 A 
ATOM      2  C   UNL     1      29.212   4.595 -25.801  1.00  0.00     0.013 A 
ATOM      3  C   UNL     1      31.331   5.280 -26.731  1.00  0.00     0.120 A 
ATOM      4  C   UNL     1      28.951   3.875 -26.968  1.00  0.00     0.021 A 
ATOM      5  N   UNL     1      31.052   4.571 -27.858  1.00  0.00    -0.264 NA
ATOM      6  C   UNL     1      29.893   3.875 -27.996  1.00  0.00     0.111 A 
ENDROOT
BRANCH   1   7
ATOM      7  C   UNL     1      30.709   6.080 -24.439  1.00  0.00     0.073 C 
ATOM      8  O   UNL     1      30.274   5.692 -23.321  1.00  0.00    -0.545 OA
ATOM      9  O   UNL     1      31.471   7.240 -24.501  1.00  0.00    -0.545 OA
ENDBRANCH   1   7
TORSDOF 1
ENDMDL
MODEL 6
REMARK VINA RESULT:    -3.943      3.236      3.935
REMARK INTER + INTRA:          -4.190
REMARK INTER:                  -4.173
REMARK INTRA:                  -0.016
REMARK UNBOUND:                -0.016
REMARK SMILES O=C([O-])c1cccnc1
REMARK SMILES IDX 4 1 5 2 9 3 6 4 8 5 7 6 2 7 1 8 3 9
REMARK H PARENT
REMARK Flexibility Score: inf
ROOT
ATOM      1  C   UNL     1      31.177   5.640 -24.183  1.00  0.00     0.016 A 
ATOM      2  C   UNL     1      31.316   4.295 -24.564  1.00  0.00     0.013 A 
ATOM      3  C   UNL     1      31.124   6.617 -25.192  1.00  0.00     0.120 A 
ATOM      4  C   UNL     1      31.398   3.953 -25.915  1.00  0.00     0.021 A 
ATOM      5  N   UNL     1      31.206   6.258 -26.501  1.00  0.00    -0.264 NA
ATOM      6  C   UNL     1      31.340   4.959 -26.879  1.00  0.00     0.111 A 
ENDROOT
BRANCH   1   7
ATOM      7  C   UNL     1      31.089   6.023 -22.758  1.00  0.00     0.073 C 
ATOM      8  O   UNL     1      32.094   6.492 -22.158  1.00  0.00    -0.545 OA
ATOM      9  O   UNL     1      29.897   5.871 -22.060  1.00  0.00    -0.545 OA
ENDBRANCH   1   7
TORSDOF 1
ENDMDL
MODEL 7
REMARK VINA RESULT:    -3.895     24.089     24.949
REMARK INTER + INTRA:          -4.138
REMARK INTER:                  -4.122
REMARK INTRA:                  -0.017
REMARK UNBOUND:                -0.016
REMARK SMILES O=C([O-])c1cccnc1
REMARK SMILES IDX 4 1 5 2 9 3 6 4 8 5 7 6 2 7 1 8 3 9
REMARK H PARENT
REMARK Flexibility Score: inf
ROOT
ATOM      1  C   UNL     1      14.347  21.792 -19.037  1.00  0.00     0.016 A 
ATOM      2  C   UNL     1      13.142  21.523 -18.367  1.00  0.00     0.013 A 
ATOM      3  C   UNL     1      14.321  22.675 -20.130  1.00  0.00     0.120 A 
ATOM      4  C   UNL     1      11.956  22.126 -18.789  1.00  0.00     0.021 A 
ATOM      5  N   UNL     1      13.152  23.249 -20.521  1.00  0.00    -0.264 NA
ATOM      6  C   UNL     1      11.981  22.995 -19.879  1.00  0.00     0.111 A 
ENDROOT
BRANCH   1   7
ATOM      7  C   UNL     1      15.614  21.164 -18.606  1.00  0.00     0.073 C 
ATOM      8  O   UNL     1      16.534  21.860 -18.096  1.00  0.00    -0.545 OA
ATOM      9  O   UNL     1      15.810  19.797 -18.759  1.00  0.00    -0.545 OA
ENDBRANCH   1   7
TORSDOF 1
ENDMDL
MODEL 8
REMARK VINA RESULT:    -3.890      2.927      3.893
REMARK INTER + INTRA:          -4.133
REMARK INTER:                  -4.116
REMARK INTRA:                  -0.017
REMARK UNBOUND:                -0.016
REMARK SMILES O=C([O-])c1cccnc1
REMARK SMILES IDX 4 1 5 2 9 3 6 4 8 5 7 6 2 7 1 8 3 9
REMARK H PARENT
REMARK Flexibility Score: inf
ROOT
ATOM      1  C   UNL     1      30.665   4.482 -25.366  1.00  0.00     0.016 A 
ATOM      2  C   UNL     1      31.645   4.421 -26.372  1.00  0.00     0.013 A 
ATOM      3  C   UNL     1      29.329   4.232 -25.720  1.00  0.00     0.120 A 
ATOM      4  C   UNL     1      31.282   4.117 -27.685  1.00  0.00     0.021 A 
ATOM      5  N   UNL     1      29.002   3.938 -27.006  1.00  0.00    -0.264 NA
ATOM      6  C   UNL     1      29.942   3.876 -27.986  1.00  0.00     0.111 A 
ENDROOT
BRANCH   1   7
ATOM      7  C   UNL     1      31.028   4.803 -23.969  1.00  0.00     0.073 C 
ATOM      8  O   UNL     1      30.687   5.904 -23.456  1.00  0.00    -0.545 OA
ATOM      9  O   UNL     1      31.749   3.897 -23.202  1.00  0.00    -0.545 OA
ENDBRANCH   1   7
TORSDOF 1
ENDMDL
MODEL 9
REMARK VINA RESULT:    -3.773      3.295      4.181
REMARK INTER + INTRA:          -4.009
REMARK INTER:                  -3.992
REMARK INTRA:                  -0.017
REMARK UNBOUND:                -0.016
REMARK SMILES O=C([O-])c1cccnc1
REMARK SMILES IDX 4 1 5 2 9 3 6 4 8 5 7 6 2 7 1 8 3 9
REMARK H PARENT
REMARK Flexibility Score: inf
ROOT
ATOM      1  C   UNL     1      30.849   5.535 -24.166  1.00  0.00     0.016 A 
ATOM      2  C   UNL     1      31.132   6.612 -25.023  1.00  0.00     0.013 A 
ATOM      3  C   UNL     1      30.860   4.236 -24.700  1.00  0.00     0.120 A 
ATOM      4  C   UNL     1      31.413   6.379 -26.371  1.00  0.00     0.021 A 
ATOM      5  N   UNL     1      31.137   4.036 -26.016  1.00  0.00    -0.264 NA
ATOM      6  C   UNL     1      31.412   5.071 -26.854  1.00  0.00     0.111 A 
ENDROOT
BRANCH   1   7
ATOM      7  C   UNL     1      30.548   5.760 -22.736  1.00  0.00     0.073 C 
ATOM      8  O   UNL     1      31.441   6.182 -21.952  1.00  0.00    -0.545 OA
ATOM      9  O   UNL     1      29.276   5.508 -22.236  1.00  0.00    -0.545 OA
ENDBRANCH   1   7
TORSDOF 1
ENDMDL
