MODEL 1
REMARK VINA RESULT:    -3.319      0.000      0.000
REMARK INTER + INTRA:          -4.065
REMARK INTER:                  -3.804
REMARK INTRA:                  -0.261
REMARK UNBOUND:                -0.261
REMARK SMILES COC(=O)c1ccccc1O
REMARK SMILES IDX 5 1 6 2 7 3 8 4 9 5 10 6 3 7 4 8 2 9 1 10 11 11
REMARK H PARENT 11 12
REMARK Flexibility Score: inf
ROOT
ATOM      1  C   UNL     1     228.778 231.693 233.669  1.00  0.00     0.101 A 
ATOM      2  C   UNL     1     229.333 230.666 234.459  1.00  0.00     0.019 A 
ATOM      3  C   UNL     1     228.511 229.782 235.161  1.00  0.00     0.001 A 
ATOM      4  C   UNL     1     227.125 229.908 235.090  1.00  0.00     0.004 A 
ATOM      5  C   UNL     1     226.555 230.919 234.313  1.00  0.00     0.047 A 
ATOM      6  C   UNL     1     227.370 231.813 233.601  1.00  0.00     0.130 A 
ENDROOT
BRANCH   1   7
ATOM      7  C   UNL     1     229.679 232.618 232.932  1.00  0.00     0.341 C 
ATOM      8  O   UNL     1     229.275 233.181 231.877  1.00  0.00    -0.246 OA
BRANCH   7   9
ATOM      9  O   UNL     1     230.974 232.869 233.397  1.00  0.00    -0.465 OA
ATOM     10  C   UNL     1     232.139 232.522 232.658  1.00  0.00     0.282 C 
ENDBRANCH   7   9
ENDBRANCH   1   7
BRANCH   6  11
ATOM     11  O   UNL     1     226.773 232.813 232.833  1.00  0.00    -0.507 OA
ATOM     12  H   UNL     1     227.279 233.648 232.559  1.00  0.00     0.293 HD
ENDBRANCH   6  11
TORSDOF 3
ENDMDL
MODEL 2
REMARK VINA RESULT:    -3.318      1.806      3.982
REMARK INTER + INTRA:          -4.065
REMARK INTER:                  -3.751
REMARK INTRA:                  -0.313
REMARK UNBOUND:                -0.261
REMARK SMILES COC(=O)c1ccccc1O
REMARK SMILES IDX 5 1 6 2 7 3 8 4 9 5 10 6 3 7 4 8 2 9 1 10 11 11
REMARK H PARENT 11 12
REMARK Flexibility Score: inf
ROOT
ATOM      1  C   UNL     1     228.692 231.657 233.677  1.00  0.00     0.101 A 
ATOM      2  C   UNL     1     230.070 231.374 233.759  1.00  0.00     0.019 A 
ATOM      3  C   UNL     1     230.982 232.018 232.921  1.00  0.00     0.001 A 
ATOM      4  C   UNL     1     230.536 232.951 231.986  1.00  0.00     0.004 A 
ATOM      5  C   UNL     1     229.175 233.245 231.889  1.00  0.00     0.047 A 
ATOM      6  C   UNL     1     228.248 232.606 232.726  1.00  0.00     0.130 A 
ENDROOT
BRANCH   1   7
ATOM      7  C   UNL     1     227.745 230.956 234.585  1.00  0.00     0.341 C 
ATOM      8  O   UNL     1     228.137 230.561 235.718  1.00  0.00    -0.246 OA
BRANCH   7   9
ATOM      9  O   UNL     1     226.421 230.730 234.193  1.00  0.00    -0.465 OA
ATOM     10  C   UNL     1     225.992 229.514 233.594  1.00  0.00     0.282 C 
ENDBRANCH   7   9
ENDBRANCH   1   7
BRANCH   6  11
ATOM     11  O   UNL     1     226.894 232.920 232.607  1.00  0.00    -0.507 OA
ATOM     12  H   UNL     1     226.529 233.412 231.799  1.00  0.00     0.293 HD
ENDBRANCH   6  11
TORSDOF 3
ENDMDL
MODEL 3
REMARK VINA RESULT:    -3.312      9.352     12.791
REMARK INTER + INTRA:          -4.058
REMARK INTER:                  -3.797
REMARK INTRA:                  -0.261
REMARK UNBOUND:                -0.261
REMARK SMILES COC(=O)c1ccccc1O
REMARK SMILES IDX 5 1 6 2 7 3 8 4 9 5 10 6 3 7 4 8 2 9 1 10 11 11
REMARK H PARENT 11 12
REMARK Flexibility Score: inf
ROOT
ATOM      1  C   UNL     1     239.757 236.827 233.712  1.00  0.00     0.101 A 
ATOM      2  C   UNL     1     239.148 237.822 234.502  1.00  0.00     0.019 A 
ATOM      3  C   UNL     1     239.921 238.749 235.204  1.00  0.00     0.001 A 
ATOM      4  C   UNL     1     241.312 238.699 235.131  1.00  0.00     0.004 A 
ATOM      5  C   UNL     1     241.935 237.721 234.354  1.00  0.00     0.047 A 
ATOM      6  C   UNL     1     241.170 236.783 233.642  1.00  0.00     0.130 A 
ENDROOT
BRANCH   1   7
ATOM      7  C   UNL     1     238.907 235.854 232.975  1.00  0.00     0.341 C 
ATOM      8  O   UNL     1     239.336 235.322 231.914  1.00  0.00    -0.246 OA
BRANCH   7   9
ATOM      9  O   UNL     1     237.633 235.524 233.447  1.00  0.00    -0.465 OA
ATOM     10  C   UNL     1     236.439 235.899 232.770  1.00  0.00     0.282 C 
ENDBRANCH   7   9
ENDBRANCH   1   7
BRANCH   6  11
ATOM     11  O   UNL     1     241.819 235.817 232.874  1.00  0.00    -0.507 OA
ATOM     12  H   UNL     1     242.230 236.039 231.974  1.00  0.00     0.293 HD
ENDBRANCH   6  11
TORSDOF 3
ENDMDL
MODEL 4
REMARK VINA RESULT:    -3.312      7.459      9.011
REMARK INTER + INTRA:          -4.058
REMARK INTER:                  -3.794
REMARK INTRA:                  -0.263
REMARK UNBOUND:                -0.261
REMARK SMILES COC(=O)c1ccccc1O
REMARK SMILES IDX 5 1 6 2 7 3 8 4 9 5 10 6 3 7 4 8 2 9 1 10 11 11
REMARK H PARENT 11 12
REMARK Flexibility Score: inf
ROOT
ATOM      1  C   UNL     1     236.794 228.775 233.676  1.00  0.00     0.101 A 
ATOM      2  C   UNL     1     237.820 229.340 234.460  1.00  0.00     0.019 A 
ATOM      3  C   UNL     1     238.713 228.526 235.161  1.00  0.00     0.001 A 
ATOM      4  C   UNL     1     238.596 227.139 235.093  1.00  0.00     0.004 A 
ATOM      5  C   UNL     1     237.586 226.560 234.323  1.00  0.00     0.047 A 
ATOM      6  C   UNL     1     236.683 227.366 233.613  1.00  0.00     0.130 A 
ENDROOT
BRANCH   1   7
ATOM      7  C   UNL     1     235.859 229.668 232.940  1.00  0.00     0.341 C 
ATOM      8  O   UNL     1     235.307 229.263 231.880  1.00  0.00    -0.246 OA
BRANCH   7   9
ATOM      9  O   UNL     1     235.586 230.956 233.413  1.00  0.00    -0.465 OA
ATOM     10  C   UNL     1     235.977 232.132 232.714  1.00  0.00     0.282 C 
ENDBRANCH   7   9
ENDBRANCH   1   7
BRANCH   6  11
ATOM     11  O   UNL     1     235.684 226.761 232.851  1.00  0.00    -0.507 OA
ATOM     12  H   UNL     1     235.525 225.760 232.878  1.00  0.00     0.293 HD
ENDBRANCH   6  11
TORSDOF 3
ENDMDL
MODEL 5
REMARK VINA RESULT:    -3.206     12.138     14.101
REMARK INTER + INTRA:          -3.936
REMARK INTER:                  -3.656
REMARK INTRA:                  -0.280
REMARK UNBOUND:                -0.261
REMARK SMILES COC(=O)c1ccccc1O
REMARK SMILES IDX 5 1 6 2 7 3 8 4 9 5 10 6 3 7 4 8 2 9 1 10 11 11
REMARK H PARENT 11 12
REMARK Flexibility Score: inf
ROOT
ATOM      1  C   UNL     1     241.279 237.884 234.239  1.00  0.00     0.101 A 
ATOM      2  C   UNL     1     240.299 238.562 234.990  1.00  0.00     0.019 A 
ATOM      3  C   UNL     1     239.003 238.054 235.097  1.00  0.00     0.001 A 
ATOM      4  C   UNL     1     238.662 236.864 234.455  1.00  0.00     0.004 A 
ATOM      5  C   UNL     1     239.619 236.177 233.706  1.00  0.00     0.047 A 
ATOM      6  C   UNL     1     240.926 236.676 233.592  1.00  0.00     0.130 A 
ENDROOT
BRANCH   1   7
ATOM      7  C   UNL     1     242.652 238.449 234.145  1.00  0.00     0.341 C 
ATOM      8  O   UNL     1     243.341 238.602 235.191  1.00  0.00    -0.246 OA
BRANCH   7   9
ATOM      9  O   UNL     1     243.186 238.815 232.905  1.00  0.00    -0.465 OA
ATOM     10  C   UNL     1     243.108 240.140 232.393  1.00  0.00     0.282 C 
ENDBRANCH   7   9
ENDBRANCH   1   7
BRANCH   6  11
ATOM     11  O   UNL     1     241.861 235.969 232.837  1.00  0.00    -0.507 OA
ATOM     12  H   UNL     1     242.853 236.008 233.042  1.00  0.00     0.293 HD
ENDBRANCH   6  11
TORSDOF 3
ENDMDL
MODEL 6
REMARK VINA RESULT:    -3.199      2.014      4.200
REMARK INTER + INTRA:          -3.928
REMARK INTER:                  -3.655
REMARK INTRA:                  -0.273
REMARK UNBOUND:                -0.261
REMARK SMILES COC(=O)c1ccccc1O
REMARK SMILES IDX 5 1 6 2 7 3 8 4 9 5 10 6 3 7 4 8 2 9 1 10 11 11
REMARK H PARENT 11 12
REMARK Flexibility Score: inf
ROOT
ATOM      1  C   UNL     1     227.171 230.626 234.245  1.00  0.00     0.101 A 
ATOM      2  C   UNL     1     228.153 229.954 235.000  1.00  0.00     0.019 A 
ATOM      3  C   UNL     1     229.451 230.460 235.096  1.00  0.00     0.001 A 
ATOM      4  C   UNL     1     229.792 231.642 234.440  1.00  0.00     0.004 A 
ATOM      5  C   UNL     1     228.833 232.323 233.687  1.00  0.00     0.047 A 
ATOM      6  C   UNL     1     227.525 231.825 233.583  1.00  0.00     0.130 A 
ENDROOT
BRANCH   1   7
ATOM      7  C   UNL     1     225.797 230.062 234.163  1.00  0.00     0.341 C 
ATOM      8  O   UNL     1     225.097 229.961 235.208  1.00  0.00    -0.246 OA
BRANCH   7   9
ATOM      9  O   UNL     1     225.273 229.643 232.936  1.00  0.00    -0.465 OA
ATOM     10  C   UNL     1     225.408 228.310 232.456  1.00  0.00     0.282 C 
ENDBRANCH   7   9
ENDBRANCH   1   7
BRANCH   6  11
ATOM     11  O   UNL     1     226.588 232.527 232.824  1.00  0.00    -0.507 OA
ATOM     12  H   UNL     1     225.979 232.058 232.164  1.00  0.00     0.293 HD
ENDBRANCH   6  11
TORSDOF 3
ENDMDL
MODEL 7
REMARK VINA RESULT:    -3.193      7.989      9.308
REMARK INTER + INTRA:          -3.921
REMARK INTER:                  -3.634
REMARK INTRA:                  -0.287
REMARK UNBOUND:                -0.261
REMARK SMILES COC(=O)c1ccccc1O
REMARK SMILES IDX 5 1 6 2 7 3 8 4 9 5 10 6 3 7 4 8 2 9 1 10 11 11
REMARK H PARENT 11 12
REMARK Flexibility Score: inf
ROOT
ATOM      1  C   UNL     1     231.349 240.037 234.177  1.00  0.00     0.101 A 
ATOM      2  C   UNL     1     230.219 239.599 234.897  1.00  0.00     0.019 A 
ATOM      3  C   UNL     1     229.175 240.479 235.191  1.00  0.00     0.001 A 
ATOM      4  C   UNL     1     229.240 241.807 234.774  1.00  0.00     0.004 A 
ATOM      5  C   UNL     1     230.351 242.261 234.060  1.00  0.00     0.047 A 
ATOM      6  C   UNL     1     231.407 241.387 233.757  1.00  0.00     0.130 A 
ENDROOT
BRANCH   1   7
ATOM      7  C   UNL     1     232.444 239.077 233.878  1.00  0.00     0.341 C 
ATOM      8  O   UNL     1     232.937 238.377 234.805  1.00  0.00    -0.246 OA
BRANCH   7   9
ATOM      9  O   UNL     1     232.936 238.943 232.575  1.00  0.00    -0.465 OA
ATOM     10  C   UNL     1     232.937 237.704 231.876  1.00  0.00     0.282 C 
ENDBRANCH   7   9
ENDBRANCH   1   7
BRANCH   6  11
ATOM     11  O   UNL     1     232.504 241.868 233.042  1.00  0.00    -0.507 OA
ATOM     12  H   UNL     1     232.742 241.507 232.125  1.00  0.00     0.293 HD
ENDBRANCH   6  11
TORSDOF 3
ENDMDL
MODEL 8
REMARK VINA RESULT:    -3.186      8.763     10.203
REMARK INTER + INTRA:          -3.913
REMARK INTER:                  -3.633
REMARK INTRA:                  -0.280
REMARK UNBOUND:                -0.261
REMARK SMILES COC(=O)c1ccccc1O
REMARK SMILES IDX 5 1 6 2 7 3 8 4 9 5 10 6 3 7 4 8 2 9 1 10 11 11
REMARK H PARENT 11 12
REMARK Flexibility Score: inf
ROOT
ATOM      1  C   UNL     1     230.826 241.173 234.141  1.00  0.00     0.101 A 
ATOM      2  C   UNL     1     230.226 240.134 234.881  1.00  0.00     0.019 A 
ATOM      3  C   UNL     1     230.757 238.843 234.858  1.00  0.00     0.001 A 
ATOM      4  C   UNL     1     231.892 238.566 234.098  1.00  0.00     0.004 A 
ATOM      5  C   UNL     1     232.500 239.581 233.358  1.00  0.00     0.047 A 
ATOM      6  C   UNL     1     231.978 240.884 233.373  1.00  0.00     0.130 A 
ENDROOT
BRANCH   1   7
ATOM      7  C   UNL     1     230.238 242.538 234.187  1.00  0.00     0.341 C 
ATOM      8  O   UNL     1     230.186 243.164 235.282  1.00  0.00    -0.246 OA
BRANCH   7   9
ATOM      9  O   UNL     1     229.740 243.137 233.025  1.00  0.00    -0.465 OA
ATOM     10  C   UNL     1     228.388 242.995 232.604  1.00  0.00     0.282 C 
ENDBRANCH   7   9
ENDBRANCH   1   7
BRANCH   6  11
ATOM     11  O   UNL     1     232.607 241.878 232.624  1.00  0.00    -0.507 OA
ATOM     12  H   UNL     1     233.514 242.248 232.884  1.00  0.00     0.293 HD
ENDBRANCH   6  11
TORSDOF 3
ENDMDL
