MODEL 1
REMARK VINA RESULT:     3.952      0.000      0.000
REMARK INTER + INTRA:           5.039
REMARK INTER:                   6.493
REMARK INTRA:                  -1.455
REMARK UNBOUND:                -1.455
REMARK SMILES C[C@@H]1O[C@H](OC[C@H]2O[C@@H](Oc3c(-c4ccc(O)c(O)c4)oc4cc(O)cc(O)c4c3=O)[C@@H](O)[C@H](O)[C@H]2O)[C@@H](O)[C@H](O)[C@H]1O
REMARK SMILES IDX 7 1 36 2 34 3 32 4 9 5 8 6 6 7 5 8 4 9 1 10 2 11 42 12 3 13
REMARK SMILES IDX 40 14 38 15 43 16 41 18 39 20 37 22 35 24 10 26 11 27 12 28
REMARK SMILES IDX 30 29 21 30 29 31 31 32 22 33 27 34 23 35 26 36 24 37 13 38
REMARK SMILES IDX 20 39 14 40 18 41 15 42 16 43 19 44 17 46 28 48 25 50 33 52
REMARK H PARENT 43 17 41 19 39 21 37 23 35 25 19 45 17 47 28 49 25 51 33 53
REMARK Flexibility Score: inf
ROOT
ATOM      1  C   UNL     1      75.189  39.498  23.248  1.00  0.00     0.180 C 
ATOM      2  C   UNL     1      76.007  40.718  22.549  1.00  0.00     0.177 C 
ATOM      3  C   UNL     1      75.315  41.097  21.225  1.00  0.00     0.180 C 
ATOM      4  C   UNL     1      73.800  41.163  21.583  1.00  0.00     0.214 C 
ATOM      5  C   UNL     1      73.227  39.776  22.086  1.00  0.00     0.339 C 
ATOM      6  O   UNL     1      73.783  39.585  23.367  1.00  0.00    -0.332 OA
ENDROOT
BRANCH   1   7
ATOM      7  C   UNL     1      75.817  39.038  24.539  1.00  0.00     0.198 C 
BRANCH   7   8
ATOM      8  O   UNL     1      75.232  39.590  25.719  1.00  0.00    -0.347 OA
BRANCH   8   9
ATOM      9  C   UNL     1      76.207  39.413  26.749  1.00  0.00     0.281 C 
ATOM     10  C   UNL     1      74.130  41.782  28.118  1.00  0.00     0.041 C 
ATOM     11  C   UNL     1      75.200  40.719  28.527  1.00  0.00     0.150 C 
ATOM     12  C   UNL     1      74.463  39.398  28.901  1.00  0.00     0.174 C 
ATOM     13  O   UNL     1      76.264  40.567  27.572  1.00  0.00    -0.344 OA
ATOM     14  C   UNL     1      75.476  38.264  28.923  1.00  0.00     0.179 C 
ATOM     15  C   UNL     1      76.109  38.079  27.525  1.00  0.00     0.202 C 
BRANCH  12  16
ATOM     16  O   UNL     1      73.870  39.532  30.181  1.00  0.00    -0.388 OA
ATOM     17  H   UNL     1      73.916  40.488  30.418  1.00  0.00     0.211 HD
ENDBRANCH  12  16
BRANCH  14  18
ATOM     18  O   UNL     1      74.851  37.091  29.422  1.00  0.00    -0.387 OA
ATOM     19  H   UNL     1      74.010  36.927  28.953  1.00  0.00     0.211 HD
ENDBRANCH  14  18
BRANCH  15  20
ATOM     20  O   UNL     1      77.418  37.565  27.714  1.00  0.00    -0.385 OA
ATOM     21  H   UNL     1      77.448  37.059  28.575  1.00  0.00     0.211 HD
ENDBRANCH  15  20
ENDBRANCH   8   9
ENDBRANCH   7   8
ENDBRANCH   1   7
BRANCH   2  22
ATOM     22  O   UNL     1      76.081  41.837  23.396  1.00  0.00    -0.387 OA
ATOM     23  H   UNL     1      76.971  42.245  23.305  1.00  0.00     0.211 HD
ENDBRANCH   2  22
BRANCH   3  24
ATOM     24  O   UNL     1      75.477  40.027  20.324  1.00  0.00    -0.387 OA
ATOM     25  H   UNL     1      75.854  39.261  20.838  1.00  0.00     0.211 HD
ENDBRANCH   3  24
BRANCH   5  26
ATOM     26  O   UNL     1      71.789  39.900  22.236  1.00  0.00    -0.454 OA
BRANCH  26  27
ATOM     27  C   UNL     1      70.918  39.676  21.113  1.00  0.00     0.214 A 
ATOM     28  C   UNL     1      70.090  38.541  21.025  1.00  0.00     0.180 A 
ATOM     29  C   UNL     1      70.427  40.752  20.288  1.00  0.00     0.239 A 
ATOM     30  O   UNL     1      68.800  38.744  21.175  1.00  0.00    -0.452 OA
ATOM     31  C   UNL     1      69.095  40.675  19.808  1.00  0.00     0.111 A 
ATOM     32  O   UNL     1      71.124  41.813  20.167  1.00  0.00    -0.285 OA
ATOM     33  C   UNL     1      68.253  39.682  20.412  1.00  0.00     0.146 A 
ATOM     34  C   UNL     1      68.623  41.419  18.740  1.00  0.00     0.134 A 
ATOM     35  C   UNL     1      66.890  39.649  20.125  1.00  0.00     0.094 A 
ATOM     36  C   UNL     1      67.302  41.145  18.293  1.00  0.00     0.093 A 
ATOM     37  C   UNL     1      66.450  40.276  18.965  1.00  0.00     0.123 A 
BRANCH  28  38
ATOM     38  C   UNL     1      70.475  37.365  20.187  1.00  0.00     0.025 A 
ATOM     39  C   UNL     1      69.514  36.793  19.350  1.00  0.00     0.062 A 
ATOM     40  C   UNL     1      71.805  36.884  20.136  1.00  0.00     0.016 A 
ATOM     41  C   UNL     1      69.784  35.639  18.612  1.00  0.00     0.158 A 
ATOM     42  C   UNL     1      72.092  35.691  19.441  1.00  0.00     0.051 A 
ATOM     43  C   UNL     1      71.103  35.066  18.670  1.00  0.00     0.157 A 
BRANCH  41  44
ATOM     44  O   UNL     1      68.768  35.084  17.883  1.00  0.00    -0.504 OA
ATOM     45  H   UNL     1      68.038  35.651  17.433  1.00  0.00     0.293 HD
ENDBRANCH  41  44
BRANCH  43  46
ATOM     46  O   UNL     1      71.383  33.947  17.916  1.00  0.00    -0.504 OA
ATOM     47  H   UNL     1      70.999  33.051  18.181  1.00  0.00     0.293 HD
ENDBRANCH  43  46
ENDBRANCH  28  38
BRANCH  34  48
ATOM     48  O   UNL     1      69.497  42.122  17.895  1.00  0.00    -0.507 OA
ATOM     49  H   UNL     1      69.496  41.851  16.903  1.00  0.00     0.293 HD
ENDBRANCH  34  48
BRANCH  37  50
ATOM     50  O   UNL     1      65.253  39.911  18.342  1.00  0.00    -0.508 OA
ATOM     51  H   UNL     1      65.252  39.669  17.363  1.00  0.00     0.293 HD
ENDBRANCH  37  50
ENDBRANCH  26  27
ENDBRANCH   5  26
BRANCH   4  52
ATOM     52  O   UNL     1      73.572  41.909  22.766  1.00  0.00    -0.384 OA
ATOM     53  H   UNL     1      72.598  42.003  22.919  1.00  0.00     0.211 HD
ENDBRANCH   4  52
TORSDOF 16
ENDMDL
MODEL 2
REMARK VINA RESULT:     4.008      1.685      2.274
REMARK INTER + INTRA:           5.131
REMARK INTER:                   3.535
REMARK INTRA:                   1.595
REMARK UNBOUND:                -1.455
REMARK SMILES C[C@@H]1O[C@H](OC[C@H]2O[C@@H](Oc3c(-c4ccc(O)c(O)c4)oc4cc(O)cc(O)c4c3=O)[C@@H](O)[C@H](O)[C@H]2O)[C@@H](O)[C@H](O)[C@H]1O
REMARK SMILES IDX 7 1 36 2 34 3 32 4 9 5 8 6 6 7 5 8 4 9 1 10 2 11 42 12 3 13
REMARK SMILES IDX 40 14 38 15 43 16 41 18 39 20 37 22 35 24 10 26 11 27 12 28
REMARK SMILES IDX 30 29 21 30 29 31 31 32 22 33 27 34 23 35 26 36 24 37 13 38
REMARK SMILES IDX 20 39 14 40 18 41 15 42 16 43 19 44 17 46 28 48 25 50 33 52
REMARK H PARENT 43 17 41 19 39 21 37 23 35 25 19 45 17 47 28 49 25 51 33 53
REMARK Flexibility Score: inf
ROOT
ATOM      1  C   UNL     1      75.085  39.836  22.602  1.00  0.00     0.180 C 
ATOM      2  C   UNL     1      75.153  41.452  22.784  1.00  0.00     0.177 C 
ATOM      3  C   UNL     1      75.550  42.096  21.442  1.00  0.00     0.180 C 
ATOM      4  C   UNL     1      74.655  41.380  20.386  1.00  0.00     0.214 C 
ATOM      5  C   UNL     1      74.922  39.822  20.311  1.00  0.00     0.339 C 
ATOM      6  O   UNL     1      74.385  39.292  21.501  1.00  0.00    -0.332 OA
ENDROOT
BRANCH   1   7
ATOM      7  C   UNL     1      74.734  39.119  23.880  1.00  0.00     0.198 C 
BRANCH   7   8
ATOM      8  O   UNL     1      74.619  39.962  25.027  1.00  0.00    -0.347 OA
BRANCH   8   9
ATOM      9  C   UNL     1      75.960  40.215  25.453  1.00  0.00     0.281 C 
ATOM     10  C   UNL     1      74.338  39.696  28.436  1.00  0.00     0.041 C 
ATOM     11  C   UNL     1      75.771  39.687  27.812  1.00  0.00     0.150 C 
ATOM     12  C   UNL     1      76.110  38.230  27.378  1.00  0.00     0.174 C 
ATOM     13  O   UNL     1      75.968  40.681  26.792  1.00  0.00    -0.344 OA
ATOM     14  C   UNL     1      77.304  38.266  26.439  1.00  0.00     0.179 C 
ATOM     15  C   UNL     1      76.966  39.077  25.166  1.00  0.00     0.202 C 
BRANCH  12  16
ATOM     16  O   UNL     1      76.427  37.456  28.522  1.00  0.00    -0.388 OA
ATOM     17  H   UNL     1      76.610  36.540  28.205  1.00  0.00     0.211 HD
ENDBRANCH  12  16
BRANCH  14  18
ATOM     18  O   UNL     1      77.724  36.937  26.168  1.00  0.00    -0.387 OA
ATOM     19  H   UNL     1      77.387  36.643  25.299  1.00  0.00     0.211 HD
ENDBRANCH  14  18
BRANCH  15  20
ATOM     20  O   UNL     1      78.175  39.647  24.690  1.00  0.00    -0.385 OA
ATOM     21  H   UNL     1      78.636  40.112  25.444  1.00  0.00     0.211 HD
ENDBRANCH  15  20
ENDBRANCH   8   9
ENDBRANCH   7   8
ENDBRANCH   1   7
BRANCH   2  22
ATOM     22  O   UNL     1      73.923  41.968  23.226  1.00  0.00    -0.387 OA
ATOM     23  H   UNL     1      74.089  42.589  23.972  1.00  0.00     0.211 HD
ENDBRANCH   2  22
BRANCH   3  24
ATOM     24  O   UNL     1      76.883  41.735  21.161  1.00  0.00    -0.387 OA
ATOM     25  H   UNL     1      76.998  41.777  20.172  1.00  0.00     0.211 HD
ENDBRANCH   3  24
BRANCH   5  26
ATOM     26  O   UNL     1      74.165  39.279  19.198  1.00  0.00    -0.454 OA
BRANCH  26  27
ATOM     27  C   UNL     1      72.727  39.311  19.211  1.00  0.00     0.214 A 
ATOM     28  C   UNL     1      71.967  38.419  19.993  1.00  0.00     0.180 A 
ATOM     29  C   UNL     1      71.976  40.498  18.886  1.00  0.00     0.239 A 
ATOM     30  O   UNL     1      71.355  38.932  21.037  1.00  0.00    -0.452 OA
ATOM     31  C   UNL     1      70.795  40.768  19.624  1.00  0.00     0.111 A 
ATOM     32  O   UNL     1      72.480  41.355  18.088  1.00  0.00    -0.285 OA
ATOM     33  C   UNL     1      70.596  39.998  20.818  1.00  0.00     0.146 A 
ATOM     34  C   UNL     1      69.807  41.636  19.192  1.00  0.00     0.134 A 
ATOM     35  C   UNL     1      69.557  40.313  21.690  1.00  0.00     0.094 A 
ATOM     36  C   UNL     1      68.623  41.712  19.977  1.00  0.00     0.093 A 
ATOM     37  C   UNL     1      68.494  41.062  21.199  1.00  0.00     0.123 A 
BRANCH  28  38
ATOM     38  C   UNL     1      71.331  37.209  19.389  1.00  0.00     0.025 A 
ATOM     39  C   UNL     1      69.936  37.138  19.339  1.00  0.00     0.062 A 
ATOM     40  C   UNL     1      72.094  36.189  18.774  1.00  0.00     0.016 A 
ATOM     41  C   UNL     1      69.281  35.998  18.872  1.00  0.00     0.158 A 
ATOM     42  C   UNL     1      71.460  35.005  18.342  1.00  0.00     0.051 A 
ATOM     43  C   UNL     1      70.064  34.898  18.374  1.00  0.00     0.157 A 
BRANCH  41  44
ATOM     44  O   UNL     1      67.915  35.964  18.936  1.00  0.00    -0.504 OA
ATOM     45  H   UNL     1      67.336  36.804  18.818  1.00  0.00     0.293 HD
ENDBRANCH  41  44
BRANCH  43  46
ATOM     46  O   UNL     1      69.420  33.783  17.881  1.00  0.00    -0.504 OA
ATOM     47  H   UNL     1      69.029  33.797  16.950  1.00  0.00     0.293 HD
ENDBRANCH  43  46
ENDBRANCH  28  38
BRANCH  34  48
ATOM     48  O   UNL     1      69.784  42.124  17.876  1.00  0.00    -0.507 OA
ATOM     49  H   UNL     1      70.627  42.614  17.551  1.00  0.00     0.293 HD
ENDBRANCH  34  48
BRANCH  37  50
ATOM     50  O   UNL     1      67.230  41.024  21.797  1.00  0.00    -0.508 OA
ATOM     51  H   UNL     1      67.050  40.369  22.542  1.00  0.00     0.293 HD
ENDBRANCH  37  50
ENDBRANCH  26  27
ENDBRANCH   5  26
BRANCH   4  52
ATOM     52  O   UNL     1      73.300  41.325  20.798  1.00  0.00    -0.384 OA
ATOM     53  H   UNL     1      72.719  41.687  20.082  1.00  0.00     0.211 HD
ENDBRANCH   4  52
TORSDOF 16
ENDMDL
MODEL 3
REMARK VINA RESULT:     4.931      1.496      2.241
REMARK INTER + INTRA:           6.647
REMARK INTER:                   8.493
REMARK INTRA:                  -1.846
REMARK UNBOUND:                -1.455
REMARK SMILES C[C@@H]1O[C@H](OC[C@H]2O[C@@H](Oc3c(-c4ccc(O)c(O)c4)oc4cc(O)cc(O)c4c3=O)[C@@H](O)[C@H](O)[C@H]2O)[C@@H](O)[C@H](O)[C@H]1O
REMARK SMILES IDX 7 1 36 2 34 3 32 4 9 5 8 6 6 7 5 8 4 9 1 10 2 11 42 12 3 13
REMARK SMILES IDX 40 14 38 15 43 16 41 18 39 20 37 22 35 24 10 26 11 27 12 28
REMARK SMILES IDX 30 29 21 30 29 31 31 32 22 33 27 34 23 35 26 36 24 37 13 38
REMARK SMILES IDX 20 39 14 40 18 41 15 42 16 43 19 44 17 46 28 48 25 50 33 52
REMARK H PARENT 43 17 41 19 39 21 37 23 35 25 19 45 17 47 28 49 25 51 33 53
REMARK Flexibility Score: inf
ROOT
ATOM      1  C   UNL     1      75.006  40.789  23.215  1.00  0.00     0.180 C 
ATOM      2  C   UNL     1      76.149  40.534  22.086  1.00  0.00     0.177 C 
ATOM      3  C   UNL     1      75.520  39.797  20.888  1.00  0.00     0.180 C 
ATOM      4  C   UNL     1      74.189  40.561  20.616  1.00  0.00     0.214 C 
ATOM      5  C   UNL     1      73.188  40.504  21.840  1.00  0.00     0.339 C 
ATOM      6  O   UNL     1      73.759  41.331  22.829  1.00  0.00    -0.332 OA
ENDROOT
BRANCH   1   7
ATOM      7  C   UNL     1      75.542  41.479  24.444  1.00  0.00     0.198 C 
BRANCH   7   8
ATOM      8  O   UNL     1      76.189  40.616  25.380  1.00  0.00    -0.347 OA
BRANCH   8   9
ATOM      9  C   UNL     1      75.145  40.099  26.209  1.00  0.00     0.281 C 
ATOM     10  C   UNL     1      77.168  37.353  25.796  1.00  0.00     0.041 C 
ATOM     11  C   UNL     1      76.056  37.916  26.740  1.00  0.00     0.150 C 
ATOM     12  C   UNL     1      76.744  38.639  27.936  1.00  0.00     0.174 C 
ATOM     13  O   UNL     1      75.054  38.692  26.061  1.00  0.00    -0.344 OA
ATOM     14  C   UNL     1      75.714  39.507  28.640  1.00  0.00     0.179 C 
ATOM     15  C   UNL     1      75.170  40.587  27.676  1.00  0.00     0.202 C 
BRANCH  12  16
ATOM     16  O   UNL     1      77.254  37.676  28.842  1.00  0.00    -0.388 OA
ATOM     17  H   UNL     1      77.793  38.167  29.507  1.00  0.00     0.211 HD
ENDBRANCH  12  16
BRANCH  14  18
ATOM     18  O   UNL     1      76.285  40.041  29.825  1.00  0.00    -0.387 OA
ATOM     19  H   UNL     1      75.874  39.637  30.614  1.00  0.00     0.211 HD
ENDBRANCH  14  18
BRANCH  15  20
ATOM     20  O   UNL     1      73.843  40.889  28.079  1.00  0.00    -0.385 OA
ATOM     21  H   UNL     1      73.775  40.796  29.071  1.00  0.00     0.211 HD
ENDBRANCH  15  20
ENDBRANCH   8   9
ENDBRANCH   7   8
ENDBRANCH   1   7
BRANCH   2  22
ATOM     22  O   UNL     1      76.729  41.743  21.664  1.00  0.00    -0.387 OA
ATOM     23  H   UNL     1      77.540  41.541  21.145  1.00  0.00     0.211 HD
ENDBRANCH   2  22
BRANCH   3  24
ATOM     24  O   UNL     1      75.170  38.499  21.307  1.00  0.00    -0.387 OA
ATOM     25  H   UNL     1      74.175  38.442  21.293  1.00  0.00     0.211 HD
ENDBRANCH   3  24
BRANCH   5  26
ATOM     26  O   UNL     1      71.928  41.098  21.432  1.00  0.00    -0.454 OA
BRANCH  26  27
ATOM     27  C   UNL     1      70.958  40.321  20.708  1.00  0.00     0.214 A 
ATOM     28  C   UNL     1      70.742  38.956  20.978  1.00  0.00     0.180 A 
ATOM     29  C   UNL     1      69.815  40.918  20.062  1.00  0.00     0.239 A 
ATOM     30  O   UNL     1      69.609  38.649  21.570  1.00  0.00    -0.452 OA
ATOM     31  C   UNL     1      68.583  40.215  20.095  1.00  0.00     0.111 A 
ATOM     32  O   UNL     1      69.892  42.120  19.646  1.00  0.00    -0.285 OA
ATOM     33  C   UNL     1      68.499  39.112  21.009  1.00  0.00     0.146 A 
ATOM     34  C   UNL     1      67.533  40.475  19.231  1.00  0.00     0.134 A 
ATOM     35  C   UNL     1      67.280  38.477  21.230  1.00  0.00     0.094 A 
ATOM     36  C   UNL     1      66.408  39.608  19.301  1.00  0.00     0.093 A 
ATOM     37  C   UNL     1      66.281  38.625  20.276  1.00  0.00     0.123 A 
BRANCH  28  38
ATOM     38  C   UNL     1      71.341  37.892  20.117  1.00  0.00     0.025 A 
ATOM     39  C   UNL     1      70.902  36.575  20.273  1.00  0.00     0.062 A 
ATOM     40  C   UNL     1      72.257  38.193  19.081  1.00  0.00     0.016 A 
ATOM     41  C   UNL     1      71.485  35.523  19.564  1.00  0.00     0.158 A 
ATOM     42  C   UNL     1      72.898  37.146  18.388  1.00  0.00     0.051 A 
ATOM     43  C   UNL     1      72.519  35.815  18.607  1.00  0.00     0.157 A 
BRANCH  41  44
ATOM     44  O   UNL     1      71.065  34.250  19.833  1.00  0.00    -0.504 OA
ATOM     45  H   UNL     1      70.587  33.999  20.708  1.00  0.00     0.293 HD
ENDBRANCH  41  44
BRANCH  43  46
ATOM     46  O   UNL     1      73.074  34.783  17.882  1.00  0.00    -0.504 OA
ATOM     47  H   UNL     1      73.749  34.169  18.313  1.00  0.00     0.293 HD
ENDBRANCH  43  46
ENDBRANCH  28  38
BRANCH  34  48
ATOM     48  O   UNL     1      67.701  41.283  18.096  1.00  0.00    -0.507 OA
ATOM     49  H   UNL     1      68.386  42.046  18.170  1.00  0.00     0.293 HD
ENDBRANCH  34  48
BRANCH  37  50
ATOM     50  O   UNL     1      65.249  37.691  20.142  1.00  0.00    -0.508 OA
ATOM     51  H   UNL     1      65.463  36.706  20.139  1.00  0.00     0.293 HD
ENDBRANCH  37  50
ENDBRANCH  26  27
ENDBRANCH   5  26
BRANCH   4  52
ATOM     52  O   UNL     1      74.385  41.964  20.590  1.00  0.00    -0.384 OA
ATOM     53  H   UNL     1      74.006  42.369  21.411  1.00  0.00     0.211 HD
ENDBRANCH   4  52
TORSDOF 16
ENDMDL
