MODEL 1
REMARK VINA RESULT:    -4.313      0.000      0.000
REMARK INTER + INTRA:          -8.903
REMARK INTER:                  -7.590
REMARK INTRA:                  -1.313
REMARK UNBOUND:                -1.313
REMARK SMILES CCCCCCC=CCCCCCCCC(=O)[O-]
REMARK SMILES IDX 10 1 11 2 12 3 13 4 14 5 15 6 16 7 17 8 18 9 9 10 8 11 7 12
REMARK SMILES IDX 6 13 5 14 4 15 3 16 2 17 1 18
REMARK H PARENT
REMARK Flexibility Score: inf
ROOT
ATOM      1  C   UNL     1      30.837 167.207 160.005  1.00  0.00     0.004 C 
ENDROOT
BRANCH   1   2
ATOM      2  C   UNL     1      29.373 167.046 159.563  1.00  0.00     0.000 C 
BRANCH   2   3
ATOM      3  C   UNL     1      28.402 167.873 160.420  1.00  0.00     0.000 C 
BRANCH   3   4
ATOM      4  C   UNL     1      29.011 168.298 161.765  1.00  0.00     0.000 C 
BRANCH   4   5
ATOM      5  C   UNL     1      28.796 169.795 162.016  1.00  0.00     0.006 C 
BRANCH   5   6
ATOM      6  C   UNL     1      27.315 170.165 161.897  1.00  0.00     0.053 C 
BRANCH   6   7
ATOM      7  C   UNL     1      27.005 171.362 162.740  1.00  0.00     0.041 C 
ATOM      8  O   UNL     1      25.982 172.057 162.501  1.00  0.00    -0.550 OA
ATOM      9  O   UNL     1      27.820 171.683 163.818  1.00  0.00    -0.550 OA
ENDBRANCH   6   7
ENDBRANCH   5   6
ENDBRANCH   4   5
ENDBRANCH   3   4
ENDBRANCH   2   3
ENDBRANCH   1   2
BRANCH   1  10
ATOM     10  C   UNL     1      31.537 165.852 160.193  1.00  0.00     0.027 C 
BRANCH  10  11
ATOM     11  C   UNL     1      31.423 164.982 158.965  1.00  0.00    -0.031 C 
ATOM     12  C   UNL     1      32.299 164.980 157.944  1.00  0.00    -0.031 C 
BRANCH  12  13
ATOM     13  C   UNL     1      33.585 165.770 157.913  1.00  0.00     0.027 C 
BRANCH  13  14
ATOM     14  C   UNL     1      33.472 167.015 157.020  1.00  0.00     0.004 C 
BRANCH  14  15
ATOM     15  C   UNL     1      32.298 166.917 156.034  1.00  0.00     0.000 C 
BRANCH  15  16
ATOM     16  C   UNL     1      31.332 168.098 156.211  1.00  0.00    -0.000 C 
BRANCH  16  17
ATOM     17  C   UNL     1      30.641 168.497 154.899  1.00  0.00    -0.003 C 
ATOM     18  C   UNL     1      29.553 169.552 155.101  1.00  0.00     0.004 C 
ENDBRANCH  16  17
ENDBRANCH  15  16
ENDBRANCH  14  15
ENDBRANCH  13  14
ENDBRANCH  12  13
ENDBRANCH  10  11
ENDBRANCH   1  10
TORSDOF 13
ENDMDL
MODEL 2
REMARK VINA RESULT:    -4.257      1.012      1.620
REMARK INTER + INTRA:          -8.805
REMARK INTER:                  -7.497
REMARK INTRA:                  -1.308
REMARK UNBOUND:                -1.313
REMARK SMILES CCCCCCC=CCCCCCCCC(=O)[O-]
REMARK SMILES IDX 10 1 11 2 12 3 13 4 14 5 15 6 16 7 17 8 18 9 9 10 8 11 7 12
REMARK SMILES IDX 6 13 5 14 4 15 3 16 2 17 1 18
REMARK H PARENT
REMARK Flexibility Score: inf
ROOT
ATOM      1  C   UNL     1      31.489 166.026 160.056  1.00  0.00     0.004 C 
ENDROOT
BRANCH   1   2
ATOM      2  C   UNL     1      30.787 167.387 159.906  1.00  0.00     0.000 C 
BRANCH   2   3
ATOM      3  C   UNL     1      29.329 167.356 160.391  1.00  0.00     0.000 C 
BRANCH   3   4
ATOM      4  C   UNL     1      29.139 168.060 161.744  1.00  0.00     0.000 C 
BRANCH   4   5
ATOM      5  C   UNL     1      28.141 169.219 161.623  1.00  0.00     0.006 C 
BRANCH   5   6
ATOM      6  C   UNL     1      28.642 170.456 162.374  1.00  0.00     0.053 C 
BRANCH   6   7
ATOM      7  C   UNL     1      27.649 170.877 163.411  1.00  0.00     0.041 C 
ATOM      8  O   UNL     1      27.018 171.959 163.281  1.00  0.00    -0.550 OA
ATOM      9  O   UNL     1      27.386 170.051 164.497  1.00  0.00    -0.550 OA
ENDBRANCH   6   7
ENDBRANCH   5   6
ENDBRANCH   4   5
ENDBRANCH   3   4
ENDBRANCH   2   3
ENDBRANCH   1   2
BRANCH   1  10
ATOM     10  C   UNL     1      31.857 165.413 158.695  1.00  0.00     0.027 C 
BRANCH  10  11
ATOM     11  C   UNL     1      33.242 165.817 158.250  1.00  0.00    -0.031 C 
ATOM     12  C   UNL     1      33.504 166.732 157.299  1.00  0.00    -0.031 C 
BRANCH  12  13
ATOM     13  C   UNL     1      32.460 167.571 156.602  1.00  0.00     0.027 C 
BRANCH  13  14
ATOM     14  C   UNL     1      31.989 166.928 155.290  1.00  0.00     0.004 C 
BRANCH  14  15
ATOM     15  C   UNL     1      30.539 166.427 155.378  1.00  0.00     0.000 C 
BRANCH  15  16
ATOM     16  C   UNL     1      29.615 167.516 155.943  1.00  0.00    -0.000 C 
BRANCH  16  17
ATOM     17  C   UNL     1      29.173 168.527 154.875  1.00  0.00    -0.003 C 
ATOM     18  C   UNL     1      29.750 169.924 155.109  1.00  0.00     0.004 C 
ENDBRANCH  16  17
ENDBRANCH  15  16
ENDBRANCH  14  15
ENDBRANCH  13  14
ENDBRANCH  12  13
ENDBRANCH  10  11
ENDBRANCH   1  10
TORSDOF 13
ENDMDL
MODEL 3
REMARK VINA RESULT:    -4.143      3.160      5.577
REMARK INTER + INTRA:          -8.604
REMARK INTER:                  -6.775
REMARK INTRA:                  -1.829
REMARK UNBOUND:                -1.313
REMARK SMILES CCCCCCC=CCCCCCCCC(=O)[O-]
REMARK SMILES IDX 10 1 11 2 12 3 13 4 14 5 15 6 16 7 17 8 18 9 9 10 8 11 7 12
REMARK SMILES IDX 6 13 5 14 4 15 3 16 2 17 1 18
REMARK H PARENT
REMARK Flexibility Score: inf
ROOT
ATOM      1  C   UNL     1      32.272 167.064 155.272  1.00  0.00     0.004 C 
ENDROOT
BRANCH   1   2
ATOM      2  C   UNL     1      30.879 166.464 155.015  1.00  0.00     0.000 C 
BRANCH   2   3
ATOM      3  C   UNL     1      29.863 166.838 156.107  1.00  0.00     0.000 C 
BRANCH   3   4
ATOM      4  C   UNL     1      28.467 167.138 155.541  1.00  0.00     0.000 C 
BRANCH   4   5
ATOM      5  C   UNL     1      27.893 168.424 156.149  1.00  0.00     0.006 C 
BRANCH   5   6
ATOM      6  C   UNL     1      27.613 169.468 155.064  1.00  0.00     0.053 C 
BRANCH   6   7
ATOM      7  C   UNL     1      28.685 170.513 155.054  1.00  0.00     0.041 C 
ATOM      8  O   UNL     1      29.896 170.179 155.131  1.00  0.00    -0.550 OA
ATOM      9  O   UNL     1      28.346 171.853 154.912  1.00  0.00    -0.550 OA
ENDBRANCH   6   7
ENDBRANCH   5   6
ENDBRANCH   4   5
ENDBRANCH   3   4
ENDBRANCH   2   3
ENDBRANCH   1   2
BRANCH   1  10
ATOM     10  C   UNL     1      32.441 167.529 156.726  1.00  0.00     0.027 C 
BRANCH  10  11
ATOM     11  C   UNL     1      33.588 166.829 157.413  1.00  0.00    -0.031 C 
ATOM     12  C   UNL     1      33.457 165.779 158.244  1.00  0.00    -0.031 C 
BRANCH  12  13
ATOM     13  C   UNL     1      32.155 165.074 158.539  1.00  0.00     0.027 C 
BRANCH  13  14
ATOM     14  C   UNL     1      31.635 165.395 159.948  1.00  0.00     0.004 C 
BRANCH  14  15
ATOM     15  C   UNL     1      30.704 166.617 159.959  1.00  0.00     0.000 C 
BRANCH  15  16
ATOM     16  C   UNL     1      29.251 166.203 159.679  1.00  0.00    -0.000 C 
BRANCH  16  17
ATOM     17  C   UNL     1      28.287 167.398 159.675  1.00  0.00    -0.003 C 
ATOM     18  C   UNL     1      28.420 168.267 160.927  1.00  0.00     0.004 C 
ENDBRANCH  16  17
ENDBRANCH  15  16
ENDBRANCH  14  15
ENDBRANCH  13  14
ENDBRANCH  12  13
ENDBRANCH  10  11
ENDBRANCH   1  10
TORSDOF 13
ENDMDL
MODEL 4
REMARK VINA RESULT:    -4.048      1.269      2.963
REMARK INTER + INTRA:          -8.437
REMARK INTER:                  -6.895
REMARK INTRA:                  -1.542
REMARK UNBOUND:                -1.313
REMARK SMILES CCCCCCC=CCCCCCCCC(=O)[O-]
REMARK SMILES IDX 10 1 11 2 12 3 13 4 14 5 15 6 16 7 17 8 18 9 9 10 8 11 7 12
REMARK SMILES IDX 6 13 5 14 4 15 3 16 2 17 1 18
REMARK H PARENT
REMARK Flexibility Score: inf
ROOT
ATOM      1  C   UNL     1      30.539 166.359 159.571  1.00  0.00     0.004 C 
ENDROOT
BRANCH   1   2
ATOM      2  C   UNL     1      30.047 167.523 160.448  1.00  0.00     0.000 C 
BRANCH   2   3
ATOM      3  C   UNL     1      29.581 167.060 161.838  1.00  0.00     0.000 C 
BRANCH   3   4
ATOM      4  C   UNL     1      28.869 168.171 162.626  1.00  0.00     0.000 C 
BRANCH   4   5
ATOM      5  C   UNL     1      28.556 169.370 161.722  1.00  0.00     0.006 C 
BRANCH   5   6
ATOM      6  C   UNL     1      28.256 170.620 162.553  1.00  0.00     0.053 C 
BRANCH   6   7
ATOM      7  C   UNL     1      26.783 170.882 162.592  1.00  0.00     0.041 C 
ATOM      8  O   UNL     1      26.069 170.355 163.485  1.00  0.00    -0.550 OA
ATOM      9  O   UNL     1      26.207 171.748 161.670  1.00  0.00    -0.550 OA
ENDBRANCH   6   7
ENDBRANCH   5   6
ENDBRANCH   4   5
ENDBRANCH   3   4
ENDBRANCH   2   3
ENDBRANCH   1   2
BRANCH   1  10
ATOM     10  C   UNL     1      29.530 165.998 158.470  1.00  0.00     0.027 C 
BRANCH  10  11
ATOM     11  C   UNL     1      28.624 167.156 158.133  1.00  0.00    -0.031 C 
ATOM     12  C   UNL     1      28.608 167.796 156.949  1.00  0.00    -0.031 C 
BRANCH  12  13
ATOM     13  C   UNL     1      29.419 167.391 155.742  1.00  0.00     0.027 C 
BRANCH  13  14
ATOM     14  C   UNL     1      30.413 168.485 155.325  1.00  0.00     0.004 C 
BRANCH  14  15
ATOM     15  C   UNL     1      31.810 167.918 155.031  1.00  0.00     0.000 C 
BRANCH  15  16
ATOM     16  C   UNL     1      32.173 166.808 156.029  1.00  0.00    -0.000 C 
BRANCH  16  17
ATOM     17  C   UNL     1      33.382 167.172 156.903  1.00  0.00    -0.003 C 
ATOM     18  C   UNL     1      33.760 166.060 157.883  1.00  0.00     0.004 C 
ENDBRANCH  16  17
ENDBRANCH  15  16
ENDBRANCH  14  15
ENDBRANCH  13  14
ENDBRANCH  12  13
ENDBRANCH  10  11
ENDBRANCH   1  10
TORSDOF 13
ENDMDL
MODEL 5
REMARK VINA RESULT:    -4.032      1.691      2.865
REMARK INTER + INTRA:          -8.410
REMARK INTER:                  -7.336
REMARK INTRA:                  -1.074
REMARK UNBOUND:                -1.313
REMARK SMILES CCCCCCC=CCCCCCCCC(=O)[O-]
REMARK SMILES IDX 10 1 11 2 12 3 13 4 14 5 15 6 16 7 17 8 18 9 9 10 8 11 7 12
REMARK SMILES IDX 6 13 5 14 4 15 3 16 2 17 1 18
REMARK H PARENT
REMARK Flexibility Score: inf
ROOT
ATOM      1  C   UNL     1      29.121 167.533 162.404  1.00  0.00     0.004 C 
ENDROOT
BRANCH   1   2
ATOM      2  C   UNL     1      28.490 168.680 161.597  1.00  0.00     0.000 C 
BRANCH   2   3
ATOM      3  C   UNL     1      28.703 170.053 162.255  1.00  0.00     0.000 C 
BRANCH   3   4
ATOM      4  C   UNL     1      27.424 170.905 162.275  1.00  0.00     0.000 C 
BRANCH   4   5
ATOM      5  C   UNL     1      27.435 171.882 163.457  1.00  0.00     0.006 C 
BRANCH   5   6
ATOM      6  C   UNL     1      26.668 171.307 164.652  1.00  0.00     0.053 C 
BRANCH   6   7
ATOM      7  C   UNL     1      27.618 170.842 165.710  1.00  0.00     0.041 C 
ATOM      8  O   UNL     1      28.707 171.447 165.896  1.00  0.00    -0.550 OA
ATOM      9  O   UNL     1      27.280 169.768 166.524  1.00  0.00    -0.550 OA
ENDBRANCH   6   7
ENDBRANCH   5   6
ENDBRANCH   4   5
ENDBRANCH   3   4
ENDBRANCH   2   3
ENDBRANCH   1   2
BRANCH   1  10
ATOM     10  C   UNL     1      30.148 166.742 161.579  1.00  0.00     0.027 C 
BRANCH  10  11
ATOM     11  C   UNL     1      30.283 167.283 160.176  1.00  0.00    -0.031 C 
ATOM     12  C   UNL     1      31.109 166.783 159.239  1.00  0.00    -0.031 C 
BRANCH  12  13
ATOM     13  C   UNL     1      31.952 165.543 159.410  1.00  0.00     0.027 C 
BRANCH  13  14
ATOM     14  C   UNL     1      33.140 165.518 158.437  1.00  0.00     0.004 C 
BRANCH  14  15
ATOM     15  C   UNL     1      33.474 166.915 157.892  1.00  0.00     0.000 C 
BRANCH  15  16
ATOM     16  C   UNL     1      33.491 166.916 156.356  1.00  0.00    -0.000 C 
BRANCH  16  17
ATOM     17  C   UNL     1      32.209 167.508 155.752  1.00  0.00    -0.003 C 
ATOM     18  C   UNL     1      31.202 166.434 155.338  1.00  0.00     0.004 C 
ENDBRANCH  16  17
ENDBRANCH  15  16
ENDBRANCH  14  15
ENDBRANCH  13  14
ENDBRANCH  12  13
ENDBRANCH  10  11
ENDBRANCH   1  10
TORSDOF 13
ENDMDL
MODEL 6
REMARK VINA RESULT:    -4.028      1.502      2.263
REMARK INTER + INTRA:          -8.402
REMARK INTER:                  -6.928
REMARK INTRA:                  -1.474
REMARK UNBOUND:                -1.313
REMARK SMILES CCCCCCC=CCCCCCCCC(=O)[O-]
REMARK SMILES IDX 10 1 11 2 12 3 13 4 14 5 15 6 16 7 17 8 18 9 9 10 8 11 7 12
REMARK SMILES IDX 6 13 5 14 4 15 3 16 2 17 1 18
REMARK H PARENT
REMARK Flexibility Score: inf
ROOT
ATOM      1  C   UNL     1      31.123 166.055 163.259  1.00  0.00     0.004 C 
ENDROOT
BRANCH   1   2
ATOM      2  C   UNL     1      29.589 166.141 163.325  1.00  0.00     0.000 C 
BRANCH   2   3
ATOM      3  C   UNL     1      29.088 167.567 163.605  1.00  0.00     0.000 C 
BRANCH   3   4
ATOM      4  C   UNL     1      28.023 168.030 162.598  1.00  0.00     0.000 C 
BRANCH   4   5
ATOM      5  C   UNL     1      28.626 168.992 161.567  1.00  0.00     0.006 C 
BRANCH   5   6
ATOM      6  C   UNL     1      28.989 170.332 162.213  1.00  0.00     0.053 C 
BRANCH   6   7
ATOM      7  C   UNL     1      27.755 171.050 162.660  1.00  0.00     0.041 C 
ATOM      8  O   UNL     1      26.808 171.246 161.854  1.00  0.00    -0.550 OA
ATOM      9  O   UNL     1      27.632 171.462 163.982  1.00  0.00    -0.550 OA
ENDBRANCH   6   7
ENDBRANCH   5   6
ENDBRANCH   4   5
ENDBRANCH   3   4
ENDBRANCH   2   3
ENDBRANCH   1   2
BRANCH   1  10
ATOM     10  C   UNL     1      31.619 165.616 161.872  1.00  0.00     0.027 C 
BRANCH  10  11
ATOM     11  C   UNL     1      30.490 165.512 160.876  1.00  0.00    -0.031 C 
ATOM     12  C   UNL     1      30.470 166.119 159.675  1.00  0.00    -0.031 C 
BRANCH  12  13
ATOM     13  C   UNL     1      31.613 166.916 159.096  1.00  0.00     0.027 C 
BRANCH  13  14
ATOM     14  C   UNL     1      32.714 166.009 158.526  1.00  0.00     0.004 C 
BRANCH  14  15
ATOM     15  C   UNL     1      33.364 166.607 157.268  1.00  0.00     0.000 C 
BRANCH  15  16
ATOM     16  C   UNL     1      32.392 167.551 156.544  1.00  0.00    -0.000 C 
BRANCH  16  17
ATOM     17  C   UNL     1      31.932 166.996 155.188  1.00  0.00    -0.003 C 
ATOM     18  C   UNL     1      30.619 166.217 155.282  1.00  0.00     0.004 C 
ENDBRANCH  16  17
ENDBRANCH  15  16
ENDBRANCH  14  15
ENDBRANCH  13  14
ENDBRANCH  12  13
ENDBRANCH  10  11
ENDBRANCH   1  10
TORSDOF 13
ENDMDL
MODEL 7
REMARK VINA RESULT:    -3.954      3.083      7.106
REMARK INTER + INTRA:          -8.272
REMARK INTER:                  -7.055
REMARK INTRA:                  -1.217
REMARK UNBOUND:                -1.313
REMARK SMILES CCCCCCC=CCCCCCCCC(=O)[O-]
REMARK SMILES IDX 10 1 11 2 12 3 13 4 14 5 15 6 16 7 17 8 18 9 9 10 8 11 7 12
REMARK SMILES IDX 6 13 5 14 4 15 3 16 2 17 1 18
REMARK H PARENT
REMARK Flexibility Score: inf
ROOT
ATOM      1  C   UNL     1      31.920 165.553 159.498  1.00  0.00     0.004 C 
ENDROOT
BRANCH   1   2
ATOM      2  C   UNL     1      32.835 165.436 158.268  1.00  0.00     0.000 C 
BRANCH   2   3
ATOM      3  C   UNL     1      33.493 166.774 157.891  1.00  0.00     0.000 C 
BRANCH   3   4
ATOM      4  C   UNL     1      33.403 167.076 156.387  1.00  0.00     0.000 C 
BRANCH   4   5
ATOM      5  C   UNL     1      31.968 166.899 155.877  1.00  0.00     0.006 C 
BRANCH   5   6
ATOM      6  C   UNL     1      31.181 168.208 155.988  1.00  0.00     0.053 C 
BRANCH   6   7
ATOM      7  C   UNL     1      29.760 168.003 155.566  1.00  0.00     0.041 C 
ATOM      8  O   UNL     1      29.235 166.860 155.640  1.00  0.00    -0.550 OA
ATOM      9  O   UNL     1      28.999 169.084 155.137  1.00  0.00    -0.550 OA
ENDBRANCH   6   7
ENDBRANCH   5   6
ENDBRANCH   4   5
ENDBRANCH   3   4
ENDBRANCH   2   3
ENDBRANCH   1   2
BRANCH   1  10
ATOM     10  C   UNL     1      31.269 166.941 159.605  1.00  0.00     0.027 C 
BRANCH  10  11
ATOM     11  C   UNL     1      29.822 166.921 159.177  1.00  0.00    -0.031 C 
ATOM     12  C   UNL     1      28.793 167.342 159.935  1.00  0.00    -0.031 C 
BRANCH  12  13
ATOM     13  C   UNL     1      28.934 167.992 161.290  1.00  0.00     0.027 C 
BRANCH  13  14
ATOM     14  C   UNL     1      27.754 168.923 161.605  1.00  0.00     0.004 C 
BRANCH  14  15
ATOM     15  C   UNL     1      28.213 170.250 162.229  1.00  0.00     0.000 C 
BRANCH  15  16
ATOM     16  C   UNL     1      27.061 171.265 162.269  1.00  0.00    -0.000 C 
BRANCH  16  17
ATOM     17  C   UNL     1      26.884 171.904 163.654  1.00  0.00    -0.003 C 
ATOM     18  C   UNL     1      27.817 171.301 164.706  1.00  0.00     0.004 C 
ENDBRANCH  16  17
ENDBRANCH  15  16
ENDBRANCH  14  15
ENDBRANCH  13  14
ENDBRANCH  12  13
ENDBRANCH  10  11
ENDBRANCH   1  10
TORSDOF 13
ENDMDL
MODEL 8
REMARK VINA RESULT:    -3.929      1.462      3.475
REMARK INTER + INTRA:          -8.228
REMARK INTER:                  -6.124
REMARK INTRA:                  -2.104
REMARK UNBOUND:                -1.313
REMARK SMILES CCCCCCC=CCCCCCCCC(=O)[O-]
REMARK SMILES IDX 10 1 11 2 12 3 13 4 14 5 15 6 16 7 17 8 18 9 9 10 8 11 7 12
REMARK SMILES IDX 6 13 5 14 4 15 3 16 2 17 1 18
REMARK H PARENT
REMARK Flexibility Score: inf
ROOT
ATOM      1  C   UNL     1      28.214 167.546 157.554  1.00  0.00     0.004 C 
ENDROOT
BRANCH   1   2
ATOM      2  C   UNL     1      27.842 166.235 158.267  1.00  0.00     0.000 C 
BRANCH   2   3
ATOM      3  C   UNL     1      27.409 166.457 159.725  1.00  0.00     0.000 C 
BRANCH   3   4
ATOM      4  C   UNL     1      27.396 167.942 160.120  1.00  0.00     0.000 C 
BRANCH   4   5
ATOM      5  C   UNL     1      27.869 168.129 161.567  1.00  0.00     0.006 C 
BRANCH   5   6
ATOM      6  C   UNL     1      28.841 169.306 161.679  1.00  0.00     0.053 C 
BRANCH   6   7
ATOM      7  C   UNL     1      28.312 170.334 162.629  1.00  0.00     0.041 C 
ATOM      8  O   UNL     1      27.565 171.258 162.213  1.00  0.00    -0.550 OA
ATOM      9  O   UNL     1      28.606 170.244 163.985  1.00  0.00    -0.550 OA
ENDBRANCH   6   7
ENDBRANCH   5   6
ENDBRANCH   4   5
ENDBRANCH   3   4
ENDBRANCH   2   3
ENDBRANCH   1   2
BRANCH   1  10
ATOM     10  C   UNL     1      28.645 167.310 156.098  1.00  0.00     0.027 C 
BRANCH  10  11
ATOM     11  C   UNL     1      29.540 168.412 155.587  1.00  0.00    -0.031 C 
ATOM     12  C   UNL     1      30.855 168.276 155.337  1.00  0.00    -0.031 C 
BRANCH  12  13
ATOM     13  C   UNL     1      31.618 166.977 155.429  1.00  0.00     0.027 C 
BRANCH  13  14
ATOM     14  C   UNL     1      32.812 167.078 156.390  1.00  0.00     0.004 C 
BRANCH  14  15
ATOM     15  C   UNL     1      32.395 167.580 157.781  1.00  0.00     0.000 C 
BRANCH  15  16
ATOM     16  C   UNL     1      31.644 166.487 158.556  1.00  0.00    -0.000 C 
BRANCH  16  17
ATOM     17  C   UNL     1      31.099 166.987 159.902  1.00  0.00    -0.003 C 
ATOM     18  C   UNL     1      30.991 165.875 160.946  1.00  0.00     0.004 C 
ENDBRANCH  16  17
ENDBRANCH  15  16
ENDBRANCH  14  15
ENDBRANCH  13  14
ENDBRANCH  12  13
ENDBRANCH  10  11
ENDBRANCH   1  10
TORSDOF 13
ENDMDL
MODEL 9
REMARK VINA RESULT:    -3.908      2.984      5.324
REMARK INTER + INTRA:          -8.190
REMARK INTER:                  -6.166
REMARK INTRA:                  -2.024
REMARK UNBOUND:                -1.313
REMARK SMILES CCCCCCC=CCCCCCCCC(=O)[O-]
REMARK SMILES IDX 10 1 11 2 12 3 13 4 14 5 15 6 16 7 17 8 18 9 9 10 8 11 7 12
REMARK SMILES IDX 6 13 5 14 4 15 3 16 2 17 1 18
REMARK H PARENT
REMARK Flexibility Score: inf
ROOT
ATOM      1  C   UNL     1      32.052 167.634 155.290  1.00  0.00     0.004 C 
ENDROOT
BRANCH   1   2
ATOM      2  C   UNL     1      30.590 167.346 154.908  1.00  0.00     0.000 C 
BRANCH   2   3
ATOM      3  C   UNL     1      29.969 166.221 155.750  1.00  0.00     0.000 C 
BRANCH   3   4
ATOM      4  C   UNL     1      28.699 166.666 156.492  1.00  0.00     0.000 C 
BRANCH   4   5
ATOM      5  C   UNL     1      28.555 168.193 156.465  1.00  0.00     0.006 C 
BRANCH   5   6
ATOM      6  C   UNL     1      27.273 168.611 155.741  1.00  0.00     0.053 C 
BRANCH   6   7
ATOM      7  C   UNL     1      26.079 167.967 156.374  1.00  0.00     0.041 C 
ATOM      8  O   UNL     1      25.719 168.300 157.534  1.00  0.00    -0.550 OA
ATOM      9  O   UNL     1      25.336 167.032 155.664  1.00  0.00    -0.550 OA
ENDBRANCH   6   7
ENDBRANCH   5   6
ENDBRANCH   4   5
ENDBRANCH   3   4
ENDBRANCH   2   3
ENDBRANCH   1   2
BRANCH   1  10
ATOM     10  C   UNL     1      32.276 167.568 156.809  1.00  0.00     0.027 C 
BRANCH  10  11
ATOM     11  C   UNL     1      33.567 166.871 157.160  1.00  0.00    -0.031 C 
ATOM     12  C   UNL     1      33.654 165.734 157.876  1.00  0.00    -0.031 C 
BRANCH  12  13
ATOM     13  C   UNL     1      32.471 164.926 158.351  1.00  0.00     0.027 C 
BRANCH  13  14
ATOM     14  C   UNL     1      31.987 165.377 159.737  1.00  0.00     0.004 C 
BRANCH  14  15
ATOM     15  C   UNL     1      30.573 165.976 159.690  1.00  0.00     0.000 C 
BRANCH  15  16
ATOM     16  C   UNL     1      30.582 167.443 160.147  1.00  0.00    -0.000 C 
BRANCH  16  17
ATOM     17  C   UNL     1      29.319 167.824 160.932  1.00  0.00    -0.003 C 
ATOM     18  C   UNL     1      28.053 167.773 160.076  1.00  0.00     0.004 C 
ENDBRANCH  16  17
ENDBRANCH  15  16
ENDBRANCH  14  15
ENDBRANCH  13  14
ENDBRANCH  12  13
ENDBRANCH  10  11
ENDBRANCH   1  10
TORSDOF 13
ENDMDL
