MODEL 1
REMARK VINA RESULT:    -3.607      0.000      0.000
REMARK INTER + INTRA:          -5.403
REMARK INTER:                  -4.872
REMARK INTRA:                  -0.531
REMARK UNBOUND:                -0.531
REMARK SMILES C[C@@H](O)[C@H](O)[C@H](O)[C@@H](O)C=O
REMARK SMILES IDX 4 1 2 2 1 3 3 4 6 6 8 7 10 8 11 9 9 10 7 12 5 14
REMARK H PARENT 3 5 9 11 7 13 5 15
REMARK Flexibility Score: inf
ROOT
ATOM      1  C   UNL     1      56.546  18.745  52.331  1.00  0.00     0.174 C 
ENDROOT
BRANCH   1   2
ATOM      2  C   UNL     1      55.067  19.178  52.538  1.00  0.00     0.142 C 
ATOM      3  C   UNL     1      54.912  20.124  53.737  1.00  0.00     0.041 C 
BRANCH   2   4
ATOM      4  O   UNL     1      54.518  19.749  51.376  1.00  0.00    -0.391 OA
ATOM      5  H   UNL     1      53.802  19.147  51.045  1.00  0.00     0.211 HD
ENDBRANCH   2   4
ENDBRANCH   1   2
BRANCH   1   6
ATOM      6  C   UNL     1      56.869  18.185  50.914  1.00  0.00     0.181 C 
BRANCH   6   7
ATOM      7  C   UNL     1      58.140  17.293  50.866  1.00  0.00     0.209 C 
BRANCH   7   8
ATOM      8  C   UNL     1      59.325  18.009  50.270  1.00  0.00     0.258 C 
ATOM      9  O   UNL     1      59.667  19.104  50.686  1.00  0.00    -0.300 OA
ENDBRANCH   7   8
BRANCH   7  10
ATOM     10  O   UNL     1      57.892  16.107  50.153  1.00  0.00    -0.383 OA
ATOM     11  H   UNL     1      57.968  15.348  50.789  1.00  0.00     0.211 HD
ENDBRANCH   7  10
ENDBRANCH   6   7
BRANCH   6  12
ATOM     12  O   UNL     1      55.769  17.456  50.429  1.00  0.00    -0.387 OA
ATOM     13  H   UNL     1      56.130  16.701  49.894  1.00  0.00     0.211 HD
ENDBRANCH   6  12
ENDBRANCH   1   6
BRANCH   1  14
ATOM     14  O   UNL     1      57.436  19.786  52.662  1.00  0.00    -0.388 OA
ATOM     15  H   UNL     1      56.902  20.602  52.841  1.00  0.00     0.211 HD
ENDBRANCH   1  14
TORSDOF 8
ENDMDL
MODEL 2
REMARK VINA RESULT:    -3.389     20.536     21.834
REMARK INTER + INTRA:          -5.109
REMARK INTER:                  -4.373
REMARK INTRA:                  -0.736
REMARK UNBOUND:                -0.531
REMARK SMILES C[C@@H](O)[C@H](O)[C@H](O)[C@@H](O)C=O
REMARK SMILES IDX 4 1 2 2 1 3 3 4 6 6 8 7 10 8 11 9 9 10 7 12 5 14
REMARK H PARENT 3 5 9 11 7 13 5 15
REMARK Flexibility Score: inf
ROOT
ATOM      1  C   UNL     1      71.687  32.467  59.948  1.00  0.00     0.174 C 
ENDROOT
BRANCH   1   2
ATOM      2  C   UNL     1      71.281  33.242  58.662  1.00  0.00     0.142 C 
ATOM      3  C   UNL     1      70.606  34.581  58.992  1.00  0.00     0.041 C 
BRANCH   2   4
ATOM      4  O   UNL     1      72.372  33.433  57.796  1.00  0.00    -0.391 OA
ATOM      5  H   UNL     1      72.568  32.567  57.352  1.00  0.00     0.211 HD
ENDBRANCH   2   4
ENDBRANCH   1   2
BRANCH   1   6
ATOM      6  C   UNL     1      72.498  31.162  59.693  1.00  0.00     0.181 C 
BRANCH   6   7
ATOM      7  C   UNL     1      72.570  30.217  60.924  1.00  0.00     0.209 C 
BRANCH   7   8
ATOM      8  C   UNL     1      71.224  29.646  61.292  1.00  0.00     0.258 C 
ATOM      9  O   UNL     1      70.678  28.822  60.575  1.00  0.00    -0.300 OA
ENDBRANCH   7   8
BRANCH   7  10
ATOM     10  O   UNL     1      73.125  30.881  62.032  1.00  0.00    -0.383 OA
ATOM     11  H   UNL     1      74.114  30.832  61.952  1.00  0.00     0.211 HD
ENDBRANCH   7  10
ENDBRANCH   6   7
BRANCH   6  12
ATOM     12  O   UNL     1      71.948  30.466  58.602  1.00  0.00    -0.387 OA
ATOM     13  H   UNL     1      71.771  29.537  58.905  1.00  0.00     0.211 HD
ENDBRANCH   6  12
ENDBRANCH   1   6
BRANCH   1  14
ATOM     14  O   UNL     1      72.371  33.301  60.854  1.00  0.00    -0.388 OA
ATOM     15  H   UNL     1      72.021  33.121  61.764  1.00  0.00     0.211 HD
ENDBRANCH   1  14
TORSDOF 8
ENDMDL
MODEL 3
REMARK VINA RESULT:    -3.328     21.744     22.488
REMARK INTER + INTRA:          -5.025
REMARK INTER:                  -4.520
REMARK INTRA:                  -0.505
REMARK UNBOUND:                -0.531
REMARK SMILES C[C@@H](O)[C@H](O)[C@H](O)[C@@H](O)C=O
REMARK SMILES IDX 4 1 2 2 1 3 3 4 6 6 8 7 10 8 11 9 9 10 7 12 5 14
REMARK H PARENT 3 5 9 11 7 13 5 15
REMARK Flexibility Score: inf
ROOT
ATOM      1  C   UNL     1      71.227  32.933  58.932  1.00  0.00     0.174 C 
ENDROOT
BRANCH   1   2
ATOM      2  C   UNL     1      71.827  32.195  60.163  1.00  0.00     0.142 C 
ATOM      3  C   UNL     1      72.498  30.873  59.764  1.00  0.00     0.041 C 
BRANCH   2   4
ATOM      4  O   UNL     1      72.718  33.011  60.883  1.00  0.00    -0.391 OA
ATOM      5  H   UNL     1      73.043  33.723  60.274  1.00  0.00     0.211 HD
ENDBRANCH   2   4
ENDBRANCH   1   2
BRANCH   1   6
ATOM      6  C   UNL     1      70.828  34.415  59.193  1.00  0.00     0.181 C 
BRANCH   6   7
ATOM      7  C   UNL     1      69.709  34.939  58.250  1.00  0.00     0.209 C 
BRANCH   7   8
ATOM      8  C   UNL     1      70.241  35.856  57.178  1.00  0.00     0.258 C 
ATOM      9  O   UNL     1      71.012  35.440  56.327  1.00  0.00    -0.300 OA
ENDBRANCH   7   8
BRANCH   7  10
ATOM     10  O   UNL     1      68.705  35.596  58.983  1.00  0.00    -0.383 OA
ATOM     11  H   UNL     1      69.003  36.530  59.139  1.00  0.00     0.211 HD
ENDBRANCH   7  10
ENDBRANCH   6   7
BRANCH   6  12
ATOM     12  O   UNL     1      70.421  34.570  60.530  1.00  0.00    -0.387 OA
ATOM     13  H   UNL     1      70.303  33.660  60.909  1.00  0.00     0.211 HD
ENDBRANCH   6  12
ENDBRANCH   1   6
BRANCH   1  14
ATOM     14  O   UNL     1      72.081  32.843  57.815  1.00  0.00    -0.388 OA
ATOM     15  H   UNL     1      73.002  33.054  58.113  1.00  0.00     0.211 HD
ENDBRANCH   1  14
TORSDOF 8
ENDMDL
MODEL 4
REMARK VINA RESULT:    -3.297      1.360      2.372
REMARK INTER + INTRA:          -4.984
REMARK INTER:                  -4.448
REMARK INTRA:                  -0.537
REMARK UNBOUND:                -0.531
REMARK SMILES C[C@@H](O)[C@H](O)[C@H](O)[C@@H](O)C=O
REMARK SMILES IDX 4 1 2 2 1 3 3 4 6 6 8 7 10 8 11 9 9 10 7 12 5 14
REMARK H PARENT 3 5 9 11 7 13 5 15
REMARK Flexibility Score: inf
ROOT
ATOM      1  C   UNL     1      56.819  18.329  51.088  1.00  0.00     0.174 C 
ENDROOT
BRANCH   1   2
ATOM      2  C   UNL     1      56.405  18.564  52.569  1.00  0.00     0.142 C 
ATOM      3  C   UNL     1      57.381  17.894  53.547  1.00  0.00     0.041 C 
BRANCH   2   4
ATOM      4  O   UNL     1      56.261  19.932  52.865  1.00  0.00    -0.391 OA
ATOM      5  H   UNL     1      56.936  20.170  53.553  1.00  0.00     0.211 HD
ENDBRANCH   2   4
ENDBRANCH   1   2
BRANCH   1   6
ATOM      6  C   UNL     1      58.299  17.889  50.889  1.00  0.00     0.181 C 
BRANCH   6   7
ATOM      7  C   UNL     1      58.455  16.470  50.277  1.00  0.00     0.209 C 
BRANCH   7   8
ATOM      8  C   UNL     1      59.863  15.943  50.391  1.00  0.00     0.258 C 
ATOM      9  O   UNL     1      60.815  16.707  50.413  1.00  0.00    -0.300 OA
ENDBRANCH   7   8
BRANCH   7  10
ATOM     10  O   UNL     1      58.050  16.458  48.931  1.00  0.00    -0.383 OA
ATOM     11  H   UNL     1      58.370  15.610  48.524  1.00  0.00     0.211 HD
ENDBRANCH   7  10
ENDBRANCH   6   7
BRANCH   6  12
ATOM     12  O   UNL     1      58.968  18.823  50.077  1.00  0.00    -0.387 OA
ATOM     13  H   UNL     1      58.286  19.463  49.744  1.00  0.00     0.211 HD
ENDBRANCH   6  12
ENDBRANCH   1   6
BRANCH   1  14
ATOM     14  O   UNL     1      55.948  17.425  50.450  1.00  0.00    -0.388 OA
ATOM     15  H   UNL     1      55.500  16.882  51.149  1.00  0.00     0.211 HD
ENDBRANCH   1  14
TORSDOF 8
ENDMDL
MODEL 5
REMARK VINA RESULT:    -3.296      0.962      4.341
REMARK INTER + INTRA:          -4.982
REMARK INTER:                  -4.292
REMARK INTRA:                  -0.690
REMARK UNBOUND:                -0.531
REMARK SMILES C[C@@H](O)[C@H](O)[C@H](O)[C@@H](O)C=O
REMARK SMILES IDX 4 1 2 2 1 3 3 4 6 6 8 7 10 8 11 9 9 10 7 12 5 14
REMARK H PARENT 3 5 9 11 7 13 5 15
REMARK Flexibility Score: inf
ROOT
ATOM      1  C   UNL     1      58.389  18.118  50.683  1.00  0.00     0.174 C 
ENDROOT
BRANCH   1   2
ATOM      2  C   UNL     1      58.853  17.090  49.613  1.00  0.00     0.142 C 
ATOM      3  C   UNL     1      60.309  16.656  49.833  1.00  0.00     0.041 C 
BRANCH   2   4
ATOM      4  O   UNL     1      58.002  15.972  49.553  1.00  0.00    -0.391 OA
ATOM      5  H   UNL     1      58.059  15.495  50.421  1.00  0.00     0.211 HD
ENDBRANCH   2   4
ENDBRANCH   1   2
BRANCH   1   6
ATOM      6  C   UNL     1      57.119  17.698  51.481  1.00  0.00     0.181 C 
BRANCH   6   7
ATOM      7  C   UNL     1      56.849  18.571  52.737  1.00  0.00     0.209 C 
BRANCH   7   8
ATOM      8  C   UNL     1      55.384  18.644  53.086  1.00  0.00     0.258 C 
ATOM      9  O   UNL     1      54.653  19.458  52.545  1.00  0.00    -0.300 OA
ENDBRANCH   7   8
BRANCH   7  10
ATOM     10  O   UNL     1      57.362  19.869  52.563  1.00  0.00    -0.383 OA
ATOM     11  H   UNL     1      56.632  20.513  52.758  1.00  0.00     0.211 HD
ENDBRANCH   7  10
ENDBRANCH   6   7
BRANCH   6  12
ATOM     12  O   UNL     1      55.994  17.733  50.638  1.00  0.00    -0.387 OA
ATOM     13  H   UNL     1      55.483  18.553  50.865  1.00  0.00     0.211 HD
ENDBRANCH   6  12
ENDBRANCH   1   6
BRANCH   1  14
ATOM     14  O   UNL     1      59.436  18.448  51.565  1.00  0.00    -0.388 OA
ATOM     15  H   UNL     1      60.049  17.670  51.622  1.00  0.00     0.211 HD
ENDBRANCH   1  14
TORSDOF 8
ENDMDL
MODEL 6
REMARK VINA RESULT:    -3.283     17.438     18.746
REMARK INTER + INTRA:          -4.966
REMARK INTER:                  -4.270
REMARK INTRA:                  -0.696
REMARK UNBOUND:                -0.531
REMARK SMILES C[C@@H](O)[C@H](O)[C@H](O)[C@@H](O)C=O
REMARK SMILES IDX 4 1 2 2 1 3 3 4 6 6 8 7 10 8 11 9 9 10 7 12 5 14
REMARK H PARENT 3 5 9 11 7 13 5 15
REMARK Flexibility Score: inf
ROOT
ATOM      1  C   UNL     1      65.136  34.256  47.705  1.00  0.00     0.174 C 
ENDROOT
BRANCH   1   2
ATOM      2  C   UNL     1      64.448  33.406  48.811  1.00  0.00     0.142 C 
ATOM      3  C   UNL     1      62.920  33.554  48.776  1.00  0.00     0.041 C 
BRANCH   2   4
ATOM      4  O   UNL     1      64.820  32.052  48.743  1.00  0.00    -0.391 OA
ATOM      5  H   UNL     1      64.027  31.529  48.454  1.00  0.00     0.211 HD
ENDBRANCH   2   4
ENDBRANCH   1   2
BRANCH   1   6
ATOM      6  C   UNL     1      66.514  33.710  47.228  1.00  0.00     0.181 C 
BRANCH   6   7
ATOM      7  C   UNL     1      67.238  34.634  46.210  1.00  0.00     0.209 C 
BRANCH   7   8
ATOM      8  C   UNL     1      68.658  34.937  46.614  1.00  0.00     0.258 C 
ATOM      9  O   UNL     1      68.908  35.854  47.380  1.00  0.00    -0.300 OA
ENDBRANCH   7   8
BRANCH   7  10
ATOM     10  O   UNL     1      66.527  35.834  46.032  1.00  0.00    -0.383 OA
ATOM     11  H   UNL     1      66.115  36.076  46.903  1.00  0.00     0.211 HD
ENDBRANCH   7  10
ENDBRANCH   6   7
BRANCH   6  12
ATOM     12  O   UNL     1      67.350  33.494  48.338  1.00  0.00    -0.387 OA
ATOM     13  H   UNL     1      67.320  34.317  48.893  1.00  0.00     0.211 HD
ENDBRANCH   6  12
ENDBRANCH   1   6
BRANCH   1  14
ATOM     14  O   UNL     1      64.279  34.454  46.605  1.00  0.00    -0.388 OA
ATOM     15  H   UNL     1      63.344  34.370  46.922  1.00  0.00     0.211 HD
ENDBRANCH   1  14
TORSDOF 8
ENDMDL
MODEL 7
REMARK VINA RESULT:    -3.222      9.151     10.612
REMARK INTER + INTRA:          -4.883
REMARK INTER:                  -4.203
REMARK INTRA:                  -0.681
REMARK UNBOUND:                -0.531
REMARK SMILES C[C@@H](O)[C@H](O)[C@H](O)[C@@H](O)C=O
REMARK SMILES IDX 4 1 2 2 1 3 3 4 6 6 8 7 10 8 11 9 9 10 7 12 5 14
REMARK H PARENT 3 5 9 11 7 13 5 15
REMARK Flexibility Score: inf
ROOT
ATOM      1  C   UNL     1      60.353  26.888  50.091  1.00  0.00     0.174 C 
ENDROOT
BRANCH   1   2
ATOM      2  C   UNL     1      61.902  27.025  50.123  1.00  0.00     0.142 C 
ATOM      3  C   UNL     1      62.588  25.676  50.381  1.00  0.00     0.041 C 
BRANCH   2   4
ATOM      4  O   UNL     1      62.402  27.624  48.953  1.00  0.00    -0.391 OA
ATOM      5  H   UNL     1      62.635  26.902  48.314  1.00  0.00     0.211 HD
ENDBRANCH   2   4
ENDBRANCH   1   2
BRANCH   1   6
ATOM      6  C   UNL     1      59.595  28.176  49.652  1.00  0.00     0.181 C 
BRANCH   6   7
ATOM      7  C   UNL     1      58.273  28.422  50.430  1.00  0.00     0.209 C 
BRANCH   7   8
ATOM      8  C   UNL     1      58.510  28.749  51.883  1.00  0.00     0.258 C 
ATOM      9  O   UNL     1      59.226  29.684  52.203  1.00  0.00    -0.300 OA
ENDBRANCH   7   8
BRANCH   7  10
ATOM     10  O   UNL     1      57.417  27.311  50.325  1.00  0.00    -0.383 OA
ATOM     11  H   UNL     1      56.769  27.354  51.076  1.00  0.00     0.211 HD
ENDBRANCH   7  10
ENDBRANCH   6   7
BRANCH   6  12
ATOM     12  O   UNL     1      60.435  29.295  49.796  1.00  0.00    -0.387 OA
ATOM     13  H   UNL     1      60.872  29.448  48.917  1.00  0.00     0.211 HD
ENDBRANCH   6  12
ENDBRANCH   1   6
BRANCH   1  14
ATOM     14  O   UNL     1      59.952  25.791  49.304  1.00  0.00    -0.388 OA
ATOM     15  H   UNL     1      58.961  25.759  49.301  1.00  0.00     0.211 HD
ENDBRANCH   1  14
TORSDOF 8
ENDMDL
