MODEL 1
REMARK VINA RESULT:    -2.851      0.000      0.000
REMARK INTER + INTRA:          -3.467
REMARK INTER:                  -3.434
REMARK INTRA:                  -0.033
REMARK UNBOUND:                -0.033
REMARK SMILES CCCCCO
REMARK SMILES IDX 4 1 3 2 2 3 1 4 5 5 6 6
REMARK H PARENT 6 7
REMARK Flexibility Score: inf
ROOT
ATOM      1  C   UNL     1     175.400 161.186 150.611  1.00  0.00     0.028 C 
ENDROOT
BRANCH   1   2
ATOM      2  C   UNL     1     174.204 161.211 149.642  1.00  0.00     0.002 C 
BRANCH   2   3
ATOM      3  C   UNL     1     172.836 161.429 150.311  1.00  0.00    -0.003 C 
ATOM      4  C   UNL     1     172.593 160.490 151.492  1.00  0.00     0.004 C 
ENDBRANCH   2   3
ENDBRANCH   1   2
BRANCH   1   5
ATOM      5  C   UNL     1     176.620 160.456 150.039  1.00  0.00     0.156 C 
BRANCH   5   6
ATOM      6  O   UNL     1     176.266 159.760 148.875  1.00  0.00    -0.396 OA
ATOM      7  H   UNL     1     177.105 159.382 148.503  1.00  0.00     0.210 HD
ENDBRANCH   5   6
ENDBRANCH   1   5
TORSDOF 4
ENDMDL
MODEL 2
REMARK VINA RESULT:    -2.836     21.020     21.717
REMARK INTER + INTRA:          -3.450
REMARK INTER:                  -3.419
REMARK INTRA:                  -0.031
REMARK UNBOUND:                -0.033
REMARK SMILES CCCCCO
REMARK SMILES IDX 4 1 3 2 2 3 1 4 5 5 6 6
REMARK H PARENT 6 7
REMARK Flexibility Score: inf
ROOT
ATOM      1  C   UNL     1     160.126 176.063 152.760  1.00  0.00     0.028 C 
ENDROOT
BRANCH   1   2
ATOM      2  C   UNL     1     160.309 177.586 152.640  1.00  0.00     0.002 C 
BRANCH   2   3
ATOM      3  C   UNL     1     160.606 178.090 151.216  1.00  0.00    -0.003 C 
ATOM      4  C   UNL     1     161.356 177.065 150.365  1.00  0.00     0.004 C 
ENDBRANCH   2   3
ENDBRANCH   1   2
BRANCH   1   5
ATOM      5  C   UNL     1     160.625 175.503 154.098  1.00  0.00     0.156 C 
BRANCH   5   6
ATOM      6  O   UNL     1     159.751 175.868 155.131  1.00  0.00    -0.396 OA
ATOM      7  H   UNL     1     160.262 176.465 155.738  1.00  0.00     0.210 HD
ENDBRANCH   5   6
ENDBRANCH   1   5
TORSDOF 4
ENDMDL
MODEL 3
REMARK VINA RESULT:    -2.758     20.594     21.320
REMARK INTER + INTRA:          -3.355
REMARK INTER:                  -3.314
REMARK INTRA:                  -0.041
REMARK UNBOUND:                -0.033
REMARK SMILES CCCCCO
REMARK SMILES IDX 4 1 3 2 2 3 1 4 5 5 6 6
REMARK H PARENT 6 7
REMARK Flexibility Score: inf
ROOT
ATOM      1  C   UNL     1     160.135 176.236 152.680  1.00  0.00     0.028 C 
ENDROOT
BRANCH   1   2
ATOM      2  C   UNL     1     160.257 177.532 151.858  1.00  0.00     0.002 C 
BRANCH   2   3
ATOM      3  C   UNL     1     161.130 177.416 150.596  1.00  0.00    -0.003 C 
ATOM      4  C   UNL     1     162.616 177.250 150.911  1.00  0.00     0.004 C 
ENDBRANCH   2   3
ENDBRANCH   1   2
BRANCH   1   5
ATOM      5  C   UNL     1     159.535 175.074 151.880  1.00  0.00     0.156 C 
BRANCH   5   6
ATOM      6  O   UNL     1     159.081 174.072 152.750  1.00  0.00    -0.396 OA
ATOM      7  H   UNL     1     159.679 174.091 153.542  1.00  0.00     0.210 HD
ENDBRANCH   5   6
ENDBRANCH   1   5
TORSDOF 4
ENDMDL
MODEL 4
REMARK VINA RESULT:    -2.729     16.716     17.278
REMARK INTER + INTRA:          -3.320
REMARK INTER:                  -3.272
REMARK INTRA:                  -0.049
REMARK UNBOUND:                -0.033
REMARK SMILES CCCCCO
REMARK SMILES IDX 4 1 3 2 2 3 1 4 5 5 6 6
REMARK H PARENT 6 7
REMARK Flexibility Score: inf
ROOT
ATOM      1  C   UNL     1     172.185 176.591 151.720  1.00  0.00     0.028 C 
ENDROOT
BRANCH   1   2
ATOM      2  C   UNL     1     173.528 176.451 150.982  1.00  0.00     0.002 C 
BRANCH   2   3
ATOM      3  C   UNL     1     174.069 177.757 150.374  1.00  0.00    -0.003 C 
ATOM      4  C   UNL     1     175.461 178.123 150.889  1.00  0.00     0.004 C 
ENDBRANCH   2   3
ENDBRANCH   1   2
BRANCH   1   5
ATOM      5  C   UNL     1     171.795 178.050 151.985  1.00  0.00     0.156 C 
BRANCH   5   6
ATOM      6  O   UNL     1     170.630 178.106 152.761  1.00  0.00    -0.396 OA
ATOM      7  H   UNL     1     170.912 177.993 153.707  1.00  0.00     0.210 HD
ENDBRANCH   5   6
ENDBRANCH   1   5
TORSDOF 4
ENDMDL
MODEL 5
REMARK VINA RESULT:    -2.668     19.432     20.493
REMARK INTER + INTRA:          -3.247
REMARK INTER:                  -3.207
REMARK INTRA:                  -0.040
REMARK UNBOUND:                -0.033
REMARK SMILES CCCCCO
REMARK SMILES IDX 4 1 3 2 2 3 1 4 5 5 6 6
REMARK H PARENT 6 7
REMARK Flexibility Score: inf
ROOT
ATOM      1  C   UNL     1     160.451 173.793 152.038  1.00  0.00     0.028 C 
ENDROOT
BRANCH   1   2
ATOM      2  C   UNL     1     159.482 174.973 151.843  1.00  0.00     0.002 C 
BRANCH   2   3
ATOM      3  C   UNL     1     160.136 176.364 151.915  1.00  0.00    -0.003 C 
ATOM      4  C   UNL     1     160.524 176.913 150.541  1.00  0.00     0.004 C 
ENDBRANCH   2   3
ENDBRANCH   1   2
BRANCH   1   5
ATOM      5  C   UNL     1     160.089 172.912 153.238  1.00  0.00     0.156 C 
BRANCH   5   6
ATOM      6  O   UNL     1     160.183 173.650 154.426  1.00  0.00    -0.396 OA
ATOM      7  H   UNL     1     160.519 173.026 155.122  1.00  0.00     0.210 HD
ENDBRANCH   5   6
ENDBRANCH   1   5
TORSDOF 4
ENDMDL
MODEL 6
REMARK VINA RESULT:    -2.656     14.391     14.699
REMARK INTER + INTRA:          -3.232
REMARK INTER:                  -3.223
REMARK INTRA:                  -0.009
REMARK UNBOUND:                -0.033
REMARK SMILES CCCCCO
REMARK SMILES IDX 4 1 3 2 2 3 1 4 5 5 6 6
REMARK H PARENT 6 7
REMARK Flexibility Score: inf
ROOT
ATOM      1  C   UNL     1     175.907 174.290 150.936  1.00  0.00     0.028 C 
ENDROOT
BRANCH   1   2
ATOM      2  C   UNL     1     175.674 175.785 151.217  1.00  0.00     0.002 C 
BRANCH   2   3
ATOM      3  C   UNL     1     174.297 176.317 150.780  1.00  0.00    -0.003 C 
ATOM      4  C   UNL     1     174.341 177.770 150.306  1.00  0.00     0.004 C 
ENDBRANCH   2   3
ENDBRANCH   1   2
BRANCH   1   5
ATOM      5  C   UNL     1     177.390 173.904 150.938  1.00  0.00     0.156 C 
BRANCH   5   6
ATOM      6  O   UNL     1     177.844 173.721 149.625  1.00  0.00    -0.396 OA
ATOM      7  H   UNL     1     178.033 172.752 149.521  1.00  0.00     0.210 HD
ENDBRANCH   5   6
ENDBRANCH   1   5
TORSDOF 4
ENDMDL
MODEL 7
REMARK VINA RESULT:    -2.649     14.609     15.232
REMARK INTER + INTRA:          -3.224
REMARK INTER:                  -3.144
REMARK INTRA:                  -0.080
REMARK UNBOUND:                -0.033
REMARK SMILES CCCCCO
REMARK SMILES IDX 4 1 3 2 2 3 1 4 5 5 6 6
REMARK H PARENT 6 7
REMARK Flexibility Score: inf
ROOT
ATOM      1  C   UNL     1     177.410 159.158 163.766  1.00  0.00     0.028 C 
ENDROOT
BRANCH   1   2
ATOM      2  C   UNL     1     177.959 159.607 165.133  1.00  0.00     0.002 C 
BRANCH   2   3
ATOM      3  C   UNL     1     177.710 158.617 166.284  1.00  0.00    -0.003 C 
ATOM      4  C   UNL     1     176.586 159.061 167.221  1.00  0.00     0.004 C 
ENDBRANCH   2   3
ENDBRANCH   1   2
BRANCH   1   5
ATOM      5  C   UNL     1     175.924 159.485 163.579  1.00  0.00     0.156 C 
BRANCH   5   6
ATOM      6  O   UNL     1     175.175 158.303 163.502  1.00  0.00    -0.396 OA
ATOM      7  H   UNL     1     174.721 158.197 164.379  1.00  0.00     0.210 HD
ENDBRANCH   5   6
ENDBRANCH   1   5
TORSDOF 4
ENDMDL
MODEL 8
REMARK VINA RESULT:    -2.582      2.827      3.795
REMARK INTER + INTRA:          -3.144
REMARK INTER:                  -3.073
REMARK INTRA:                  -0.071
REMARK UNBOUND:                -0.033
REMARK SMILES CCCCCO
REMARK SMILES IDX 4 1 3 2 2 3 1 4 5 5 6 6
REMARK H PARENT 6 7
REMARK Flexibility Score: inf
ROOT
ATOM      1  C   UNL     1     175.849 162.041 153.215  1.00  0.00     0.028 C 
ENDROOT
BRANCH   1   2
ATOM      2  C   UNL     1     176.401 162.116 151.780  1.00  0.00     0.002 C 
BRANCH   2   3
ATOM      3  C   UNL     1     175.596 161.321 150.737  1.00  0.00    -0.003 C 
ATOM      4  C   UNL     1     176.480 160.491 149.806  1.00  0.00     0.004 C 
ENDBRANCH   2   3
ENDBRANCH   1   2
BRANCH   1   5
ATOM      5  C   UNL     1     174.833 160.910 153.408  1.00  0.00     0.156 C 
BRANCH   5   6
ATOM      6  O   UNL     1     175.423 159.841 154.096  1.00  0.00    -0.396 OA
ATOM      7  H   UNL     1     175.800 160.216 154.934  1.00  0.00     0.210 HD
ENDBRANCH   5   6
ENDBRANCH   1   5
TORSDOF 4
ENDMDL
