MODEL 1
REMARK VINA RESULT:    -3.357      0.000      0.000
REMARK INTER + INTRA:          -5.784
REMARK INTER:                  -4.926
REMARK INTRA:                  -0.858
REMARK UNBOUND:                -0.858
REMARK SMILES CCCCCCCCCC=O
REMARK SMILES IDX 6 1 5 2 4 3 3 4 2 5 1 6 7 7 8 8 9 9 10 10 11 11
REMARK H PARENT
REMARK Flexibility Score: inf
ROOT
ATOM      1  C   UNL     1      -2.346   7.390   5.249  1.00  0.00     0.000 C 
ENDROOT
BRANCH   1   2
ATOM      2  C   UNL     1      -1.650   8.024   6.465  1.00  0.00     0.000 C 
BRANCH   2   3
ATOM      3  C   UNL     1      -0.609   7.089   7.103  1.00  0.00    -0.000 C 
BRANCH   3   4
ATOM      4  C   UNL     1       0.769   7.756   7.266  1.00  0.00    -0.000 C 
BRANCH   4   5
ATOM      5  C   UNL     1       1.748   7.361   6.150  1.00  0.00    -0.003 C 
ATOM      6  C   UNL     1       2.012   8.501   5.167  1.00  0.00     0.004 C 
ENDBRANCH   4   5
ENDBRANCH   3   4
ENDBRANCH   2   3
ENDBRANCH   1   2
BRANCH   1   7
ATOM      7  C   UNL     1      -2.068   8.155   3.944  1.00  0.00     0.000 C 
BRANCH   7   8
ATOM      8  C   UNL     1      -0.937   7.525   3.117  1.00  0.00     0.008 C 
BRANCH   8   9
ATOM      9  C   UNL     1      -0.606   6.118   3.626  1.00  0.00     0.072 C 
BRANCH   9  10
ATOM     10  C   UNL     1      -0.656   5.117   2.511  1.00  0.00     0.224 C 
ATOM     11  O   UNL     1      -1.167   5.407   1.441  1.00  0.00    -0.303 OA
ENDBRANCH   9  10
ENDBRANCH   8   9
ENDBRANCH   7   8
ENDBRANCH   1   7
TORSDOF 8
ENDMDL
MODEL 2
REMARK VINA RESULT:    -3.309     16.058     17.112
REMARK INTER + INTRA:          -5.714
REMARK INTER:                  -5.020
REMARK INTRA:                  -0.694
REMARK UNBOUND:                -0.858
REMARK SMILES CCCCCCCCCC=O
REMARK SMILES IDX 6 1 5 2 4 3 3 4 2 5 1 6 7 7 8 8 9 9 10 10 11 11
REMARK H PARENT
REMARK Flexibility Score: inf
ROOT
ATOM      1  C   UNL     1       9.413  -0.190  -6.537  1.00  0.00     0.000 C 
ENDROOT
BRANCH   1   2
ATOM      2  C   UNL     1       8.122  -0.723  -7.181  1.00  0.00     0.000 C 
BRANCH   2   3
ATOM      3  C   UNL     1       7.156   0.403  -7.586  1.00  0.00    -0.000 C 
BRANCH   3   4
ATOM      4  C   UNL     1       6.621   0.240  -9.020  1.00  0.00    -0.000 C 
BRANCH   4   5
ATOM      5  C   UNL     1       7.009   1.415  -9.929  1.00  0.00    -0.003 C 
ATOM      6  C   UNL     1       8.506   1.723  -9.888  1.00  0.00     0.004 C 
ENDBRANCH   4   5
ENDBRANCH   3   4
ENDBRANCH   2   3
ENDBRANCH   1   2
BRANCH   1   7
ATOM      7  C   UNL     1       9.337   1.311  -6.216  1.00  0.00     0.000 C 
BRANCH   7   8
ATOM      8  C   UNL     1      10.659   2.044  -6.487  1.00  0.00     0.008 C 
BRANCH   8   9
ATOM      9  C   UNL     1      10.404   3.415  -7.124  1.00  0.00     0.072 C 
BRANCH   9  10
ATOM     10  C   UNL     1      11.387   4.431  -6.625  1.00  0.00     0.224 C 
ATOM     11  O   UNL     1      11.001   5.464  -6.105  1.00  0.00    -0.303 OA
ENDBRANCH   9  10
ENDBRANCH   8   9
ENDBRANCH   7   8
ENDBRANCH   1   7
TORSDOF 8
ENDMDL
MODEL 3
REMARK VINA RESULT:    -3.286      1.418      2.449
REMARK INTER + INTRA:          -5.681
REMARK INTER:                  -4.995
REMARK INTRA:                  -0.686
REMARK UNBOUND:                -0.858
REMARK SMILES CCCCCCCCCC=O
REMARK SMILES IDX 6 1 5 2 4 3 3 4 2 5 1 6 7 7 8 8 9 9 10 10 11 11
REMARK H PARENT
REMARK Flexibility Score: inf
ROOT
ATOM      1  C   UNL     1       0.108   6.915   6.032  1.00  0.00     0.000 C 
ENDROOT
BRANCH   1   2
ATOM      2  C   UNL     1       1.532   6.770   5.468  1.00  0.00     0.000 C 
BRANCH   2   3
ATOM      3  C   UNL     1       2.466   7.904   5.925  1.00  0.00    -0.000 C 
BRANCH   3   4
ATOM      4  C   UNL     1       1.948   9.297   5.524  1.00  0.00    -0.000 C 
BRANCH   4   5
ATOM      5  C   UNL     1       2.729   9.897   4.346  1.00  0.00    -0.003 C 
ATOM      6  C   UNL     1       1.819  10.338   3.199  1.00  0.00     0.004 C 
ENDBRANCH   4   5
ENDBRANCH   3   4
ENDBRANCH   2   3
ENDBRANCH   1   2
BRANCH   1   7
ATOM      7  C   UNL     1      -0.973   6.782   4.947  1.00  0.00     0.000 C 
BRANCH   7   8
ATOM      8  C   UNL     1      -0.596   7.501   3.642  1.00  0.00     0.008 C 
BRANCH   8   9
ATOM      9  C   UNL     1      -1.087   6.713   2.422  1.00  0.00     0.072 C 
BRANCH   9  10
ATOM     10  C   UNL     1      -0.973   5.236   2.656  1.00  0.00     0.224 C 
ATOM     11  O   UNL     1       0.113   4.682   2.601  1.00  0.00    -0.303 OA
ENDBRANCH   9  10
ENDBRANCH   8   9
ENDBRANCH   7   8
ENDBRANCH   1   7
TORSDOF 8
ENDMDL
MODEL 4
REMARK VINA RESULT:    -3.229      1.413      2.942
REMARK INTER + INTRA:          -5.597
REMARK INTER:                  -4.792
REMARK INTRA:                  -0.804
REMARK UNBOUND:                -0.858
REMARK SMILES CCCCCCCCCC=O
REMARK SMILES IDX 6 1 5 2 4 3 3 4 2 5 1 6 7 7 8 8 9 9 10 10 11 11
REMARK H PARENT
REMARK Flexibility Score: inf
ROOT
ATOM      1  C   UNL     1       0.142   6.643   6.251  1.00  0.00     0.000 C 
ENDROOT
BRANCH   1   2
ATOM      2  C   UNL     1      -0.266   8.068   6.665  1.00  0.00     0.000 C 
BRANCH   2   3
ATOM      3  C   UNL     1      -1.154   8.086   7.920  1.00  0.00    -0.000 C 
BRANCH   3   4
ATOM      4  C   UNL     1      -2.608   8.485   7.613  1.00  0.00    -0.000 C 
BRANCH   4   5
ATOM      5  C   UNL     1      -2.857   8.689   6.111  1.00  0.00    -0.003 C 
ATOM      6  C   UNL     1      -3.825   7.659   5.529  1.00  0.00     0.004 C 
ENDBRANCH   4   5
ENDBRANCH   3   4
ENDBRANCH   2   3
ENDBRANCH   1   2
BRANCH   1   7
ATOM      7  C   UNL     1       0.486   6.538   4.756  1.00  0.00     0.000 C 
BRANCH   7   8
ATOM      8  C   UNL     1      -0.106   7.690   3.929  1.00  0.00     0.008 C 
BRANCH   8   9
ATOM      9  C   UNL     1      -1.024   7.154   2.825  1.00  0.00     0.072 C 
BRANCH   9  10
ATOM     10  C   UNL     1      -0.763   5.701   2.567  1.00  0.00     0.224 C 
ATOM     11  O   UNL     1      -1.358   5.112   1.680  1.00  0.00    -0.303 OA
ENDBRANCH   9  10
ENDBRANCH   8   9
ENDBRANCH   7   8
ENDBRANCH   1   7
TORSDOF 8
ENDMDL
MODEL 5
REMARK VINA RESULT:    -3.224     13.002     14.902
REMARK INTER + INTRA:          -5.589
REMARK INTER:                  -5.033
REMARK INTRA:                  -0.557
REMARK UNBOUND:                -0.858
REMARK SMILES CCCCCCCCCC=O
REMARK SMILES IDX 6 1 5 2 4 3 3 4 2 5 1 6 7 7 8 8 9 9 10 10 11 11
REMARK H PARENT
REMARK Flexibility Score: inf
ROOT
ATOM      1  C   UNL     1       8.373  -3.776  -0.671  1.00  0.00     0.000 C 
ENDROOT
BRANCH   1   2
ATOM      2  C   UNL     1       9.354  -2.940   0.170  1.00  0.00     0.000 C 
BRANCH   2   3
ATOM      3  C   UNL     1       8.838  -2.684   1.596  1.00  0.00    -0.000 C 
BRANCH   3   4
ATOM      4  C   UNL     1       7.302  -2.699   1.684  1.00  0.00    -0.000 C 
BRANCH   4   5
ATOM      5  C   UNL     1       6.770  -1.830   2.833  1.00  0.00    -0.003 C 
ATOM      6  C   UNL     1       7.890  -1.190   3.655  1.00  0.00     0.004 C 
ENDBRANCH   4   5
ENDBRANCH   3   4
ENDBRANCH   2   3
ENDBRANCH   1   2
BRANCH   1   7
ATOM      7  C   UNL     1       8.885  -5.202  -0.930  1.00  0.00     0.000 C 
BRANCH   7   8
ATOM      8  C   UNL     1       8.454  -6.195   0.161  1.00  0.00     0.008 C 
BRANCH   8   9
ATOM      9  C   UNL     1       7.343  -7.120  -0.350  1.00  0.00     0.072 C 
BRANCH   9  10
ATOM     10  C   UNL     1       6.127  -7.031   0.522  1.00  0.00     0.224 C 
ATOM     11  O   UNL     1       5.815  -5.974   1.045  1.00  0.00    -0.303 OA
ENDBRANCH   9  10
ENDBRANCH   8   9
ENDBRANCH   7   8
ENDBRANCH   1   7
TORSDOF 8
ENDMDL
MODEL 6
REMARK VINA RESULT:    -3.193     15.804     16.141
REMARK INTER + INTRA:          -5.544
REMARK INTER:                  -5.170
REMARK INTRA:                  -0.374
REMARK UNBOUND:                -0.858
REMARK SMILES CCCCCCCCCC=O
REMARK SMILES IDX 6 1 5 2 4 3 3 4 2 5 1 6 7 7 8 8 9 9 10 10 11 11
REMARK H PARENT
REMARK Flexibility Score: inf
ROOT
ATOM      1  C   UNL     1       7.216  -0.975  -7.718  1.00  0.00     0.000 C 
ENDROOT
BRANCH   1   2
ATOM      2  C   UNL     1       8.519  -0.660  -6.964  1.00  0.00     0.000 C 
BRANCH   2   3
ATOM      3  C   UNL     1       8.777   0.851  -6.837  1.00  0.00    -0.000 C 
BRANCH   3   4
ATOM      4  C   UNL     1       9.885   1.181  -5.822  1.00  0.00    -0.000 C 
BRANCH   4   5
ATOM      5  C   UNL     1      10.590   2.510  -6.132  1.00  0.00    -0.003 C 
ATOM      6  C   UNL     1      10.279   3.029  -7.536  1.00  0.00     0.004 C 
ENDBRANCH   4   5
ENDBRANCH   3   4
ENDBRANCH   2   3
ENDBRANCH   1   2
BRANCH   1   7
ATOM      7  C   UNL     1       6.475   0.294  -8.171  1.00  0.00     0.000 C 
BRANCH   7   8
ATOM      8  C   UNL     1       5.007   0.024  -8.538  1.00  0.00     0.008 C 
BRANCH   8   9
ATOM      9  C   UNL     1       4.628  -1.431  -8.240  1.00  0.00     0.072 C 
BRANCH   9  10
ATOM     10  C   UNL     1       3.143  -1.623  -8.309  1.00  0.00     0.224 C 
ATOM     11  O   UNL     1       2.411  -1.098  -7.486  1.00  0.00    -0.303 OA
ENDBRANCH   9  10
ENDBRANCH   8   9
ENDBRANCH   7   8
ENDBRANCH   1   7
TORSDOF 8
ENDMDL
MODEL 7
REMARK VINA RESULT:    -3.157     12.986     14.765
REMARK INTER + INTRA:          -5.491
REMARK INTER:                  -4.592
REMARK INTRA:                  -0.898
REMARK UNBOUND:                -0.858
REMARK SMILES CCCCCCCCCC=O
REMARK SMILES IDX 6 1 5 2 4 3 3 4 2 5 1 6 7 7 8 8 9 9 10 10 11 11
REMARK H PARENT
REMARK Flexibility Score: inf
ROOT
ATOM      1  C   UNL     1       8.362  -2.808   0.209  1.00  0.00     0.000 C 
ENDROOT
BRANCH   1   2
ATOM      2  C   UNL     1       7.187  -2.973   1.187  1.00  0.00     0.000 C 
BRANCH   2   3
ATOM      3  C   UNL     1       7.318  -2.070   2.425  1.00  0.00    -0.000 C 
BRANCH   3   4
ATOM      4  C   UNL     1       7.727  -2.848   3.688  1.00  0.00    -0.000 C 
BRANCH   4   5
ATOM      5  C   UNL     1       7.415  -4.349   3.580  1.00  0.00    -0.003 C 
ATOM      6  C   UNL     1       8.637  -5.226   3.852  1.00  0.00     0.004 C 
ENDBRANCH   4   5
ENDBRANCH   3   4
ENDBRANCH   2   3
ENDBRANCH   1   2
BRANCH   1   7
ATOM      7  C   UNL     1       8.579  -4.051  -0.669  1.00  0.00     0.000 C 
BRANCH   7   8
ATOM      8  C   UNL     1       8.738  -5.339   0.153  1.00  0.00     0.008 C 
BRANCH   8   9
ATOM      9  C   UNL     1       7.731  -6.403  -0.297  1.00  0.00     0.072 C 
BRANCH   9  10
ATOM     10  C   UNL     1       6.801  -6.770   0.820  1.00  0.00     0.224 C 
ATOM     11  O   UNL     1       5.749  -6.170   0.973  1.00  0.00    -0.303 OA
ENDBRANCH   9  10
ENDBRANCH   8   9
ENDBRANCH   7   8
ENDBRANCH   1   7
TORSDOF 8
ENDMDL
MODEL 8
REMARK VINA RESULT:    -3.139     16.290     17.521
REMARK INTER + INTRA:          -5.465
REMARK INTER:                  -4.619
REMARK INTRA:                  -0.846
REMARK UNBOUND:                -0.858
REMARK SMILES CCCCCCCCCC=O
REMARK SMILES IDX 6 1 5 2 4 3 3 4 2 5 1 6 7 7 8 8 9 9 10 10 11 11
REMARK H PARENT
REMARK Flexibility Score: inf
ROOT
ATOM      1  C   UNL     1       9.363   1.126  -9.862  1.00  0.00     0.000 C 
ENDROOT
BRANCH   1   2
ATOM      2  C   UNL     1       7.911   1.536  -9.561  1.00  0.00     0.000 C 
BRANCH   2   3
ATOM      3  C   UNL     1       7.181   0.512  -8.676  1.00  0.00    -0.000 C 
BRANCH   3   4
ATOM      4  C   UNL     1       7.772   0.425  -7.258  1.00  0.00    -0.000 C 
BRANCH   4   5
ATOM      5  C   UNL     1       8.480  -0.913  -6.997  1.00  0.00    -0.003 C 
ATOM      6  C   UNL     1       9.802  -0.744  -6.248  1.00  0.00     0.004 C 
ENDBRANCH   4   5
ENDBRANCH   3   4
ENDBRANCH   2   3
ENDBRANCH   1   2
BRANCH   1   7
ATOM      7  C   UNL     1      10.365   2.262  -9.594  1.00  0.00     0.000 C 
BRANCH   7   8
ATOM      8  C   UNL     1      10.980   2.190  -8.187  1.00  0.00     0.008 C 
BRANCH   8   9
ATOM      9  C   UNL     1      10.318   3.206  -7.249  1.00  0.00     0.072 C 
BRANCH   9  10
ATOM     10  C   UNL     1      11.273   4.303  -6.887  1.00  0.00     0.224 C 
ATOM     11  O   UNL     1      10.916   5.223  -6.169  1.00  0.00    -0.303 OA
ENDBRANCH   9  10
ENDBRANCH   8   9
ENDBRANCH   7   8
ENDBRANCH   1   7
TORSDOF 8
ENDMDL
MODEL 9
REMARK VINA RESULT:    -3.103     15.955     16.982
REMARK INTER + INTRA:          -5.411
REMARK INTER:                  -4.542
REMARK INTRA:                  -0.870
REMARK UNBOUND:                -0.858
REMARK SMILES CCCCCCCCCC=O
REMARK SMILES IDX 6 1 5 2 4 3 3 4 2 5 1 6 7 7 8 8 9 9 10 10 11 11
REMARK H PARENT
REMARK Flexibility Score: inf
ROOT
ATOM      1  C   UNL     1       9.367  -0.333  -6.455  1.00  0.00     0.000 C 
ENDROOT
BRANCH   1   2
ATOM      2  C   UNL     1       9.358   1.169  -6.121  1.00  0.00     0.000 C 
BRANCH   2   3
ATOM      3  C   UNL     1      10.541   1.921  -6.755  1.00  0.00    -0.000 C 
BRANCH   3   4
ATOM      4  C   UNL     1      10.149   2.665  -8.043  1.00  0.00    -0.000 C 
BRANCH   4   5
ATOM      5  C   UNL     1      10.338   1.804  -9.301  1.00  0.00    -0.003 C 
ATOM      6  C   UNL     1       9.157   1.902 -10.266  1.00  0.00     0.004 C 
ENDBRANCH   4   5
ENDBRANCH   3   4
ENDBRANCH   2   3
ENDBRANCH   1   2
BRANCH   1   7
ATOM      7  C   UNL     1       8.128  -0.767  -7.256  1.00  0.00     0.000 C 
BRANCH   7   8
ATOM      8  C   UNL     1       7.162   0.396  -7.531  1.00  0.00     0.008 C 
BRANCH   8   9
ATOM      9  C   UNL     1       6.048  -0.035  -8.491  1.00  0.00     0.072 C 
BRANCH   9  10
ATOM     10  C   UNL     1       5.729  -1.490  -8.326  1.00  0.00     0.224 C 
ATOM     11  O   UNL     1       4.616  -1.844  -7.973  1.00  0.00    -0.303 OA
ENDBRANCH   9  10
ENDBRANCH   8   9
ENDBRANCH   7   8
ENDBRANCH   1   7
TORSDOF 8
ENDMDL
