MODEL 1
REMARK VINA RESULT:    -3.848      0.000      0.000
REMARK INTER + INTRA:          -4.744
REMARK INTER:                  -4.635
REMARK INTRA:                  -0.109
REMARK UNBOUND:                -0.109
REMARK SMILES CC[C@@H](C)[C@@H]([NH3+])C(=O)[O-]
REMARK SMILES IDX 3 1 4 2 5 3 6 4 7 8 8 9 9 10 2 11 1 12
REMARK H PARENT 6 5 6 6 6 7
REMARK Flexibility Score: inf
ROOT
ATOM      1  C   UNL     1     123.556 113.319 107.277  1.00  0.00     0.050 C 
ATOM      2  C   UNL     1     123.759 111.816 107.016  1.00  0.00     0.014 C 
ENDROOT
BRANCH   1   3
ATOM      3  C   UNL     1     123.278 113.594 108.788  1.00  0.00     0.230 C 
BRANCH   3   4
ATOM      4  N   UNL     1     124.001 114.771 109.296  1.00  0.00    -0.350 N 
ATOM      5  H   UNL     1     124.920 114.503 109.715  1.00  0.00     0.345 HD
ATOM      6  H   UNL     1     123.426 115.271 110.011  1.00  0.00     0.345 HD
ATOM      7  H   UNL     1     124.176 115.438 108.508  1.00  0.00     0.345 HD
ENDBRANCH   3   4
BRANCH   3   8
ATOM      8  C   UNL     1     121.797 113.717 109.054  1.00  0.00     0.099 C 
ATOM      9  O   UNL     1     121.036 114.176 108.162  1.00  0.00    -0.544 OA
ATOM     10  O   UNL     1     121.264 113.369 110.291  1.00  0.00    -0.544 OA
ENDBRANCH   3   8
ENDBRANCH   1   3
BRANCH   1  11
ATOM     11  C   UNL     1     124.741 114.152 106.721  1.00  0.00     0.006 C 
ATOM     12  C   UNL     1     124.291 115.238 105.743  1.00  0.00     0.004 C 
ENDBRANCH   1  11
TORSDOF 4
ENDMDL
MODEL 2
REMARK VINA RESULT:    -3.838     10.911     11.989
REMARK INTER + INTRA:          -4.732
REMARK INTER:                  -4.609
REMARK INTRA:                  -0.123
REMARK UNBOUND:                -0.109
REMARK SMILES CC[C@@H](C)[C@@H]([NH3+])C(=O)[O-]
REMARK SMILES IDX 3 1 4 2 5 3 6 4 7 8 8 9 9 10 2 11 1 12
REMARK H PARENT 6 5 6 6 6 7
REMARK Flexibility Score: inf
ROOT
ATOM      1  C   UNL     1     123.131 125.854 107.072  1.00  0.00     0.050 C 
ATOM      2  C   UNL     1     124.112 127.012 107.329  1.00  0.00     0.014 C 
ENDROOT
BRANCH   1   3
ATOM      3  C   UNL     1     122.818 125.080 108.390  1.00  0.00     0.230 C 
BRANCH   3   4
ATOM      4  N   UNL     1     121.724 124.109 108.236  1.00  0.00    -0.350 N 
ATOM      5  H   UNL     1     122.084 123.128 108.209  1.00  0.00     0.345 HD
ATOM      6  H   UNL     1     121.185 124.304 107.362  1.00  0.00     0.345 HD
ATOM      7  H   UNL     1     121.062 124.198 109.042  1.00  0.00     0.345 HD
ENDBRANCH   3   4
BRANCH   3   8
ATOM      8  C   UNL     1     124.057 124.412 108.934  1.00  0.00     0.099 C 
ATOM      9  O   UNL     1     124.673 123.567 108.233  1.00  0.00    -0.544 OA
ATOM     10  O   UNL     1     124.507 124.685 110.222  1.00  0.00    -0.544 OA
ENDBRANCH   3   8
ENDBRANCH   1   3
BRANCH   1  11
ATOM     11  C   UNL     1     121.852 126.350 106.346  1.00  0.00     0.006 C 
ATOM     12  C   UNL     1     121.198 127.540 107.051  1.00  0.00     0.004 C 
ENDBRANCH   1  11
TORSDOF 4
ENDMDL
MODEL 3
REMARK VINA RESULT:    -3.829     11.118     12.179
REMARK INTER + INTRA:          -4.721
REMARK INTER:                  -4.614
REMARK INTRA:                  -0.108
REMARK UNBOUND:                -0.109
REMARK SMILES CC[C@@H](C)[C@@H]([NH3+])C(=O)[O-]
REMARK SMILES IDX 3 1 4 2 5 3 6 4 7 8 8 9 9 10 2 11 1 12
REMARK H PARENT 6 5 6 6 6 7
REMARK Flexibility Score: inf
ROOT
ATOM      1  C   UNL     1     112.336 119.826 107.351  1.00  0.00     0.050 C 
ATOM      2  C   UNL     1     110.946 120.436 107.095  1.00  0.00     0.014 C 
ENDROOT
BRANCH   1   3
ATOM      3  C   UNL     1     112.737 119.953 108.854  1.00  0.00     0.230 C 
BRANCH   3   4
ATOM      4  N   UNL     1     113.420 118.754 109.365  1.00  0.00    -0.350 N 
ATOM      5  H   UNL     1     114.297 119.003 109.876  1.00  0.00     0.345 HD
ATOM      6  H   UNL     1     113.648 118.103 108.581  1.00  0.00     0.345 HD
ATOM      7  H   UNL     1     112.784 118.246 110.024  1.00  0.00     0.345 HD
ENDBRANCH   3   4
BRANCH   3   8
ATOM      8  C   UNL     1     113.570 121.189 109.091  1.00  0.00     0.099 C 
ATOM      9  O   UNL     1     114.295 121.643 108.168  1.00  0.00    -0.544 OA
ATOM     10  O   UNL     1     113.582 121.812 110.335  1.00  0.00    -0.544 OA
ENDBRANCH   3   8
ENDBRANCH   1   3
BRANCH   1  11
ATOM     11  C   UNL     1     112.416 118.369 106.826  1.00  0.00     0.006 C 
ATOM     12  C   UNL     1     113.541 118.169 105.809  1.00  0.00     0.004 C 
ENDBRANCH   1  11
TORSDOF 4
ENDMDL
MODEL 4
REMARK VINA RESULT:    -3.793     12.354     12.973
REMARK INTER + INTRA:          -4.678
REMARK INTER:                  -4.571
REMARK INTRA:                  -0.107
REMARK UNBOUND:                -0.109
REMARK SMILES CC[C@@H](C)[C@@H]([NH3+])C(=O)[O-]
REMARK SMILES IDX 3 1 4 2 5 3 6 4 7 8 8 9 9 10 2 11 1 12
REMARK H PARENT 6 5 6 6 6 7
REMARK Flexibility Score: inf
ROOT
ATOM      1  C   UNL     1     121.950 126.946 107.779  1.00  0.00     0.050 C 
ATOM      2  C   UNL     1     120.819 127.576 106.945  1.00  0.00     0.014 C 
ENDROOT
BRANCH   1   3
ATOM      3  C   UNL     1     121.393 125.855 108.746  1.00  0.00     0.230 C 
BRANCH   3   4
ATOM      4  N   UNL     1     122.454 125.158 109.490  1.00  0.00    -0.350 N 
ATOM      5  H   UNL     1     123.314 125.037 108.908  1.00  0.00     0.345 HD
ATOM      6  H   UNL     1     122.119 124.222 109.811  1.00  0.00     0.345 HD
ATOM      7  H   UNL     1     122.704 125.714 110.341  1.00  0.00     0.345 HD
ENDBRANCH   3   4
BRANCH   3   8
ATOM      8  C   UNL     1     120.367 126.436 109.688  1.00  0.00     0.099 C 
ATOM      9  O   UNL     1     119.172 126.046 109.631  1.00  0.00    -0.544 OA
ATOM     10  O   UNL     1     120.716 127.431 110.595  1.00  0.00    -0.544 OA
ENDBRANCH   3   8
ENDBRANCH   1   3
BRANCH   1  11
ATOM     11  C   UNL     1     123.094 126.423 106.872  1.00  0.00     0.006 C 
ATOM     12  C   UNL     1     124.435 127.095 107.168  1.00  0.00     0.004 C 
ENDBRANCH   1  11
TORSDOF 4
ENDMDL
MODEL 5
REMARK VINA RESULT:    -3.788      3.194      3.942
REMARK INTER + INTRA:          -4.672
REMARK INTER:                  -4.614
REMARK INTRA:                  -0.058
REMARK UNBOUND:                -0.109
REMARK SMILES CC[C@@H](C)[C@@H]([NH3+])C(=O)[O-]
REMARK SMILES IDX 3 1 4 2 5 3 6 4 7 8 8 9 9 10 2 11 1 12
REMARK H PARENT 6 5 6 6 6 7
REMARK Flexibility Score: inf
ROOT
ATOM      1  C   UNL     1     124.563 114.400 107.205  1.00  0.00     0.050 C 
ATOM      2  C   UNL     1     124.187 115.064 105.868  1.00  0.00     0.014 C 
ENDROOT
BRANCH   1   3
ATOM      3  C   UNL     1     124.835 115.471 108.307  1.00  0.00     0.230 C 
BRANCH   3   4
ATOM      4  N   UNL     1     124.206 115.137 109.595  1.00  0.00    -0.350 N 
ATOM      5  H   UNL     1     123.605 115.919 109.942  1.00  0.00     0.345 HD
ATOM      6  H   UNL     1     124.934 114.916 110.310  1.00  0.00     0.345 HD
ATOM      7  H   UNL     1     123.608 114.285 109.480  1.00  0.00     0.345 HD
ENDBRANCH   3   4
BRANCH   3   8
ATOM      8  C   UNL     1     126.315 115.711 108.478  1.00  0.00     0.099 C 
ATOM      9  O   UNL     1     127.126 115.248 107.635  1.00  0.00    -0.544 OA
ATOM     10  O   UNL     1     126.801 116.403 109.582  1.00  0.00    -0.544 OA
ENDBRANCH   3   8
ENDBRANCH   1   3
BRANCH   1  11
ATOM     11  C   UNL     1     123.501 113.352 107.631  1.00  0.00     0.006 C 
ATOM     12  C   UNL     1     123.750 111.976 107.014  1.00  0.00     0.004 C 
ENDBRANCH   1  11
TORSDOF 4
ENDMDL
MODEL 6
REMARK VINA RESULT:    -3.773      0.889      1.390
REMARK INTER + INTRA:          -4.653
REMARK INTER:                  -4.528
REMARK INTRA:                  -0.125
REMARK UNBOUND:                -0.109
REMARK SMILES CC[C@@H](C)[C@@H]([NH3+])C(=O)[O-]
REMARK SMILES IDX 3 1 4 2 5 3 6 4 7 8 8 9 9 10 2 11 1 12
REMARK H PARENT 6 5 6 6 6 7
REMARK Flexibility Score: inf
ROOT
ATOM      1  C   UNL     1     123.581 113.308 107.103  1.00  0.00     0.050 C 
ATOM      2  C   UNL     1     123.799 111.786 107.028  1.00  0.00     0.014 C 
ENDROOT
BRANCH   1   3
ATOM      3  C   UNL     1     122.786 113.699 108.388  1.00  0.00     0.230 C 
BRANCH   3   4
ATOM      4  N   UNL     1     123.539 114.605 109.270  1.00  0.00    -0.350 N 
ATOM      5  H   UNL     1     124.558 114.373 109.277  1.00  0.00     0.345 HD
ATOM      6  H   UNL     1     123.166 114.558 110.244  1.00  0.00     0.345 HD
ATOM      7  H   UNL     1     123.425 115.591 108.935  1.00  0.00     0.345 HD
ENDBRANCH   3   4
BRANCH   3   8
ATOM      8  C   UNL     1     121.440 114.286 108.036  1.00  0.00     0.099 C 
ATOM      9  O   UNL     1     120.401 113.851 108.598  1.00  0.00    -0.544 OA
ATOM     10  O   UNL     1     121.327 115.275 107.065  1.00  0.00    -0.544 OA
ENDBRANCH   3   8
ENDBRANCH   1   3
BRANCH   1  11
ATOM     11  C   UNL     1     124.922 114.076 106.966  1.00  0.00     0.006 C 
ATOM     12  C   UNL     1     124.812 115.295 106.048  1.00  0.00     0.004 C 
ENDBRANCH   1  11
TORSDOF 4
ENDMDL
MODEL 7
REMARK VINA RESULT:    -3.756      9.960     11.009
REMARK INTER + INTRA:          -4.634
REMARK INTER:                  -4.527
REMARK INTRA:                  -0.106
REMARK UNBOUND:                -0.109
REMARK SMILES CC[C@@H](C)[C@@H]([NH3+])C(=O)[O-]
REMARK SMILES IDX 3 1 4 2 5 3 6 4 7 8 8 9 9 10 2 11 1 12
REMARK H PARENT 6 5 6 6 6 7
REMARK Flexibility Score: inf
ROOT
ATOM      1  C   UNL     1     112.616 117.996 107.735  1.00  0.00     0.050 C 
ATOM      2  C   UNL     1     112.582 116.684 106.930  1.00  0.00     0.014 C 
ENDROOT
BRANCH   1   3
ATOM      3  C   UNL     1     113.863 118.048 108.671  1.00  0.00     0.230 C 
BRANCH   3   4
ATOM      4  N   UNL     1     113.997 119.335 109.372  1.00  0.00    -0.350 N 
ATOM      5  H   UNL     1     114.338 120.086 108.730  1.00  0.00     0.345 HD
ATOM      6  H   UNL     1     114.654 119.244 110.178  1.00  0.00     0.345 HD
ATOM      7  H   UNL     1     113.065 119.623 109.753  1.00  0.00     0.345 HD
ENDBRANCH   3   4
BRANCH   3   8
ATOM      8  C   UNL     1     113.854 116.901 109.652  1.00  0.00     0.099 C 
ATOM      9  O   UNL     1     114.783 116.052 109.632  1.00  0.00    -0.544 OA
ATOM     10  O   UNL     1     112.807 116.744 110.554  1.00  0.00    -0.544 OA
ENDBRANCH   3   8
ENDBRANCH   1   3
BRANCH   1  11
ATOM     11  C   UNL     1     112.510 119.231 106.802  1.00  0.00     0.006 C 
ATOM     12  C   UNL     1     111.311 120.121 107.135  1.00  0.00     0.004 C 
ENDBRANCH   1  11
TORSDOF 4
ENDMDL
MODEL 8
REMARK VINA RESULT:    -3.735     10.626     11.822
REMARK INTER + INTRA:          -4.608
REMARK INTER:                  -4.484
REMARK INTRA:                  -0.124
REMARK UNBOUND:                -0.109
REMARK SMILES CC[C@@H](C)[C@@H]([NH3+])C(=O)[O-]
REMARK SMILES IDX 3 1 4 2 5 3 6 4 7 8 8 9 9 10 2 11 1 12
REMARK H PARENT 6 5 6 6 6 7
REMARK Flexibility Score: inf
ROOT
ATOM      1  C   UNL     1     123.272 126.213 107.023  1.00  0.00     0.050 C 
ATOM      2  C   UNL     1     124.501 127.128 107.173  1.00  0.00     0.014 C 
ENDROOT
BRANCH   1   3
ATOM      3  C   UNL     1     123.625 124.736 107.383  1.00  0.00     0.230 C 
BRANCH   3   4
ATOM      4  N   UNL     1     123.983 124.565 108.800  1.00  0.00    -0.350 N 
ATOM      5  H   UNL     1     124.528 125.382 109.158  1.00  0.00     0.345 HD
ATOM      6  H   UNL     1     124.541 123.692 108.932  1.00  0.00     0.345 HD
ATOM      7  H   UNL     1     123.110 124.472 109.371  1.00  0.00     0.345 HD
ENDBRANCH   3   4
BRANCH   3   8
ATOM      8  C   UNL     1     122.506 123.800 106.995  1.00  0.00     0.099 C 
ATOM      9  O   UNL     1     122.222 123.634 105.780  1.00  0.00    -0.544 OA
ATOM     10  O   UNL     1     121.753 123.148 107.966  1.00  0.00    -0.544 OA
ENDBRANCH   3   8
ENDBRANCH   1   3
BRANCH   1  11
ATOM     11  C   UNL     1     122.063 126.758 107.827  1.00  0.00     0.006 C 
ATOM     12  C   UNL     1     121.060 127.507 106.948  1.00  0.00     0.004 C 
ENDBRANCH   1  11
TORSDOF 4
ENDMDL
MODEL 9
REMARK VINA RESULT:    -3.683     10.908     11.891
REMARK INTER + INTRA:          -4.546
REMARK INTER:                  -4.436
REMARK INTRA:                  -0.110
REMARK UNBOUND:                -0.109
REMARK SMILES CC[C@@H](C)[C@@H]([NH3+])C(=O)[O-]
REMARK SMILES IDX 3 1 4 2 5 3 6 4 7 8 8 9 9 10 2 11 1 12
REMARK H PARENT 6 5 6 6 6 7
REMARK Flexibility Score: inf
ROOT
ATOM      1  C   UNL     1     112.332 119.654 107.077  1.00  0.00     0.050 C 
ATOM      2  C   UNL     1     111.012 120.445 107.014  1.00  0.00     0.014 C 
ENDROOT
BRANCH   1   3
ATOM      3  C   UNL     1     113.194 120.096 108.301  1.00  0.00     0.230 C 
BRANCH   3   4
ATOM      4  N   UNL     1     113.350 119.029 109.303  1.00  0.00    -0.350 N 
ATOM      5  H   UNL     1     112.775 119.218 110.155  1.00  0.00     0.345 HD
ATOM      6  H   UNL     1     114.353 118.931 109.576  1.00  0.00     0.345 HD
ATOM      7  H   UNL     1     113.043 118.117 108.891  1.00  0.00     0.345 HD
ENDBRANCH   3   4
BRANCH   3   8
ATOM      8  C   UNL     1     114.538 120.618 107.858  1.00  0.00     0.099 C 
ATOM      9  O   UNL     1     115.205 121.363 108.623  1.00  0.00    -0.544 OA
ATOM     10  O   UNL     1     115.035 120.323 106.593  1.00  0.00    -0.544 OA
ENDBRANCH   3   8
ENDBRANCH   1   3
BRANCH   1  11
ATOM     11  C   UNL     1     112.073 118.125 107.042  1.00  0.00     0.006 C 
ATOM     12  C   UNL     1     113.147 117.363 106.266  1.00  0.00     0.004 C 
ENDBRANCH   1  11
TORSDOF 4
ENDMDL
