MODEL 1
REMARK VINA RESULT:    11.998      0.000      0.000
REMARK INTER + INTRA:          23.013
REMARK INTER:                  19.713
REMARK INTRA:                   3.300
REMARK UNBOUND:                 3.300
REMARK SMILES C[C@H]1O[C@H](OC[C@@H]2O[C@H](Oc3c(-c4ccc(O)c(O)c4)oc4cc(O)cc(O)c4c3=O)[C@@H](O)[C@@H](O)[C@@H]2O)[C@@H](O)[C@H](O)[C@H]1O
REMARK SMILES IDX 7 1 36 2 34 3 32 4 9 5 8 6 6 7 5 8 4 9 1 10 2 11 42 12 3 13
REMARK SMILES IDX 40 14 38 15 43 16 41 18 39 20 37 22 35 24 10 26 11 27 12 28
REMARK SMILES IDX 30 29 21 30 29 31 31 32 22 33 27 34 23 35 26 36 24 37 13 38
REMARK SMILES IDX 20 39 14 40 18 41 15 42 16 43 19 44 17 46 28 48 25 50 33 52
REMARK H PARENT 43 17 41 19 39 21 37 23 35 25 19 45 17 47 28 49 25 51 33 53
REMARK Flexibility Score: inf
ROOT
ATOM      1  C   UNL     1       3.869  24.388  23.226  1.00  0.00     0.180 C 
ATOM      2  C   UNL     1       5.127  25.275  23.025  1.00  0.00     0.177 C 
ATOM      3  C   UNL     1       5.922  25.408  24.332  1.00  0.00     0.180 C 
ATOM      4  C   UNL     1       6.200  24.017  24.925  1.00  0.00     0.214 C 
ATOM      5  C   UNL     1       4.886  23.223  25.053  1.00  0.00     0.339 C 
ATOM      6  O   UNL     1       4.171  23.132  23.827  1.00  0.00    -0.332 OA
ENDROOT
BRANCH   1   7
ATOM      7  C   UNL     1       2.679  25.088  23.916  1.00  0.00     0.198 C 
BRANCH   7   8
ATOM      8  O   UNL     1       1.669  25.360  22.959  1.00  0.00    -0.347 OA
BRANCH   8   9
ATOM      9  C   UNL     1       2.085  26.356  22.039  1.00  0.00     0.281 C 
ATOM     10  C   UNL     1      -0.438  25.874  19.389  1.00  0.00     0.041 C 
ATOM     11  C   UNL     1       0.105  26.240  20.772  1.00  0.00     0.150 C 
ATOM     12  C   UNL     1      -0.369  27.653  21.195  1.00  0.00     0.174 C 
ATOM     13  O   UNL     1       1.522  26.162  20.745  1.00  0.00    -0.344 OA
ATOM     14  C   UNL     1       0.238  28.037  22.559  1.00  0.00     0.179 C 
ATOM     15  C   UNL     1       1.757  27.756  22.597  1.00  0.00     0.202 C 
BRANCH  12  16
ATOM     16  O   UNL     1      -0.074  28.631  20.225  1.00  0.00    -0.388 OA
ATOM     17  H   UNL     1       0.900  28.611  20.047  1.00  0.00     0.211 HD
ENDBRANCH  12  16
BRANCH  14  18
ATOM     18  O   UNL     1      -0.389  27.306  23.584  1.00  0.00    -0.387 OA
ATOM     19  H   UNL     1       0.218  26.553  23.812  1.00  0.00     0.211 HD
ENDBRANCH  14  18
BRANCH  15  20
ATOM     20  O   UNL     1       2.458  28.727  21.861  1.00  0.00    -0.385 OA
ATOM     21  H   UNL     1       3.160  29.092  22.461  1.00  0.00     0.211 HD
ENDBRANCH  15  20
ENDBRANCH   8   9
ENDBRANCH   7   8
ENDBRANCH   1   7
BRANCH   2  22
ATOM     22  O   UNL     1       4.780  26.553  22.557  1.00  0.00    -0.387 OA
ATOM     23  H   UNL     1       4.097  26.422  21.849  1.00  0.00     0.211 HD
ENDBRANCH   2  22
BRANCH   3  24
ATOM     24  O   UNL     1       7.116  26.129  24.140  1.00  0.00    -0.387 OA
ATOM     25  H   UNL     1       7.226  26.292  23.167  1.00  0.00     0.211 HD
ENDBRANCH   3  24
BRANCH   5  26
ATOM     26  O   UNL     1       4.061  23.760  26.092  1.00  0.00    -0.454 OA
BRANCH  26  27
ATOM     27  C   UNL     1       2.779  23.262  26.363  1.00  0.00     0.214 A 
ATOM     28  C   UNL     1       2.590  21.903  26.672  1.00  0.00     0.180 A 
ATOM     29  C   UNL     1       1.660  24.106  26.315  1.00  0.00     0.239 A 
ATOM     30  O   UNL     1       1.362  21.426  26.845  1.00  0.00    -0.452 OA
ATOM     31  C   UNL     1       0.372  23.571  26.524  1.00  0.00     0.111 A 
ATOM     32  O   UNL     1       1.823  25.336  26.092  1.00  0.00    -0.285 OA
ATOM     33  C   UNL     1       0.271  22.183  26.780  1.00  0.00     0.146 A 
ATOM     34  C   UNL     1      -0.807  24.352  26.483  1.00  0.00     0.134 A 
ATOM     35  C   UNL     1      -0.981  21.592  26.976  1.00  0.00     0.094 A 
ATOM     36  C   UNL     1      -2.054  23.741  26.685  1.00  0.00     0.093 A 
ATOM     37  C   UNL     1      -2.144  22.368  26.928  1.00  0.00     0.123 A 
BRANCH  28  38
ATOM     38  C   UNL     1       3.728  20.973  26.788  1.00  0.00     0.025 A 
ATOM     39  C   UNL     1       3.497  19.589  26.811  1.00  0.00     0.062 A 
ATOM     40  C   UNL     1       5.039  21.455  26.919  1.00  0.00     0.016 A 
ATOM     41  C   UNL     1       4.566  18.692  26.921  1.00  0.00     0.158 A 
ATOM     42  C   UNL     1       6.110  20.564  27.024  1.00  0.00     0.051 A 
ATOM     43  C   UNL     1       5.880  19.181  27.024  1.00  0.00     0.157 A 
BRANCH  41  44
ATOM     44  O   UNL     1       4.301  17.323  26.928  1.00  0.00    -0.504 OA
ATOM     45  H   UNL     1       3.731  16.888  27.644  1.00  0.00     0.293 HD
ENDBRANCH  41  44
BRANCH  43  46
ATOM     46  O   UNL     1       6.950  18.293  27.125  1.00  0.00    -0.504 OA
ATOM     47  H   UNL     1       6.813  17.291  27.074  1.00  0.00     0.293 HD
ENDBRANCH  43  46
ENDBRANCH  28  38
BRANCH  34  48
ATOM     48  O   UNL     1      -0.751  25.726  26.245  1.00  0.00    -0.507 OA
ATOM     49  H   UNL     1      -1.585  26.302  26.242  1.00  0.00     0.293 HD
ENDBRANCH  34  48
BRANCH  37  50
ATOM     50  O   UNL     1      -3.395  21.785  27.124  1.00  0.00    -0.508 OA
ATOM     51  H   UNL     1      -4.013  22.094  27.865  1.00  0.00     0.293 HD
ENDBRANCH  37  50
ENDBRANCH  26  27
ENDBRANCH   5  26
BRANCH   4  52
ATOM     52  O   UNL     1       7.086  23.298  24.103  1.00  0.00    -0.384 OA
ATOM     53  H   UNL     1       6.767  23.403  23.169  1.00  0.00     0.211 HD
ENDBRANCH   4  52
TORSDOF 16
ENDMDL
