MODEL 1
REMARK VINA RESULT:    -5.403      0.000      0.000
REMARK INTER + INTRA:          -8.203
REMARK INTER:                  -6.824
REMARK INTRA:                  -1.378
REMARK UNBOUND:                -1.378
REMARK SMILES O=C(C=Cc1ccc(O)cc1)c1ccc(O)cc1O
REMARK SMILES IDX 4 1 3 2 5 3 6 4 7 5 8 6 11 7 10 8 9 9 2 11 1 12 12 13 18 14
REMARK SMILES IDX 13 15 17 16 14 17 15 18 19 19 16 21
REMARK H PARENT 9 10 19 20 16 22
REMARK Flexibility Score: inf
ROOT
ATOM      1  C   UNL     1      64.538   7.086  17.615  1.00  0.00     0.012 C 
ATOM      2  C   UNL     1      63.477   6.469  17.069  1.00  0.00     0.053 C 
ENDROOT
BRANCH   1   3
ATOM      3  C   UNL     1      65.294   8.196  17.000  1.00  0.00    -0.025 A 
ATOM      4  C   UNL     1      64.729   9.480  16.972  1.00  0.00     0.012 A 
ATOM      5  C   UNL     1      65.406  10.534  16.350  1.00  0.00     0.047 A 
ATOM      6  C   UNL     1      66.641  10.311  15.731  1.00  0.00     0.115 A 
ATOM      7  C   UNL     1      66.520   7.969  16.352  1.00  0.00     0.012 A 
ATOM      8  C   UNL     1      67.194   9.024  15.731  1.00  0.00     0.047 A 
BRANCH   6   9
ATOM      9  O   UNL     1      67.303  11.370  15.116  1.00  0.00    -0.508 OA
ATOM     10  H   UNL     1      68.171  11.739  15.488  1.00  0.00     0.293 HD
ENDBRANCH   6   9
ENDBRANCH   1   3
BRANCH   2  11
ATOM     11  C   UNL     1      62.980   6.665  15.685  1.00  0.00     0.189 C 
ATOM     12  O   UNL     1      61.886   7.253  15.471  1.00  0.00    -0.289 OA
BRANCH  11  13
ATOM     13  C   UNL     1      63.760   6.179  14.527  1.00  0.00     0.064 A 
ATOM     14  C   UNL     1      64.282   7.062  13.558  1.00  0.00     0.130 A 
ATOM     15  C   UNL     1      63.961   4.796  14.375  1.00  0.00     0.020 A 
ATOM     16  C   UNL     1      65.028   6.556  12.483  1.00  0.00     0.093 A 
ATOM     17  C   UNL     1      64.699   4.302  13.298  1.00  0.00     0.047 A 
ATOM     18  C   UNL     1      65.239   5.180  12.351  1.00  0.00     0.119 A 
BRANCH  14  19
ATOM     19  O   UNL     1      64.038   8.432  13.645  1.00  0.00    -0.507 OA
ATOM     20  H   UNL     1      63.097   8.807  13.620  1.00  0.00     0.293 HD
ENDBRANCH  14  19
BRANCH  18  21
ATOM     21  O   UNL     1      65.981   4.698  11.276  1.00  0.00    -0.508 OA
ATOM     22  H   UNL     1      65.681   3.888  10.746  1.00  0.00     0.293 HD
ENDBRANCH  18  21
ENDBRANCH  11  13
ENDBRANCH   2  11
TORSDOF 6
ENDMDL
MODEL 2
REMARK VINA RESULT:    -5.081      2.287      5.683
REMARK INTER + INTRA:          -7.796
REMARK INTER:                  -6.877
REMARK INTRA:                  -0.919
REMARK UNBOUND:                -1.378
REMARK SMILES O=C(C=Cc1ccc(O)cc1)c1ccc(O)cc1O
REMARK SMILES IDX 4 1 3 2 5 3 6 4 7 5 8 6 11 7 10 8 9 9 2 11 1 12 12 13 18 14
REMARK SMILES IDX 13 15 17 16 14 17 15 18 19 19 16 21
REMARK H PARENT 9 10 19 20 16 22
REMARK Flexibility Score: inf
ROOT
ATOM      1  C   UNL     1      64.631   9.452  16.922  1.00  0.00     0.012 C 
ATOM      2  C   UNL     1      65.860   9.988  16.996  1.00  0.00     0.053 C 
ENDROOT
BRANCH   1   3
ATOM      3  C   UNL     1      64.288   8.182  16.250  1.00  0.00    -0.025 A 
ATOM      4  C   UNL     1      64.015   7.046  17.025  1.00  0.00     0.012 A 
ATOM      5  C   UNL     1      63.739   5.822  16.407  1.00  0.00     0.047 A 
ATOM      6  C   UNL     1      63.756   5.716  15.013  1.00  0.00     0.115 A 
ATOM      7  C   UNL     1      64.335   8.067  14.850  1.00  0.00     0.012 A 
ATOM      8  C   UNL     1      64.058   6.842  14.235  1.00  0.00     0.047 A 
BRANCH   6   9
ATOM      9  O   UNL     1      63.478   4.492  14.412  1.00  0.00    -0.508 OA
ATOM     10  H   UNL     1      62.526   4.183  14.254  1.00  0.00     0.293 HD
ENDBRANCH   6   9
ENDBRANCH   1   3
BRANCH   2  11
ATOM     11  C   UNL     1      67.061   9.502  16.274  1.00  0.00     0.189 C 
ATOM     12  O   UNL     1      67.629   8.430  16.616  1.00  0.00    -0.289 OA
BRANCH  11  13
ATOM     13  C   UNL     1      67.614  10.262  15.132  1.00  0.00     0.064 A 
ATOM     14  C   UNL     1      69.001  10.466  14.975  1.00  0.00     0.130 A 
ATOM     15  C   UNL     1      66.727  10.819  14.194  1.00  0.00     0.020 A 
ATOM     16  C   UNL     1      69.480  11.182  13.868  1.00  0.00     0.093 A 
ATOM     17  C   UNL     1      67.213  11.536  13.099  1.00  0.00     0.047 A 
ATOM     18  C   UNL     1      68.591  11.716  12.930  1.00  0.00     0.119 A 
BRANCH  14  19
ATOM     19  O   UNL     1      69.899   9.985  15.928  1.00  0.00    -0.507 OA
ATOM     20  H   UNL     1      70.825   9.664  15.671  1.00  0.00     0.293 HD
ENDBRANCH  14  19
BRANCH  18  21
ATOM     21  O   UNL     1      69.086  12.424  11.839  1.00  0.00    -0.508 OA
ATOM     22  H   UNL     1      69.213  11.985  10.934  1.00  0.00     0.293 HD
ENDBRANCH  18  21
ENDBRANCH  11  13
ENDBRANCH   2  11
TORSDOF 6
ENDMDL
MODEL 3
REMARK VINA RESULT:    -4.954      1.948      4.640
REMARK INTER + INTRA:          -7.636
REMARK INTER:                  -6.403
REMARK INTRA:                  -1.233
REMARK UNBOUND:                -1.378
REMARK SMILES O=C(C=Cc1ccc(O)cc1)c1ccc(O)cc1O
REMARK SMILES IDX 4 1 3 2 5 3 6 4 7 5 8 6 11 7 10 8 9 9 2 11 1 12 12 13 18 14
REMARK SMILES IDX 13 15 17 16 14 17 15 18 19 19 16 21
REMARK H PARENT 9 10 19 20 16 22
REMARK Flexibility Score: inf
ROOT
ATOM      1  C   UNL     1      63.765   6.149  17.063  1.00  0.00     0.012 C 
ATOM      2  C   UNL     1      64.519   7.141  17.565  1.00  0.00     0.053 C 
ENDROOT
BRANCH   1   3
ATOM      3  C   UNL     1      63.312   6.042  15.662  1.00  0.00    -0.025 A 
ATOM      4  C   UNL     1      64.013   5.215  14.773  1.00  0.00     0.012 A 
ATOM      5  C   UNL     1      63.630   5.140  13.430  1.00  0.00     0.047 A 
ATOM      6  C   UNL     1      62.559   5.907  12.957  1.00  0.00     0.115 A 
ATOM      7  C   UNL     1      62.256   6.835  15.179  1.00  0.00     0.012 A 
ATOM      8  C   UNL     1      61.875   6.758  13.836  1.00  0.00     0.047 A 
BRANCH   6   9
ATOM      9  O   UNL     1      62.189   5.821  11.618  1.00  0.00    -0.508 OA
ATOM     10  H   UNL     1      62.544   6.471  10.927  1.00  0.00     0.293 HD
ENDBRANCH   6   9
ENDBRANCH   1   3
BRANCH   2  11
ATOM     11  C   UNL     1      64.883   8.394  16.859  1.00  0.00     0.189 C 
ATOM     12  O   UNL     1      64.244   9.460  17.066  1.00  0.00    -0.289 OA
BRANCH  11  13
ATOM     13  C   UNL     1      66.008   8.419  15.900  1.00  0.00     0.064 A 
ATOM     14  C   UNL     1      65.821   8.751  14.541  1.00  0.00     0.130 A 
ATOM     15  C   UNL     1      67.293   8.074  16.352  1.00  0.00     0.020 A 
ATOM     16  C   UNL     1      66.922   8.775  13.671  1.00  0.00     0.093 A 
ATOM     17  C   UNL     1      68.381   8.094  15.477  1.00  0.00     0.047 A 
ATOM     18  C   UNL     1      68.199   8.449  14.135  1.00  0.00     0.119 A 
BRANCH  14  19
ATOM     19  O   UNL     1      64.546   9.028  14.050  1.00  0.00    -0.507 OA
ATOM     20  H   UNL     1      63.940   9.707  14.496  1.00  0.00     0.293 HD
ENDBRANCH  14  19
BRANCH  18  21
ATOM     21  O   UNL     1      69.278   8.477  13.255  1.00  0.00    -0.508 OA
ATOM     22  H   UNL     1      69.778   9.337  13.056  1.00  0.00     0.293 HD
ENDBRANCH  18  21
ENDBRANCH  11  13
ENDBRANCH   2  11
TORSDOF 6
ENDMDL
MODEL 4
REMARK VINA RESULT:    -4.800     16.575     18.203
REMARK INTER + INTRA:          -7.441
REMARK INTER:                  -6.090
REMARK INTRA:                  -1.351
REMARK UNBOUND:                -1.378
REMARK SMILES O=C(C=Cc1ccc(O)cc1)c1ccc(O)cc1O
REMARK SMILES IDX 4 1 3 2 5 3 6 4 7 5 8 6 11 7 10 8 9 9 2 11 1 12 12 13 18 14
REMARK SMILES IDX 13 15 17 16 14 17 15 18 19 19 16 21
REMARK H PARENT 9 10 19 20 16 22
REMARK Flexibility Score: inf
ROOT
ATOM      1  C   UNL     1      76.467  -0.356  29.545  1.00  0.00     0.012 C 
ATOM      2  C   UNL     1      77.116  -0.313  28.369  1.00  0.00     0.053 C 
ENDROOT
BRANCH   1   3
ATOM      3  C   UNL     1      75.034  -0.665  29.722  1.00  0.00    -0.025 A 
ATOM      4  C   UNL     1      74.580  -1.974  29.508  1.00  0.00     0.012 A 
ATOM      5  C   UNL     1      73.218  -2.275  29.621  1.00  0.00     0.047 A 
ATOM      6  C   UNL     1      72.296  -1.268  29.926  1.00  0.00     0.115 A 
ATOM      7  C   UNL     1      74.102   0.351  29.999  1.00  0.00     0.012 A 
ATOM      8  C   UNL     1      72.742   0.048  30.112  1.00  0.00     0.047 A 
BRANCH   6   9
ATOM      9  O   UNL     1      70.945  -1.583  30.037  1.00  0.00    -0.508 OA
ATOM     10  H   UNL     1      70.576  -2.059  30.852  1.00  0.00     0.293 HD
ENDBRANCH   6   9
ENDBRANCH   1   3
BRANCH   2  11
ATOM     11  C   UNL     1      76.484  -0.391  27.029  1.00  0.00     0.189 C 
ATOM     12  O   UNL     1      76.728  -1.355  26.256  1.00  0.00    -0.289 OA
BRANCH  11  13
ATOM     13  C   UNL     1      75.547   0.660  26.575  1.00  0.00     0.064 A 
ATOM     14  C   UNL     1      74.209   0.368  26.235  1.00  0.00     0.130 A 
ATOM     15  C   UNL     1      76.015   1.979  26.450  1.00  0.00     0.020 A 
ATOM     16  C   UNL     1      73.353   1.400  25.822  1.00  0.00     0.093 A 
ATOM     17  C   UNL     1      75.158   2.998  26.031  1.00  0.00     0.047 A 
ATOM     18  C   UNL     1      73.824   2.713  25.720  1.00  0.00     0.119 A 
BRANCH  14  19
ATOM     19  O   UNL     1      73.738  -0.944  26.281  1.00  0.00    -0.507 OA
ATOM     20  H   UNL     1      74.327  -1.729  26.032  1.00  0.00     0.293 HD
ENDBRANCH  14  19
BRANCH  18  21
ATOM     21  O   UNL     1      72.959   3.723  25.306  1.00  0.00    -0.508 OA
ATOM     22  H   UNL     1      72.689   4.477  25.927  1.00  0.00     0.293 HD
ENDBRANCH  18  21
ENDBRANCH  11  13
ENDBRANCH   2  11
TORSDOF 6
ENDMDL
MODEL 5
REMARK VINA RESULT:    -4.767      2.093      3.183
REMARK INTER + INTRA:          -7.399
REMARK INTER:                  -6.329
REMARK INTRA:                  -1.070
REMARK UNBOUND:                -1.378
REMARK SMILES O=C(C=Cc1ccc(O)cc1)c1ccc(O)cc1O
REMARK SMILES IDX 4 1 3 2 5 3 6 4 7 5 8 6 11 7 10 8 9 9 2 11 1 12 12 13 18 14
REMARK SMILES IDX 13 15 17 16 14 17 15 18 19 19 16 21
REMARK H PARENT 9 10 19 20 16 22
REMARK Flexibility Score: inf
ROOT
ATOM      1  C   UNL     1      65.605  10.463  16.485  1.00  0.00     0.012 C 
ATOM      2  C   UNL     1      64.662   9.589  16.876  1.00  0.00     0.053 C 
ENDROOT
BRANCH   1   3
ATOM      3  C   UNL     1      66.709  10.170  15.548  1.00  0.00    -0.025 A 
ATOM      4  C   UNL     1      66.581  10.532  14.200  1.00  0.00     0.012 A 
ATOM      5  C   UNL     1      67.593  10.218  13.287  1.00  0.00     0.047 A 
ATOM      6  C   UNL     1      68.731   9.521  13.707  1.00  0.00     0.115 A 
ATOM      7  C   UNL     1      67.839   9.444  15.962  1.00  0.00     0.012 A 
ATOM      8  C   UNL     1      68.849   9.131  15.048  1.00  0.00     0.047 A 
BRANCH   6   9
ATOM      9  O   UNL     1      69.730   9.217  12.788  1.00  0.00    -0.508 OA
ATOM     10  H   UNL     1      69.516   8.801  11.889  1.00  0.00     0.293 HD
ENDBRANCH   6   9
ENDBRANCH   1   3
BRANCH   2  11
ATOM     11  C   UNL     1      64.655   8.135  16.583  1.00  0.00     0.189 C 
ATOM     12  O   UNL     1      65.252   7.323  17.339  1.00  0.00    -0.289 OA
BRANCH  11  13
ATOM     13  C   UNL     1      63.941   7.607  15.400  1.00  0.00     0.064 A 
ATOM     14  C   UNL     1      62.582   7.233  15.457  1.00  0.00     0.130 A 
ATOM     15  C   UNL     1      64.647   7.447  14.196  1.00  0.00     0.020 A 
ATOM     16  C   UNL     1      61.942   6.750  14.306  1.00  0.00     0.093 A 
ATOM     17  C   UNL     1      64.004   6.958  13.057  1.00  0.00     0.047 A 
ATOM     18  C   UNL     1      62.649   6.612  13.108  1.00  0.00     0.119 A 
BRANCH  14  19
ATOM     19  O   UNL     1      61.875   7.314  16.657  1.00  0.00    -0.507 OA
ATOM     20  H   UNL     1      62.099   8.009  17.360  1.00  0.00     0.293 HD
ENDBRANCH  14  19
BRANCH  18  21
ATOM     21  O   UNL     1      61.997   6.129  11.976  1.00  0.00    -0.508 OA
ATOM     22  H   UNL     1      61.203   5.502  12.049  1.00  0.00     0.293 HD
ENDBRANCH  18  21
ENDBRANCH  11  13
ENDBRANCH   2  11
TORSDOF 6
ENDMDL
MODEL 6
REMARK VINA RESULT:    -4.736      2.797      5.158
REMARK INTER + INTRA:          -7.360
REMARK INTER:                  -6.017
REMARK INTRA:                  -1.343
REMARK UNBOUND:                -1.378
REMARK SMILES O=C(C=Cc1ccc(O)cc1)c1ccc(O)cc1O
REMARK SMILES IDX 4 1 3 2 5 3 6 4 7 5 8 6 11 7 10 8 9 9 2 11 1 12 12 13 18 14
REMARK SMILES IDX 13 15 17 16 14 17 15 18 19 19 16 21
REMARK H PARENT 9 10 19 20 16 22
REMARK Flexibility Score: inf
ROOT
ATOM      1  C   UNL     1      68.674   9.310  12.372  1.00  0.00     0.012 C 
ATOM      2  C   UNL     1      68.572   8.052  12.833  1.00  0.00     0.053 C 
ENDROOT
BRANCH   1   3
ATOM      3  C   UNL     1      68.720  10.528  13.205  1.00  0.00    -0.025 A 
ATOM      4  C   UNL     1      69.896  10.842  13.901  1.00  0.00     0.012 A 
ATOM      5  C   UNL     1      69.943  11.963  14.736  1.00  0.00     0.047 A 
ATOM      6  C   UNL     1      68.810  12.767  14.901  1.00  0.00     0.115 A 
ATOM      7  C   UNL     1      67.574  11.320  13.396  1.00  0.00     0.012 A 
ATOM      8  C   UNL     1      67.624  12.440  14.231  1.00  0.00     0.047 A 
BRANCH   6   9
ATOM      9  O   UNL     1      68.872  13.881  15.734  1.00  0.00    -0.508 OA
ATOM     10  H   UNL     1      68.267  14.681  15.595  1.00  0.00     0.293 HD
ENDBRANCH   6   9
ENDBRANCH   1   3
BRANCH   2  11
ATOM     11  C   UNL     1      68.308   7.667  14.241  1.00  0.00     0.189 C 
ATOM     12  O   UNL     1      69.206   7.125  14.940  1.00  0.00    -0.289 OA
BRANCH  11  13
ATOM     13  C   UNL     1      66.987   7.916  14.858  1.00  0.00     0.064 A 
ATOM     14  C   UNL     1      66.845   8.699  16.023  1.00  0.00     0.130 A 
ATOM     15  C   UNL     1      65.847   7.331  14.281  1.00  0.00     0.020 A 
ATOM     16  C   UNL     1      65.570   8.920  16.564  1.00  0.00     0.093 A 
ATOM     17  C   UNL     1      64.583   7.551  14.830  1.00  0.00     0.047 A 
ATOM     18  C   UNL     1      64.440   8.349  15.971  1.00  0.00     0.119 A 
BRANCH  14  19
ATOM     19  O   UNL     1      67.967   9.233  16.658  1.00  0.00    -0.507 OA
ATOM     20  H   UNL     1      68.132  10.232  16.693  1.00  0.00     0.293 HD
ENDBRANCH  14  19
BRANCH  18  21
ATOM     21  O   UNL     1      63.183   8.579  16.525  1.00  0.00    -0.508 OA
ATOM     22  H   UNL     1      62.443   9.024  15.993  1.00  0.00     0.293 HD
ENDBRANCH  18  21
ENDBRANCH  11  13
ENDBRANCH   2  11
TORSDOF 6
ENDMDL
MODEL 7
REMARK VINA RESULT:    -4.642      3.470      5.696
REMARK INTER + INTRA:          -7.241
REMARK INTER:                  -5.852
REMARK INTRA:                  -1.389
REMARK UNBOUND:                -1.378
REMARK SMILES O=C(C=Cc1ccc(O)cc1)c1ccc(O)cc1O
REMARK SMILES IDX 4 1 3 2 5 3 6 4 7 5 8 6 11 7 10 8 9 9 2 11 1 12 12 13 18 14
REMARK SMILES IDX 13 15 17 16 14 17 15 18 19 19 16 21
REMARK H PARENT 9 10 19 20 16 22
REMARK Flexibility Score: inf
ROOT
ATOM      1  C   UNL     1      70.575  10.124  14.526  1.00  0.00     0.012 C 
ATOM      2  C   UNL     1      70.135   8.868  14.707  1.00  0.00     0.053 C 
ENDROOT
BRANCH   1   3
ATOM      3  C   UNL     1      69.750  11.265  14.079  1.00  0.00    -0.025 A 
ATOM      4  C   UNL     1      69.140  12.089  15.036  1.00  0.00     0.012 A 
ATOM      5  C   UNL     1      68.314  13.144  14.633  1.00  0.00     0.047 A 
ATOM      6  C   UNL     1      68.072  13.371  13.274  1.00  0.00     0.115 A 
ATOM      7  C   UNL     1      69.482  11.477  12.716  1.00  0.00     0.012 A 
ATOM      8  C   UNL     1      68.656  12.532  12.316  1.00  0.00     0.047 A 
BRANCH   6   9
ATOM      9  O   UNL     1      67.249  14.425  12.889  1.00  0.00    -0.508 OA
ATOM     10  H   UNL     1      66.893  15.094  13.562  1.00  0.00     0.293 HD
ENDBRANCH   6   9
ENDBRANCH   1   3
BRANCH   2  11
ATOM     11  C   UNL     1      68.795   8.357  14.325  1.00  0.00     0.189 C 
ATOM     12  O   UNL     1      68.674   7.445  13.464  1.00  0.00    -0.289 OA
BRANCH  11  13
ATOM     13  C   UNL     1      67.573   8.903  14.953  1.00  0.00     0.064 A 
ATOM     14  C   UNL     1      66.538   9.481  14.188  1.00  0.00     0.130 A 
ATOM     15  C   UNL     1      67.455   8.870  16.353  1.00  0.00     0.020 A 
ATOM     16  C   UNL     1      65.390   9.974  14.826  1.00  0.00     0.093 A 
ATOM     17  C   UNL     1      66.312   9.369  16.980  1.00  0.00     0.047 A 
ATOM     18  C   UNL     1      65.274   9.919  16.218  1.00  0.00     0.119 A 
BRANCH  14  19
ATOM     19  O   UNL     1      66.659   9.592  12.802  1.00  0.00    -0.507 OA
ATOM     20  H   UNL     1      66.241  10.362  12.292  1.00  0.00     0.293 HD
ENDBRANCH  14  19
BRANCH  18  21
ATOM     21  O   UNL     1      64.127  10.415  16.833  1.00  0.00    -0.508 OA
ATOM     22  H   UNL     1      63.940  10.252  17.815  1.00  0.00     0.293 HD
ENDBRANCH  18  21
ENDBRANCH  11  13
ENDBRANCH   2  11
TORSDOF 6
ENDMDL
MODEL 8
REMARK VINA RESULT:    -4.633      3.377      6.115
REMARK INTER + INTRA:          -7.230
REMARK INTER:                  -5.817
REMARK INTRA:                  -1.413
REMARK UNBOUND:                -1.378
REMARK SMILES O=C(C=Cc1ccc(O)cc1)c1ccc(O)cc1O
REMARK SMILES IDX 4 1 3 2 5 3 6 4 7 5 8 6 11 7 10 8 9 9 2 11 1 12 12 13 18 14
REMARK SMILES IDX 13 15 17 16 14 17 15 18 19 19 16 21
REMARK H PARENT 9 10 19 20 16 22
REMARK Flexibility Score: inf
ROOT
ATOM      1  C   UNL     1      67.444   7.191  13.740  1.00  0.00     0.012 C 
ATOM      2  C   UNL     1      68.700   7.306  13.277  1.00  0.00     0.053 C 
ENDROOT
BRANCH   1   3
ATOM      3  C   UNL     1      66.783   8.128  14.671  1.00  0.00    -0.025 A 
ATOM      4  C   UNL     1      66.088   9.232  14.158  1.00  0.00     0.012 A 
ATOM      5  C   UNL     1      65.499  10.159  15.025  1.00  0.00     0.047 A 
ATOM      6  C   UNL     1      65.619  10.003  16.410  1.00  0.00     0.115 A 
ATOM      7  C   UNL     1      66.928   7.990  16.062  1.00  0.00     0.012 A 
ATOM      8  C   UNL     1      66.338   8.917  16.926  1.00  0.00     0.047 A 
BRANCH   6   9
ATOM      9  O   UNL     1      65.027  10.933  17.260  1.00  0.00    -0.508 OA
ATOM     10  H   UNL     1      64.076  10.819  17.590  1.00  0.00     0.293 HD
ENDBRANCH   6   9
ENDBRANCH   1   3
BRANCH   2  11
ATOM     11  C   UNL     1      69.708   8.287  13.749  1.00  0.00     0.189 C 
ATOM     12  O   UNL     1      70.769   7.902  14.310  1.00  0.00    -0.289 OA
BRANCH  11  13
ATOM     13  C   UNL     1      69.493   9.738  13.564  1.00  0.00     0.064 A 
ATOM     14  C   UNL     1      69.514  10.638  14.650  1.00  0.00     0.130 A 
ATOM     15  C   UNL     1      69.231  10.227  12.272  1.00  0.00     0.020 A 
ATOM     16  C   UNL     1      69.319  12.009  14.424  1.00  0.00     0.093 A 
ATOM     17  C   UNL     1      69.032  11.592  12.058  1.00  0.00     0.047 A 
ATOM     18  C   UNL     1      69.079  12.488  13.133  1.00  0.00     0.119 A 
BRANCH  14  19
ATOM     19  O   UNL     1      69.701  10.172  15.951  1.00  0.00    -0.507 OA
ATOM     20  H   UNL     1      69.646  10.793  16.751  1.00  0.00     0.293 HD
ENDBRANCH  14  19
BRANCH  18  21
ATOM     21  O   UNL     1      68.886  13.852  12.930  1.00  0.00    -0.508 OA
ATOM     22  H   UNL     1      68.837  14.502  13.707  1.00  0.00     0.293 HD
ENDBRANCH  18  21
ENDBRANCH  11  13
ENDBRANCH   2  11
TORSDOF 6
ENDMDL
MODEL 9
REMARK VINA RESULT:    -4.630      2.260      5.316
REMARK INTER + INTRA:          -7.226
REMARK INTER:                  -6.615
REMARK INTRA:                  -0.612
REMARK UNBOUND:                -1.378
REMARK SMILES O=C(C=Cc1ccc(O)cc1)c1ccc(O)cc1O
REMARK SMILES IDX 4 1 3 2 5 3 6 4 7 5 8 6 11 7 10 8 9 9 2 11 1 12 12 13 18 14
REMARK SMILES IDX 13 15 17 16 14 17 15 18 19 19 16 21
REMARK H PARENT 9 10 19 20 16 22
REMARK Flexibility Score: inf
ROOT
ATOM      1  C   UNL     1      65.081   9.846  16.891  1.00  0.00     0.012 C 
ATOM      2  C   UNL     1      66.057  10.630  16.403  1.00  0.00     0.053 C 
ENDROOT
BRANCH   1   3
ATOM      3  C   UNL     1      64.684   8.533  16.345  1.00  0.00    -0.025 A 
ATOM      4  C   UNL     1      64.396   8.415  14.978  1.00  0.00     0.012 A 
ATOM      5  C   UNL     1      63.968   7.192  14.451  1.00  0.00     0.047 A 
ATOM      6  C   UNL     1      63.803   6.082  15.288  1.00  0.00     0.115 A 
ATOM      7  C   UNL     1      64.488   7.425  17.189  1.00  0.00     0.012 A 
ATOM      8  C   UNL     1      64.061   6.204  16.660  1.00  0.00     0.047 A 
BRANCH   6   9
ATOM      9  O   UNL     1      63.378   4.871  14.749  1.00  0.00    -0.508 OA
ATOM     10  H   UNL     1      62.797   4.231  15.277  1.00  0.00     0.293 HD
ENDBRANCH   6   9
ENDBRANCH   1   3
BRANCH   2  11
ATOM     11  C   UNL     1      66.789  10.410  15.132  1.00  0.00     0.189 C 
ATOM     12  O   UNL     1      66.360  10.893  14.049  1.00  0.00    -0.289 OA
BRANCH  11  13
ATOM     13  C   UNL     1      68.042   9.626  15.109  1.00  0.00     0.064 A 
ATOM     14  C   UNL     1      69.309  10.247  15.084  1.00  0.00     0.130 A 
ATOM     15  C   UNL     1      67.965   8.223  15.082  1.00  0.00     0.020 A 
ATOM     16  C   UNL     1      70.471   9.461  15.076  1.00  0.00     0.093 A 
ATOM     17  C   UNL     1      69.127   7.449  15.068  1.00  0.00     0.047 A 
ATOM     18  C   UNL     1      70.383   8.066  15.069  1.00  0.00     0.119 A 
BRANCH  14  19
ATOM     19  O   UNL     1      69.415  11.637  15.037  1.00  0.00    -0.507 OA
ATOM     20  H   UNL     1      69.377  12.201  15.879  1.00  0.00     0.293 HD
ENDBRANCH  14  19
BRANCH  18  21
ATOM     21  O   UNL     1      71.549   7.304  15.060  1.00  0.00    -0.508 OA
ATOM     22  H   UNL     1      72.276   7.439  15.753  1.00  0.00     0.293 HD
ENDBRANCH  18  21
ENDBRANCH  11  13
ENDBRANCH   2  11
TORSDOF 6
ENDMDL
