MODEL 1
REMARK VINA RESULT:    -4.976      0.000      0.000
REMARK INTER + INTRA:          -5.748
REMARK INTER:                  -5.703
REMARK INTRA:                  -0.045
REMARK UNBOUND:                -0.045
REMARK SMILES O=C([O-])c1cc(O)c(O)c(O)c1
REMARK SMILES IDX 4 1 5 2 12 3 6 4 10 5 8 6 2 7 1 8 3 9 7 10 11 12 9 14
REMARK H PARENT 7 11 11 13 9 15
REMARK Flexibility Score: inf
ROOT
ATOM      1  C   UNL     1       8.468   0.570  15.008  1.00  0.00     0.005 A 
ATOM      2  C   UNL     1       9.709   0.598  14.351  1.00  0.00     0.060 A 
ATOM      3  C   UNL     1       7.292   0.710  14.251  1.00  0.00     0.060 A 
ATOM      4  C   UNL     1       9.778   0.763  12.960  1.00  0.00     0.162 A 
ATOM      5  C   UNL     1       7.355   0.876  12.861  1.00  0.00     0.162 A 
ATOM      6  C   UNL     1       8.597   0.902  12.214  1.00  0.00     0.200 A 
ENDROOT
BRANCH   1   7
ATOM      7  C   UNL     1       8.404   0.395  16.477  1.00  0.00     0.072 C 
ATOM      8  O   UNL     1       8.450  -0.755  16.988  1.00  0.00    -0.545 OA
ATOM      9  O   UNL     1       8.294   1.500  17.313  1.00  0.00    -0.545 OA
ENDBRANCH   1   7
BRANCH   4  10
ATOM     10  O   UNL     1      11.015   0.790  12.319  1.00  0.00    -0.504 OA
ATOM     11  H   UNL     1      11.866   0.509  12.793  1.00  0.00     0.293 HD
ENDBRANCH   4  10
BRANCH   5  12
ATOM     12  O   UNL     1       6.186   1.013  12.114  1.00  0.00    -0.504 OA
ATOM     13  H   UNL     1       5.973   1.868  11.615  1.00  0.00     0.293 HD
ENDBRANCH   5  12
BRANCH   6  14
ATOM     14  O   UNL     1       8.639   1.068  10.828  1.00  0.00    -0.502 OA
ATOM     15  H   UNL     1       7.799   1.143  10.268  1.00  0.00     0.293 HD
ENDBRANCH   6  14
TORSDOF 4
ENDMDL
MODEL 2
REMARK VINA RESULT:    -4.974      0.039      2.421
REMARK INTER + INTRA:          -5.745
REMARK INTER:                  -5.701
REMARK INTRA:                  -0.045
REMARK UNBOUND:                -0.045
REMARK SMILES O=C([O-])c1cc(O)c(O)c(O)c1
REMARK SMILES IDX 4 1 5 2 12 3 6 4 10 5 8 6 2 7 1 8 3 9 7 10 11 12 9 14
REMARK H PARENT 7 11 11 13 9 15
REMARK Flexibility Score: inf
ROOT
ATOM      1  C   UNL     1       8.468   0.566  15.029  1.00  0.00     0.005 A 
ATOM      2  C   UNL     1       7.296   0.701  14.268  1.00  0.00     0.060 A 
ATOM      3  C   UNL     1       9.714   0.610  14.378  1.00  0.00     0.060 A 
ATOM      4  C   UNL     1       7.363   0.878  12.878  1.00  0.00     0.162 A 
ATOM      5  C   UNL     1       9.787   0.786  12.989  1.00  0.00     0.162 A 
ATOM      6  C   UNL     1       8.613   0.920  12.238  1.00  0.00     0.200 A 
ENDROOT
BRANCH   1   7
ATOM      7  C   UNL     1       8.389   0.379  16.495  1.00  0.00     0.072 C 
ATOM      8  O   UNL     1       8.452  -0.774  16.999  1.00  0.00    -0.545 OA
ATOM      9  O   UNL     1       8.247   1.476  17.338  1.00  0.00    -0.545 OA
ENDBRANCH   1   7
BRANCH   4  10
ATOM     10  O   UNL     1       6.193   1.011  12.132  1.00  0.00    -0.504 OA
ATOM     11  H   UNL     1       5.787   0.225  11.636  1.00  0.00     0.293 HD
ENDBRANCH   4  10
BRANCH   5  12
ATOM     12  O   UNL     1      11.024   0.829  12.349  1.00  0.00    -0.504 OA
ATOM     13  H   UNL     1      11.493  -0.015  12.043  1.00  0.00     0.293 HD
ENDBRANCH   5  12
BRANCH   6  14
ATOM     14  O   UNL     1       8.705   1.095  10.856  1.00  0.00    -0.502 OA
ATOM     15  H   UNL     1       8.645   0.318  10.209  1.00  0.00     0.293 HD
ENDBRANCH   6  14
TORSDOF 4
ENDMDL
MODEL 3
REMARK VINA RESULT:    -4.840      4.036      6.187
REMARK INTER + INTRA:          -5.592
REMARK INTER:                  -5.548
REMARK INTRA:                  -0.045
REMARK UNBOUND:                -0.045
REMARK SMILES O=C([O-])c1cc(O)c(O)c(O)c1
REMARK SMILES IDX 4 1 5 2 12 3 6 4 10 5 8 6 2 7 1 8 3 9 7 10 11 12 9 14
REMARK H PARENT 7 11 11 13 9 15
REMARK Flexibility Score: inf
ROOT
ATOM      1  C   UNL     1      12.789  -0.896  10.483  1.00  0.00     0.005 A 
ATOM      2  C   UNL     1      11.952  -0.931   9.356  1.00  0.00     0.060 A 
ATOM      3  C   UNL     1      12.233  -1.122  11.754  1.00  0.00     0.060 A 
ATOM      4  C   UNL     1      10.580  -1.186   9.493  1.00  0.00     0.162 A 
ATOM      5  C   UNL     1      10.862  -1.378  11.897  1.00  0.00     0.162 A 
ATOM      6  C   UNL     1      10.034  -1.411  10.768  1.00  0.00     0.200 A 
ENDROOT
BRANCH   1   7
ATOM      7  C   UNL     1      14.237  -0.624  10.330  1.00  0.00     0.072 C 
ATOM      8  O   UNL     1      15.045  -1.565  10.108  1.00  0.00    -0.545 OA
ATOM      9  O   UNL     1      14.724   0.674  10.428  1.00  0.00    -0.545 OA
ENDBRANCH   1   7
BRANCH   4  10
ATOM     10  O   UNL     1       9.758  -1.218   8.368  1.00  0.00    -0.504 OA
ATOM     11  H   UNL     1       9.685  -2.045   7.786  1.00  0.00     0.293 HD
ENDBRANCH   4  10
BRANCH   5  12
ATOM     12  O   UNL     1      10.316  -1.602  13.159  1.00  0.00    -0.504 OA
ATOM     13  H   UNL     1       9.739  -0.907  13.619  1.00  0.00     0.293 HD
ENDBRANCH   5  12
BRANCH   6  14
ATOM     14  O   UNL     1       8.671  -1.668  10.930  1.00  0.00    -0.502 OA
ATOM     15  H   UNL     1       8.324  -2.575  11.216  1.00  0.00     0.293 HD
ENDBRANCH   6  14
TORSDOF 4
ENDMDL
MODEL 4
REMARK VINA RESULT:    -4.767      3.954      6.092
REMARK INTER + INTRA:          -5.509
REMARK INTER:                  -5.464
REMARK INTRA:                  -0.045
REMARK UNBOUND:                -0.045
REMARK SMILES O=C([O-])c1cc(O)c(O)c(O)c1
REMARK SMILES IDX 4 1 5 2 12 3 6 4 10 5 8 6 2 7 1 8 3 9 7 10 11 12 9 14
REMARK H PARENT 7 11 11 13 9 15
REMARK Flexibility Score: inf
ROOT
ATOM      1  C   UNL     1      12.885  -0.843  10.566  1.00  0.00     0.005 A 
ATOM      2  C   UNL     1      12.384  -1.045  11.862  1.00  0.00     0.060 A 
ATOM      3  C   UNL     1      11.997  -0.886   9.477  1.00  0.00     0.060 A 
ATOM      4  C   UNL     1      11.019  -1.286  12.071  1.00  0.00     0.162 A 
ATOM      5  C   UNL     1      10.631  -1.126   9.680  1.00  0.00     0.162 A 
ATOM      6  C   UNL     1      10.140  -1.326  10.976  1.00  0.00     0.200 A 
ENDROOT
BRANCH   1   7
ATOM      7  C   UNL     1      14.328  -0.590  10.353  1.00  0.00     0.072 C 
ATOM      8  O   UNL     1      15.116  -1.542  10.108  1.00  0.00    -0.545 OA
ATOM      9  O   UNL     1      14.834   0.703  10.420  1.00  0.00    -0.545 OA
ENDBRANCH   1   7
BRANCH   4  10
ATOM     10  O   UNL     1      10.532  -1.485  13.362  1.00  0.00    -0.504 OA
ATOM     11  H   UNL     1      11.136  -1.794  14.116  1.00  0.00     0.293 HD
ENDBRANCH   4  10
BRANCH   5  12
ATOM     12  O   UNL     1       9.755  -1.166   8.597  1.00  0.00    -0.504 OA
ATOM     13  H   UNL     1       9.478  -0.323   8.107  1.00  0.00     0.293 HD
ENDBRANCH   5  12
BRANCH   6  14
ATOM     14  O   UNL     1       8.777  -1.564  11.159  1.00  0.00    -0.502 OA
ATOM     15  H   UNL     1       8.085  -1.290  10.472  1.00  0.00     0.293 HD
ENDBRANCH   6  14
TORSDOF 4
ENDMDL
MODEL 5
REMARK VINA RESULT:    -4.679      4.814      6.689
REMARK INTER + INTRA:          -5.408
REMARK INTER:                  -5.356
REMARK INTRA:                  -0.052
REMARK UNBOUND:                -0.045
REMARK SMILES O=C([O-])c1cc(O)c(O)c(O)c1
REMARK SMILES IDX 4 1 5 2 12 3 6 4 10 5 8 6 2 7 1 8 3 9 7 10 11 12 9 14
REMARK H PARENT 7 11 11 13 9 15
REMARK Flexibility Score: inf
ROOT
ATOM      1  C   UNL     1      13.263  -2.521  11.157  1.00  0.00     0.005 A 
ATOM      2  C   UNL     1      14.464  -1.932  10.731  1.00  0.00     0.060 A 
ATOM      3  C   UNL     1      12.255  -1.702  11.696  1.00  0.00     0.060 A 
ATOM      4  C   UNL     1      14.660  -0.548  10.840  1.00  0.00     0.162 A 
ATOM      5  C   UNL     1      12.445  -0.318  11.808  1.00  0.00     0.162 A 
ATOM      6  C   UNL     1      13.646   0.261  11.380  1.00  0.00     0.200 A 
ENDROOT
BRANCH   1   7
ATOM      7  C   UNL     1      13.064  -3.983  11.039  1.00  0.00     0.072 C 
ATOM      8  O   UNL     1      14.052  -4.757  10.925  1.00  0.00    -0.545 OA
ATOM      9  O   UNL     1      11.783  -4.523  11.055  1.00  0.00    -0.545 OA
ENDBRANCH   1   7
BRANCH   4  10
ATOM     10  O   UNL     1      15.857   0.026  10.414  1.00  0.00    -0.504 OA
ATOM     11  H   UNL     1      16.734  -0.480  10.459  1.00  0.00     0.293 HD
ENDBRANCH   4  10
BRANCH   5  12
ATOM     12  O   UNL     1      11.443   0.490  12.342  1.00  0.00    -0.504 OA
ATOM     13  H   UNL     1      11.038   0.302  13.252  1.00  0.00     0.293 HD
ENDBRANCH   5  12
BRANCH   6  14
ATOM     14  O   UNL     1      13.818   1.641  11.499  1.00  0.00    -0.502 OA
ATOM     15  H   UNL     1      14.349   2.179  10.825  1.00  0.00     0.293 HD
ENDBRANCH   6  14
TORSDOF 4
ENDMDL
MODEL 6
REMARK VINA RESULT:    -4.647      5.469      7.267
REMARK INTER + INTRA:          -5.371
REMARK INTER:                  -5.322
REMARK INTRA:                  -0.049
REMARK UNBOUND:                -0.045
REMARK SMILES O=C([O-])c1cc(O)c(O)c(O)c1
REMARK SMILES IDX 4 1 5 2 12 3 6 4 10 5 8 6 2 7 1 8 3 9 7 10 11 12 9 14
REMARK H PARENT 7 11 11 13 9 15
REMARK Flexibility Score: inf
ROOT
ATOM      1  C   UNL     1      12.578  -1.658  10.576  1.00  0.00     0.005 A 
ATOM      2  C   UNL     1      13.455  -2.743  10.742  1.00  0.00     0.060 A 
ATOM      3  C   UNL     1      13.103  -0.354  10.561  1.00  0.00     0.060 A 
ATOM      4  C   UNL     1      14.833  -2.532  10.891  1.00  0.00     0.162 A 
ATOM      5  C   UNL     1      14.479  -0.137  10.709  1.00  0.00     0.162 A 
ATOM      6  C   UNL     1      15.346  -1.224  10.874  1.00  0.00     0.200 A 
ENDROOT
BRANCH   1   7
ATOM      7  C   UNL     1      11.125  -1.889  10.421  1.00  0.00     0.072 C 
ATOM      8  O   UNL     1      10.532  -2.747  11.128  1.00  0.00    -0.545 OA
ATOM      9  O   UNL     1      10.391  -1.161   9.491  1.00  0.00    -0.545 OA
ENDBRANCH   1   7
BRANCH   4  10
ATOM     10  O   UNL     1      15.694  -3.616  11.056  1.00  0.00    -0.504 OA
ATOM     11  H   UNL     1      15.923  -4.234  10.286  1.00  0.00     0.293 HD
ENDBRANCH   4  10
BRANCH   5  12
ATOM     12  O   UNL     1      14.994   1.158  10.692  1.00  0.00    -0.504 OA
ATOM     13  H   UNL     1      15.372   1.590  11.527  1.00  0.00     0.293 HD
ENDBRANCH   5  12
BRANCH   6  14
ATOM     14  O   UNL     1      16.714  -0.989  11.021  1.00  0.00    -0.502 OA
ATOM     15  H   UNL     1      17.074  -0.130  11.418  1.00  0.00     0.293 HD
ENDBRANCH   6  14
TORSDOF 4
ENDMDL
MODEL 7
REMARK VINA RESULT:    -4.624      4.874      7.119
REMARK INTER + INTRA:          -5.344
REMARK INTER:                  -5.293
REMARK INTRA:                  -0.051
REMARK UNBOUND:                -0.045
REMARK SMILES O=C([O-])c1cc(O)c(O)c(O)c1
REMARK SMILES IDX 4 1 5 2 12 3 6 4 10 5 8 6 2 7 1 8 3 9 7 10 11 12 9 14
REMARK H PARENT 7 11 11 13 9 15
REMARK Flexibility Score: inf
ROOT
ATOM      1  C   UNL     1      13.257  -2.649  11.178  1.00  0.00     0.005 A 
ATOM      2  C   UNL     1      12.235  -1.829  11.685  1.00  0.00     0.060 A 
ATOM      3  C   UNL     1      14.461  -2.056  10.758  1.00  0.00     0.060 A 
ATOM      4  C   UNL     1      12.410  -0.441  11.773  1.00  0.00     0.162 A 
ATOM      5  C   UNL     1      14.641  -0.669  10.844  1.00  0.00     0.162 A 
ATOM      6  C   UNL     1      13.617   0.140  11.351  1.00  0.00     0.200 A 
ENDROOT
BRANCH   1   7
ATOM      7  C   UNL     1      13.065  -4.113  11.087  1.00  0.00     0.072 C 
ATOM      8  O   UNL     1      11.906  -4.607  11.055  1.00  0.00    -0.545 OA
ATOM      9  O   UNL     1      14.162  -4.966  11.035  1.00  0.00    -0.545 OA
ENDBRANCH   1   7
BRANCH   4  10
ATOM     10  O   UNL     1      11.389   0.363  12.277  1.00  0.00    -0.504 OA
ATOM     11  H   UNL     1      10.418   0.070  12.248  1.00  0.00     0.293 HD
ENDBRANCH   4  10
BRANCH   5  12
ATOM     12  O   UNL     1      15.838  -0.087  10.428  1.00  0.00    -0.504 OA
ATOM     13  H   UNL     1      16.154  -0.153   9.468  1.00  0.00     0.293 HD
ENDBRANCH   5  12
BRANCH   6  14
ATOM     14  O   UNL     1      13.814   1.520  11.429  1.00  0.00    -0.502 OA
ATOM     15  H   UNL     1      14.607   1.977  10.994  1.00  0.00     0.293 HD
ENDBRANCH   6  14
TORSDOF 4
ENDMDL
MODEL 8
REMARK VINA RESULT:    -4.595      2.807      4.892
REMARK INTER + INTRA:          -5.312
REMARK INTER:                  -5.259
REMARK INTRA:                  -0.052
REMARK UNBOUND:                -0.045
REMARK SMILES O=C([O-])c1cc(O)c(O)c(O)c1
REMARK SMILES IDX 4 1 5 2 12 3 6 4 10 5 8 6 2 7 1 8 3 9 7 10 11 12 9 14
REMARK H PARENT 7 11 11 13 9 15
REMARK Flexibility Score: inf
ROOT
ATOM      1  C   UNL     1       9.051   3.301  16.005  1.00  0.00     0.005 A 
ATOM      2  C   UNL     1       8.768   2.297  15.065  1.00  0.00     0.060 A 
ATOM      3  C   UNL     1       9.194   2.948  17.358  1.00  0.00     0.060 A 
ATOM      4  C   UNL     1       8.629   0.960  15.467  1.00  0.00     0.162 A 
ATOM      5  C   UNL     1       9.057   1.614  17.766  1.00  0.00     0.162 A 
ATOM      6  C   UNL     1       8.775   0.619  16.822  1.00  0.00     0.200 A 
ENDROOT
BRANCH   1   7
ATOM      7  C   UNL     1       9.195   4.709  15.573  1.00  0.00     0.072 C 
ATOM      8  O   UNL     1       9.694   5.569  16.347  1.00  0.00    -0.545 OA
ATOM      9  O   UNL     1       8.784   5.102  14.304  1.00  0.00    -0.545 OA
ENDBRANCH   1   7
BRANCH   4  10
ATOM     10  O   UNL     1       8.348  -0.028  14.526  1.00  0.00    -0.504 OA
ATOM     11  H   UNL     1       8.719  -0.968  14.614  1.00  0.00     0.293 HD
ENDBRANCH   4  10
BRANCH   5  12
ATOM     12  O   UNL     1       9.201   1.270  19.108  1.00  0.00    -0.504 OA
ATOM     13  H   UNL     1       8.601   1.662  19.824  1.00  0.00     0.293 HD
ENDBRANCH   5  12
BRANCH   6  14
ATOM     14  O   UNL     1       8.641  -0.705  17.246  1.00  0.00    -0.502 OA
ATOM     15  H   UNL     1       8.174  -0.949  18.111  1.00  0.00     0.293 HD
ENDBRANCH   6  14
TORSDOF 4
ENDMDL
MODEL 9
REMARK VINA RESULT:    -4.586      2.156      4.927
REMARK INTER + INTRA:          -5.301
REMARK INTER:                  -5.256
REMARK INTRA:                  -0.045
REMARK UNBOUND:                -0.045
REMARK SMILES O=C([O-])c1cc(O)c(O)c(O)c1
REMARK SMILES IDX 4 1 5 2 12 3 6 4 10 5 8 6 2 7 1 8 3 9 7 10 11 12 9 14
REMARK H PARENT 7 11 11 13 9 15
REMARK Flexibility Score: inf
ROOT
ATOM      1  C   UNL     1       8.709   1.415  15.276  1.00  0.00     0.005 A 
ATOM      2  C   UNL     1       9.316   2.676  15.389  1.00  0.00     0.060 A 
ATOM      3  C   UNL     1       8.385   0.706  16.447  1.00  0.00     0.060 A 
ATOM      4  C   UNL     1       9.597   3.224  16.649  1.00  0.00     0.162 A 
ATOM      5  C   UNL     1       8.664   1.249  17.708  1.00  0.00     0.162 A 
ATOM      6  C   UNL     1       9.270   2.507  17.812  1.00  0.00     0.200 A 
ENDROOT
BRANCH   1   7
ATOM      7  C   UNL     1       8.416   0.843  13.942  1.00  0.00     0.072 C 
ATOM      8  O   UNL     1       7.230   0.771  13.522  1.00  0.00    -0.545 OA
ATOM      9  O   UNL     1       9.447   0.378  13.133  1.00  0.00    -0.545 OA
ENDBRANCH   1   7
BRANCH   4  10
ATOM     10  O   UNL     1      10.201   4.476  16.749  1.00  0.00    -0.504 OA
ATOM     11  H   UNL     1       9.675   5.299  17.023  1.00  0.00     0.293 HD
ENDBRANCH   4  10
BRANCH   5  12
ATOM     12  O   UNL     1       8.340   0.543  18.866  1.00  0.00    -0.504 OA
ATOM     13  H   UNL     1       8.274   1.002  19.766  1.00  0.00     0.293 HD
ENDBRANCH   5  12
BRANCH   6  14
ATOM     14  O   UNL     1       9.540   3.032  19.077  1.00  0.00    -0.502 OA
ATOM     15  H   UNL     1       9.090   2.680  19.913  1.00  0.00     0.293 HD
ENDBRANCH   6  14
TORSDOF 4
ENDMDL
