MODEL 1
REMARK VINA RESULT:    -3.214      0.000      0.000
REMARK INTER + INTRA:          -5.826
REMARK INTER:                  -5.094
REMARK INTRA:                  -0.733
REMARK UNBOUND:                -0.733
REMARK SMILES CCCCCCCCCCCC(=O)[O-]
REMARK SMILES IDX 7 1 8 2 9 3 10 4 11 5 12 6 13 7 14 8 6 9 5 10 4 11 3 12 2 13
REMARK SMILES IDX 1 14
REMARK H PARENT
REMARK Flexibility Score: inf
ROOT
ATOM      1  C   UNL     1       8.962 -22.224  12.495  1.00  0.00     0.000 C 
ENDROOT
BRANCH   1   2
ATOM      2  C   UNL     1       7.733 -22.636  11.673  1.00  0.00     0.000 C 
BRANCH   2   3
ATOM      3  C   UNL     1       8.057 -22.791  10.171  1.00  0.00     0.000 C 
BRANCH   3   4
ATOM      4  C   UNL     1       7.286 -21.808   9.270  1.00  0.00     0.006 C 
BRANCH   4   5
ATOM      5  C   UNL     1       7.898 -20.400   9.215  1.00  0.00     0.053 C 
BRANCH   5   6
ATOM      6  C   UNL     1       6.941 -19.356   9.706  1.00  0.00     0.041 C 
ATOM      7  O   UNL     1       6.147 -18.798   8.903  1.00  0.00    -0.550 OA
ATOM      8  O   UNL     1       6.938 -18.985  11.044  1.00  0.00    -0.550 OA
ENDBRANCH   5   6
ENDBRANCH   4   5
ENDBRANCH   3   4
ENDBRANCH   2   3
ENDBRANCH   1   2
BRANCH   1   9
ATOM      9  C   UNL     1       8.759 -20.846  13.137  1.00  0.00     0.000 C 
BRANCH   9  10
ATOM     10  C   UNL     1       8.970 -20.911  14.655  1.00  0.00    -0.000 C 
BRANCH  10  11
ATOM     11  C   UNL     1       9.125 -22.362  15.128  1.00  0.00    -0.000 C 
BRANCH  11  12
ATOM     12  C   UNL     1       7.996 -22.807  16.074  1.00  0.00    -0.000 C 
BRANCH  12  13
ATOM     13  C   UNL     1       7.672 -21.777  17.177  1.00  0.00    -0.003 C 
ATOM     14  C   UNL     1       6.204 -21.823  17.603  1.00  0.00     0.004 C 
ENDBRANCH  12  13
ENDBRANCH  11  12
ENDBRANCH  10  11
ENDBRANCH   9  10
ENDBRANCH   1   9
TORSDOF 10
ENDMDL
MODEL 2
REMARK VINA RESULT:    -3.027      2.716      6.265
REMARK INTER + INTRA:          -5.529
REMARK INTER:                  -4.559
REMARK INTRA:                  -0.970
REMARK UNBOUND:                -0.733
REMARK SMILES CCCCCCCCCCCC(=O)[O-]
REMARK SMILES IDX 7 1 8 2 9 3 10 4 11 5 12 6 13 7 14 8 6 9 5 10 4 11 3 12 2 13
REMARK SMILES IDX 1 14
REMARK H PARENT
REMARK Flexibility Score: inf
ROOT
ATOM      1  C   UNL     1       7.663 -21.712  12.643  1.00  0.00     0.000 C 
ENDROOT
BRANCH   1   2
ATOM      2  C   UNL     1       8.829 -20.806  13.060  1.00  0.00     0.000 C 
BRANCH   2   3
ATOM      3  C   UNL     1       9.000 -20.739  14.593  1.00  0.00     0.000 C 
BRANCH   3   4
ATOM      4  C   UNL     1       9.125 -22.122  15.259  1.00  0.00     0.006 C 
BRANCH   4   5
ATOM      5  C   UNL     1       8.527 -22.192  16.673  1.00  0.00     0.053 C 
BRANCH   5   6
ATOM      6  C   UNL     1       7.035 -22.053  16.655  1.00  0.00     0.041 C 
ATOM      7  O   UNL     1       6.450 -21.401  17.560  1.00  0.00    -0.550 OA
ATOM      8  O   UNL     1       6.288 -22.658  15.652  1.00  0.00    -0.550 OA
ENDBRANCH   5   6
ENDBRANCH   4   5
ENDBRANCH   3   4
ENDBRANCH   2   3
ENDBRANCH   1   2
BRANCH   1   9
ATOM      9  C   UNL     1       8.094 -22.696  11.547  1.00  0.00     0.000 C 
BRANCH   9  10
ATOM     10  C   UNL     1       7.352 -22.417  10.234  1.00  0.00    -0.000 C 
BRANCH  10  11
ATOM     11  C   UNL     1       8.304 -21.851   9.173  1.00  0.00    -0.000 C 
BRANCH  11  12
ATOM     12  C   UNL     1       8.286 -20.314   9.112  1.00  0.00    -0.000 C 
BRANCH  12  13
ATOM     13  C   UNL     1       6.894 -19.701   9.374  1.00  0.00    -0.003 C 
ATOM     14  C   UNL     1       6.858 -18.862  10.652  1.00  0.00     0.004 C 
ENDBRANCH  12  13
ENDBRANCH  11  12
ENDBRANCH  10  11
ENDBRANCH   9  10
ENDBRANCH   1   9
TORSDOF 10
ENDMDL
MODEL 3
REMARK VINA RESULT:    -2.961     17.541     19.578
REMARK INTER + INTRA:          -5.425
REMARK INTER:                  -4.797
REMARK INTRA:                  -0.628
REMARK UNBOUND:                -0.733
REMARK SMILES CCCCCCCCCCCC(=O)[O-]
REMARK SMILES IDX 7 1 8 2 9 3 10 4 11 5 12 6 13 7 14 8 6 9 5 10 4 11 3 12 2 13
REMARK SMILES IDX 1 14
REMARK H PARENT
REMARK Flexibility Score: inf
ROOT
ATOM      1  C   UNL     1      -7.956 -22.184  18.666  1.00  0.00     0.000 C 
ENDROOT
BRANCH   1   2
ATOM      2  C   UNL     1      -7.717 -23.079  19.890  1.00  0.00     0.000 C 
BRANCH   2   3
ATOM      3  C   UNL     1      -8.784 -22.867  20.988  1.00  0.00     0.000 C 
BRANCH   3   4
ATOM      4  C   UNL     1      -8.187 -22.597  22.382  1.00  0.00     0.006 C 
BRANCH   4   5
ATOM      5  C   UNL     1      -8.589 -21.241  22.982  1.00  0.00     0.053 C 
BRANCH   5   6
ATOM      6  C   UNL     1     -10.071 -21.026  22.931  1.00  0.00     0.041 C 
ATOM      7  O   UNL     1     -10.831 -21.676  23.696  1.00  0.00    -0.550 OA
ATOM      8  O   UNL     1     -10.617 -20.123  22.026  1.00  0.00    -0.550 OA
ENDBRANCH   5   6
ENDBRANCH   4   5
ENDBRANCH   3   4
ENDBRANCH   2   3
ENDBRANCH   1   2
BRANCH   1   9
ATOM      9  C   UNL     1      -9.062 -22.758  17.771  1.00  0.00     0.000 C 
BRANCH   9  10
ATOM     10  C   UNL     1     -10.347 -21.928  17.885  1.00  0.00    -0.000 C 
BRANCH  10  11
ATOM     11  C   UNL     1     -10.253 -20.649  17.043  1.00  0.00    -0.000 C 
BRANCH  11  12
ATOM     12  C   UNL     1     -11.122 -20.702  15.775  1.00  0.00    -0.000 C 
BRANCH  12  13
ATOM     13  C   UNL     1     -10.329 -20.468  14.471  1.00  0.00    -0.003 C 
ATOM     14  C   UNL     1      -8.826 -20.679  14.659  1.00  0.00     0.004 C 
ENDBRANCH  12  13
ENDBRANCH  11  12
ENDBRANCH  10  11
ENDBRANCH   9  10
ENDBRANCH   1   9
TORSDOF 10
ENDMDL
MODEL 4
REMARK VINA RESULT:    -2.894     16.175     18.385
REMARK INTER + INTRA:          -5.319
REMARK INTER:                  -4.275
REMARK INTRA:                  -1.044
REMARK UNBOUND:                -0.733
REMARK SMILES CCCCCCCCCCCC(=O)[O-]
REMARK SMILES IDX 7 1 8 2 9 3 10 4 11 5 12 6 13 7 14 8 6 9 5 10 4 11 3 12 2 13
REMARK SMILES IDX 1 14
REMARK H PARENT
REMARK Flexibility Score: inf
ROOT
ATOM      1  C   UNL     1      -8.368 -22.830  22.358  1.00  0.00     0.000 C 
ENDROOT
BRANCH   1   2
ATOM      2  C   UNL     1      -7.541 -23.054  21.084  1.00  0.00     0.000 C 
BRANCH   2   3
ATOM      3  C   UNL     1      -8.410 -23.008  19.807  1.00  0.00     0.000 C 
BRANCH   3   4
ATOM      4  C   UNL     1      -7.732 -22.285  18.627  1.00  0.00     0.006 C 
BRANCH   4   5
ATOM      5  C   UNL     1      -8.597 -22.208  17.361  1.00  0.00     0.053 C 
BRANCH   5   6
ATOM      6  C   UNL     1      -7.785 -21.858  16.150  1.00  0.00     0.041 C 
ATOM      7  O   UNL     1      -6.599 -22.267  16.044  1.00  0.00    -0.550 OA
ATOM      8  O   UNL     1      -8.329 -21.063  15.149  1.00  0.00    -0.550 OA
ENDBRANCH   5   6
ENDBRANCH   4   5
ENDBRANCH   3   4
ENDBRANCH   2   3
ENDBRANCH   1   2
BRANCH   1   9
ATOM      9  C   UNL     1      -8.172 -21.409  22.899  1.00  0.00     0.000 C 
BRANCH   9  10
ATOM     10  C   UNL     1      -9.457 -20.583  22.754  1.00  0.00    -0.000 C 
BRANCH  10  11
ATOM     11  C   UNL     1     -10.542 -21.379  22.016  1.00  0.00    -0.000 C 
BRANCH  11  12
ATOM     12  C   UNL     1     -11.125 -20.621  20.811  1.00  0.00    -0.000 C 
BRANCH  12  13
ATOM     13  C   UNL     1     -10.119 -19.664  20.137  1.00  0.00    -0.003 C 
ATOM     14  C   UNL     1     -10.813 -18.561  19.337  1.00  0.00     0.004 C 
ENDBRANCH  12  13
ENDBRANCH  11  12
ENDBRANCH  10  11
ENDBRANCH   9  10
ENDBRANCH   1   9
TORSDOF 10
ENDMDL
MODEL 5
REMARK VINA RESULT:    -2.850     16.686     19.356
REMARK INTER + INTRA:          -5.249
REMARK INTER:                  -4.366
REMARK INTRA:                  -0.883
REMARK UNBOUND:                -0.733
REMARK SMILES CCCCCCCCCCCC(=O)[O-]
REMARK SMILES IDX 7 1 8 2 9 3 10 4 11 5 12 6 13 7 14 8 6 9 5 10 4 11 3 12 2 13
REMARK SMILES IDX 1 14
REMARK H PARENT
REMARK Flexibility Score: inf
ROOT
ATOM      1  C   UNL     1     -11.069 -19.812  18.613  1.00  0.00     0.000 C 
ENDROOT
BRANCH   1   2
ATOM      2  C   UNL     1     -10.592 -21.258  18.808  1.00  0.00     0.000 C 
BRANCH   2   3
ATOM      3  C   UNL     1      -9.216 -21.332  19.504  1.00  0.00     0.000 C 
BRANCH   3   4
ATOM      4  C   UNL     1      -9.070 -22.537  20.454  1.00  0.00     0.006 C 
BRANCH   4   5
ATOM      5  C   UNL     1      -9.912 -22.429  21.734  1.00  0.00     0.053 C 
BRANCH   5   6
ATOM      6  C   UNL     1      -9.431 -21.324  22.626  1.00  0.00     0.041 C 
ATOM      7  O   UNL     1      -8.260 -21.349  23.087  1.00  0.00    -0.550 OA
ATOM      8  O   UNL     1     -10.282 -20.279  22.966  1.00  0.00    -0.550 OA
ENDBRANCH   5   6
ENDBRANCH   4   5
ENDBRANCH   3   4
ENDBRANCH   2   3
ENDBRANCH   1   2
BRANCH   1   9
ATOM      9  C   UNL     1     -11.091 -19.434  17.126  1.00  0.00     0.000 C 
BRANCH   9  10
ATOM     10  C   UNL     1     -10.658 -20.617  16.252  1.00  0.00    -0.000 C 
BRANCH  10  11
ATOM     11  C   UNL     1      -9.833 -20.140  15.049  1.00  0.00    -0.000 C 
BRANCH  11  12
ATOM     12  C   UNL     1      -8.526 -20.932  14.868  1.00  0.00    -0.000 C 
BRANCH  12  13
ATOM     13  C   UNL     1      -8.087 -21.698  16.134  1.00  0.00    -0.003 C 
ATOM     14  C   UNL     1      -6.626 -22.144  16.066  1.00  0.00     0.004 C 
ENDBRANCH  12  13
ENDBRANCH  11  12
ENDBRANCH  10  11
ENDBRANCH   9  10
ENDBRANCH   1   9
TORSDOF 10
ENDMDL
MODEL 6
REMARK VINA RESULT:    -2.779     16.749     18.895
REMARK INTER + INTRA:          -5.136
REMARK INTER:                  -4.189
REMARK INTRA:                  -0.947
REMARK UNBOUND:                -0.733
REMARK SMILES CCCCCCCCCCCC(=O)[O-]
REMARK SMILES IDX 7 1 8 2 9 3 10 4 11 5 12 6 13 7 14 8 6 9 5 10 4 11 3 12 2 13
REMARK SMILES IDX 1 14
REMARK H PARENT
REMARK Flexibility Score: inf
ROOT
ATOM      1  C   UNL     1      -7.156 -22.092  17.528  1.00  0.00     0.000 C 
ENDROOT
BRANCH   1   2
ATOM      2  C   UNL     1      -7.419 -22.726  18.901  1.00  0.00     0.000 C 
BRANCH   2   3
ATOM      3  C   UNL     1      -8.925 -22.946  19.165  1.00  0.00     0.000 C 
BRANCH   3   4
ATOM      4  C   UNL     1      -9.358 -22.580  20.597  1.00  0.00     0.006 C 
BRANCH   4   5
ATOM      5  C   UNL     1      -8.195 -22.470  21.594  1.00  0.00     0.053 C 
BRANCH   5   6
ATOM      6  C   UNL     1      -8.616 -21.811  22.873  1.00  0.00     0.041 C 
ATOM      7  O   UNL     1      -8.843 -22.506  23.898  1.00  0.00    -0.550 OA
ATOM      8  O   UNL     1      -8.778 -20.432  22.929  1.00  0.00    -0.550 OA
ENDBRANCH   5   6
ENDBRANCH   4   5
ENDBRANCH   3   4
ENDBRANCH   2   3
ENDBRANCH   1   2
BRANCH   1   9
ATOM      9  C   UNL     1      -8.444 -22.019  16.698  1.00  0.00     0.000 C 
BRANCH   9  10
ATOM     10  C   UNL     1      -8.235 -21.184  15.429  1.00  0.00    -0.000 C 
BRANCH  10  11
ATOM     11  C   UNL     1      -9.507 -20.406  15.066  1.00  0.00    -0.000 C 
BRANCH  11  12
ATOM     12  C   UNL     1     -10.683 -20.710  16.008  1.00  0.00    -0.000 C 
BRANCH  12  13
ATOM     13  C   UNL     1     -11.093 -19.513  16.893  1.00  0.00    -0.003 C 
ATOM     14  C   UNL     1     -10.874 -19.788  18.381  1.00  0.00     0.004 C 
ENDBRANCH  12  13
ENDBRANCH  11  12
ENDBRANCH  10  11
ENDBRANCH   9  10
ENDBRANCH   1   9
TORSDOF 10
ENDMDL
MODEL 7
REMARK VINA RESULT:    -2.696     17.512     18.992
REMARK INTER + INTRA:          -5.005
REMARK INTER:                  -3.814
REMARK INTRA:                  -1.191
REMARK UNBOUND:                -0.733
REMARK SMILES CCCCCCCCCCCC(=O)[O-]
REMARK SMILES IDX 7 1 8 2 9 3 10 4 11 5 12 6 13 7 14 8 6 9 5 10 4 11 3 12 2 13
REMARK SMILES IDX 1 14
REMARK H PARENT
REMARK Flexibility Score: inf
ROOT
ATOM      1  C   UNL     1      -9.831 -19.797  20.187  1.00  0.00     0.000 C 
ENDROOT
BRANCH   1   2
ATOM      2  C   UNL     1     -10.805 -20.028  19.023  1.00  0.00     0.000 C 
BRANCH   2   3
ATOM      3  C   UNL     1     -11.125 -21.525  18.815  1.00  0.00     0.000 C 
BRANCH   3   4
ATOM      4  C   UNL     1     -10.559 -22.099  17.503  1.00  0.00     0.006 C 
BRANCH   4   5
ATOM      5  C   UNL     1      -9.448 -21.245  16.874  1.00  0.00     0.053 C 
BRANCH   5   6
ATOM      6  C   UNL     1      -9.846 -20.714  15.530  1.00  0.00     0.041 C 
ATOM      7  O   UNL     1     -11.036 -20.363  15.316  1.00  0.00    -0.550 OA
ATOM      8  O   UNL     1      -8.909 -20.626  14.507  1.00  0.00    -0.550 OA
ENDBRANCH   5   6
ENDBRANCH   4   5
ENDBRANCH   3   4
ENDBRANCH   2   3
ENDBRANCH   1   2
BRANCH   1   9
ATOM      9  C   UNL     1     -10.544 -19.939  21.538  1.00  0.00     0.000 C 
BRANCH   9  10
ATOM     10  C   UNL     1      -9.606 -20.537  22.594  1.00  0.00    -0.000 C 
BRANCH  10  11
ATOM     11  C   UNL     1     -10.139 -21.881  23.106  1.00  0.00    -0.000 C 
BRANCH  11  12
ATOM     12  C   UNL     1      -9.429 -23.088  22.471  1.00  0.00    -0.000 C 
BRANCH  12  13
ATOM     13  C   UNL     1      -8.067 -22.740  21.834  1.00  0.00    -0.003 C 
ATOM     14  C   UNL     1      -8.034 -23.035  20.334  1.00  0.00     0.004 C 
ENDBRANCH  12  13
ENDBRANCH  11  12
ENDBRANCH  10  11
ENDBRANCH   9  10
ENDBRANCH   1   9
TORSDOF 10
ENDMDL
MODEL 8
REMARK VINA RESULT:    -2.667     15.839     18.436
REMARK INTER + INTRA:          -4.959
REMARK INTER:                  -3.985
REMARK INTRA:                  -0.973
REMARK UNBOUND:                -0.733
REMARK SMILES CCCCCCCCCCCC(=O)[O-]
REMARK SMILES IDX 7 1 8 2 9 3 10 4 11 5 12 6 13 7 14 8 6 9 5 10 4 11 3 12 2 13
REMARK SMILES IDX 1 14
REMARK H PARENT
REMARK Flexibility Score: inf
ROOT
ATOM      1  C   UNL     1     -10.049 -19.718  19.878  1.00  0.00     0.000 C 
ENDROOT
BRANCH   1   2
ATOM      2  C   UNL     1     -10.735 -20.049  18.545  1.00  0.00     0.000 C 
BRANCH   2   3
ATOM      3  C   UNL     1     -10.013 -21.178  17.778  1.00  0.00     0.000 C 
BRANCH   3   4
ATOM      4  C   UNL     1      -8.682 -21.607  18.424  1.00  0.00     0.006 C 
BRANCH   4   5
ATOM      5  C   UNL     1      -7.997 -22.788  17.720  1.00  0.00     0.053 C 
BRANCH   5   6
ATOM      6  C   UNL     1      -6.991 -22.327  16.709  1.00  0.00     0.041 C 
ATOM      7  O   UNL     1      -7.373 -21.793  15.634  1.00  0.00    -0.550 OA
ATOM      8  O   UNL     1      -5.633 -22.504  16.943  1.00  0.00    -0.550 OA
ENDBRANCH   5   6
ENDBRANCH   4   5
ENDBRANCH   3   4
ENDBRANCH   2   3
ENDBRANCH   1   2
BRANCH   1   9
ATOM      9  C   UNL     1     -11.011 -19.910  21.056  1.00  0.00     0.000 C 
BRANCH   9  10
ATOM     10  C   UNL     1     -10.871 -21.314  21.658  1.00  0.00    -0.000 C 
BRANCH  10  11
ATOM     11  C   UNL     1     -10.509 -21.241  23.147  1.00  0.00    -0.000 C 
BRANCH  11  12
ATOM     12  C   UNL     1      -9.220 -22.008  23.487  1.00  0.00    -0.000 C 
BRANCH  12  13
ATOM     13  C   UNL     1      -8.097 -21.823  22.445  1.00  0.00    -0.003 C 
ATOM     14  C   UNL     1      -7.764 -23.123  21.712  1.00  0.00     0.004 C 
ENDBRANCH  12  13
ENDBRANCH  11  12
ENDBRANCH  10  11
ENDBRANCH   9  10
ENDBRANCH   1   9
TORSDOF 10
ENDMDL
MODEL 9
REMARK VINA RESULT:    -2.658      3.357      6.471
REMARK INTER + INTRA:          -4.945
REMARK INTER:                  -3.991
REMARK INTRA:                  -0.954
REMARK UNBOUND:                -0.733
REMARK SMILES CCCCCCCCCCCC(=O)[O-]
REMARK SMILES IDX 7 1 8 2 9 3 10 4 11 5 12 6 13 7 14 8 6 9 5 10 4 11 3 12 2 13
REMARK SMILES IDX 1 14
REMARK H PARENT
REMARK Flexibility Score: inf
ROOT
ATOM      1  C   UNL     1       7.306 -22.374  12.190  1.00  0.00     0.000 C 
ENDROOT
BRANCH   1   2
ATOM      2  C   UNL     1       8.799 -22.310  12.542  1.00  0.00     0.000 C 
BRANCH   2   3
ATOM      3  C   UNL     1       9.049 -22.447  14.060  1.00  0.00     0.000 C 
BRANCH   3   4
ATOM      4  C   UNL     1       8.104 -21.586  14.920  1.00  0.00     0.006 C 
BRANCH   4   5
ATOM      5  C   UNL     1       7.060 -22.396  15.703  1.00  0.00     0.053 C 
BRANCH   5   6
ATOM      6  C   UNL     1       6.971 -21.956  17.134  1.00  0.00     0.041 C 
ATOM      7  O   UNL     1       8.011 -21.614  17.756  1.00  0.00    -0.550 OA
ATOM      8  O   UNL     1       5.745 -21.943  17.787  1.00  0.00    -0.550 OA
ENDBRANCH   5   6
ENDBRANCH   4   5
ENDBRANCH   3   4
ENDBRANCH   2   3
ENDBRANCH   1   2
BRANCH   1   9
ATOM      9  C   UNL     1       6.825 -21.049  11.584  1.00  0.00     0.000 C 
BRANCH   9  10
ATOM     10  C   UNL     1       7.985 -20.294  10.924  1.00  0.00    -0.000 C 
BRANCH  10  11
ATOM     11  C   UNL     1       7.946 -20.450   9.398  1.00  0.00    -0.000 C 
BRANCH  11  12
ATOM     12  C   UNL     1       9.125 -21.273   8.850  1.00  0.00    -0.000 C 
BRANCH  12  13
ATOM     13  C   UNL     1       8.744 -22.717   8.463  1.00  0.00    -0.003 C 
ATOM     14  C   UNL     1       7.233 -22.950   8.499  1.00  0.00     0.004 C 
ENDBRANCH  12  13
ENDBRANCH  11  12
ENDBRANCH  10  11
ENDBRANCH   9  10
ENDBRANCH   1   9
TORSDOF 10
ENDMDL
