MODEL 1
REMARK VINA RESULT:    -2.918      0.000      0.000
REMARK INTER + INTRA:          -7.717
REMARK INTER:                  -5.647
REMARK INTRA:                  -2.070
REMARK UNBOUND:                -2.070
REMARK SMILES CCCCCCCCCCCCCCCCCC(=O)[O-]
REMARK SMILES IDX 10 1 11 2 12 3 13 4 14 5 15 6 16 7 17 8 18 9 19 10 20 11
REMARK SMILES IDX 9 12 8 13 7 14 6 15 5 16 4 17 3 18 2 19 1 20
REMARK H PARENT
REMARK Flexibility Score: inf
ROOT
ATOM      1  C   UNL     1      -9.160   1.028  -8.008  1.00  0.00     0.000 C 
ENDROOT
BRANCH   1   2
ATOM      2  C   UNL     1     -10.032  -0.049  -8.673  1.00  0.00     0.000 C 
BRANCH   2   3
ATOM      3  C   UNL     1     -11.056   0.583  -9.625  1.00  0.00     0.000 C 
BRANCH   3   4
ATOM      4  C   UNL     1     -10.983   0.011 -11.053  1.00  0.00     0.000 C 
BRANCH   4   5
ATOM      5  C   UNL     1     -10.483   0.996 -12.125  1.00  0.00     0.000 C 
BRANCH   5   6
ATOM      6  C   UNL     1     -10.070   2.357 -11.544  1.00  0.00     0.000 C 
BRANCH   6   7
ATOM      7  C   UNL     1      -8.553   2.560 -11.645  1.00  0.00     0.006 C 
BRANCH   7   8
ATOM      8  C   UNL     1      -7.813   1.222 -11.570  1.00  0.00     0.053 C 
BRANCH   8   9
ATOM      9  C   UNL     1      -6.973   1.155 -10.335  1.00  0.00     0.041 C 
ATOM     10  O   UNL     1      -6.703   2.206  -9.696  1.00  0.00    -0.550 OA
ATOM     11  O   UNL     1      -6.529  -0.072  -9.860  1.00  0.00    -0.550 OA
ENDBRANCH   8   9
ENDBRANCH   7   8
ENDBRANCH   6   7
ENDBRANCH   5   6
ENDBRANCH   4   5
ENDBRANCH   3   4
ENDBRANCH   2   3
ENDBRANCH   1   2
BRANCH   1  12
ATOM     12  C   UNL     1      -9.763   2.436  -8.131  1.00  0.00     0.000 C 
BRANCH  12  13
ATOM     13  C   UNL     1      -8.882   3.516  -7.484  1.00  0.00    -0.000 C 
BRANCH  13  14
ATOM     14  C   UNL     1      -9.514   4.905  -7.638  1.00  0.00    -0.000 C 
BRANCH  14  15
ATOM     15  C   UNL     1     -10.502   4.933  -8.813  1.00  0.00    -0.000 C 
BRANCH  15  16
ATOM     16  C   UNL     1     -10.834   6.360  -9.287  1.00  0.00    -0.000 C 
BRANCH  16  17
ATOM     17  C   UNL     1      -9.662   7.125  -9.928  1.00  0.00    -0.000 C 
BRANCH  17  18
ATOM     18  C   UNL     1      -8.807   6.244 -10.856  1.00  0.00    -0.000 C 
BRANCH  18  19
ATOM     19  C   UNL     1      -7.304   6.361 -10.556  1.00  0.00    -0.003 C 
ATOM     20  C   UNL     1      -7.017   6.787  -9.116  1.00  0.00     0.004 C 
ENDBRANCH  18  19
ENDBRANCH  17  18
ENDBRANCH  16  17
ENDBRANCH  15  16
ENDBRANCH  14  15
ENDBRANCH  13  14
ENDBRANCH  12  13
ENDBRANCH   1  12
TORSDOF 16
ENDMDL
MODEL 2
REMARK VINA RESULT:    -2.916     11.926     15.322
REMARK INTER + INTRA:          -7.713
REMARK INTER:                  -6.177
REMARK INTRA:                  -1.537
REMARK UNBOUND:                -2.070
REMARK SMILES CCCCCCCCCCCCCCCCCC(=O)[O-]
REMARK SMILES IDX 10 1 11 2 12 3 13 4 14 5 15 6 16 7 17 8 18 9 19 10 20 11
REMARK SMILES IDX 9 12 8 13 7 14 6 15 5 16 4 17 3 18 2 19 1 20
REMARK H PARENT
REMARK Flexibility Score: inf
ROOT
ATOM      1  C   UNL     1       0.376  -8.108 -10.095  1.00  0.00     0.000 C 
ENDROOT
BRANCH   1   2
ATOM      2  C   UNL     1      -0.741  -7.405 -10.882  1.00  0.00     0.000 C 
BRANCH   2   3
ATOM      3  C   UNL     1      -1.180  -6.113 -10.176  1.00  0.00     0.000 C 
BRANCH   3   4
ATOM      4  C   UNL     1      -1.074  -4.870 -11.077  1.00  0.00     0.000 C 
BRANCH   4   5
ATOM      5  C   UNL     1       0.091  -4.890 -12.083  1.00  0.00     0.000 C 
BRANCH   5   6
ATOM      6  C   UNL     1       0.922  -3.598 -12.064  1.00  0.00     0.000 C 
BRANCH   6   7
ATOM      7  C   UNL     1       1.405  -3.276 -10.645  1.00  0.00     0.006 C 
BRANCH   7   8
ATOM      8  C   UNL     1       2.065  -1.896 -10.589  1.00  0.00     0.053 C 
BRANCH   8   9
ATOM      9  C   UNL     1       3.509  -1.990 -10.968  1.00  0.00     0.041 C 
ATOM     10  O   UNL     1       3.873  -2.771 -11.885  1.00  0.00    -0.550 OA
ATOM     11  O   UNL     1       4.446  -1.178 -10.341  1.00  0.00    -0.550 OA
ENDBRANCH   8   9
ENDBRANCH   7   8
ENDBRANCH   6   7
ENDBRANCH   5   6
ENDBRANCH   4   5
ENDBRANCH   3   4
ENDBRANCH   2   3
ENDBRANCH   1   2
BRANCH   1  12
ATOM     12  C   UNL     1       1.451  -8.718 -11.009  1.00  0.00     0.000 C 
BRANCH  12  13
ATOM     13  C   UNL     1       1.041 -10.086 -11.575  1.00  0.00    -0.000 C 
BRANCH  13  14
ATOM     14  C   UNL     1       1.082 -11.166 -10.488  1.00  0.00    -0.000 C 
BRANCH  14  15
ATOM     15  C   UNL     1       0.564 -12.508 -11.024  1.00  0.00    -0.000 C 
BRANCH  15  16
ATOM     16  C   UNL     1      -0.965 -12.531 -11.214  1.00  0.00    -0.000 C 
BRANCH  16  17
ATOM     17  C   UNL     1      -1.781 -12.045 -10.003  1.00  0.00    -0.000 C 
BRANCH  17  18
ATOM     18  C   UNL     1      -2.537 -10.733 -10.277  1.00  0.00    -0.000 C 
BRANCH  18  19
ATOM     19  C   UNL     1      -2.651 -10.422 -11.777  1.00  0.00    -0.003 C 
ATOM     20  C   UNL     1      -3.910  -9.628 -12.125  1.00  0.00     0.004 C 
ENDBRANCH  18  19
ENDBRANCH  17  18
ENDBRANCH  16  17
ENDBRANCH  15  16
ENDBRANCH  14  15
ENDBRANCH  13  14
ENDBRANCH  12  13
ENDBRANCH   1  12
TORSDOF 16
ENDMDL
MODEL 3
REMARK VINA RESULT:    -2.549     12.627     15.997
REMARK INTER + INTRA:          -7.003
REMARK INTER:                  -5.953
REMARK INTRA:                  -1.050
REMARK UNBOUND:                -2.070
REMARK SMILES CCCCCCCCCCCCCCCCCC(=O)[O-]
REMARK SMILES IDX 10 1 11 2 12 3 13 4 14 5 15 6 16 7 17 8 18 9 19 10 20 11
REMARK SMILES IDX 9 12 8 13 7 14 6 15 5 16 4 17 3 18 2 19 1 20
REMARK H PARENT
REMARK Flexibility Score: inf
ROOT
ATOM      1  C   UNL     1       1.403  -6.997 -11.426  1.00  0.00     0.000 C 
ENDROOT
BRANCH   1   2
ATOM      2  C   UNL     1       2.741  -6.261 -11.600  1.00  0.00     0.000 C 
BRANCH   2   3
ATOM      3  C   UNL     1       2.519  -4.833 -12.119  1.00  0.00     0.000 C 
BRANCH   3   4
ATOM      4  C   UNL     1       1.289  -4.151 -11.494  1.00  0.00     0.000 C 
BRANCH   4   5
ATOM      5  C   UNL     1       1.541  -2.741 -10.930  1.00  0.00     0.000 C 
BRANCH   5   6
ATOM      6  C   UNL     1       1.696  -1.676 -12.027  1.00  0.00     0.000 C 
BRANCH   6   7
ATOM      7  C   UNL     1       3.136  -1.150 -12.084  1.00  0.00     0.006 C 
BRANCH   7   8
ATOM      8  C   UNL     1       3.891  -1.476 -10.793  1.00  0.00     0.053 C 
BRANCH   8   9
ATOM      9  C   UNL     1       5.350  -1.184 -10.951  1.00  0.00     0.041 C 
ATOM     10  O   UNL     1       5.739  -0.360 -11.820  1.00  0.00    -0.550 OA
ATOM     11  O   UNL     1       6.275  -1.782 -10.106  1.00  0.00    -0.550 OA
ENDBRANCH   8   9
ENDBRANCH   7   8
ENDBRANCH   6   7
ENDBRANCH   5   6
ENDBRANCH   4   5
ENDBRANCH   3   4
ENDBRANCH   2   3
ENDBRANCH   1   2
BRANCH   1  12
ATOM     12  C   UNL     1       1.436  -8.023 -10.282  1.00  0.00     0.000 C 
BRANCH  12  13
ATOM     13  C   UNL     1       0.527  -9.233 -10.545  1.00  0.00    -0.000 C 
BRANCH  13  14
ATOM     14  C   UNL     1       1.116 -10.136 -11.636  1.00  0.00    -0.000 C 
BRANCH  14  15
ATOM     15  C   UNL     1       1.532 -11.497 -11.060  1.00  0.00    -0.000 C 
BRANCH  15  16
ATOM     16  C   UNL     1       0.343 -12.306 -10.507  1.00  0.00    -0.000 C 
BRANCH  16  17
ATOM     17  C   UNL     1      -0.956 -12.203 -11.327  1.00  0.00    -0.000 C 
BRANCH  17  18
ATOM     18  C   UNL     1      -2.219 -12.440 -10.483  1.00  0.00    -0.000 C 
BRANCH  18  19
ATOM     19  C   UNL     1      -3.390 -11.541 -10.909  1.00  0.00    -0.003 C 
ATOM     20  C   UNL     1      -3.077 -10.052 -10.767  1.00  0.00     0.004 C 
ENDBRANCH  18  19
ENDBRANCH  17  18
ENDBRANCH  16  17
ENDBRANCH  15  16
ENDBRANCH  14  15
ENDBRANCH  13  14
ENDBRANCH  12  13
ENDBRANCH   1  12
TORSDOF 16
ENDMDL
MODEL 4
REMARK VINA RESULT:    -2.484     13.550     16.797
REMARK INTER + INTRA:          -6.876
REMARK INTER:                  -5.923
REMARK INTRA:                  -0.953
REMARK UNBOUND:                -2.070
REMARK SMILES CCCCCCCCCCCCCCCCCC(=O)[O-]
REMARK SMILES IDX 10 1 11 2 12 3 13 4 14 5 15 6 16 7 17 8 18 9 19 10 20 11
REMARK SMILES IDX 9 12 8 13 7 14 6 15 5 16 4 17 3 18 2 19 1 20
REMARK H PARENT
REMARK Flexibility Score: inf
ROOT
ATOM      1  C   UNL     1       1.640  -7.083 -10.700  1.00  0.00     0.000 C 
ENDROOT
BRANCH   1   2
ATOM      2  C   UNL     1       0.307  -7.735 -10.302  1.00  0.00     0.000 C 
BRANCH   2   3
ATOM      3  C   UNL     1      -0.878  -6.996 -10.941  1.00  0.00     0.000 C 
BRANCH   3   4
ATOM      4  C   UNL     1      -1.107  -5.597 -10.344  1.00  0.00     0.000 C 
BRANCH   4   5
ATOM      5  C   UNL     1      -1.727  -4.569 -11.309  1.00  0.00     0.000 C 
BRANCH   5   6
ATOM      6  C   UNL     1      -0.675  -3.802 -12.124  1.00  0.00     0.000 C 
BRANCH   6   7
ATOM      7  C   UNL     1       0.614  -3.610 -11.315  1.00  0.00     0.006 C 
BRANCH   7   8
ATOM      8  C   UNL     1       1.219  -2.226 -11.567  1.00  0.00     0.053 C 
BRANCH   8   9
ATOM      9  C   UNL     1       2.346  -1.966 -10.617  1.00  0.00     0.041 C 
ATOM     10  O   UNL     1       2.171  -2.096  -9.377  1.00  0.00    -0.550 OA
ATOM     11  O   UNL     1       3.602  -1.629 -11.104  1.00  0.00    -0.550 OA
ENDBRANCH   8   9
ENDBRANCH   7   8
ENDBRANCH   6   7
ENDBRANCH   5   6
ENDBRANCH   4   5
ENDBRANCH   3   4
ENDBRANCH   2   3
ENDBRANCH   1   2
BRANCH   1  12
ATOM     12  C   UNL     1       2.573  -8.050 -11.446  1.00  0.00     0.000 C 
BRANCH  12  13
ATOM     13  C   UNL     1       3.869  -7.376 -11.920  1.00  0.00    -0.000 C 
BRANCH  13  14
ATOM     14  C   UNL     1       5.056  -8.343 -11.831  1.00  0.00    -0.000 C 
BRANCH  14  15
ATOM     15  C   UNL     1       6.383  -7.578 -11.722  1.00  0.00    -0.000 C 
BRANCH  15  16
ATOM     16  C   UNL     1       7.610  -8.452 -12.045  1.00  0.00    -0.000 C 
BRANCH  16  17
ATOM     17  C   UNL     1       8.580  -8.675 -10.871  1.00  0.00    -0.000 C 
BRANCH  17  18
ATOM     18  C   UNL     1       7.920  -9.378  -9.672  1.00  0.00    -0.000 C 
BRANCH  18  19
ATOM     19  C   UNL     1       8.451 -10.804  -9.462  1.00  0.00    -0.003 C 
ATOM     20  C   UNL     1       9.072 -11.399 -10.726  1.00  0.00     0.004 C 
ENDBRANCH  18  19
ENDBRANCH  17  18
ENDBRANCH  16  17
ENDBRANCH  15  16
ENDBRANCH  14  15
ENDBRANCH  13  14
ENDBRANCH  12  13
ENDBRANCH   1  12
TORSDOF 16
ENDMDL
MODEL 5
REMARK VINA RESULT:    -2.447      2.129      5.416
REMARK INTER + INTRA:          -6.806
REMARK INTER:                  -4.946
REMARK INTRA:                  -1.860
REMARK UNBOUND:                -2.070
REMARK SMILES CCCCCCCCCCCCCCCCCC(=O)[O-]
REMARK SMILES IDX 10 1 11 2 12 3 13 4 14 5 15 6 16 7 17 8 18 9 19 10 20 11
REMARK SMILES IDX 9 12 8 13 7 14 6 15 5 16 4 17 3 18 2 19 1 20
REMARK H PARENT
REMARK Flexibility Score: inf
ROOT
ATOM      1  C   UNL     1      -9.242   2.563  -8.516  1.00  0.00     0.000 C 
ENDROOT
BRANCH   1   2
ATOM      2  C   UNL     1      -8.941   3.385  -7.253  1.00  0.00     0.000 C 
BRANCH   2   3
ATOM      3  C   UNL     1      -8.727   4.866  -7.599  1.00  0.00     0.000 C 
BRANCH   3   4
ATOM      4  C   UNL     1      -7.423   5.120  -8.375  1.00  0.00     0.000 C 
BRANCH   4   5
ATOM      5  C   UNL     1      -7.261   6.547  -8.929  1.00  0.00     0.000 C 
BRANCH   5   6
ATOM      6  C   UNL     1      -7.473   6.627 -10.448  1.00  0.00     0.000 C 
BRANCH   6   7
ATOM      7  C   UNL     1      -8.003   5.298 -11.001  1.00  0.00     0.006 C 
BRANCH   7   8
ATOM      8  C   UNL     1      -9.307   5.506 -11.775  1.00  0.00     0.053 C 
BRANCH   8   9
ATOM      9  C   UNL     1     -10.485   5.168 -10.917  1.00  0.00     0.041 C 
ATOM     10  O   UNL     1     -11.125   4.101 -11.113  1.00  0.00    -0.550 OA
ATOM     11  O   UNL     1     -10.846   6.005  -9.870  1.00  0.00    -0.550 OA
ENDBRANCH   8   9
ENDBRANCH   7   8
ENDBRANCH   6   7
ENDBRANCH   5   6
ENDBRANCH   4   5
ENDBRANCH   3   4
ENDBRANCH   2   3
ENDBRANCH   1   2
BRANCH   1  12
ATOM     12  C   UNL     1      -9.242   1.050  -8.252  1.00  0.00     0.000 C 
BRANCH  12  13
ATOM     13  C   UNL     1     -10.154   0.279  -9.218  1.00  0.00    -0.000 C 
BRANCH  13  14
ATOM     14  C   UNL     1     -10.620   1.179 -10.369  1.00  0.00    -0.000 C 
BRANCH  14  15
ATOM     15  C   UNL     1      -9.942   0.782 -11.688  1.00  0.00    -0.000 C 
BRANCH  15  16
ATOM     16  C   UNL     1      -8.653   1.576 -11.966  1.00  0.00    -0.000 C 
BRANCH  16  17
ATOM     17  C   UNL     1      -7.353   0.755 -11.907  1.00  0.00    -0.000 C 
BRANCH  17  18
ATOM     18  C   UNL     1      -6.685   0.787 -10.522  1.00  0.00    -0.000 C 
BRANCH  18  19
ATOM     19  C   UNL     1      -5.177   0.498 -10.588  1.00  0.00    -0.003 C 
ATOM     20  C   UNL     1      -4.668   0.333 -12.020  1.00  0.00     0.004 C 
ENDBRANCH  18  19
ENDBRANCH  17  18
ENDBRANCH  16  17
ENDBRANCH  15  16
ENDBRANCH  14  15
ENDBRANCH  13  14
ENDBRANCH  12  13
ENDBRANCH   1  12
TORSDOF 16
ENDMDL
MODEL 6
REMARK VINA RESULT:    -1.579      1.811      3.879
REMARK INTER + INTRA:          -5.126
REMARK INTER:                  -3.564
REMARK INTRA:                  -1.562
REMARK UNBOUND:                -2.070
REMARK SMILES CCCCCCCCCCCCCCCCCC(=O)[O-]
REMARK SMILES IDX 10 1 11 2 12 3 13 4 14 5 15 6 16 7 17 8 18 9 19 10 20 11
REMARK SMILES IDX 9 12 8 13 7 14 6 15 5 16 4 17 3 18 2 19 1 20
REMARK H PARENT
REMARK Flexibility Score: inf
ROOT
ATOM      1  C   UNL     1      -6.642   4.844  -8.398  1.00  0.00     0.000 C 
ENDROOT
BRANCH   1   2
ATOM      2  C   UNL     1      -7.854   3.907  -8.527  1.00  0.00     0.000 C 
BRANCH   2   3
ATOM      3  C   UNL     1      -7.446   2.565  -9.151  1.00  0.00     0.000 C 
BRANCH   3   4
ATOM      4  C   UNL     1      -7.791   2.468 -10.648  1.00  0.00     0.000 C 
BRANCH   4   5
ATOM      5  C   UNL     1      -8.226   1.072 -11.128  1.00  0.00     0.000 C 
BRANCH   5   6
ATOM      6  C   UNL     1      -9.651   1.050 -11.700  1.00  0.00     0.000 C 
BRANCH   6   7
ATOM      7  C   UNL     1     -10.572   0.168 -10.847  1.00  0.00     0.006 C 
BRANCH   7   8
ATOM      8  C   UNL     1     -10.829   0.804  -9.478  1.00  0.00     0.053 C 
BRANCH   8   9
ATOM      9  C   UNL     1     -10.170   0.007  -8.398  1.00  0.00     0.041 C 
ATOM     10  O   UNL     1      -9.022   0.323  -7.988  1.00  0.00    -0.550 OA
ATOM     11  O   UNL     1     -10.843  -1.055  -7.808  1.00  0.00    -0.550 OA
ENDBRANCH   8   9
ENDBRANCH   7   8
ENDBRANCH   6   7
ENDBRANCH   5   6
ENDBRANCH   4   5
ENDBRANCH   3   4
ENDBRANCH   2   3
ENDBRANCH   1   2
BRANCH   1  12
ATOM     12  C   UNL     1      -7.048   6.316  -8.228  1.00  0.00     0.000 C 
BRANCH  12  13
ATOM     13  C   UNL     1      -7.684   6.907  -9.495  1.00  0.00    -0.000 C 
BRANCH  13  14
ATOM     14  C   UNL     1      -7.369   6.042 -10.722  1.00  0.00    -0.000 C 
BRANCH  14  15
ATOM     15  C   UNL     1      -8.505   6.114 -11.753  1.00  0.00    -0.000 C 
BRANCH  15  16
ATOM     16  C   UNL     1      -9.153   4.745 -12.032  1.00  0.00    -0.000 C 
BRANCH  16  17
ATOM     17  C   UNL     1     -10.682   4.700 -11.868  1.00  0.00    -0.000 C 
BRANCH  17  18
ATOM     18  C   UNL     1     -11.124   4.104 -10.521  1.00  0.00    -0.000 C 
BRANCH  18  19
ATOM     19  C   UNL     1     -11.029   5.117  -9.370  1.00  0.00    -0.003 C 
ATOM     20  C   UNL     1     -11.124   4.461  -7.992  1.00  0.00     0.004 C 
ENDBRANCH  18  19
ENDBRANCH  17  18
ENDBRANCH  16  17
ENDBRANCH  15  16
ENDBRANCH  14  15
ENDBRANCH  13  14
ENDBRANCH  12  13
ENDBRANCH   1  12
TORSDOF 16
ENDMDL
MODEL 7
REMARK VINA RESULT:    -1.482      1.622      3.462
REMARK INTER + INTRA:          -4.938
REMARK INTER:                  -3.114
REMARK INTRA:                  -1.824
REMARK UNBOUND:                -2.070
REMARK SMILES CCCCCCCCCCCCCCCCCC(=O)[O-]
REMARK SMILES IDX 10 1 11 2 12 3 13 4 14 5 15 6 16 7 17 8 18 9 19 10 20 11
REMARK SMILES IDX 9 12 8 13 7 14 6 15 5 16 4 17 3 18 2 19 1 20
REMARK H PARENT
REMARK Flexibility Score: inf
ROOT
ATOM      1  C   UNL     1      -9.709   4.064 -10.913  1.00  0.00     0.000 C 
ENDROOT
BRANCH   1   2
ATOM      2  C   UNL     1     -11.091   3.749 -11.507  1.00  0.00     0.000 C 
BRANCH   2   3
ATOM      3  C   UNL     1     -11.117   2.344 -12.125  1.00  0.00     0.000 C 
BRANCH   3   4
ATOM      4  C   UNL     1     -10.450   1.282 -11.233  1.00  0.00     0.000 C 
BRANCH   4   5
ATOM      5  C   UNL     1      -9.247   0.560 -11.866  1.00  0.00     0.000 C 
BRANCH   5   6
ATOM      6  C   UNL     1      -7.907   1.250 -11.566  1.00  0.00     0.000 C 
BRANCH   6   7
ATOM      7  C   UNL     1      -7.690   1.395 -10.055  1.00  0.00     0.006 C 
BRANCH   7   8
ATOM      8  C   UNL     1      -7.781   0.037  -9.353  1.00  0.00     0.053 C 
BRANCH   8   9
ATOM      9  C   UNL     1      -8.608   0.143  -8.112  1.00  0.00     0.041 C 
ATOM     10  O   UNL     1      -9.576   0.947  -8.063  1.00  0.00    -0.550 OA
ATOM     11  O   UNL     1      -8.342  -0.681  -7.026  1.00  0.00    -0.550 OA
ENDBRANCH   8   9
ENDBRANCH   7   8
ENDBRANCH   6   7
ENDBRANCH   5   6
ENDBRANCH   4   5
ENDBRANCH   3   4
ENDBRANCH   2   3
ENDBRANCH   1   2
BRANCH   1  12
ATOM     12  C   UNL     1      -8.782   4.772 -11.913  1.00  0.00     0.000 C 
BRANCH  12  13
ATOM     13  C   UNL     1      -8.329   6.157 -11.423  1.00  0.00    -0.000 C 
BRANCH  13  14
ATOM     14  C   UNL     1      -9.355   6.759 -10.455  1.00  0.00    -0.000 C 
BRANCH  14  15
ATOM     15  C   UNL     1      -8.699   7.125  -9.116  1.00  0.00    -0.000 C 
BRANCH  15  16
ATOM     16  C   UNL     1      -7.194   6.799  -9.072  1.00  0.00    -0.000 C 
BRANCH  16  17
ATOM     17  C   UNL     1      -6.790   5.707  -8.066  1.00  0.00    -0.000 C 
BRANCH  17  18
ATOM     18  C   UNL     1      -7.420   4.339  -8.380  1.00  0.00    -0.000 C 
BRANCH  18  19
ATOM     19  C   UNL     1      -8.408   3.883  -7.295  1.00  0.00    -0.003 C 
ATOM     20  C   UNL     1      -9.779   4.547  -7.424  1.00  0.00     0.004 C 
ENDBRANCH  18  19
ENDBRANCH  17  18
ENDBRANCH  16  17
ENDBRANCH  15  16
ENDBRANCH  14  15
ENDBRANCH  13  14
ENDBRANCH  12  13
ENDBRANCH   1  12
TORSDOF 16
ENDMDL
MODEL 8
REMARK VINA RESULT:    -1.324      1.643      5.330
REMARK INTER + INTRA:          -4.632
REMARK INTER:                  -5.036
REMARK INTRA:                   0.404
REMARK UNBOUND:                -2.070
REMARK SMILES CCCCCCCCCCCCCCCCCC(=O)[O-]
REMARK SMILES IDX 10 1 11 2 12 3 13 4 14 5 15 6 16 7 17 8 18 9 19 10 20 11
REMARK SMILES IDX 9 12 8 13 7 14 6 15 5 16 4 17 3 18 2 19 1 20
REMARK H PARENT
REMARK Flexibility Score: inf
ROOT
ATOM      1  C   UNL     1     -10.169   2.432 -11.209  1.00  0.00     0.000 C 
ENDROOT
BRANCH   1   2
ATOM      2  C   UNL     1     -10.979   3.678 -11.599  1.00  0.00     0.000 C 
BRANCH   2   3
ATOM      3  C   UNL     1     -10.191   4.961 -11.303  1.00  0.00     0.000 C 
BRANCH   3   4
ATOM      4  C   UNL     1      -8.893   5.073 -12.123  1.00  0.00     0.000 C 
BRANCH   4   5
ATOM      5  C   UNL     1      -7.837   6.033 -11.546  1.00  0.00     0.000 C 
BRANCH   5   6
ATOM      6  C   UNL     1      -8.379   6.905 -10.404  1.00  0.00     0.000 C 
BRANCH   6   7
ATOM      7  C   UNL     1      -7.683   6.570  -9.079  1.00  0.00     0.006 C 
BRANCH   7   8
ATOM      8  C   UNL     1      -8.699   6.131  -8.021  1.00  0.00     0.053 C 
BRANCH   8   9
ATOM      9  C   UNL     1      -8.837   4.641  -8.015  1.00  0.00     0.041 C 
ATOM     10  O   UNL     1      -7.834   3.911  -8.230  1.00  0.00    -0.550 OA
ATOM     11  O   UNL     1     -10.063   4.058  -7.722  1.00  0.00    -0.550 OA
ENDBRANCH   8   9
ENDBRANCH   7   8
ENDBRANCH   6   7
ENDBRANCH   5   6
ENDBRANCH   4   5
ENDBRANCH   3   4
ENDBRANCH   2   3
ENDBRANCH   1   2
BRANCH   1  12
ATOM     12  C   UNL     1     -10.489   1.216 -12.093  1.00  0.00     0.000 C 
BRANCH  12  13
ATOM     13  C   UNL     1     -11.125   0.061 -11.304  1.00  0.00    -0.000 C 
BRANCH  13  14
ATOM     14  C   UNL     1     -11.118   0.355  -9.799  1.00  0.00    -0.000 C 
BRANCH  14  15
ATOM     15  C   UNL     1      -9.942   1.267  -9.421  1.00  0.00    -0.000 C 
BRANCH  15  16
ATOM     16  C   UNL     1      -8.914   0.577  -8.506  1.00  0.00    -0.000 C 
BRANCH  16  17
ATOM     17  C   UNL     1      -7.648   0.064  -9.215  1.00  0.00    -0.000 C 
BRANCH  17  18
ATOM     18  C   UNL     1      -7.063   1.082 -10.210  1.00  0.00    -0.000 C 
BRANCH  18  19
ATOM     19  C   UNL     1      -5.656   0.693 -10.690  1.00  0.00    -0.003 C 
ATOM     20  C   UNL     1      -4.775   0.148  -9.566  1.00  0.00     0.004 C 
ENDBRANCH  18  19
ENDBRANCH  17  18
ENDBRANCH  16  17
ENDBRANCH  15  16
ENDBRANCH  14  15
ENDBRANCH  13  14
ENDBRANCH  12  13
ENDBRANCH   1  12
TORSDOF 16
ENDMDL
MODEL 9
REMARK VINA RESULT:    -1.316      2.000      3.773
REMARK INTER + INTRA:          -4.616
REMARK INTER:                  -3.580
REMARK INTRA:                  -1.036
REMARK UNBOUND:                -2.070
REMARK SMILES CCCCCCCCCCCCCCCCCC(=O)[O-]
REMARK SMILES IDX 10 1 11 2 12 3 13 4 14 5 15 6 16 7 17 8 18 9 19 10 20 11
REMARK SMILES IDX 9 12 8 13 7 14 6 15 5 16 4 17 3 18 2 19 1 20
REMARK H PARENT
REMARK Flexibility Score: inf
ROOT
ATOM      1  C   UNL     1      -9.784   2.636 -10.437  1.00  0.00     0.000 C 
ENDROOT
BRANCH   1   2
ATOM      2  C   UNL     1      -9.485   1.980 -11.795  1.00  0.00     0.000 C 
BRANCH   2   3
ATOM      3  C   UNL     1      -7.988   2.058 -12.125  1.00  0.00     0.000 C 
BRANCH   3   4
ATOM      4  C   UNL     1      -7.275   0.699 -12.012  1.00  0.00     0.000 C 
BRANCH   4   5
ATOM      5  C   UNL     1      -6.287   0.576 -10.838  1.00  0.00     0.000 C 
BRANCH   5   6
ATOM      6  C   UNL     1      -6.881   1.048  -9.502  1.00  0.00     0.000 C 
BRANCH   6   7
ATOM      7  C   UNL     1      -7.866   0.014  -8.943  1.00  0.00     0.006 C 
BRANCH   7   8
ATOM      8  C   UNL     1      -9.082   0.697  -8.311  1.00  0.00     0.053 C 
BRANCH   8   9
ATOM      9  C   UNL     1     -10.252  -0.234  -8.285  1.00  0.00     0.041 C 
ATOM     10  O   UNL     1     -11.113  -0.193  -9.202  1.00  0.00    -0.550 OA
ATOM     11  O   UNL     1     -10.365  -1.181  -7.275  1.00  0.00    -0.550 OA
ENDBRANCH   8   9
ENDBRANCH   7   8
ENDBRANCH   6   7
ENDBRANCH   5   6
ENDBRANCH   4   5
ENDBRANCH   3   4
ENDBRANCH   2   3
ENDBRANCH   1   2
BRANCH   1  12
ATOM     12  C   UNL     1     -10.932   3.655 -10.512  1.00  0.00     0.000 C 
BRANCH  12  13
ATOM     13  C   UNL     1     -10.442   5.078 -10.823  1.00  0.00    -0.000 C 
BRANCH  13  14
ATOM     14  C   UNL     1      -9.182   5.047 -11.696  1.00  0.00    -0.000 C 
BRANCH  14  15
ATOM     15  C   UNL     1      -8.183   6.128 -11.260  1.00  0.00    -0.000 C 
BRANCH  15  16
ATOM     16  C   UNL     1      -8.702   6.995 -10.098  1.00  0.00    -0.000 C 
BRANCH  16  17
ATOM     17  C   UNL     1      -8.235   6.560  -8.697  1.00  0.00    -0.000 C 
BRANCH  17  18
ATOM     18  C   UNL     1      -7.640   5.141  -8.677  1.00  0.00    -0.000 C 
BRANCH  18  19
ATOM     19  C   UNL     1      -7.969   4.384  -7.381  1.00  0.00    -0.003 C 
ATOM     20  C   UNL     1      -9.472   4.265  -7.128  1.00  0.00     0.004 C 
ENDBRANCH  18  19
ENDBRANCH  17  18
ENDBRANCH  16  17
ENDBRANCH  15  16
ENDBRANCH  14  15
ENDBRANCH  13  14
ENDBRANCH  12  13
ENDBRANCH   1  12
TORSDOF 16
ENDMDL
