MODEL 1
REMARK VINA RESULT:    -5.137      0.000      0.000
REMARK INTER + INTRA:          -6.169
REMARK INTER:                  -5.888
REMARK INTRA:                  -0.281
REMARK UNBOUND:                -0.281
REMARK SMILES O=C([O-])C=Cc1ccc(O)cc1
REMARK SMILES IDX 6 1 7 2 12 3 8 4 11 5 9 6 5 7 4 8 2 9 1 10 3 11 10 12
REMARK H PARENT 10 13
REMARK Flexibility Score: inf
ROOT
ATOM      1  C   UNL     1      -3.856  14.719   6.868  1.00  0.00    -0.025 A 
ATOM      2  C   UNL     1      -3.082  15.860   6.610  1.00  0.00     0.012 A 
ATOM      3  C   UNL     1      -3.500  13.873   7.933  1.00  0.00     0.012 A 
ATOM      4  C   UNL     1      -2.001  16.181   7.436  1.00  0.00     0.047 A 
ATOM      5  C   UNL     1      -2.418  14.196   8.759  1.00  0.00     0.047 A 
ATOM      6  C   UNL     1      -1.669  15.351   8.515  1.00  0.00     0.115 A 
ENDROOT
BRANCH   1   7
ATOM      7  C   UNL     1      -4.960  14.371   5.950  1.00  0.00     0.010 C 
ATOM      8  C   UNL     1      -6.265  14.556   6.199  1.00  0.00     0.025 C 
BRANCH   8   9
ATOM      9  C   UNL     1      -6.819  15.308   7.340  1.00  0.00     0.064 C 
ATOM     10  O   UNL     1      -7.081  16.531   7.203  1.00  0.00    -0.545 OA
ATOM     11  O   UNL     1      -6.992  14.716   8.586  1.00  0.00    -0.545 OA
ENDBRANCH   8   9
ENDBRANCH   1   7
BRANCH   6  12
ATOM     12  O   UNL     1      -0.595  15.661   9.346  1.00  0.00    -0.508 OA
ATOM     13  H   UNL     1      -0.376  16.620   9.592  1.00  0.00     0.293 HD
ENDBRANCH   6  12
TORSDOF 3
ENDMDL
MODEL 2
REMARK VINA RESULT:    -5.049      0.176      1.409
REMARK INTER + INTRA:          -6.068
REMARK INTER:                  -5.806
REMARK INTRA:                  -0.262
REMARK UNBOUND:                -0.281
REMARK SMILES O=C([O-])C=Cc1ccc(O)cc1
REMARK SMILES IDX 6 1 7 2 12 3 8 4 11 5 9 6 5 7 4 8 2 9 1 10 3 11 10 12
REMARK H PARENT 10 13
REMARK Flexibility Score: inf
ROOT
ATOM      1  C   UNL     1      -3.851  14.679   6.831  1.00  0.00    -0.025 A 
ATOM      2  C   UNL     1      -3.482  13.871   7.917  1.00  0.00     0.012 A 
ATOM      3  C   UNL     1      -3.149  15.875   6.595  1.00  0.00     0.012 A 
ATOM      4  C   UNL     1      -2.395  14.223   8.722  1.00  0.00     0.047 A 
ATOM      5  C   UNL     1      -2.062  16.225   7.401  1.00  0.00     0.047 A 
ATOM      6  C   UNL     1      -1.679  15.400   8.464  1.00  0.00     0.115 A 
ENDROOT
BRANCH   1   7
ATOM      7  C   UNL     1      -5.035  14.315   6.027  1.00  0.00     0.010 C 
ATOM      8  C   UNL     1      -6.311  14.482   6.405  1.00  0.00     0.025 C 
BRANCH   8   9
ATOM      9  C   UNL     1      -6.760  15.227   7.596  1.00  0.00     0.064 C 
ATOM     10  O   UNL     1      -6.971  16.465   7.505  1.00  0.00    -0.545 OA
ATOM     11  O   UNL     1      -6.887  14.609   8.834  1.00  0.00    -0.545 OA
ENDBRANCH   8   9
ENDBRANCH   1   7
BRANCH   6  12
ATOM     12  O   UNL     1      -0.594  15.761   9.258  1.00  0.00    -0.508 OA
ATOM     13  H   UNL     1      -0.715  16.309  10.102  1.00  0.00     0.293 HD
ENDBRANCH   6  12
TORSDOF 3
ENDMDL
MODEL 3
REMARK VINA RESULT:    -5.000      2.029      5.016
REMARK INTER + INTRA:          -6.011
REMARK INTER:                  -5.715
REMARK INTRA:                  -0.296
REMARK UNBOUND:                -0.281
REMARK SMILES O=C([O-])C=Cc1ccc(O)cc1
REMARK SMILES IDX 6 1 7 2 12 3 8 4 11 5 9 6 5 7 4 8 2 9 1 10 3 11 10 12
REMARK H PARENT 10 13
REMARK Flexibility Score: inf
ROOT
ATOM      1  C   UNL     1      -5.391  15.086   6.262  1.00  0.00    -0.025 A 
ATOM      2  C   UNL     1      -5.340  13.937   5.458  1.00  0.00     0.012 A 
ATOM      3  C   UNL     1      -6.638  15.556   6.711  1.00  0.00     0.012 A 
ATOM      4  C   UNL     1      -6.511  13.237   5.151  1.00  0.00     0.047 A 
ATOM      5  C   UNL     1      -7.809  14.854   6.403  1.00  0.00     0.047 A 
ATOM      6  C   UNL     1      -7.748  13.693   5.627  1.00  0.00     0.115 A 
ENDROOT
BRANCH   1   7
ATOM      7  C   UNL     1      -4.149  15.838   6.528  1.00  0.00     0.010 C 
ATOM      8  C   UNL     1      -3.355  15.674   7.597  1.00  0.00     0.025 C 
BRANCH   8   9
ATOM      9  C   UNL     1      -3.475  14.593   8.594  1.00  0.00     0.064 C 
ATOM     10  O   UNL     1      -2.845  13.519   8.415  1.00  0.00    -0.545 OA
ATOM     11  O   UNL     1      -4.324  14.705   9.689  1.00  0.00    -0.545 OA
ENDBRANCH   8   9
ENDBRANCH   1   7
BRANCH   6  12
ATOM     12  O   UNL     1      -8.922  13.004   5.329  1.00  0.00    -0.508 OA
ATOM     13  H   UNL     1      -8.929  11.996   5.218  1.00  0.00     0.293 HD
ENDBRANCH   6  12
TORSDOF 3
ENDMDL
MODEL 4
REMARK VINA RESULT:    -4.788      2.030      4.962
REMARK INTER + INTRA:          -5.769
REMARK INTER:                  -5.640
REMARK INTRA:                  -0.130
REMARK UNBOUND:                -0.281
REMARK SMILES O=C([O-])C=Cc1ccc(O)cc1
REMARK SMILES IDX 6 1 7 2 12 3 8 4 11 5 9 6 5 7 4 8 2 9 1 10 3 11 10 12
REMARK H PARENT 10 13
REMARK Flexibility Score: inf
ROOT
ATOM      1  C   UNL     1      -5.111  14.172   6.988  1.00  0.00    -0.025 A 
ATOM      2  C   UNL     1      -6.251  14.600   7.685  1.00  0.00     0.012 A 
ATOM      3  C   UNL     1      -5.245  13.719   5.663  1.00  0.00     0.012 A 
ATOM      4  C   UNL     1      -7.497  14.626   7.052  1.00  0.00     0.047 A 
ATOM      5  C   UNL     1      -6.493  13.746   5.032  1.00  0.00     0.047 A 
ATOM      6  C   UNL     1      -7.620  14.202   5.721  1.00  0.00     0.115 A 
ENDROOT
BRANCH   1   7
ATOM      7  C   UNL     1      -3.815  14.102   7.693  1.00  0.00     0.010 C 
ATOM      8  C   UNL     1      -2.859  15.042   7.656  1.00  0.00     0.025 C 
BRANCH   8   9
ATOM      9  C   UNL     1      -3.002  16.385   7.064  1.00  0.00     0.064 C 
ATOM     10  O   UNL     1      -2.108  16.817   6.292  1.00  0.00    -0.545 OA
ATOM     11  O   UNL     1      -4.066  17.215   7.397  1.00  0.00    -0.545 OA
ENDBRANCH   8   9
ENDBRANCH   1   7
BRANCH   6  12
ATOM     12  O   UNL     1      -8.856  14.225   5.079  1.00  0.00    -0.508 OA
ATOM     13  H   UNL     1      -9.672  13.783   5.488  1.00  0.00     0.293 HD
ENDBRANCH   6  12
TORSDOF 3
ENDMDL
MODEL 5
REMARK VINA RESULT:    -4.547      2.517      4.463
REMARK INTER + INTRA:          -5.493
REMARK INTER:                  -5.239
REMARK INTRA:                  -0.254
REMARK UNBOUND:                -0.281
REMARK SMILES O=C([O-])C=Cc1ccc(O)cc1
REMARK SMILES IDX 6 1 7 2 12 3 8 4 11 5 9 6 5 7 4 8 2 9 1 10 3 11 10 12
REMARK H PARENT 10 13
REMARK Flexibility Score: inf
ROOT
ATOM      1  C   UNL     1      -5.218  15.730   7.327  1.00  0.00    -0.025 A 
ATOM      2  C   UNL     1      -4.459  14.714   6.727  1.00  0.00     0.012 A 
ATOM      3  C   UNL     1      -6.554  15.917   6.930  1.00  0.00     0.012 A 
ATOM      4  C   UNL     1      -5.042  13.861   5.784  1.00  0.00     0.047 A 
ATOM      5  C   UNL     1      -7.135  15.063   5.987  1.00  0.00     0.047 A 
ATOM      6  C   UNL     1      -6.383  14.032   5.414  1.00  0.00     0.115 A 
ENDROOT
BRANCH   1   7
ATOM      7  C   UNL     1      -4.566  16.651   8.280  1.00  0.00     0.010 C 
ATOM      8  C   UNL     1      -4.773  16.672   9.606  1.00  0.00     0.025 C 
BRANCH   8   9
ATOM      9  C   UNL     1      -5.535  15.665  10.368  1.00  0.00     0.064 C 
ATOM     10  O   UNL     1      -5.001  14.555  10.628  1.00  0.00    -0.545 OA
ATOM     11  O   UNL     1      -6.855  15.883  10.744  1.00  0.00    -0.545 OA
ENDBRANCH   8   9
ENDBRANCH   1   7
BRANCH   6  12
ATOM     12  O   UNL     1      -6.975  13.189   4.477  1.00  0.00    -0.508 OA
ATOM     13  H   UNL     1      -7.962  12.960   4.520  1.00  0.00     0.293 HD
ENDBRANCH   6  12
TORSDOF 3
ENDMDL
MODEL 6
REMARK VINA RESULT:    -4.517      4.355      6.083
REMARK INTER + INTRA:          -5.458
REMARK INTER:                  -5.259
REMARK INTRA:                  -0.199
REMARK UNBOUND:                -0.281
REMARK SMILES O=C([O-])C=Cc1ccc(O)cc1
REMARK SMILES IDX 6 1 7 2 12 3 8 4 11 5 9 6 5 7 4 8 2 9 1 10 3 11 10 12
REMARK H PARENT 10 13
REMARK Flexibility Score: inf
ROOT
ATOM      1  C   UNL     1      -9.135  16.286   6.676  1.00  0.00    -0.025 A 
ATOM      2  C   UNL     1      -8.136  15.881   7.574  1.00  0.00     0.012 A 
ATOM      3  C   UNL     1      -9.254  15.629   5.438  1.00  0.00     0.012 A 
ATOM      4  C   UNL     1      -7.304  14.801   7.265  1.00  0.00     0.047 A 
ATOM      5  C   UNL     1      -8.420  14.549   5.130  1.00  0.00     0.047 A 
ATOM      6  C   UNL     1      -7.447  14.130   6.043  1.00  0.00     0.115 A 
ENDROOT
BRANCH   1   7
ATOM      7  C   UNL     1      -9.967  17.463   7.001  1.00  0.00     0.010 C 
ATOM      8  C   UNL     1     -11.294  17.447   7.191  1.00  0.00     0.025 C 
BRANCH   8   9
ATOM      9  C   UNL     1     -12.129  16.235   7.297  1.00  0.00     0.064 C 
ATOM     10  O   UNL     1     -12.196  15.628   8.397  1.00  0.00    -0.545 OA
ATOM     11  O   UNL     1     -12.785  15.706   6.192  1.00  0.00    -0.545 OA
ENDBRANCH   8   9
ENDBRANCH   1   7
BRANCH   6  12
ATOM     12  O   UNL     1      -6.625  13.052   5.723  1.00  0.00    -0.508 OA
ATOM     13  H   UNL     1      -6.617  12.650   4.793  1.00  0.00     0.293 HD
ENDBRANCH   6  12
TORSDOF 3
ENDMDL
MODEL 7
REMARK VINA RESULT:    -4.451      4.388      5.994
REMARK INTER + INTRA:          -5.383
REMARK INTER:                  -5.095
REMARK INTRA:                  -0.288
REMARK UNBOUND:                -0.281
REMARK SMILES O=C([O-])C=Cc1ccc(O)cc1
REMARK SMILES IDX 6 1 7 2 12 3 8 4 11 5 9 6 5 7 4 8 2 9 1 10 3 11 10 12
REMARK H PARENT 10 13
REMARK Flexibility Score: inf
ROOT
ATOM      1  C   UNL     1      -9.187  16.256   6.609  1.00  0.00    -0.025 A 
ATOM      2  C   UNL     1      -9.543  15.403   5.554  1.00  0.00     0.012 A 
ATOM      3  C   UNL     1      -8.050  15.957   7.381  1.00  0.00     0.012 A 
ATOM      4  C   UNL     1      -8.746  14.298   5.239  1.00  0.00     0.047 A 
ATOM      5  C   UNL     1      -7.254  14.852   7.065  1.00  0.00     0.047 A 
ATOM      6  C   UNL     1      -7.597  14.022   5.992  1.00  0.00     0.115 A 
ENDROOT
BRANCH   1   7
ATOM      7  C   UNL     1     -10.073  17.386   6.957  1.00  0.00     0.010 C 
ATOM      8  C   UNL     1     -11.188  17.299   7.697  1.00  0.00     0.025 C 
BRANCH   8   9
ATOM      9  C   UNL     1     -11.624  16.108   8.450  1.00  0.00     0.064 C 
ATOM     10  O   UNL     1     -11.166  15.908   9.605  1.00  0.00    -0.545 OA
ATOM     11  O   UNL     1     -12.474  15.163   7.887  1.00  0.00    -0.545 OA
ENDBRANCH   8   9
ENDBRANCH   1   7
BRANCH   6  12
ATOM     12  O   UNL     1      -6.794  12.926   5.688  1.00  0.00    -0.508 OA
ATOM     13  H   UNL     1      -6.254  12.887   4.831  1.00  0.00     0.293 HD
ENDBRANCH   6  12
TORSDOF 3
ENDMDL
MODEL 8
REMARK VINA RESULT:    -4.336      9.624     11.277
REMARK INTER + INTRA:          -5.251
REMARK INTER:                  -4.968
REMARK INTRA:                  -0.283
REMARK UNBOUND:                -0.281
REMARK SMILES O=C([O-])C=Cc1ccc(O)cc1
REMARK SMILES IDX 6 1 7 2 12 3 8 4 11 5 9 6 5 7 4 8 2 9 1 10 3 11 10 12
REMARK H PARENT 10 13
REMARK Flexibility Score: inf
ROOT
ATOM      1  C   UNL     1      -2.356  23.599  11.793  1.00  0.00    -0.025 A 
ATOM      2  C   UNL     1      -2.209  24.279  10.576  1.00  0.00     0.012 A 
ATOM      3  C   UNL     1      -2.942  24.262  12.886  1.00  0.00     0.012 A 
ATOM      4  C   UNL     1      -2.689  25.585  10.434  1.00  0.00     0.047 A 
ATOM      5  C   UNL     1      -3.422  25.568  12.742  1.00  0.00     0.047 A 
ATOM      6  C   UNL     1      -3.300  26.231  11.517  1.00  0.00     0.115 A 
ENDROOT
BRANCH   1   7
ATOM      7  C   UNL     1      -1.794  22.240  11.935  1.00  0.00     0.010 C 
ATOM      8  C   UNL     1      -0.513  21.954  12.213  1.00  0.00     0.025 C 
BRANCH   8   9
ATOM      9  C   UNL     1       0.515  22.935  12.611  1.00  0.00     0.064 C 
ATOM     10  O   UNL     1       1.369  23.309  11.767  1.00  0.00    -0.545 OA
ATOM     11  O   UNL     1       0.607  23.400  13.918  1.00  0.00    -0.545 OA
ENDBRANCH   8   9
ENDBRANCH   1   7
BRANCH   6  12
ATOM     12  O   UNL     1      -3.783  27.531  11.388  1.00  0.00    -0.508 OA
ATOM     13  H   UNL     1      -3.558  28.101  10.580  1.00  0.00     0.293 HD
ENDBRANCH   6  12
TORSDOF 3
ENDMDL
MODEL 9
REMARK VINA RESULT:    -4.229      9.499     10.922
REMARK INTER + INTRA:          -5.128
REMARK INTER:                  -4.840
REMARK INTRA:                  -0.287
REMARK UNBOUND:                -0.281
REMARK SMILES O=C([O-])C=Cc1ccc(O)cc1
REMARK SMILES IDX 6 1 7 2 12 3 8 4 11 5 9 6 5 7 4 8 2 9 1 10 3 11 10 12
REMARK H PARENT 10 13
REMARK Flexibility Score: inf
ROOT
ATOM      1  C   UNL     1      -1.661  23.606  10.468  1.00  0.00    -0.025 A 
ATOM      2  C   UNL     1      -2.129  24.913  10.268  1.00  0.00     0.012 A 
ATOM      3  C   UNL     1      -1.831  22.998  11.724  1.00  0.00     0.012 A 
ATOM      4  C   UNL     1      -2.805  25.585  11.292  1.00  0.00     0.047 A 
ATOM      5  C   UNL     1      -2.507  23.672  12.747  1.00  0.00     0.047 A 
ATOM      6  C   UNL     1      -2.999  24.963  12.533  1.00  0.00     0.115 A 
ENDROOT
BRANCH   1   7
ATOM      7  C   UNL     1      -0.903  22.937   9.390  1.00  0.00     0.010 C 
ATOM      8  C   UNL     1       0.421  23.029   9.199  1.00  0.00     0.025 C 
BRANCH   8   9
ATOM      9  C   UNL     1       1.378  23.654  10.131  1.00  0.00     0.064 C 
ATOM     10  O   UNL     1       1.836  22.978  11.089  1.00  0.00    -0.545 OA
ATOM     11  O   UNL     1       1.731  24.994  10.021  1.00  0.00    -0.545 OA
ENDBRANCH   8   9
ENDBRANCH   1   7
BRANCH   6  12
ATOM     12  O   UNL     1      -3.671  25.621  13.560  1.00  0.00    -0.508 OA
ATOM     13  H   UNL     1      -3.861  26.616  13.515  1.00  0.00     0.293 HD
ENDBRANCH   6  12
TORSDOF 3
ENDMDL
