MODEL 1
REMARK VINA RESULT:    -4.530      0.000      0.000
REMARK INTER + INTRA:          -4.530
REMARK INTER:                  -4.530
REMARK INTRA:                   0.000
REMARK UNBOUND:                 0.000
REMARK SMILES CC1=CC[C@H]2[C@@H](C1)C2(C)C
REMARK SMILES IDX 1 1 2 2 3 3 4 4 5 5 6 6 7 7 8 8 9 9 10 10
REMARK H PARENT
REMARK Flexibility Score: inf
ROOT
ATOM      1  C   UNL     1      32.130   7.801  32.969  1.00  0.00     0.039 C 
ATOM      2  C   UNL     1      32.085   9.145  32.295  1.00  0.00    -0.077 C 
ATOM      3  C   UNL     1      32.853  10.145  32.761  1.00  0.00    -0.028 C 
ATOM      4  C   UNL     1      32.841  11.508  32.129  1.00  0.00     0.031 C 
ATOM      5  C   UNL     1      32.718  11.428  30.593  1.00  0.00     0.003 C 
ATOM      6  C   UNL     1      31.831  10.285  30.046  1.00  0.00     0.003 C 
ATOM      7  C   UNL     1      31.180   9.369  31.106  1.00  0.00     0.034 C 
ATOM      8  C   UNL     1      31.384  11.749  29.899  1.00  0.00    -0.029 C 
ATOM      9  C   UNL     1      30.192  12.284  30.717  1.00  0.00     0.012 C 
ATOM     10  C   UNL     1      31.521  12.319  28.483  1.00  0.00     0.012 C 
ENDROOT
TORSDOF 0
ENDMDL
MODEL 2
REMARK VINA RESULT:    -4.353      1.735      2.581
REMARK INTER + INTRA:          -4.353
REMARK INTER:                  -4.353
REMARK INTRA:                   0.000
REMARK UNBOUND:                 0.000
REMARK SMILES CC1=CC[C@H]2[C@@H](C1)C2(C)C
REMARK SMILES IDX 1 1 2 2 3 3 4 4 5 5 6 6 7 7 8 8 9 9 10 10
REMARK H PARENT
REMARK Flexibility Score: inf
ROOT
ATOM      1  C   UNL     1      31.263   7.190  35.119  1.00  0.00     0.039 C 
ATOM      2  C   UNL     1      31.405   8.537  34.464  1.00  0.00    -0.077 C 
ATOM      3  C   UNL     1      31.273   9.651  35.206  1.00  0.00    -0.028 C 
ATOM      4  C   UNL     1      31.399  11.020  34.600  1.00  0.00     0.031 C 
ATOM      5  C   UNL     1      32.496  11.071  33.517  1.00  0.00     0.003 C 
ATOM      6  C   UNL     1      32.651   9.798  32.654  1.00  0.00     0.003 C 
ATOM      7  C   UNL     1      31.687   8.637  32.983  1.00  0.00     0.034 C 
ATOM      8  C   UNL     1      32.121  11.098  32.026  1.00  0.00    -0.029 C 
ATOM      9  C   UNL     1      30.644  11.210  31.599  1.00  0.00     0.012 C 
ATOM     10  C   UNL     1      33.125  11.829  31.128  1.00  0.00     0.012 C 
ENDROOT
TORSDOF 0
ENDMDL
MODEL 3
REMARK VINA RESULT:    -4.291      1.317      4.178
REMARK INTER + INTRA:          -4.291
REMARK INTER:                  -4.291
REMARK INTRA:                   0.000
REMARK UNBOUND:                 0.000
REMARK SMILES CC1=CC[C@H]2[C@@H](C1)C2(C)C
REMARK SMILES IDX 1 1 2 2 3 3 4 4 5 5 6 6 7 7 8 8 9 9 10 10
REMARK H PARENT
REMARK Flexibility Score: inf
ROOT
ATOM      1  C   UNL     1      33.125  12.559  30.724  1.00  0.00     0.039 C 
ATOM      2  C   UNL     1      32.396  11.340  31.220  1.00  0.00    -0.077 C 
ATOM      3  C   UNL     1      31.649  10.623  30.363  1.00  0.00    -0.028 C 
ATOM      4  C   UNL     1      30.896   9.400  30.808  1.00  0.00     0.031 C 
ATOM      5  C   UNL     1      31.694   8.577  31.840  1.00  0.00     0.003 C 
ATOM      6  C   UNL     1      32.552   9.393  32.835  1.00  0.00     0.003 C 
ATOM      7  C   UNL     1      32.501  10.928  32.670  1.00  0.00     0.034 C 
ATOM      8  C   UNL     1      31.319   8.620  33.331  1.00  0.00    -0.029 C 
ATOM      9  C   UNL     1      30.060   9.378  33.793  1.00  0.00     0.012 C 
ATOM     10  C   UNL     1      31.640   7.338  34.107  1.00  0.00     0.012 C 
ENDROOT
TORSDOF 0
ENDMDL
MODEL 4
REMARK VINA RESULT:    -4.242      1.346      3.720
REMARK INTER + INTRA:          -4.242
REMARK INTER:                  -4.242
REMARK INTRA:                   0.000
REMARK UNBOUND:                 0.000
REMARK SMILES CC1=CC[C@H]2[C@@H](C1)C2(C)C
REMARK SMILES IDX 1 1 2 2 3 3 4 4 5 5 6 6 7 7 8 8 9 9 10 10
REMARK H PARENT
REMARK Flexibility Score: inf
ROOT
ATOM      1  C   UNL     1      32.363  11.194  27.645  1.00  0.00     0.039 C 
ATOM      2  C   UNL     1      32.097  10.906  29.098  1.00  0.00    -0.077 C 
ATOM      3  C   UNL     1      31.577   9.718  29.452  1.00  0.00    -0.028 C 
ATOM      4  C   UNL     1      31.288   9.381  30.888  1.00  0.00     0.031 C 
ATOM      5  C   UNL     1      32.365   9.943  31.839  1.00  0.00     0.003 C 
ATOM      6  C   UNL     1      32.965  11.312  31.444  1.00  0.00     0.003 C 
ATOM      7  C   UNL     1      32.409  11.946  30.149  1.00  0.00     0.034 C 
ATOM      8  C   UNL     1      32.078  11.188  32.694  1.00  0.00    -0.029 C 
ATOM      9  C   UNL     1      30.668  11.810  32.713  1.00  0.00     0.012 C 
ATOM     10  C   UNL     1      32.839  11.238  34.023  1.00  0.00     0.012 C 
ENDROOT
TORSDOF 0
ENDMDL
MODEL 5
REMARK VINA RESULT:    -4.197      1.223      4.113
REMARK INTER + INTRA:          -4.197
REMARK INTER:                  -4.197
REMARK INTRA:                   0.000
REMARK UNBOUND:                 0.000
REMARK SMILES CC1=CC[C@H]2[C@@H](C1)C2(C)C
REMARK SMILES IDX 1 1 2 2 3 3 4 4 5 5 6 6 7 7 8 8 9 9 10 10
REMARK H PARENT
REMARK Flexibility Score: inf
ROOT
ATOM      1  C   UNL     1      32.309  11.723  29.768  1.00  0.00     0.039 C 
ATOM      2  C   UNL     1      32.270  10.889  31.020  1.00  0.00    -0.077 C 
ATOM      3  C   UNL     1      33.118  11.166  32.025  1.00  0.00    -0.028 C 
ATOM      4  C   UNL     1      33.125  10.362  33.295  1.00  0.00     0.031 C 
ATOM      5  C   UNL     1      31.700   9.952  33.723  1.00  0.00     0.003 C 
ATOM      6  C   UNL     1      30.719   9.625  32.574  1.00  0.00     0.003 C 
ATOM      7  C   UNL     1      31.288   9.748  31.143  1.00  0.00     0.034 C 
ATOM      8  C   UNL     1      31.207   8.511  33.515  1.00  0.00    -0.029 C 
ATOM      9  C   UNL     1      32.172   7.426  33.000  1.00  0.00     0.012 C 
ATOM     10  C   UNL     1      30.167   8.038  34.537  1.00  0.00     0.012 C 
ENDROOT
TORSDOF 0
ENDMDL
MODEL 6
REMARK VINA RESULT:    -4.162      1.785      3.527
REMARK INTER + INTRA:          -4.162
REMARK INTER:                  -4.162
REMARK INTRA:                   0.000
REMARK UNBOUND:                 0.000
REMARK SMILES CC1=CC[C@H]2[C@@H](C1)C2(C)C
REMARK SMILES IDX 1 1 2 2 3 3 4 4 5 5 6 6 7 7 8 8 9 9 10 10
REMARK H PARENT
REMARK Flexibility Score: inf
ROOT
ATOM      1  C   UNL     1      30.471   7.941  28.838  1.00  0.00     0.039 C 
ATOM      2  C   UNL     1      30.839   8.348  30.239  1.00  0.00    -0.077 C 
ATOM      3  C   UNL     1      30.978   7.404  31.186  1.00  0.00    -0.028 C 
ATOM      4  C   UNL     1      31.339   7.757  32.601  1.00  0.00     0.031 C 
ATOM      5  C   UNL     1      32.358   8.914  32.664  1.00  0.00     0.003 C 
ATOM      6  C   UNL     1      32.203  10.008  31.582  1.00  0.00     0.003 C 
ATOM      7  C   UNL     1      31.048   9.805  30.577  1.00  0.00     0.034 C 
ATOM      8  C   UNL     1      31.908  10.331  33.056  1.00  0.00    -0.029 C 
ATOM      9  C   UNL     1      30.461  10.585  33.522  1.00  0.00     0.012 C 
ATOM     10  C   UNL     1      32.982  11.172  33.752  1.00  0.00     0.012 C 
ENDROOT
TORSDOF 0
ENDMDL
MODEL 7
REMARK VINA RESULT:    -4.121      1.259      2.640
REMARK INTER + INTRA:          -4.121
REMARK INTER:                  -4.121
REMARK INTRA:                   0.000
REMARK UNBOUND:                 0.000
REMARK SMILES CC1=CC[C@H]2[C@@H](C1)C2(C)C
REMARK SMILES IDX 1 1 2 2 3 3 4 4 5 5 6 6 7 7 8 8 9 9 10 10
REMARK H PARENT
REMARK Flexibility Score: inf
ROOT
ATOM      1  C   UNL     1      33.117  10.512  32.822  1.00  0.00     0.039 C 
ATOM      2  C   UNL     1      32.477  10.580  31.462  1.00  0.00    -0.077 C 
ATOM      3  C   UNL     1      31.610   9.622  31.091  1.00  0.00    -0.028 C 
ATOM      4  C   UNL     1      30.948   9.639  29.742  1.00  0.00     0.031 C 
ATOM      5  C   UNL     1      30.584  11.071  29.297  1.00  0.00     0.003 C 
ATOM      6  C   UNL     1      31.580  12.179  29.714  1.00  0.00     0.003 C 
ATOM      7  C   UNL     1      32.812  11.712  30.520  1.00  0.00     0.034 C 
ATOM      8  C   UNL     1      31.425  11.795  28.232  1.00  0.00    -0.029 C 
ATOM      9  C   UNL     1      32.558  11.050  27.500  1.00  0.00     0.012 C 
ATOM     10  C   UNL     1      30.648  12.810  27.388  1.00  0.00     0.012 C 
ENDROOT
TORSDOF 0
ENDMDL
MODEL 8
REMARK VINA RESULT:    -4.080      2.139      3.811
REMARK INTER + INTRA:          -4.080
REMARK INTER:                  -4.080
REMARK INTRA:                   0.000
REMARK UNBOUND:                 0.000
REMARK SMILES CC1=CC[C@H]2[C@@H](C1)C2(C)C
REMARK SMILES IDX 1 1 2 2 3 3 4 4 5 5 6 6 7 7 8 8 9 9 10 10
REMARK H PARENT
REMARK Flexibility Score: inf
ROOT
ATOM      1  C   UNL     1      30.853   8.050  37.012  1.00  0.00     0.039 C 
ATOM      2  C   UNL     1      31.218   8.275  35.569  1.00  0.00    -0.077 C 
ATOM      3  C   UNL     1      31.589   7.229  34.810  1.00  0.00    -0.028 C 
ATOM      4  C   UNL     1      31.968   7.399  33.367  1.00  0.00     0.031 C 
ATOM      5  C   UNL     1      31.088   8.451  32.660  1.00  0.00     0.003 C 
ATOM      6  C   UNL     1      30.662   9.662  33.523  1.00  0.00     0.003 C 
ATOM      7  C   UNL     1      31.172   9.666  34.981  1.00  0.00     0.034 C 
ATOM      8  C   UNL     1      31.642   9.852  32.353  1.00  0.00    -0.029 C 
ATOM      9  C   UNL     1      33.123  10.179  32.625  1.00  0.00     0.012 C 
ATOM     10  C   UNL     1      31.035  10.521  31.115  1.00  0.00     0.012 C 
ENDROOT
TORSDOF 0
ENDMDL
MODEL 9
REMARK VINA RESULT:    -4.020      2.657      5.518
REMARK INTER + INTRA:          -4.020
REMARK INTER:                  -4.020
REMARK INTRA:                   0.000
REMARK UNBOUND:                 0.000
REMARK SMILES CC1=CC[C@H]2[C@@H](C1)C2(C)C
REMARK SMILES IDX 1 1 2 2 3 3 4 4 5 5 6 6 7 7 8 8 9 9 10 10
REMARK H PARENT
REMARK Flexibility Score: inf
ROOT
ATOM      1  C   UNL     1      32.432  11.213  33.156  1.00  0.00     0.039 C 
ATOM      2  C   UNL     1      31.919   9.826  33.432  1.00  0.00    -0.077 C 
ATOM      3  C   UNL     1      32.264   8.818  32.612  1.00  0.00    -0.028 C 
ATOM      4  C   UNL     1      31.774   7.416  32.839  1.00  0.00     0.031 C 
ATOM      5  C   UNL     1      31.721   7.060  34.339  1.00  0.00     0.003 C 
ATOM      6  C   UNL     1      31.319   8.211  35.290  1.00  0.00     0.003 C 
ATOM      7  C   UNL     1      31.019   9.570  34.619  1.00  0.00     0.034 C 
ATOM      8  C   UNL     1      30.376   7.014  35.083  1.00  0.00    -0.029 C 
ATOM      9  C   UNL     1      29.054   7.189  34.310  1.00  0.00     0.012 C 
ATOM     10  C   UNL     1      30.329   6.029  36.256  1.00  0.00     0.012 C 
ENDROOT
TORSDOF 0
ENDMDL
