MODEL 1
REMARK VINA RESULT:    -5.721      0.000      0.000
REMARK INTER + INTRA:          -7.026
REMARK INTER:                  -6.724
REMARK INTRA:                  -0.302
REMARK UNBOUND:                -0.302
REMARK SMILES O=c1c(O)c(-c2ccc(O)c(O)c2)oc2cc(O)ccc12
REMARK SMILES IDX 5 1 3 2 2 3 1 4 21 5 15 6 14 7 16 8 17 9 19 10 20 11 6 12
REMARK SMILES IDX 7 13 8 14 9 15 13 16 11 17 10 18 12 20 4 22 18 24
REMARK H PARENT 10 19 12 21 4 23 18 25
REMARK Flexibility Score: inf
ROOT
ATOM      1  C   UNL     1     174.052 169.795 172.089  1.00  0.00     0.180 A 
ATOM      2  C   UNL     1     174.848 169.184 171.097  1.00  0.00     0.208 A 
ATOM      3  C   UNL     1     176.186 169.587 170.961  1.00  0.00     0.235 A 
ATOM      4  O   UNL     1     176.921 169.048 170.089  1.00  0.00    -0.285 OA
ATOM      5  C   UNL     1     176.691 170.595 171.796  1.00  0.00     0.069 A 
ATOM      6  C   UNL     1     175.824 171.173 172.748  1.00  0.00     0.142 A 
ATOM      7  O   UNL     1     174.566 170.758 172.850  1.00  0.00    -0.452 OA
ATOM      8  C   UNL     1     176.287 172.188 173.592  1.00  0.00     0.094 A 
ATOM      9  C   UNL     1     177.610 172.633 173.501  1.00  0.00     0.119 A 
ATOM     10  C   UNL     1     178.475 172.061 172.558  1.00  0.00     0.047 A 
ATOM     11  C   UNL     1     178.021 171.047 171.709  1.00  0.00     0.020 A 
ENDROOT
BRANCH   1  12
ATOM     12  C   UNL     1     172.638 169.413 172.306  1.00  0.00     0.025 A 
ATOM     13  C   UNL     1     172.294 168.259 173.032  1.00  0.00     0.016 A 
ATOM     14  C   UNL     1     170.953 167.932 173.246  1.00  0.00     0.051 A 
ATOM     15  C   UNL     1     169.936 168.759 172.750  1.00  0.00     0.157 A 
ATOM     16  C   UNL     1     171.616 170.249 171.830  1.00  0.00     0.062 A 
ATOM     17  C   UNL     1     170.270 169.925 172.041  1.00  0.00     0.158 A 
BRANCH  15  18
ATOM     18  O   UNL     1     168.598 168.429 172.963  1.00  0.00    -0.504 OA
ATOM     19  H   UNL     1     168.080 167.861 172.303  1.00  0.00     0.293 HD
ENDBRANCH  15  18
BRANCH  17  20
ATOM     20  O   UNL     1     169.282 170.771 171.540  1.00  0.00    -0.504 OA
ATOM     21  H   UNL     1     169.446 171.381 170.748  1.00  0.00     0.293 HD
ENDBRANCH  17  20
ENDBRANCH   1  12
BRANCH   2  22
ATOM     22  O   UNL     1     174.304 168.219 170.247  1.00  0.00    -0.502 OA
ATOM     23  H   UNL     1     173.849 168.459 169.374  1.00  0.00     0.293 HD
ENDBRANCH   2  22
BRANCH   9  24
ATOM     24  O   UNL     1     178.055 173.644 174.350  1.00  0.00    -0.508 OA
ATOM     25  H   UNL     1     177.484 174.456 174.551  1.00  0.00     0.293 HD
ENDBRANCH   9  24
TORSDOF 5
ENDMDL
MODEL 2
REMARK VINA RESULT:    -5.690      1.493      6.630
REMARK INTER + INTRA:          -6.990
REMARK INTER:                  -7.004
REMARK INTRA:                   0.014
REMARK UNBOUND:                -0.302
REMARK SMILES O=c1c(O)c(-c2ccc(O)c(O)c2)oc2cc(O)ccc12
REMARK SMILES IDX 5 1 3 2 2 3 1 4 21 5 15 6 14 7 16 8 17 9 19 10 20 11 6 12
REMARK SMILES IDX 7 13 8 14 9 15 13 16 11 17 10 18 12 20 4 22 18 24
REMARK H PARENT 10 19 12 21 4 23 18 25
REMARK Flexibility Score: inf
ROOT
ATOM      1  C   UNL     1     174.365 169.909 172.873  1.00  0.00     0.180 A 
ATOM      2  C   UNL     1     174.332 168.501 172.935  1.00  0.00     0.208 A 
ATOM      3  C   UNL     1     173.087 167.857 173.026  1.00  0.00     0.235 A 
ATOM      4  O   UNL     1     173.030 166.598 173.072  1.00  0.00    -0.285 OA
ATOM      5  C   UNL     1     171.914 168.626 173.073  1.00  0.00     0.069 A 
ATOM      6  C   UNL     1     172.034 170.032 173.030  1.00  0.00     0.142 A 
ATOM      7  O   UNL     1     173.230 170.602 172.935  1.00  0.00    -0.452 OA
ATOM      8  C   UNL     1     170.889 170.834 173.085  1.00  0.00     0.094 A 
ATOM      9  C   UNL     1     169.622 170.250 173.180  1.00  0.00     0.119 A 
ATOM     10  C   UNL     1     169.499 168.854 173.221  1.00  0.00     0.047 A 
ATOM     11  C   UNL     1     170.637 168.044 173.169  1.00  0.00     0.020 A 
ENDROOT
BRANCH   1  12
ATOM     12  C   UNL     1     175.636 170.661 172.758  1.00  0.00     0.025 A 
ATOM     13  C   UNL     1     176.618 170.299 171.819  1.00  0.00     0.016 A 
ATOM     14  C   UNL     1     177.799 171.038 171.712  1.00  0.00     0.051 A 
ATOM     15  C   UNL     1     178.011 172.155 172.530  1.00  0.00     0.157 A 
ATOM     16  C   UNL     1     175.844 171.793 173.561  1.00  0.00     0.062 A 
ATOM     17  C   UNL     1     177.026 172.536 173.458  1.00  0.00     0.158 A 
BRANCH  15  18
ATOM     18  O   UNL     1     179.191 172.889 172.422  1.00  0.00    -0.504 OA
ATOM     19  H   UNL     1     180.005 172.518 171.946  1.00  0.00     0.293 HD
ENDBRANCH  15  18
BRANCH  17  20
ATOM     20  O   UNL     1     177.203 173.646 174.281  1.00  0.00    -0.504 OA
ATOM     21  H   UNL     1     176.451 174.025 174.845  1.00  0.00     0.293 HD
ENDBRANCH  17  20
ENDBRANCH   1  12
BRANCH   2  22
ATOM     22  O   UNL     1     175.517 167.763 172.936  1.00  0.00    -0.502 OA
ATOM     23  H   UNL     1     176.268 167.943 173.593  1.00  0.00     0.293 HD
ENDBRANCH   2  22
BRANCH   9  24
ATOM     24  O   UNL     1     168.492 171.063 173.232  1.00  0.00    -0.508 OA
ATOM     25  H   UNL     1     168.346 171.719 173.991  1.00  0.00     0.293 HD
ENDBRANCH   9  24
TORSDOF 5
ENDMDL
MODEL 3
REMARK VINA RESULT:    -5.627      3.375      6.714
REMARK INTER + INTRA:          -6.916
REMARK INTER:                  -6.767
REMARK INTRA:                  -0.149
REMARK UNBOUND:                -0.302
REMARK SMILES O=c1c(O)c(-c2ccc(O)c(O)c2)oc2cc(O)ccc12
REMARK SMILES IDX 5 1 3 2 2 3 1 4 21 5 15 6 14 7 16 8 17 9 19 10 20 11 6 12
REMARK SMILES IDX 7 13 8 14 9 15 13 16 11 17 10 18 12 20 4 22 18 24
REMARK H PARENT 10 19 12 21 4 23 18 25
REMARK Flexibility Score: inf
ROOT
ATOM      1  C   UNL     1     176.166 169.055 170.477  1.00  0.00     0.180 A 
ATOM      2  C   UNL     1     175.111 169.136 169.544  1.00  0.00     0.208 A 
ATOM      3  C   UNL     1     174.873 168.044 168.695  1.00  0.00     0.235 A 
ATOM      4  O   UNL     1     173.928 168.088 167.860  1.00  0.00    -0.285 OA
ATOM      5  C   UNL     1     175.698 166.912 168.780  1.00  0.00     0.069 A 
ATOM      6  C   UNL     1     176.748 166.917 169.723  1.00  0.00     0.142 A 
ATOM      7  O   UNL     1     176.934 167.968 170.514  1.00  0.00    -0.452 OA
ATOM      8  C   UNL     1     177.598 165.812 169.831  1.00  0.00     0.094 A 
ATOM      9  C   UNL     1     177.412 164.696 169.009  1.00  0.00     0.119 A 
ATOM     10  C   UNL     1     176.370 164.686 168.071  1.00  0.00     0.047 A 
ATOM     11  C   UNL     1     175.516 165.786 167.955  1.00  0.00     0.020 A 
ENDROOT
BRANCH   1  12
ATOM     12  C   UNL     1     176.469 170.156 171.418  1.00  0.00     0.025 A 
ATOM     13  C   UNL     1     175.527 170.589 172.368  1.00  0.00     0.016 A 
ATOM     14  C   UNL     1     175.844 171.614 173.263  1.00  0.00     0.051 A 
ATOM     15  C   UNL     1     177.110 172.213 173.231  1.00  0.00     0.157 A 
ATOM     16  C   UNL     1     177.743 170.746 171.405  1.00  0.00     0.062 A 
ATOM     17  C   UNL     1     178.065 171.774 172.299  1.00  0.00     0.158 A 
BRANCH  15  18
ATOM     18  O   UNL     1     177.423 173.237 174.124  1.00  0.00    -0.504 OA
ATOM     19  H   UNL     1     177.039 174.169 174.019  1.00  0.00     0.293 HD
ENDBRANCH  15  18
BRANCH  17  20
ATOM     20  O   UNL     1     179.336 172.344 172.247  1.00  0.00    -0.504 OA
ATOM     21  H   UNL     1     179.847 172.599 173.084  1.00  0.00     0.293 HD
ENDBRANCH  17  20
ENDBRANCH   1  12
BRANCH   2  22
ATOM     22  O   UNL     1     174.338 170.295 169.449  1.00  0.00    -0.502 OA
ATOM     23  H   UNL     1     173.918 170.598 168.577  1.00  0.00     0.293 HD
ENDBRANCH   2  22
BRANCH   9  24
ATOM     24  O   UNL     1     178.268 163.603 169.130  1.00  0.00    -0.508 OA
ATOM     25  H   UNL     1     179.274 163.709 169.069  1.00  0.00     0.293 HD
ENDBRANCH   9  24
TORSDOF 5
ENDMDL
MODEL 4
REMARK VINA RESULT:    -5.602      2.857      3.674
REMARK INTER + INTRA:          -6.887
REMARK INTER:                  -6.585
REMARK INTRA:                  -0.302
REMARK UNBOUND:                -0.302
REMARK SMILES O=c1c(O)c(-c2ccc(O)c(O)c2)oc2cc(O)ccc12
REMARK SMILES IDX 5 1 3 2 2 3 1 4 21 5 15 6 14 7 16 8 17 9 19 10 20 11 6 12
REMARK SMILES IDX 7 13 8 14 9 15 13 16 11 17 10 18 12 20 4 22 18 24
REMARK H PARENT 10 19 12 21 4 23 18 25
REMARK Flexibility Score: inf
ROOT
ATOM      1  C   UNL     1     174.996 168.675 172.465  1.00  0.00     0.180 A 
ATOM      2  C   UNL     1     174.258 169.363 171.480  1.00  0.00     0.208 A 
ATOM      3  C   UNL     1     174.681 170.643 171.087  1.00  0.00     0.235 A 
ATOM      4  O   UNL     1     174.044 171.274 170.200  1.00  0.00    -0.285 OA
ATOM      5  C   UNL     1     175.811 171.212 171.695  1.00  0.00     0.069 A 
ATOM      6  C   UNL     1     176.482 170.470 172.690  1.00  0.00     0.142 A 
ATOM      7  O   UNL     1     176.053 169.258 173.027  1.00  0.00    -0.452 OA
ATOM      8  C   UNL     1     177.606 171.006 173.327  1.00  0.00     0.094 A 
ATOM      9  C   UNL     1     178.072 172.279 172.981  1.00  0.00     0.119 A 
ATOM     10  C   UNL     1     177.410 173.019 171.992  1.00  0.00     0.047 A 
ATOM     11  C   UNL     1     176.285 172.492 171.351  1.00  0.00     0.020 A 
ENDROOT
BRANCH   1  12
ATOM     12  C   UNL     1     174.625 167.316 172.920  1.00  0.00     0.025 A 
ATOM     13  C   UNL     1     174.955 166.176 172.166  1.00  0.00     0.016 A 
ATOM     14  C   UNL     1     174.616 164.902 172.626  1.00  0.00     0.051 A 
ATOM     15  C   UNL     1     173.954 164.746 173.852  1.00  0.00     0.157 A 
ATOM     16  C   UNL     1     173.981 167.153 174.156  1.00  0.00     0.062 A 
ATOM     17  C   UNL     1     173.638 165.878 174.622  1.00  0.00     0.158 A 
BRANCH  15  18
ATOM     18  O   UNL     1     173.615 163.473 174.308  1.00  0.00    -0.504 OA
ATOM     19  H   UNL     1     173.258 163.322 175.244  1.00  0.00     0.293 HD
ENDBRANCH  15  18
BRANCH  17  20
ATOM     20  O   UNL     1     172.987 165.756 175.848  1.00  0.00    -0.504 OA
ATOM     21  H   UNL     1     171.990 165.904 175.945  1.00  0.00     0.293 HD
ENDBRANCH  17  20
ENDBRANCH   1  12
BRANCH   2  22
ATOM     22  O   UNL     1     173.109 168.792 170.928  1.00  0.00    -0.502 OA
ATOM     23  H   UNL     1     172.770 169.038 170.005  1.00  0.00     0.293 HD
ENDBRANCH   2  22
BRANCH   9  24
ATOM     24  O   UNL     1     179.194 172.798 173.624  1.00  0.00    -0.508 OA
ATOM     25  H   UNL     1     179.884 173.347 173.125  1.00  0.00     0.293 HD
ENDBRANCH   9  24
TORSDOF 5
ENDMDL
MODEL 5
REMARK VINA RESULT:    -5.600      2.921      6.781
REMARK INTER + INTRA:          -6.885
REMARK INTER:                  -6.694
REMARK INTRA:                  -0.191
REMARK UNBOUND:                -0.302
REMARK SMILES O=c1c(O)c(-c2ccc(O)c(O)c2)oc2cc(O)ccc12
REMARK SMILES IDX 5 1 3 2 2 3 1 4 21 5 15 6 14 7 16 8 17 9 19 10 20 11 6 12
REMARK SMILES IDX 7 13 8 14 9 15 13 16 11 17 10 18 12 20 4 22 18 24
REMARK H PARENT 10 19 12 21 4 23 18 25
REMARK Flexibility Score: inf
ROOT
ATOM      1  C   UNL     1     174.492 170.612 170.698  1.00  0.00     0.180 A 
ATOM      2  C   UNL     1     173.231 170.251 171.217  1.00  0.00     0.208 A 
ATOM      3  C   UNL     1     172.219 169.860 170.325  1.00  0.00     0.235 A 
ATOM      4  O   UNL     1     171.086 169.521 170.765  1.00  0.00    -0.285 OA
ATOM      5  C   UNL     1     172.479 169.855 168.946  1.00  0.00     0.069 A 
ATOM      6  C   UNL     1     173.759 170.253 168.505  1.00  0.00     0.142 A 
ATOM      7  O   UNL     1     174.692 170.609 169.381  1.00  0.00    -0.452 OA
ATOM      8  C   UNL     1     174.054 170.271 167.137  1.00  0.00     0.094 A 
ATOM      9  C   UNL     1     173.085 169.895 166.201  1.00  0.00     0.119 A 
ATOM     10  C   UNL     1     171.813 169.498 166.636  1.00  0.00     0.047 A 
ATOM     11  C   UNL     1     171.508 169.478 168.000  1.00  0.00     0.020 A 
ENDROOT
BRANCH   1  12
ATOM     12  C   UNL     1     175.614 171.020 171.573  1.00  0.00     0.025 A 
ATOM     13  C   UNL     1     176.200 170.119 172.479  1.00  0.00     0.016 A 
ATOM     14  C   UNL     1     177.275 170.518 173.278  1.00  0.00     0.051 A 
ATOM     15  C   UNL     1     177.788 171.818 173.174  1.00  0.00     0.157 A 
ATOM     16  C   UNL     1     176.146 172.313 171.457  1.00  0.00     0.062 A 
ATOM     17  C   UNL     1     177.222 172.719 172.256  1.00  0.00     0.158 A 
BRANCH  15  18
ATOM     18  O   UNL     1     178.859 172.214 173.973  1.00  0.00    -0.504 OA
ATOM     19  H   UNL     1     179.500 172.942 173.679  1.00  0.00     0.293 HD
ENDBRANCH  15  18
BRANCH  17  20
ATOM     20  O   UNL     1     177.714 174.016 172.124  1.00  0.00    -0.504 OA
ATOM     21  H   UNL     1     177.115 174.830 172.197  1.00  0.00     0.293 HD
ENDBRANCH  17  20
ENDBRANCH   1  12
BRANCH   2  22
ATOM     22  O   UNL     1     172.986 170.313 172.590  1.00  0.00    -0.502 OA
ATOM     23  H   UNL     1     173.609 169.897 173.272  1.00  0.00     0.293 HD
ENDBRANCH   2  22
BRANCH   9  24
ATOM     24  O   UNL     1     173.396 169.919 164.843  1.00  0.00    -0.508 OA
ATOM     25  H   UNL     1     173.336 170.773 164.301  1.00  0.00     0.293 HD
ENDBRANCH   9  24
TORSDOF 5
ENDMDL
MODEL 6
REMARK VINA RESULT:    -5.568      1.762      6.677
REMARK INTER + INTRA:          -6.847
REMARK INTER:                  -6.539
REMARK INTRA:                  -0.308
REMARK UNBOUND:                -0.302
REMARK SMILES O=c1c(O)c(-c2ccc(O)c(O)c2)oc2cc(O)ccc12
REMARK SMILES IDX 5 1 3 2 2 3 1 4 21 5 15 6 14 7 16 8 17 9 19 10 20 11 6 12
REMARK SMILES IDX 7 13 8 14 9 15 13 16 11 17 10 18 12 20 4 22 18 24
REMARK H PARENT 10 19 12 21 4 23 18 25
REMARK Flexibility Score: inf
ROOT
ATOM      1  C   UNL     1     174.433 169.845 172.434  1.00  0.00     0.180 A 
ATOM      2  C   UNL     1     173.425 170.094 171.480  1.00  0.00     0.208 A 
ATOM      3  C   UNL     1     172.240 169.343 171.534  1.00  0.00     0.235 A 
ATOM      4  O   UNL     1     171.320 169.555 170.699  1.00  0.00    -0.285 OA
ATOM      5  C   UNL     1     172.096 168.354 172.520  1.00  0.00     0.069 A 
ATOM      6  C   UNL     1     173.160 168.149 173.424  1.00  0.00     0.142 A 
ATOM      7  O   UNL     1     174.262 168.887 173.343  1.00  0.00    -0.452 OA
ATOM      8  C   UNL     1     173.058 167.166 174.414  1.00  0.00     0.094 A 
ATOM      9  C   UNL     1     171.903 166.384 174.516  1.00  0.00     0.119 A 
ATOM     10  C   UNL     1     170.843 166.585 173.620  1.00  0.00     0.047 A 
ATOM     11  C   UNL     1     170.936 167.564 172.626  1.00  0.00     0.020 A 
ENDROOT
BRANCH   1  12
ATOM     12  C   UNL     1     175.703 170.606 172.454  1.00  0.00     0.025 A 
ATOM     13  C   UNL     1     176.787 170.243 171.634  1.00  0.00     0.016 A 
ATOM     14  C   UNL     1     177.967 170.991 171.652  1.00  0.00     0.051 A 
ATOM     15  C   UNL     1     178.078 172.118 172.477  1.00  0.00     0.157 A 
ATOM     16  C   UNL     1     175.812 171.747 173.263  1.00  0.00     0.062 A 
ATOM     17  C   UNL     1     176.993 172.499 173.285  1.00  0.00     0.158 A 
BRANCH  15  18
ATOM     18  O   UNL     1     179.258 172.860 172.494  1.00  0.00    -0.504 OA
ATOM     19  H   UNL     1     179.362 173.702 171.939  1.00  0.00     0.293 HD
ENDBRANCH  15  18
BRANCH  17  20
ATOM     20  O   UNL     1     177.069 173.618 174.111  1.00  0.00    -0.504 OA
ATOM     21  H   UNL     1     177.009 174.562 173.748  1.00  0.00     0.293 HD
ENDBRANCH  17  20
ENDBRANCH   1  12
BRANCH   2  22
ATOM     22  O   UNL     1     173.618 171.050 170.480  1.00  0.00    -0.502 OA
ATOM     23  H   UNL     1     173.271 171.999 170.562  1.00  0.00     0.293 HD
ENDBRANCH   2  22
BRANCH   9  24
ATOM     24  O   UNL     1     171.818 165.410 175.508  1.00  0.00    -0.508 OA
ATOM     25  H   UNL     1     172.162 164.469 175.357  1.00  0.00     0.293 HD
ENDBRANCH   9  24
TORSDOF 5
ENDMDL
MODEL 7
REMARK VINA RESULT:    -5.557      2.620      5.033
REMARK INTER + INTRA:          -6.834
REMARK INTER:                  -6.513
REMARK INTRA:                  -0.321
REMARK UNBOUND:                -0.302
REMARK SMILES O=c1c(O)c(-c2ccc(O)c(O)c2)oc2cc(O)ccc12
REMARK SMILES IDX 5 1 3 2 2 3 1 4 21 5 15 6 14 7 16 8 17 9 19 10 20 11 6 12
REMARK SMILES IDX 7 13 8 14 9 15 13 16 11 17 10 18 12 20 4 22 18 24
REMARK H PARENT 10 19 12 21 4 23 18 25
REMARK Flexibility Score: inf
ROOT
ATOM      1  C   UNL     1     175.636 168.689 171.216  1.00  0.00     0.180 A 
ATOM      2  C   UNL     1     174.521 169.011 172.017  1.00  0.00     0.208 A 
ATOM      3  C   UNL     1     174.571 170.165 172.815  1.00  0.00     0.235 A 
ATOM      4  O   UNL     1     173.582 170.480 173.532  1.00  0.00    -0.285 OA
ATOM      5  C   UNL     1     175.729 170.957 172.810  1.00  0.00     0.069 A 
ATOM      6  C   UNL     1     176.812 170.555 171.999  1.00  0.00     0.142 A 
ATOM      7  O   UNL     1     176.722 169.460 171.252  1.00  0.00    -0.452 OA
ATOM      8  C   UNL     1     177.988 171.312 171.974  1.00  0.00     0.094 A 
ATOM      9  C   UNL     1     178.098 172.471 172.750  1.00  0.00     0.119 A 
ATOM     10  C   UNL     1     177.024 172.875 173.556  1.00  0.00     0.047 A 
ATOM     11  C   UNL     1     175.845 172.124 173.588  1.00  0.00     0.020 A 
ENDROOT
BRANCH   1  12
ATOM     12  C   UNL     1     175.655 167.499 170.335  1.00  0.00     0.025 A 
ATOM     13  C   UNL     1     175.111 167.539 169.039  1.00  0.00     0.016 A 
ATOM     14  C   UNL     1     175.161 166.411 168.217  1.00  0.00     0.051 A 
ATOM     15  C   UNL     1     175.766 165.231 168.671  1.00  0.00     0.157 A 
ATOM     16  C   UNL     1     176.278 166.322 170.778  1.00  0.00     0.062 A 
ATOM     17  C   UNL     1     176.330 165.189 169.957  1.00  0.00     0.158 A 
BRANCH  15  18
ATOM     18  O   UNL     1     175.814 164.106 167.849  1.00  0.00    -0.504 OA
ATOM     19  H   UNL     1     175.690 163.172 168.221  1.00  0.00     0.293 HD
ENDBRANCH  15  18
BRANCH  17  20
ATOM     20  O   UNL     1     176.946 164.033 170.436  1.00  0.00    -0.504 OA
ATOM     21  H   UNL     1     176.445 163.344 170.985  1.00  0.00     0.293 HD
ENDBRANCH  17  20
ENDBRANCH   1  12
BRANCH   2  22
ATOM     22  O   UNL     1     173.401 168.177 172.040  1.00  0.00    -0.502 OA
ATOM     23  H   UNL     1     172.525 168.433 171.599  1.00  0.00     0.293 HD
ENDBRANCH   2  22
BRANCH   9  24
ATOM     24  O   UNL     1     179.276 173.214 172.713  1.00  0.00    -0.508 OA
ATOM     25  H   UNL     1     179.534 173.835 173.471  1.00  0.00     0.293 HD
ENDBRANCH   9  24
TORSDOF 5
ENDMDL
MODEL 8
REMARK VINA RESULT:    -5.538      3.529      6.709
REMARK INTER + INTRA:          -6.811
REMARK INTER:                  -6.502
REMARK INTRA:                  -0.309
REMARK UNBOUND:                -0.302
REMARK SMILES O=c1c(O)c(-c2ccc(O)c(O)c2)oc2cc(O)ccc12
REMARK SMILES IDX 5 1 3 2 2 3 1 4 21 5 15 6 14 7 16 8 17 9 19 10 20 11 6 12
REMARK SMILES IDX 7 13 8 14 9 15 13 16 11 17 10 18 12 20 4 22 18 24
REMARK H PARENT 10 19 12 21 4 23 18 25
REMARK Flexibility Score: inf
ROOT
ATOM      1  C   UNL     1     175.787 169.248 170.572  1.00  0.00     0.180 A 
ATOM      2  C   UNL     1     175.815 167.877 170.905  1.00  0.00     0.208 A 
ATOM      3  C   UNL     1     175.370 166.941 169.958  1.00  0.00     0.235 A 
ATOM      4  O   UNL     1     175.396 165.709 170.228  1.00  0.00    -0.285 OA
ATOM      5  C   UNL     1     174.892 167.390 168.717  1.00  0.00     0.069 A 
ATOM      6  C   UNL     1     174.873 168.779 168.469  1.00  0.00     0.142 A 
ATOM      7  O   UNL     1     175.311 169.632 169.389  1.00  0.00    -0.452 OA
ATOM      8  C   UNL     1     174.394 169.267 167.249  1.00  0.00     0.094 A 
ATOM      9  C   UNL     1     173.934 168.382 166.267  1.00  0.00     0.119 A 
ATOM     10  C   UNL     1     173.952 167.001 166.509  1.00  0.00     0.047 A 
ATOM     11  C   UNL     1     174.427 166.505 167.727  1.00  0.00     0.020 A 
ENDROOT
BRANCH   1  12
ATOM     12  C   UNL     1     176.255 170.294 171.509  1.00  0.00     0.025 A 
ATOM     13  C   UNL     1     175.412 170.814 172.507  1.00  0.00     0.016 A 
ATOM     14  C   UNL     1     175.883 171.784 173.395  1.00  0.00     0.051 A 
ATOM     15  C   UNL     1     177.205 172.239 173.309  1.00  0.00     0.157 A 
ATOM     16  C   UNL     1     177.585 170.738 171.440  1.00  0.00     0.062 A 
ATOM     17  C   UNL     1     178.061 171.711 172.328  1.00  0.00     0.158 A 
BRANCH  15  18
ATOM     18  O   UNL     1     177.672 173.208 174.196  1.00  0.00    -0.504 OA
ATOM     19  H   UNL     1     177.045 173.699 174.823  1.00  0.00     0.293 HD
ENDBRANCH  15  18
BRANCH  17  20
ATOM     20  O   UNL     1     179.383 172.137 172.221  1.00  0.00    -0.504 OA
ATOM     21  H   UNL     1     179.635 173.004 171.760  1.00  0.00     0.293 HD
ENDBRANCH  17  20
ENDBRANCH   1  12
BRANCH   2  22
ATOM     22  O   UNL     1     176.250 167.464 172.166  1.00  0.00    -0.502 OA
ATOM     23  H   UNL     1     175.849 167.826 173.024  1.00  0.00     0.293 HD
ENDBRANCH   2  22
BRANCH   9  24
ATOM     24  O   UNL     1     173.462 168.884 165.057  1.00  0.00    -0.508 OA
ATOM     25  H   UNL     1     172.473 168.891 164.837  1.00  0.00     0.293 HD
ENDBRANCH   9  24
TORSDOF 5
ENDMDL
MODEL 9
REMARK VINA RESULT:    -5.535      3.461      6.582
REMARK INTER + INTRA:          -6.808
REMARK INTER:                  -6.691
REMARK INTRA:                  -0.117
REMARK UNBOUND:                -0.302
REMARK SMILES O=c1c(O)c(-c2ccc(O)c(O)c2)oc2cc(O)ccc12
REMARK SMILES IDX 5 1 3 2 2 3 1 4 21 5 15 6 14 7 16 8 17 9 19 10 20 11 6 12
REMARK SMILES IDX 7 13 8 14 9 15 13 16 11 17 10 18 12 20 4 22 18 24
REMARK H PARENT 10 19 12 21 4 23 18 25
REMARK Flexibility Score: inf
ROOT
ATOM      1  C   UNL     1     175.887 168.633 172.417  1.00  0.00     0.180 A 
ATOM      2  C   UNL     1     175.908 167.872 171.229  1.00  0.00     0.208 A 
ATOM      3  C   UNL     1     175.419 166.556 171.260  1.00  0.00     0.235 A 
ATOM      4  O   UNL     1     175.417 165.859 170.209  1.00  0.00    -0.285 OA
ATOM      5  C   UNL     1     174.943 166.025 172.469  1.00  0.00     0.069 A 
ATOM      6  C   UNL     1     174.978 166.843 173.619  1.00  0.00     0.142 A 
ATOM      7  O   UNL     1     175.440 168.086 173.545  1.00  0.00    -0.452 OA
ATOM      8  C   UNL     1     174.521 166.347 174.845  1.00  0.00     0.094 A 
ATOM      9  C   UNL     1     174.026 165.042 174.938  1.00  0.00     0.119 A 
ATOM     10  C   UNL     1     173.989 164.227 173.798  1.00  0.00     0.047 A 
ATOM     11  C   UNL     1     174.444 164.713 172.569  1.00  0.00     0.020 A 
ENDROOT
BRANCH   1  12
ATOM     12  C   UNL     1     176.367 170.032 172.462  1.00  0.00     0.025 A 
ATOM     13  C   UNL     1     175.804 171.027 171.643  1.00  0.00     0.016 A 
ATOM     14  C   UNL     1     176.257 172.346 171.720  1.00  0.00     0.051 A 
ATOM     15  C   UNL     1     177.269 172.694 172.624  1.00  0.00     0.157 A 
ATOM     16  C   UNL     1     177.366 170.391 173.381  1.00  0.00     0.062 A 
ATOM     17  C   UNL     1     177.823 171.711 173.461  1.00  0.00     0.158 A 
BRANCH  15  18
ATOM     18  O   UNL     1     177.720 174.012 172.698  1.00  0.00    -0.504 OA
ATOM     19  H   UNL     1     177.409 174.716 172.040  1.00  0.00     0.293 HD
ENDBRANCH  15  18
BRANCH  17  20
ATOM     20  O   UNL     1     178.826 172.027 174.376  1.00  0.00    -0.504 OA
ATOM     21  H   UNL     1     178.848 172.913 174.867  1.00  0.00     0.293 HD
ENDBRANCH  17  20
ENDBRANCH   1  12
BRANCH   2  22
ATOM     22  O   UNL     1     176.434 168.410 170.053  1.00  0.00    -0.502 OA
ATOM     23  H   UNL     1     177.431 168.476 169.884  1.00  0.00     0.293 HD
ENDBRANCH   2  22
BRANCH   9  24
ATOM     24  O   UNL     1     173.575 164.564 176.166  1.00  0.00    -0.508 OA
ATOM     25  H   UNL     1     173.249 163.611 176.277  1.00  0.00     0.293 HD
ENDBRANCH   9  24
TORSDOF 5
ENDMDL
