MODEL 1
REMARK VINA RESULT:    -0.501      0.000      0.000
REMARK INTER + INTRA:          -0.950
REMARK INTER:                  -1.145
REMARK INTRA:                   0.195
REMARK UNBOUND:                 0.195
REMARK SMILES CCCCCCCCCCCCCCCCCCCCCCCC(=O)[O-]
REMARK SMILES IDX 13 1 14 2 15 3 16 4 17 5 18 6 19 7 20 8 21 9 22 10 23 11
REMARK SMILES IDX 24 12 25 13 26 14 12 15 11 16 10 17 9 18 8 19 7 20 6 21 5 22
REMARK SMILES IDX 4 23 3 24 2 25 1 26
REMARK H PARENT
REMARK Flexibility Score: inf
ROOT
ATOM      1  C   UNL     1       6.030 -36.189  24.069  1.00  0.00     0.000 C 
ENDROOT
BRANCH   1   2
ATOM      2  C   UNL     1       5.595 -36.769  25.425  1.00  0.00     0.000 C 
BRANCH   2   3
ATOM      3  C   UNL     1       5.279 -38.268  25.306  1.00  0.00     0.000 C 
BRANCH   3   4
ATOM      4  C   UNL     1       5.359 -38.783  23.861  1.00  0.00     0.000 C 
BRANCH   4   5
ATOM      5  C   UNL     1       5.642 -40.290  23.779  1.00  0.00     0.000 C 
BRANCH   5   6
ATOM      6  C   UNL     1       5.380 -40.822  22.363  1.00  0.00     0.000 C 
BRANCH   6   7
ATOM      7  C   UNL     1       6.020 -39.945  21.276  1.00  0.00     0.000 C 
BRANCH   7   8
ATOM      8  C   UNL     1       5.701 -38.449  21.459  1.00  0.00     0.000 C 
BRANCH   8   9
ATOM      9  C   UNL     1       4.947 -37.861  20.248  1.00  0.00     0.000 C 
BRANCH   9  10
ATOM     10  C   UNL     1       3.416 -37.948  20.373  1.00  0.00     0.006 C 
BRANCH  10  11
ATOM     11  C   UNL     1       2.701 -37.899  19.016  1.00  0.00     0.053 C 
BRANCH  11  12
ATOM     12  C   UNL     1       1.220 -37.812  19.205  1.00  0.00     0.041 C 
ATOM     13  O   UNL     1       0.443 -38.360  18.380  1.00  0.00    -0.550 OA
ATOM     14  O   UNL     1       0.695 -37.097  20.274  1.00  0.00    -0.550 OA
ENDBRANCH  11  12
ENDBRANCH  10  11
ENDBRANCH   9  10
ENDBRANCH   8   9
ENDBRANCH   7   8
ENDBRANCH   6   7
ENDBRANCH   5   6
ENDBRANCH   4   5
ENDBRANCH   3   4
ENDBRANCH   2   3
ENDBRANCH   1   2
BRANCH   1  15
ATOM     15  C   UNL     1       5.852 -34.659  23.997  1.00  0.00     0.000 C 
BRANCH  15  16
ATOM     16  C   UNL     1       6.064 -34.071  22.591  1.00  0.00     0.000 C 
BRANCH  16  17
ATOM     17  C   UNL     1       6.125 -35.144  21.496  1.00  0.00     0.000 C 
BRANCH  17  18
ATOM     18  C   UNL     1       5.017 -34.932  20.454  1.00  0.00    -0.000 C 
BRANCH  18  19
ATOM     19  C   UNL     1       5.559 -34.825  19.017  1.00  0.00    -0.000 C 
BRANCH  19  20
ATOM     20  C   UNL     1       4.507 -34.466  17.951  1.00  0.00    -0.000 C 
BRANCH  20  21
ATOM     21  C   UNL     1       3.984 -35.694  17.190  1.00  0.00    -0.000 C 
BRANCH  21  22
ATOM     22  C   UNL     1       2.975 -35.283  16.106  1.00  0.00    -0.000 C 
BRANCH  22  23
ATOM     23  C   UNL     1       2.189 -36.492  15.554  1.00  0.00    -0.000 C 
BRANCH  23  24
ATOM     24  C   UNL     1       2.520 -36.827  14.089  1.00  0.00    -0.000 C 
BRANCH  24  25
ATOM     25  C   UNL     1       3.998 -37.174  13.875  1.00  0.00    -0.003 C 
ATOM     26  C   UNL     1       4.318 -38.571  14.404  1.00  0.00     0.004 C 
ENDBRANCH  24  25
ENDBRANCH  23  24
ENDBRANCH  22  23
ENDBRANCH  21  22
ENDBRANCH  20  21
ENDBRANCH  19  20
ENDBRANCH  18  19
ENDBRANCH  17  18
ENDBRANCH  16  17
ENDBRANCH  15  16
ENDBRANCH   1  15
TORSDOF 22
ENDMDL
MODEL 2
REMARK VINA RESULT:     0.402      1.208      2.888
REMARK INTER + INTRA:           1.115
REMARK INTER:                   2.609
REMARK INTRA:                  -1.494
REMARK UNBOUND:                 0.195
REMARK SMILES CCCCCCCCCCCCCCCCCCCCCCCC(=O)[O-]
REMARK SMILES IDX 13 1 14 2 15 3 16 4 17 5 18 6 19 7 20 8 21 9 22 10 23 11
REMARK SMILES IDX 24 12 25 13 26 14 12 15 11 16 10 17 9 18 8 19 7 20 6 21 5 22
REMARK SMILES IDX 4 23 3 24 2 25 1 26
REMARK H PARENT
REMARK Flexibility Score: inf
ROOT
ATOM      1  C   UNL     1       4.329 -34.718  22.458  1.00  0.00     0.000 C 
ENDROOT
BRANCH   1   2
ATOM      2  C   UNL     1       5.164 -33.624  23.145  1.00  0.00     0.000 C 
BRANCH   2   3
ATOM      3  C   UNL     1       5.963 -34.201  24.323  1.00  0.00     0.000 C 
BRANCH   3   4
ATOM      4  C   UNL     1       6.113 -35.728  24.253  1.00  0.00     0.000 C 
BRANCH   4   5
ATOM      5  C   UNL     1       5.345 -36.455  25.367  1.00  0.00     0.000 C 
BRANCH   5   6
ATOM      6  C   UNL     1       5.082 -37.919  24.986  1.00  0.00     0.000 C 
BRANCH   6   7
ATOM      7  C   UNL     1       5.723 -38.304  23.643  1.00  0.00     0.000 C 
BRANCH   7   8
ATOM      8  C   UNL     1       5.109 -39.581  23.040  1.00  0.00     0.000 C 
BRANCH   8   9
ATOM      9  C   UNL     1       5.251 -39.628  21.504  1.00  0.00     0.000 C 
BRANCH   9  10
ATOM     10  C   UNL     1       5.315 -38.239  20.847  1.00  0.00     0.006 C 
BRANCH  10  11
ATOM     11  C   UNL     1       4.598 -38.183  19.492  1.00  0.00     0.053 C 
BRANCH  11  12
ATOM     12  C   UNL     1       3.164 -37.801  19.672  1.00  0.00     0.041 C 
ATOM     13  O   UNL     1       2.818 -37.079  20.643  1.00  0.00    -0.550 OA
ATOM     14  O   UNL     1       2.201 -38.266  18.784  1.00  0.00    -0.550 OA
ENDBRANCH  11  12
ENDBRANCH  10  11
ENDBRANCH   9  10
ENDBRANCH   8   9
ENDBRANCH   7   8
ENDBRANCH   6   7
ENDBRANCH   5   6
ENDBRANCH   4   5
ENDBRANCH   3   4
ENDBRANCH   2   3
ENDBRANCH   1   2
BRANCH   1  15
ATOM     15  C   UNL     1       4.491 -34.708  20.924  1.00  0.00     0.000 C 
BRANCH  15  16
ATOM     16  C   UNL     1       5.838 -35.266  20.435  1.00  0.00     0.000 C 
BRANCH  16  17
ATOM     17  C   UNL     1       5.984 -35.231  18.909  1.00  0.00     0.000 C 
BRANCH  17  18
ATOM     18  C   UNL     1       5.068 -34.164  18.292  1.00  0.00    -0.000 C 
BRANCH  18  19
ATOM     19  C   UNL     1       3.820 -34.762  17.618  1.00  0.00    -0.000 C 
BRANCH  19  20
ATOM     20  C   UNL     1       4.103 -35.902  16.622  1.00  0.00    -0.000 C 
BRANCH  20  21
ATOM     21  C   UNL     1       2.824 -36.601  16.135  1.00  0.00    -0.000 C 
BRANCH  21  22
ATOM     22  C   UNL     1       3.161 -37.842  15.292  1.00  0.00    -0.000 C 
BRANCH  22  23
ATOM     23  C   UNL     1       4.403 -37.622  14.403  1.00  0.00    -0.000 C 
BRANCH  23  24
ATOM     24  C   UNL     1       5.028 -38.927  13.881  1.00  0.00    -0.000 C 
BRANCH  24  25
ATOM     25  C   UNL     1       4.470 -40.175  14.576  1.00  0.00    -0.003 C 
ATOM     26  C   UNL     1       5.458 -41.337  14.497  1.00  0.00     0.004 C 
ENDBRANCH  24  25
ENDBRANCH  23  24
ENDBRANCH  22  23
ENDBRANCH  21  22
ENDBRANCH  20  21
ENDBRANCH  19  20
ENDBRANCH  18  19
ENDBRANCH  17  18
ENDBRANCH  16  17
ENDBRANCH  15  16
ENDBRANCH   1  15
TORSDOF 22
ENDMDL
MODEL 3
REMARK VINA RESULT:     0.696      2.027      4.824
REMARK INTER + INTRA:           1.785
REMARK INTER:                   1.616
REMARK INTRA:                   0.169
REMARK UNBOUND:                 0.195
REMARK SMILES CCCCCCCCCCCCCCCCCCCCCCCC(=O)[O-]
REMARK SMILES IDX 13 1 14 2 15 3 16 4 17 5 18 6 19 7 20 8 21 9 22 10 23 11
REMARK SMILES IDX 24 12 25 13 26 14 12 15 11 16 10 17 9 18 8 19 7 20 6 21 5 22
REMARK SMILES IDX 4 23 3 24 2 25 1 26
REMARK H PARENT
REMARK Flexibility Score: inf
ROOT
ATOM      1  C   UNL     1       6.091 -36.933  20.066  1.00  0.00     0.000 C 
ENDROOT
BRANCH   1   2
ATOM      2  C   UNL     1       5.487 -35.527  19.920  1.00  0.00     0.000 C 
BRANCH   2   3
ATOM      3  C   UNL     1       6.000 -34.590  21.024  1.00  0.00     0.000 C 
BRANCH   3   4
ATOM      4  C   UNL     1       5.554 -35.021  22.429  1.00  0.00     0.000 C 
BRANCH   4   5
ATOM      5  C   UNL     1       5.780 -33.932  23.488  1.00  0.00     0.000 C 
BRANCH   5   6
ATOM      6  C   UNL     1       6.093 -34.554  24.857  1.00  0.00     0.000 C 
BRANCH   6   7
ATOM      7  C   UNL     1       5.911 -36.080  24.867  1.00  0.00     0.000 C 
BRANCH   7   8
ATOM      8  C   UNL     1       4.778 -36.533  25.807  1.00  0.00     0.000 C 
BRANCH   8   9
ATOM      9  C   UNL     1       4.548 -38.059  25.751  1.00  0.00     0.000 C 
BRANCH   9  10
ATOM     10  C   UNL     1       5.545 -38.800  24.843  1.00  0.00     0.006 C 
BRANCH  10  11
ATOM     11  C   UNL     1       4.896 -39.942  24.051  1.00  0.00     0.053 C 
BRANCH  11  12
ATOM     12  C   UNL     1       5.508 -40.052  22.691  1.00  0.00     0.041 C 
ATOM     13  O   UNL     1       5.803 -41.181  22.219  1.00  0.00    -0.550 OA
ATOM     14  O   UNL     1       5.784 -38.906  21.955  1.00  0.00    -0.550 OA
ENDBRANCH  11  12
ENDBRANCH  10  11
ENDBRANCH   9  10
ENDBRANCH   8   9
ENDBRANCH   7   8
ENDBRANCH   6   7
ENDBRANCH   5   6
ENDBRANCH   4   5
ENDBRANCH   3   4
ENDBRANCH   2   3
ENDBRANCH   1   2
BRANCH   1  15
ATOM     15  C   UNL     1       5.263 -38.010  19.334  1.00  0.00     0.000 C 
BRANCH  15  16
ATOM     16  C   UNL     1       3.880 -37.523  18.868  1.00  0.00     0.000 C 
BRANCH  16  17
ATOM     17  C   UNL     1       3.096 -36.800  19.971  1.00  0.00     0.000 C 
BRANCH  17  18
ATOM     18  C   UNL     1       1.583 -36.919  19.740  1.00  0.00    -0.000 C 
BRANCH  18  19
ATOM     19  C   UNL     1       1.208 -38.094  18.819  1.00  0.00    -0.000 C 
BRANCH  19  20
ATOM     20  C   UNL     1       0.872 -37.701  17.368  1.00  0.00    -0.000 C 
BRANCH  20  21
ATOM     21  C   UNL     1       1.030 -36.196  17.105  1.00  0.00    -0.000 C 
BRANCH  21  22
ATOM     22  C   UNL     1       2.286 -35.911  16.267  1.00  0.00    -0.000 C 
BRANCH  22  23
ATOM     23  C   UNL     1       2.914 -37.203  15.702  1.00  0.00    -0.000 C 
BRANCH  23  24
ATOM     24  C   UNL     1       3.283 -37.109  14.211  1.00  0.00    -0.000 C 
BRANCH  24  25
ATOM     25  C   UNL     1       4.644 -37.739  13.892  1.00  0.00    -0.003 C 
ATOM     26  C   UNL     1       4.583 -39.262  13.993  1.00  0.00     0.004 C 
ENDBRANCH  24  25
ENDBRANCH  23  24
ENDBRANCH  22  23
ENDBRANCH  21  22
ENDBRANCH  20  21
ENDBRANCH  19  20
ENDBRANCH  18  19
ENDBRANCH  17  18
ENDBRANCH  16  17
ENDBRANCH  15  16
ENDBRANCH   1  15
TORSDOF 22
ENDMDL
MODEL 4
REMARK VINA RESULT:     1.273      2.069      6.476
REMARK INTER + INTRA:           3.104
REMARK INTER:                   5.336
REMARK INTRA:                  -2.232
REMARK UNBOUND:                 0.195
REMARK SMILES CCCCCCCCCCCCCCCCCCCCCCCC(=O)[O-]
REMARK SMILES IDX 13 1 14 2 15 3 16 4 17 5 18 6 19 7 20 8 21 9 22 10 23 11
REMARK SMILES IDX 24 12 25 13 26 14 12 15 11 16 10 17 9 18 8 19 7 20 6 21 5 22
REMARK SMILES IDX 4 23 3 24 2 25 1 26
REMARK H PARENT
REMARK Flexibility Score: inf
ROOT
ATOM      1  C   UNL     1       3.980 -34.567  22.633  1.00  0.00     0.000 C 
ENDROOT
BRANCH   1   2
ATOM      2  C   UNL     1       3.483 -35.128  21.291  1.00  0.00     0.000 C 
BRANCH   2   3
ATOM      3  C   UNL     1       4.660 -35.430  20.351  1.00  0.00     0.000 C 
BRANCH   3   4
ATOM      4  C   UNL     1       4.209 -35.893  18.957  1.00  0.00     0.000 C 
BRANCH   4   5
ATOM      5  C   UNL     1       4.149 -37.422  18.826  1.00  0.00     0.000 C 
BRANCH   5   6
ATOM      6  C   UNL     1       3.445 -37.834  17.525  1.00  0.00     0.000 C 
BRANCH   6   7
ATOM      7  C   UNL     1       1.933 -38.033  17.711  1.00  0.00     0.000 C 
BRANCH   7   8
ATOM      8  C   UNL     1       1.101 -37.006  16.920  1.00  0.00     0.000 C 
BRANCH   8   9
ATOM      9  C   UNL     1       1.986 -35.957  16.213  1.00  0.00     0.000 C 
BRANCH   9  10
ATOM     10  C   UNL     1       1.745 -35.866  14.697  1.00  0.00     0.006 C 
BRANCH  10  11
ATOM     11  C   UNL     1       2.217 -37.115  13.940  1.00  0.00     0.053 C 
BRANCH  11  12
ATOM     12  C   UNL     1       3.677 -37.346  14.166  1.00  0.00     0.041 C 
ATOM     13  O   UNL     1       4.504 -36.420  13.957  1.00  0.00    -0.550 OA
ATOM     14  O   UNL     1       4.130 -38.593  14.577  1.00  0.00    -0.550 OA
ENDBRANCH  11  12
ENDBRANCH  10  11
ENDBRANCH   9  10
ENDBRANCH   8   9
ENDBRANCH   7   8
ENDBRANCH   6   7
ENDBRANCH   5   6
ENDBRANCH   4   5
ENDBRANCH   3   4
ENDBRANCH   2   3
ENDBRANCH   1   2
BRANCH   1  15
ATOM     15  C   UNL     1       5.519 -34.514  22.717  1.00  0.00     0.000 C 
BRANCH  15  16
ATOM     16  C   UNL     1       6.052 -33.679  23.893  1.00  0.00     0.000 C 
BRANCH  16  17
ATOM     17  C   UNL     1       5.511 -34.143  25.252  1.00  0.00     0.000 C 
BRANCH  17  18
ATOM     18  C   UNL     1       6.010 -35.555  25.590  1.00  0.00    -0.000 C 
BRANCH  18  19
ATOM     19  C   UNL     1       4.866 -36.572  25.753  1.00  0.00    -0.000 C 
BRANCH  19  20
ATOM     20  C   UNL     1       5.178 -37.989  25.237  1.00  0.00    -0.000 C 
BRANCH  20  21
ATOM     21  C   UNL     1       6.121 -37.989  24.025  1.00  0.00    -0.000 C 
BRANCH  21  22
ATOM     22  C   UNL     1       5.338 -38.177  22.716  1.00  0.00    -0.000 C 
BRANCH  22  23
ATOM     23  C   UNL     1       6.013 -39.196  21.773  1.00  0.00    -0.000 C 
BRANCH  23  24
ATOM     24  C   UNL     1       5.485 -40.631  21.937  1.00  0.00    -0.000 C 
BRANCH  24  25
ATOM     25  C   UNL     1       5.626 -41.161  23.369  1.00  0.00    -0.003 C 
ATOM     26  C   UNL     1       5.989 -42.644  23.375  1.00  0.00     0.004 C 
ENDBRANCH  24  25
ENDBRANCH  23  24
ENDBRANCH  22  23
ENDBRANCH  21  22
ENDBRANCH  20  21
ENDBRANCH  19  20
ENDBRANCH  18  19
ENDBRANCH  17  18
ENDBRANCH  16  17
ENDBRANCH  15  16
ENDBRANCH   1  15
TORSDOF 22
ENDMDL
MODEL 5
REMARK VINA RESULT:     1.517      3.589      5.805
REMARK INTER + INTRA:           3.663
REMARK INTER:                   5.101
REMARK INTRA:                  -1.437
REMARK UNBOUND:                 0.195
REMARK SMILES CCCCCCCCCCCCCCCCCCCCCCCC(=O)[O-]
REMARK SMILES IDX 13 1 14 2 15 3 16 4 17 5 18 6 19 7 20 8 21 9 22 10 23 11
REMARK SMILES IDX 24 12 25 13 26 14 12 15 11 16 10 17 9 18 8 19 7 20 6 21 5 22
REMARK SMILES IDX 4 23 3 24 2 25 1 26
REMARK H PARENT
REMARK Flexibility Score: inf
ROOT
ATOM      1  C   UNL     1       4.840 -35.181  21.080  1.00  0.00     0.000 C 
ENDROOT
BRANCH   1   2
ATOM      2  C   UNL     1       4.169 -34.931  22.440  1.00  0.00     0.000 C 
BRANCH   2   3
ATOM      3  C   UNL     1       4.995 -33.953  23.290  1.00  0.00     0.000 C 
BRANCH   3   4
ATOM      4  C   UNL     1       6.125 -34.644  24.068  1.00  0.00     0.000 C 
BRANCH   4   5
ATOM      5  C   UNL     1       5.853 -36.135  24.317  1.00  0.00     0.000 C 
BRANCH   5   6
ATOM      6  C   UNL     1       5.947 -36.468  25.813  1.00  0.00     0.000 C 
BRANCH   6   7
ATOM      7  C   UNL     1       4.893 -37.494  26.257  1.00  0.00     0.000 C 
BRANCH   7   8
ATOM      8  C   UNL     1       3.455 -36.959  26.121  1.00  0.00     0.000 C 
BRANCH   8   9
ATOM      9  C   UNL     1       2.587 -37.299  27.352  1.00  0.00     0.000 C 
BRANCH   9  10
ATOM     10  C   UNL     1       1.589 -36.190  27.728  1.00  0.00     0.006 C 
BRANCH  10  11
ATOM     11  C   UNL     1       2.259 -34.986  28.404  1.00  0.00     0.053 C 
BRANCH  11  12
ATOM     12  C   UNL     1       1.384 -34.434  29.483  1.00  0.00     0.041 C 
ATOM     13  O   UNL     1       0.133 -34.436  29.346  1.00  0.00    -0.550 OA
ATOM     14  O   UNL     1       1.950 -33.888  30.628  1.00  0.00    -0.550 OA
ENDBRANCH  11  12
ENDBRANCH  10  11
ENDBRANCH   9  10
ENDBRANCH   8   9
ENDBRANCH   7   8
ENDBRANCH   6   7
ENDBRANCH   5   6
ENDBRANCH   4   5
ENDBRANCH   3   4
ENDBRANCH   2   3
ENDBRANCH   1   2
BRANCH   1  15
ATOM     15  C   UNL     1       5.782 -36.403  21.103  1.00  0.00     0.000 C 
BRANCH  15  16
ATOM     16  C   UNL     1       5.733 -37.251  19.820  1.00  0.00     0.000 C 
BRANCH  16  17
ATOM     17  C   UNL     1       4.409 -37.112  19.059  1.00  0.00     0.000 C 
BRANCH  17  18
ATOM     18  C   UNL     1       3.279 -37.863  19.777  1.00  0.00    -0.000 C 
BRANCH  18  19
ATOM     19  C   UNL     1       1.927 -37.130  19.699  1.00  0.00    -0.000 C 
BRANCH  19  20
ATOM     20  C   UNL     1       0.932 -37.709  18.677  1.00  0.00    -0.000 C 
BRANCH  20  21
ATOM     21  C   UNL     1       1.460 -37.659  17.235  1.00  0.00    -0.000 C 
BRANCH  21  22
ATOM     22  C   UNL     1       1.246 -36.268  16.617  1.00  0.00    -0.000 C 
BRANCH  22  23
ATOM     23  C   UNL     1       2.040 -36.085  15.306  1.00  0.00    -0.000 C 
BRANCH  23  24
ATOM     24  C   UNL     1       3.510 -36.527  15.408  1.00  0.00    -0.000 C 
BRANCH  24  25
ATOM     25  C   UNL     1       4.028 -37.179  14.120  1.00  0.00    -0.003 C 
ATOM     26  C   UNL     1       4.236 -38.680  14.308  1.00  0.00     0.004 C 
ENDBRANCH  24  25
ENDBRANCH  23  24
ENDBRANCH  22  23
ENDBRANCH  21  22
ENDBRANCH  20  21
ENDBRANCH  19  20
ENDBRANCH  18  19
ENDBRANCH  17  18
ENDBRANCH  16  17
ENDBRANCH  15  16
ENDBRANCH   1  15
TORSDOF 22
ENDMDL
MODEL 6
REMARK VINA RESULT:     1.600      2.137      4.814
REMARK INTER + INTRA:           3.854
REMARK INTER:                   2.171
REMARK INTRA:                   1.682
REMARK UNBOUND:                 0.195
REMARK SMILES CCCCCCCCCCCCCCCCCCCCCCCC(=O)[O-]
REMARK SMILES IDX 13 1 14 2 15 3 16 4 17 5 18 6 19 7 20 8 21 9 22 10 23 11
REMARK SMILES IDX 24 12 25 13 26 14 12 15 11 16 10 17 9 18 8 19 7 20 6 21 5 22
REMARK SMILES IDX 4 23 3 24 2 25 1 26
REMARK H PARENT
REMARK Flexibility Score: inf
ROOT
ATOM      1  C   UNL     1       1.886 -36.850  20.730  1.00  0.00     0.000 C 
ENDROOT
BRANCH   1   2
ATOM      2  C   UNL     1       2.453 -35.423  20.815  1.00  0.00     0.000 C 
BRANCH   2   3
ATOM      3  C   UNL     1       3.618 -35.353  21.814  1.00  0.00     0.000 C 
BRANCH   3   4
ATOM      4  C   UNL     1       4.980 -35.157  21.132  1.00  0.00     0.000 C 
BRANCH   4   5
ATOM      5  C   UNL     1       6.124 -34.938  22.133  1.00  0.00     0.000 C 
BRANCH   5   6
ATOM      6  C   UNL     1       5.576 -34.585  23.523  1.00  0.00     0.000 C 
BRANCH   6   7
ATOM      7  C   UNL     1       6.004 -35.594  24.600  1.00  0.00     0.000 C 
BRANCH   7   8
ATOM      8  C   UNL     1       4.824 -36.434  25.124  1.00  0.00     0.000 C 
BRANCH   8   9
ATOM      9  C   UNL     1       5.289 -37.768  25.747  1.00  0.00     0.000 C 
BRANCH   9  10
ATOM     10  C   UNL     1       5.418 -38.913  24.727  1.00  0.00     0.006 C 
BRANCH  10  11
ATOM     11  C   UNL     1       5.161 -38.460  23.284  1.00  0.00     0.053 C 
BRANCH  11  12
ATOM     12  C   UNL     1       5.618 -39.504  22.316  1.00  0.00     0.041 C 
ATOM     13  O   UNL     1       5.699 -40.708  22.674  1.00  0.00    -0.550 OA
ATOM     14  O   UNL     1       5.985 -39.145  21.025  1.00  0.00    -0.550 OA
ENDBRANCH  11  12
ENDBRANCH  10  11
ENDBRANCH   9  10
ENDBRANCH   8   9
ENDBRANCH   7   8
ENDBRANCH   6   7
ENDBRANCH   5   6
ENDBRANCH   4   5
ENDBRANCH   3   4
ENDBRANCH   2   3
ENDBRANCH   1   2
BRANCH   1  15
ATOM     15  C   UNL     1       2.499 -37.659  19.568  1.00  0.00     0.000 C 
BRANCH  15  16
ATOM     16  C   UNL     1       4.019 -37.478  19.414  1.00  0.00     0.000 C 
BRANCH  16  17
ATOM     17  C   UNL     1       4.393 -36.295  18.512  1.00  0.00     0.000 C 
BRANCH  17  18
ATOM     18  C   UNL     1       3.844 -36.490  17.091  1.00  0.00    -0.000 C 
BRANCH  18  19
ATOM     19  C   UNL     1       2.351 -36.135  16.972  1.00  0.00    -0.000 C 
BRANCH  19  20
ATOM     20  C   UNL     1       1.611 -36.819  15.806  1.00  0.00    -0.000 C 
BRANCH  20  21
ATOM     21  C   UNL     1       2.347 -36.675  14.466  1.00  0.00    -0.000 C 
BRANCH  21  22
ATOM     22  C   UNL     1       3.866 -36.563  14.679  1.00  0.00    -0.000 C 
BRANCH  22  23
ATOM     23  C   UNL     1       4.646 -37.626  13.876  1.00  0.00    -0.000 C 
BRANCH  23  24
ATOM     24  C   UNL     1       4.212 -39.070  14.179  1.00  0.00    -0.000 C 
BRANCH  24  25
ATOM     25  C   UNL     1       5.326 -40.094  13.930  1.00  0.00    -0.003 C 
ATOM     26  C   UNL     1       4.943 -41.469  14.472  1.00  0.00     0.004 C 
ENDBRANCH  24  25
ENDBRANCH  23  24
ENDBRANCH  22  23
ENDBRANCH  21  22
ENDBRANCH  20  21
ENDBRANCH  19  20
ENDBRANCH  18  19
ENDBRANCH  17  18
ENDBRANCH  16  17
ENDBRANCH  15  16
ENDBRANCH   1  15
TORSDOF 22
ENDMDL
MODEL 7
REMARK VINA RESULT:     1.696      3.684      5.742
REMARK INTER + INTRA:           4.073
REMARK INTER:                   5.450
REMARK INTRA:                  -1.377
REMARK UNBOUND:                 0.195
REMARK SMILES CCCCCCCCCCCCCCCCCCCCCCCC(=O)[O-]
REMARK SMILES IDX 13 1 14 2 15 3 16 4 17 5 18 6 19 7 20 8 21 9 22 10 23 11
REMARK SMILES IDX 24 12 25 13 26 14 12 15 11 16 10 17 9 18 8 19 7 20 6 21 5 22
REMARK SMILES IDX 4 23 3 24 2 25 1 26
REMARK H PARENT
REMARK Flexibility Score: inf
ROOT
ATOM      1  C   UNL     1       4.527 -35.284  21.879  1.00  0.00     0.000 C 
ENDROOT
BRANCH   1   2
ATOM      2  C   UNL     1       4.565 -34.252  23.018  1.00  0.00     0.000 C 
BRANCH   2   3
ATOM      3  C   UNL     1       5.907 -34.306  23.764  1.00  0.00     0.000 C 
BRANCH   3   4
ATOM      4  C   UNL     1       5.765 -34.794  25.214  1.00  0.00     0.000 C 
BRANCH   4   5
ATOM      5  C   UNL     1       6.124 -36.278  25.382  1.00  0.00     0.000 C 
BRANCH   5   6
ATOM      6  C   UNL     1       4.888 -37.167  25.188  1.00  0.00     0.000 C 
BRANCH   6   7
ATOM      7  C   UNL     1       4.272 -37.619  26.522  1.00  0.00     0.000 C 
BRANCH   7   8
ATOM      8  C   UNL     1       2.737 -37.731  26.456  1.00  0.00     0.000 C 
BRANCH   8   9
ATOM      9  C   UNL     1       2.065 -37.341  27.790  1.00  0.00     0.000 C 
BRANCH   9  10
ATOM     10  C   UNL     1       1.265 -36.029  27.717  1.00  0.00     0.006 C 
BRANCH  10  11
ATOM     11  C   UNL     1       2.018 -34.836  28.321  1.00  0.00     0.053 C 
BRANCH  11  12
ATOM     12  C   UNL     1       1.282 -34.296  29.505  1.00  0.00     0.041 C 
ATOM     13  O   UNL     1       0.094 -33.897  29.385  1.00  0.00    -0.550 OA
ATOM     14  O   UNL     1       1.916 -34.202  30.738  1.00  0.00    -0.550 OA
ENDBRANCH  11  12
ENDBRANCH  10  11
ENDBRANCH   9  10
ENDBRANCH   8   9
ENDBRANCH   7   8
ENDBRANCH   6   7
ENDBRANCH   5   6
ENDBRANCH   4   5
ENDBRANCH   3   4
ENDBRANCH   2   3
ENDBRANCH   1   2
BRANCH   1  15
ATOM     15  C   UNL     1       5.862 -36.041  21.724  1.00  0.00     0.000 C 
BRANCH  15  16
ATOM     16  C   UNL     1       5.786 -37.527  22.113  1.00  0.00     0.000 C 
BRANCH  16  17
ATOM     17  C   UNL     1       5.283 -38.421  20.972  1.00  0.00     0.000 C 
BRANCH  17  18
ATOM     18  C   UNL     1       5.531 -37.763  19.606  1.00  0.00    -0.000 C 
BRANCH  18  19
ATOM     19  C   UNL     1       4.269 -37.106  19.019  1.00  0.00    -0.000 C 
BRANCH  19  20
ATOM     20  C   UNL     1       2.950 -37.497  19.712  1.00  0.00    -0.000 C 
BRANCH  20  21
ATOM     21  C   UNL     1       1.721 -37.295  18.814  1.00  0.00    -0.000 C 
BRANCH  21  22
ATOM     22  C   UNL     1       2.087 -37.464  17.330  1.00  0.00    -0.000 C 
BRANCH  22  23
ATOM     23  C   UNL     1       1.540 -36.312  16.461  1.00  0.00    -0.000 C 
BRANCH  23  24
ATOM     24  C   UNL     1       2.394 -36.020  15.215  1.00  0.00    -0.000 C 
BRANCH  24  25
ATOM     25  C   UNL     1       2.806 -37.291  14.462  1.00  0.00    -0.003 C 
ATOM     26  C   UNL     1       4.265 -37.220  14.018  1.00  0.00     0.004 C 
ENDBRANCH  24  25
ENDBRANCH  23  24
ENDBRANCH  22  23
ENDBRANCH  21  22
ENDBRANCH  20  21
ENDBRANCH  19  20
ENDBRANCH  18  19
ENDBRANCH  17  18
ENDBRANCH  16  17
ENDBRANCH  15  16
ENDBRANCH   1  15
TORSDOF 22
ENDMDL
MODEL 8
REMARK VINA RESULT:     2.163      3.462      5.514
REMARK INTER + INTRA:           5.140
REMARK INTER:                   6.404
REMARK INTRA:                  -1.264
REMARK UNBOUND:                 0.195
REMARK SMILES CCCCCCCCCCCCCCCCCCCCCCCC(=O)[O-]
REMARK SMILES IDX 13 1 14 2 15 3 16 4 17 5 18 6 19 7 20 8 21 9 22 10 23 11
REMARK SMILES IDX 24 12 25 13 26 14 12 15 11 16 10 17 9 18 8 19 7 20 6 21 5 22
REMARK SMILES IDX 4 23 3 24 2 25 1 26
REMARK H PARENT
REMARK Flexibility Score: inf
ROOT
ATOM      1  C   UNL     1       5.077 -38.507  20.653  1.00  0.00     0.000 C 
ENDROOT
BRANCH   1   2
ATOM      2  C   UNL     1       6.067 -39.361  21.462  1.00  0.00     0.000 C 
BRANCH   2   3
ATOM      3  C   UNL     1       5.381 -39.986  22.687  1.00  0.00     0.000 C 
BRANCH   3   4
ATOM      4  C   UNL     1       5.282 -39.017  23.876  1.00  0.00     0.000 C 
BRANCH   4   5
ATOM      5  C   UNL     1       6.053 -37.708  23.645  1.00  0.00     0.000 C 
BRANCH   5   6
ATOM      6  C   UNL     1       5.699 -36.667  24.716  1.00  0.00     0.000 C 
BRANCH   6   7
ATOM      7  C   UNL     1       5.031 -37.293  25.949  1.00  0.00     0.000 C 
BRANCH   7   8
ATOM      8  C   UNL     1       3.754 -36.543  26.375  1.00  0.00     0.000 C 
BRANCH   8   9
ATOM      9  C   UNL     1       2.739 -37.470  27.076  1.00  0.00     0.000 C 
BRANCH   9  10
ATOM     10  C   UNL     1       1.722 -36.719  27.954  1.00  0.00     0.006 C 
BRANCH  10  11
ATOM     11  C   UNL     1       1.956 -35.203  27.976  1.00  0.00     0.053 C 
BRANCH  11  12
ATOM     12  C   UNL     1       1.327 -34.592  29.187  1.00  0.00     0.041 C 
ATOM     13  O   UNL     1       2.004 -34.417  30.233  1.00  0.00    -0.550 OA
ATOM     14  O   UNL     1      -0.018 -34.244  29.173  1.00  0.00    -0.550 OA
ENDBRANCH  11  12
ENDBRANCH  10  11
ENDBRANCH   9  10
ENDBRANCH   8   9
ENDBRANCH   7   8
ENDBRANCH   6   7
ENDBRANCH   5   6
ENDBRANCH   4   5
ENDBRANCH   3   4
ENDBRANCH   2   3
ENDBRANCH   1   2
BRANCH   1  15
ATOM     15  C   UNL     1       5.780 -37.399  19.842  1.00  0.00     0.000 C 
BRANCH  15  16
ATOM     16  C   UNL     1       5.579 -35.984  20.413  1.00  0.00     0.000 C 
BRANCH  16  17
ATOM     17  C   UNL     1       4.172 -35.429  20.159  1.00  0.00     0.000 C 
BRANCH  17  18
ATOM     18  C   UNL     1       3.107 -36.283  20.862  1.00  0.00    -0.000 C 
BRANCH  18  19
ATOM     19  C   UNL     1       1.952 -36.688  19.929  1.00  0.00    -0.000 C 
BRANCH  19  20
ATOM     20  C   UNL     1       2.257 -37.872  18.993  1.00  0.00    -0.000 C 
BRANCH  20  21
ATOM     21  C   UNL     1       2.792 -37.429  17.623  1.00  0.00    -0.000 C 
BRANCH  21  22
ATOM     22  C   UNL     1       1.707 -36.695  16.818  1.00  0.00    -0.000 C 
BRANCH  22  23
ATOM     23  C   UNL     1       2.032 -36.650  15.310  1.00  0.00    -0.000 C 
BRANCH  23  24
ATOM     24  C   UNL     1       3.488 -36.260  15.003  1.00  0.00    -0.000 C 
BRANCH  24  25
ATOM     25  C   UNL     1       4.118 -37.121  13.902  1.00  0.00    -0.003 C 
ATOM     26  C   UNL     1       4.201 -38.586  14.327  1.00  0.00     0.004 C 
ENDBRANCH  24  25
ENDBRANCH  23  24
ENDBRANCH  22  23
ENDBRANCH  21  22
ENDBRANCH  20  21
ENDBRANCH  19  20
ENDBRANCH  18  19
ENDBRANCH  17  18
ENDBRANCH  16  17
ENDBRANCH  15  16
ENDBRANCH   1  15
TORSDOF 22
ENDMDL
MODEL 9
REMARK VINA RESULT:     2.367      2.545      6.148
REMARK INTER + INTRA:           5.605
REMARK INTER:                   5.608
REMARK INTRA:                  -0.003
REMARK UNBOUND:                 0.195
REMARK SMILES CCCCCCCCCCCCCCCCCCCCCCCC(=O)[O-]
REMARK SMILES IDX 13 1 14 2 15 3 16 4 17 5 18 6 19 7 20 8 21 9 22 10 23 11
REMARK SMILES IDX 24 12 25 13 26 14 12 15 11 16 10 17 9 18 8 19 7 20 6 21 5 22
REMARK SMILES IDX 4 23 3 24 2 25 1 26
REMARK H PARENT
REMARK Flexibility Score: inf
ROOT
ATOM      1  C   UNL     1       1.515 -37.376  19.766  1.00  0.00     0.000 C 
ENDROOT
BRANCH   1   2
ATOM      2  C   UNL     1       2.733 -38.274  20.033  1.00  0.00     0.000 C 
BRANCH   2   3
ATOM      3  C   UNL     1       3.839 -38.026  18.995  1.00  0.00     0.000 C 
BRANCH   3   4
ATOM      4  C   UNL     1       5.178 -37.626  19.633  1.00  0.00     0.000 C 
BRANCH   4   5
ATOM      5  C   UNL     1       6.119 -38.822  19.844  1.00  0.00     0.000 C 
BRANCH   5   6
ATOM      6  C   UNL     1       6.116 -39.270  21.312  1.00  0.00     0.000 C 
BRANCH   6   7
ATOM      7  C   UNL     1       6.124 -40.800  21.461  1.00  0.00     0.000 C 
BRANCH   7   8
ATOM      8  C   UNL     1       5.389 -41.273  22.729  1.00  0.00     0.000 C 
BRANCH   8   9
ATOM      9  C   UNL     1       5.886 -40.547  23.998  1.00  0.00     0.000 C 
BRANCH   9  10
ATOM     10  C   UNL     1       4.870 -39.546  24.573  1.00  0.00     0.006 C 
BRANCH  10  11
ATOM     11  C   UNL     1       5.343 -38.089  24.472  1.00  0.00     0.053 C 
BRANCH  11  12
ATOM     12  C   UNL     1       5.034 -37.348  25.733  1.00  0.00     0.041 C 
ATOM     13  O   UNL     1       4.087 -37.723  26.473  1.00  0.00    -0.550 OA
ATOM     14  O   UNL     1       5.772 -36.222  26.078  1.00  0.00    -0.550 OA
ENDBRANCH  11  12
ENDBRANCH  10  11
ENDBRANCH   9  10
ENDBRANCH   8   9
ENDBRANCH   7   8
ENDBRANCH   6   7
ENDBRANCH   5   6
ENDBRANCH   4   5
ENDBRANCH   3   4
ENDBRANCH   2   3
ENDBRANCH   1   2
BRANCH   1  15
ATOM     15  C   UNL     1       0.658 -37.880  18.586  1.00  0.00     0.000 C 
BRANCH  15  16
ATOM     16  C   UNL     1       0.889 -37.111  17.274  1.00  0.00     0.000 C 
BRANCH  16  17
ATOM     17  C   UNL     1       2.313 -37.273  16.727  1.00  0.00     0.000 C 
BRANCH  17  18
ATOM     18  C   UNL     1       2.795 -35.980  16.052  1.00  0.00    -0.000 C 
BRANCH  18  19
ATOM     19  C   UNL     1       4.194 -35.543  16.524  1.00  0.00    -0.000 C 
BRANCH  19  20
ATOM     20  C   UNL     1       4.201 -34.557  17.707  1.00  0.00    -0.000 C 
BRANCH  20  21
ATOM     21  C   UNL     1       5.617 -34.119  18.111  1.00  0.00    -0.000 C 
BRANCH  21  22
ATOM     22  C   UNL     1       5.997 -34.683  19.489  1.00  0.00    -0.000 C 
BRANCH  22  23
ATOM     23  C   UNL     1       4.756 -34.997  20.352  1.00  0.00    -0.000 C 
BRANCH  23  24
ATOM     24  C   UNL     1       5.098 -35.486  21.770  1.00  0.00    -0.000 C 
BRANCH  24  25
ATOM     25  C   UNL     1       4.974 -34.384  22.828  1.00  0.00    -0.003 C 
ATOM     26  C   UNL     1       6.125 -34.448  23.829  1.00  0.00     0.004 C 
ENDBRANCH  24  25
ENDBRANCH  23  24
ENDBRANCH  22  23
ENDBRANCH  21  22
ENDBRANCH  20  21
ENDBRANCH  19  20
ENDBRANCH  18  19
ENDBRANCH  17  18
ENDBRANCH  16  17
ENDBRANCH  15  16
ENDBRANCH   1  15
TORSDOF 22
ENDMDL
