MODEL 1
REMARK VINA RESULT:    -5.841      0.000      0.000
REMARK INTER + INTRA:         -11.588
REMARK INTER:                  -9.596
REMARK INTRA:                  -1.992
REMARK UNBOUND:                -1.992
REMARK SMILES C[C@@H]1O[C@@H](OC[C@H]2O[C@H](Oc3c(-c4ccc(O)c(O)c4)oc4cc(O)cc(O)c4c3=O)[C@@H](O)[C@H](O)[C@@H]2O)[C@@H](O)[C@@H](O)[C@@H]1O
REMARK SMILES IDX 7 1 36 2 34 3 32 4 9 5 8 6 6 7 5 8 4 9 1 10 2 11 42 12 3 13
REMARK SMILES IDX 40 14 38 15 43 16 41 18 39 20 37 22 35 24 10 26 11 27 12 28
REMARK SMILES IDX 30 29 21 30 29 31 31 32 22 33 27 34 23 35 26 36 24 37 13 38
REMARK SMILES IDX 20 39 14 40 18 41 15 42 16 43 19 44 17 46 28 48 25 50 33 52
REMARK H PARENT 43 17 41 19 39 21 37 23 35 25 19 45 17 47 28 49 25 51 33 53
REMARK Flexibility Score: inf
ROOT
ATOM      1  C   UNL     1    -110.882 -16.685  50.871  1.00  0.00     0.180 C 
ATOM      2  C   UNL     1    -112.231 -17.266  51.349  1.00  0.00     0.177 C 
ATOM      3  C   UNL     1    -113.315 -16.965  50.292  1.00  0.00     0.180 C 
ATOM      4  C   UNL     1    -112.829 -17.340  48.851  1.00  0.00     0.214 C 
ATOM      5  C   UNL     1    -111.379 -17.889  48.853  1.00  0.00     0.339 C 
ATOM      6  O   UNL     1    -110.481 -17.048  49.544  1.00  0.00    -0.332 OA
ENDROOT
BRANCH   1   7
ATOM      7  C   UNL     1    -109.743 -16.991  51.869  1.00  0.00     0.198 C 
BRANCH   7   8
ATOM      8  O   UNL     1    -108.875 -15.882  51.977  1.00  0.00    -0.347 OA
BRANCH   8   9
ATOM      9  C   UNL     1    -109.037 -15.179  53.209  1.00  0.00     0.281 C 
ATOM     10  C   UNL     1    -110.883 -14.693  55.606  1.00  0.00     0.041 C 
ATOM     11  C   UNL     1    -110.574 -13.800  54.387  1.00  0.00     0.150 C 
ATOM     12  C   UNL     1    -109.490 -12.733  54.654  1.00  0.00     0.174 C 
ATOM     13  O   UNL     1    -110.316 -14.558  53.211  1.00  0.00    -0.344 OA
ATOM     14  C   UNL     1    -108.076 -13.327  54.612  1.00  0.00     0.179 C 
ATOM     15  C   UNL     1    -107.905 -14.131  53.330  1.00  0.00     0.202 C 
BRANCH  12  16
ATOM     16  O   UNL     1    -109.740 -12.116  55.887  1.00  0.00    -0.388 OA
ATOM     17  H   UNL     1    -110.592 -12.486  56.234  1.00  0.00     0.211 HD
ENDBRANCH  12  16
BRANCH  14  18
ATOM     18  O   UNL     1    -107.128 -12.290  54.627  1.00  0.00    -0.387 OA
ATOM     19  H   UNL     1    -106.309 -12.636  54.182  1.00  0.00     0.211 HD
ENDBRANCH  14  18
BRANCH  15  20
ATOM     20  O   UNL     1    -107.872 -13.266  52.218  1.00  0.00    -0.385 OA
ATOM     21  H   UNL     1    -108.809 -13.005  52.024  1.00  0.00     0.211 HD
ENDBRANCH  15  20
ENDBRANCH   8   9
ENDBRANCH   7   8
ENDBRANCH   1   7
BRANCH   2  22
ATOM     22  O   UNL     1    -112.592 -16.673  52.571  1.00  0.00    -0.387 OA
ATOM     23  H   UNL     1    -112.025 -15.865  52.703  1.00  0.00     0.211 HD
ENDBRANCH   2  22
BRANCH   3  24
ATOM     24  O   UNL     1    -113.657 -15.601  50.337  1.00  0.00    -0.387 OA
ATOM     25  H   UNL     1    -113.214 -15.163  49.560  1.00  0.00     0.211 HD
ENDBRANCH   3  24
BRANCH   5  26
ATOM     26  O   UNL     1    -110.881 -18.154  47.532  1.00  0.00    -0.454 OA
BRANCH  26  27
ATOM     27  C   UNL     1    -109.953 -17.443  46.733  1.00  0.00     0.214 A 
ATOM     28  C   UNL     1    -108.530 -17.456  46.876  1.00  0.00     0.180 A 
ATOM     29  C   UNL     1    -110.492 -16.634  45.711  1.00  0.00     0.239 A 
ATOM     30  O   UNL     1    -107.790 -16.607  46.180  1.00  0.00    -0.452 OA
ATOM     31  C   UNL     1    -109.651 -15.840  44.905  1.00  0.00     0.111 A 
ATOM     32  O   UNL     1    -111.743 -16.630  45.558  1.00  0.00    -0.285 OA
ATOM     33  C   UNL     1    -108.276 -15.801  45.249  1.00  0.00     0.146 A 
ATOM     34  C   UNL     1    -110.088 -15.062  43.805  1.00  0.00     0.134 A 
ATOM     35  C   UNL     1    -107.403 -14.916  44.613  1.00  0.00     0.094 A 
ATOM     36  C   UNL     1    -109.188 -14.184  43.178  1.00  0.00     0.093 A 
ATOM     37  C   UNL     1    -107.855 -14.123  43.559  1.00  0.00     0.123 A 
BRANCH  28  38
ATOM     38  C   UNL     1    -107.788 -18.458  47.668  1.00  0.00     0.025 A 
ATOM     39  C   UNL     1    -107.652 -18.302  49.049  1.00  0.00     0.062 A 
ATOM     40  C   UNL     1    -107.035 -19.444  47.010  1.00  0.00     0.016 A 
ATOM     41  C   UNL     1    -106.783 -19.116  49.781  1.00  0.00     0.158 A 
ATOM     42  C   UNL     1    -106.198 -20.295  47.737  1.00  0.00     0.051 A 
ATOM     43  C   UNL     1    -106.062 -20.142  49.119  1.00  0.00     0.157 A 
BRANCH  41  44
ATOM     44  O   UNL     1    -106.629 -18.848  51.147  1.00  0.00    -0.504 OA
ATOM     45  H   UNL     1    -106.344 -19.546  51.826  1.00  0.00     0.293 HD
ENDBRANCH  41  44
BRANCH  43  46
ATOM     46  O   UNL     1    -105.197 -21.000  49.798  1.00  0.00    -0.504 OA
ATOM     47  H   UNL     1    -105.092 -21.993  49.595  1.00  0.00     0.293 HD
ENDBRANCH  43  46
ENDBRANCH  28  38
BRANCH  34  48
ATOM     48  O   UNL     1    -111.388 -15.138  43.274  1.00  0.00    -0.507 OA
ATOM     49  H   UNL     1    -111.903 -14.323  42.977  1.00  0.00     0.293 HD
ENDBRANCH  34  48
BRANCH  37  50
ATOM     50  O   UNL     1    -106.981 -13.276  42.875  1.00  0.00    -0.508 OA
ATOM     51  H   UNL     1    -107.318 -12.463  42.372  1.00  0.00     0.293 HD
ENDBRANCH  37  50
ENDBRANCH  26  27
ENDBRANCH   5  26
BRANCH   4  52
ATOM     52  O   UNL     1    -113.688 -18.306  48.295  1.00  0.00    -0.384 OA
ATOM     53  H   UNL     1    -114.612 -18.095  48.593  1.00  0.00     0.211 HD
ENDBRANCH   4  52
TORSDOF 16
ENDMDL
MODEL 2
REMARK VINA RESULT:    -5.624      1.062      1.850
REMARK INTER + INTRA:         -11.233
REMARK INTER:                  -9.326
REMARK INTRA:                  -1.907
REMARK UNBOUND:                -1.992
REMARK SMILES C[C@@H]1O[C@@H](OC[C@H]2O[C@H](Oc3c(-c4ccc(O)c(O)c4)oc4cc(O)cc(O)c4c3=O)[C@@H](O)[C@H](O)[C@@H]2O)[C@@H](O)[C@@H](O)[C@@H]1O
REMARK SMILES IDX 7 1 36 2 34 3 32 4 9 5 8 6 6 7 5 8 4 9 1 10 2 11 42 12 3 13
REMARK SMILES IDX 40 14 38 15 43 16 41 18 39 20 37 22 35 24 10 26 11 27 12 28
REMARK SMILES IDX 30 29 21 30 29 31 31 32 22 33 27 34 23 35 26 36 24 37 13 38
REMARK SMILES IDX 20 39 14 40 18 41 15 42 16 43 19 44 17 46 28 48 25 50 33 52
REMARK H PARENT 43 17 41 19 39 21 37 23 35 25 19 45 17 47 28 49 25 51 33 53
REMARK Flexibility Score: inf
ROOT
ATOM      1  C   UNL     1    -111.920 -16.712  50.959  1.00  0.00     0.180 C 
ATOM      2  C   UNL     1    -111.566 -17.944  51.820  1.00  0.00     0.177 C 
ATOM      3  C   UNL     1    -112.210 -19.201  51.197  1.00  0.00     0.180 C 
ATOM      4  C   UNL     1    -111.933 -19.283  49.658  1.00  0.00     0.214 C 
ATOM      5  C   UNL     1    -111.109 -18.070  49.152  1.00  0.00     0.339 C 
ATOM      6  O   UNL     1    -111.657 -16.835  49.556  1.00  0.00    -0.332 OA
ENDROOT
BRANCH   1   7
ATOM      7  C   UNL     1    -111.268 -15.425  51.509  1.00  0.00     0.198 C 
BRANCH   7   8
ATOM      8  O   UNL     1    -110.173 -15.747  52.341  1.00  0.00    -0.347 OA
BRANCH   8   9
ATOM      9  C   UNL     1    -109.355 -14.613  52.632  1.00  0.00     0.281 C 
ATOM     10  C   UNL     1    -106.815 -13.081  51.864  1.00  0.00     0.041 C 
ATOM     11  C   UNL     1    -107.100 -13.999  53.070  1.00  0.00     0.150 C 
ATOM     12  C   UNL     1    -107.504 -13.239  54.352  1.00  0.00     0.174 C 
ATOM     13  O   UNL     1    -108.006 -15.049  52.750  1.00  0.00    -0.344 OA
ATOM     14  C   UNL     1    -108.970 -12.787  54.315  1.00  0.00     0.179 C 
ATOM     15  C   UNL     1    -109.854 -13.971  53.947  1.00  0.00     0.202 C 
BRANCH  12  16
ATOM     16  O   UNL     1    -106.645 -12.146  54.534  1.00  0.00    -0.388 OA
ATOM     17  H   UNL     1    -105.801 -12.496  54.921  1.00  0.00     0.211 HD
ENDBRANCH  12  16
BRANCH  14  18
ATOM     18  O   UNL     1    -109.349 -12.313  55.581  1.00  0.00    -0.387 OA
ATOM     19  H   UNL     1    -109.278 -11.321  55.556  1.00  0.00     0.211 HD
ENDBRANCH  14  18
BRANCH  15  20
ATOM     20  O   UNL     1    -109.880 -14.900  55.007  1.00  0.00    -0.385 OA
ATOM     21  H   UNL     1    -110.831 -15.026  55.260  1.00  0.00     0.211 HD
ENDBRANCH  15  20
ENDBRANCH   8   9
ENDBRANCH   7   8
ENDBRANCH   1   7
BRANCH   2  22
ATOM     22  O   UNL     1    -112.058 -17.765  53.124  1.00  0.00    -0.387 OA
ATOM     23  H   UNL     1    -111.388 -17.236  53.638  1.00  0.00     0.211 HD
ENDBRANCH   2  22
BRANCH   3  24
ATOM     24  O   UNL     1    -113.598 -19.187  51.429  1.00  0.00    -0.387 OA
ATOM     25  H   UNL     1    -113.844 -18.255  51.676  1.00  0.00     0.211 HD
ENDBRANCH   3  24
BRANCH   5  26
ATOM     26  O   UNL     1    -110.921 -18.078  47.729  1.00  0.00    -0.454 OA
BRANCH  26  27
ATOM     27  C   UNL     1    -109.988 -17.392  46.914  1.00  0.00     0.214 A 
ATOM     28  C   UNL     1    -108.567 -17.380  47.083  1.00  0.00     0.180 A 
ATOM     29  C   UNL     1    -110.518 -16.640  45.846  1.00  0.00     0.239 A 
ATOM     30  O   UNL     1    -107.827 -16.553  46.361  1.00  0.00    -0.452 OA
ATOM     31  C   UNL     1    -109.673 -15.872  45.018  1.00  0.00     0.111 A 
ATOM     32  O   UNL     1    -111.767 -16.660  45.669  1.00  0.00    -0.285 OA
ATOM     33  C   UNL     1    -108.305 -15.798  45.385  1.00  0.00     0.146 A 
ATOM     34  C   UNL     1    -110.100 -15.153  43.875  1.00  0.00     0.134 A 
ATOM     35  C   UNL     1    -107.433 -14.932  44.724  1.00  0.00     0.094 A 
ATOM     36  C   UNL     1    -109.200 -14.292  43.224  1.00  0.00     0.093 A 
ATOM     37  C   UNL     1    -107.874 -14.195  43.626  1.00  0.00     0.123 A 
BRANCH  28  38
ATOM     38  C   UNL     1    -107.827 -18.332  47.934  1.00  0.00     0.025 A 
ATOM     39  C   UNL     1    -107.763 -18.138  49.315  1.00  0.00     0.062 A 
ATOM     40  C   UNL     1    -107.010 -19.306  47.337  1.00  0.00     0.016 A 
ATOM     41  C   UNL     1    -106.900 -18.900  50.107  1.00  0.00     0.158 A 
ATOM     42  C   UNL     1    -106.177 -20.107  48.124  1.00  0.00     0.051 A 
ATOM     43  C   UNL     1    -106.111 -19.914  49.506  1.00  0.00     0.157 A 
BRANCH  41  44
ATOM     44  O   UNL     1    -106.819 -18.593  51.472  1.00  0.00    -0.504 OA
ATOM     45  H   UNL     1    -106.903 -17.651  51.839  1.00  0.00     0.293 HD
ENDBRANCH  41  44
BRANCH  43  46
ATOM     46  O   UNL     1    -105.248 -20.722  50.246  1.00  0.00    -0.504 OA
ATOM     47  H   UNL     1    -105.032 -20.586  51.232  1.00  0.00     0.293 HD
ENDBRANCH  43  46
ENDBRANCH  28  38
BRANCH  34  48
ATOM     48  O   UNL     1    -111.388 -15.272  43.325  1.00  0.00    -0.507 OA
ATOM     49  H   UNL     1    -112.169 -14.717  43.643  1.00  0.00     0.293 HD
ENDBRANCH  34  48
BRANCH  37  50
ATOM     50  O   UNL     1    -107.000 -13.368  42.919  1.00  0.00    -0.508 OA
ATOM     51  H   UNL     1    -107.005 -12.363  43.043  1.00  0.00     0.293 HD
ENDBRANCH  37  50
ENDBRANCH  26  27
ENDBRANCH   5  26
BRANCH   4  52
ATOM     52  O   UNL     1    -111.238 -20.469  49.361  1.00  0.00    -0.384 OA
ATOM     53  H   UNL     1    -111.809 -21.232  49.644  1.00  0.00     0.211 HD
ENDBRANCH   4  52
TORSDOF 16
ENDMDL
MODEL 3
REMARK VINA RESULT:    -5.498      1.502      7.324
REMARK INTER + INTRA:         -11.025
REMARK INTER:                  -8.533
REMARK INTRA:                  -2.492
REMARK UNBOUND:                -1.992
REMARK SMILES C[C@@H]1O[C@@H](OC[C@H]2O[C@H](Oc3c(-c4ccc(O)c(O)c4)oc4cc(O)cc(O)c4c3=O)[C@@H](O)[C@H](O)[C@@H]2O)[C@@H](O)[C@@H](O)[C@@H]1O
REMARK SMILES IDX 7 1 36 2 34 3 32 4 9 5 8 6 6 7 5 8 4 9 1 10 2 11 42 12 3 13
REMARK SMILES IDX 40 14 38 15 43 16 41 18 39 20 37 22 35 24 10 26 11 27 12 28
REMARK SMILES IDX 30 29 21 30 29 31 31 32 22 33 27 34 23 35 26 36 24 37 13 38
REMARK SMILES IDX 20 39 14 40 18 41 15 42 16 43 19 44 17 46 28 48 25 50 33 52
REMARK H PARENT 43 17 41 19 39 21 37 23 35 25 19 45 17 47 28 49 25 51 33 53
REMARK Flexibility Score: inf
ROOT
ATOM      1  C   UNL     1    -111.547 -17.708  46.778  1.00  0.00     0.180 C 
ATOM      2  C   UNL     1    -112.882 -18.478  46.691  1.00  0.00     0.177 C 
ATOM      3  C   UNL     1    -112.679 -19.909  47.234  1.00  0.00     0.180 C 
ATOM      4  C   UNL     1    -111.930 -19.898  48.609  1.00  0.00     0.214 C 
ATOM      5  C   UNL     1    -111.563 -18.459  49.058  1.00  0.00     0.339 C 
ATOM      6  O   UNL     1    -110.894 -17.731  48.052  1.00  0.00    -0.332 OA
ENDROOT
BRANCH   1   7
ATOM      7  C   UNL     1    -111.696 -16.250  46.287  1.00  0.00     0.198 C 
BRANCH   7   8
ATOM      8  O   UNL     1    -111.375 -16.160  44.914  1.00  0.00    -0.347 OA
BRANCH   8   9
ATOM      9  C   UNL     1    -110.339 -15.212  44.656  1.00  0.00     0.281 C 
ATOM     10  C   UNL     1    -109.656 -12.524  43.356  1.00  0.00     0.041 C 
ATOM     11  C   UNL     1    -109.346 -13.962  42.895  1.00  0.00     0.150 C 
ATOM     12  C   UNL     1    -107.932 -14.450  43.278  1.00  0.00     0.174 C 
ATOM     13  O   UNL     1    -110.363 -14.883  43.272  1.00  0.00    -0.344 OA
ATOM     14  C   UNL     1    -107.850 -14.874  44.750  1.00  0.00     0.179 C 
ATOM     15  C   UNL     1    -108.985 -15.842  45.060  1.00  0.00     0.202 C 
BRANCH  12  16
ATOM     16  O   UNL     1    -107.001 -13.442  42.992  1.00  0.00    -0.388 OA
ATOM     17  H   UNL     1    -106.558 -13.199  43.846  1.00  0.00     0.211 HD
ENDBRANCH  12  16
BRANCH  14  18
ATOM     18  O   UNL     1    -106.626 -15.521  44.987  1.00  0.00    -0.387 OA
ATOM     19  H   UNL     1    -106.021 -14.855  45.412  1.00  0.00     0.211 HD
ENDBRANCH  14  18
BRANCH  15  20
ATOM     20  O   UNL     1    -108.763 -17.070  44.407  1.00  0.00    -0.385 OA
ATOM     21  H   UNL     1    -107.989 -16.942  43.800  1.00  0.00     0.211 HD
ENDBRANCH  15  20
ENDBRANCH   8   9
ENDBRANCH   7   8
ENDBRANCH   1   7
BRANCH   2  22
ATOM     22  O   UNL     1    -113.304 -18.542  45.352  1.00  0.00    -0.387 OA
ATOM     23  H   UNL     1    -112.690 -17.978  44.807  1.00  0.00     0.211 HD
ENDBRANCH   2  22
BRANCH   3  24
ATOM     24  O   UNL     1    -111.947 -20.670  46.302  1.00  0.00    -0.387 OA
ATOM     25  H   UNL     1    -112.028 -21.623  46.577  1.00  0.00     0.211 HD
ENDBRANCH   3  24
BRANCH   5  26
ATOM     26  O   UNL     1    -110.797 -18.433  50.272  1.00  0.00    -0.454 OA
BRANCH  26  27
ATOM     27  C   UNL     1    -110.082 -17.379  50.892  1.00  0.00     0.214 A 
ATOM     28  C   UNL     1    -108.660 -17.230  50.929  1.00  0.00     0.180 A 
ATOM     29  C   UNL     1    -110.851 -16.397  51.548  1.00  0.00     0.239 A 
ATOM     30  O   UNL     1    -108.115 -16.298  51.695  1.00  0.00    -0.452 OA
ATOM     31  C   UNL     1    -110.227 -15.343  52.248  1.00  0.00     0.111 A 
ATOM     32  O   UNL     1    -112.107 -16.502  51.505  1.00  0.00    -0.285 OA
ATOM     33  C   UNL     1    -108.815 -15.393  52.362  1.00  0.00     0.146 A 
ATOM     34  C   UNL     1    -110.912 -14.268  52.865  1.00  0.00     0.134 A 
ATOM     35  C   UNL     1    -108.130 -14.488  53.175  1.00  0.00     0.094 A 
ATOM     36  C   UNL     1    -110.197 -13.367  53.674  1.00  0.00     0.093 A 
ATOM     37  C   UNL     1    -108.819 -13.458  53.813  1.00  0.00     0.123 A 
BRANCH  28  38
ATOM     38  C   UNL     1    -107.728 -17.972  50.056  1.00  0.00     0.025 A 
ATOM     39  C   UNL     1    -107.710 -17.731  48.681  1.00  0.00     0.062 A 
ATOM     40  C   UNL     1    -107.018 -19.069  50.572  1.00  0.00     0.016 A 
ATOM     41  C   UNL     1    -106.994 -18.564  47.816  1.00  0.00     0.158 A 
ATOM     42  C   UNL     1    -106.261 -19.881  49.723  1.00  0.00     0.051 A 
ATOM     43  C   UNL     1    -106.241 -19.641  48.347  1.00  0.00     0.157 A 
BRANCH  41  44
ATOM     44  O   UNL     1    -107.092 -18.319  46.440  1.00  0.00    -0.504 OA
ATOM     45  H   UNL     1    -107.612 -17.542  46.045  1.00  0.00     0.293 HD
ENDBRANCH  41  44
BRANCH  43  46
ATOM     46  O   UNL     1    -105.489 -20.493  47.539  1.00  0.00    -0.504 OA
ATOM     47  H   UNL     1    -105.756 -20.784  46.600  1.00  0.00     0.293 HD
ENDBRANCH  43  46
ENDBRANCH  28  38
BRANCH  34  48
ATOM     48  O   UNL     1    -112.286 -14.027  52.692  1.00  0.00    -0.507 OA
ATOM     49  H   UNL     1    -112.949 -14.764  52.505  1.00  0.00     0.293 HD
ENDBRANCH  34  48
BRANCH  37  50
ATOM     50  O   UNL     1    -108.141 -12.511  54.582  1.00  0.00    -0.508 OA
ATOM     51  H   UNL     1    -108.198 -11.521  54.374  1.00  0.00     0.293 HD
ENDBRANCH  37  50
ENDBRANCH  26  27
ENDBRANCH   5  26
BRANCH   4  52
ATOM     52  O   UNL     1    -112.735 -20.498  49.594  1.00  0.00    -0.384 OA
ATOM     53  H   UNL     1    -113.681 -20.412  49.304  1.00  0.00     0.211 HD
ENDBRANCH   4  52
TORSDOF 16
ENDMDL
MODEL 4
REMARK VINA RESULT:    -5.311      1.640      7.490
REMARK INTER + INTRA:         -10.718
REMARK INTER:                  -8.634
REMARK INTRA:                  -2.084
REMARK UNBOUND:                -1.992
REMARK SMILES C[C@@H]1O[C@@H](OC[C@H]2O[C@H](Oc3c(-c4ccc(O)c(O)c4)oc4cc(O)cc(O)c4c3=O)[C@@H](O)[C@H](O)[C@@H]2O)[C@@H](O)[C@@H](O)[C@@H]1O
REMARK SMILES IDX 7 1 36 2 34 3 32 4 9 5 8 6 6 7 5 8 4 9 1 10 2 11 42 12 3 13
REMARK SMILES IDX 40 14 38 15 43 16 41 18 39 20 37 22 35 24 10 26 11 27 12 28
REMARK SMILES IDX 30 29 21 30 29 31 31 32 22 33 27 34 23 35 26 36 24 37 13 38
REMARK SMILES IDX 20 39 14 40 18 41 15 42 16 43 19 44 17 46 28 48 25 50 33 52
REMARK H PARENT 43 17 41 19 39 21 37 23 35 25 19 45 17 47 28 49 25 51 33 53
REMARK Flexibility Score: inf
ROOT
ATOM      1  C   UNL     1    -110.872 -17.866  47.582  1.00  0.00     0.180 C 
ATOM      2  C   UNL     1    -111.722 -19.093  47.187  1.00  0.00     0.177 C 
ATOM      3  C   UNL     1    -111.264 -20.314  48.012  1.00  0.00     0.180 C 
ATOM      4  C   UNL     1    -111.150 -19.966  49.535  1.00  0.00     0.214 C 
ATOM      5  C   UNL     1    -111.498 -18.481  49.817  1.00  0.00     0.339 C 
ATOM      6  O   UNL     1    -110.790 -17.589  48.985  1.00  0.00    -0.332 OA
ENDROOT
BRANCH   1   7
ATOM      7  C   UNL     1    -111.312 -16.597  46.818  1.00  0.00     0.198 C 
BRANCH   7   8
ATOM      8  O   UNL     1    -110.850 -16.642  45.485  1.00  0.00    -0.347 OA
BRANCH   8   9
ATOM      9  C   UNL     1    -109.940 -15.584  45.184  1.00  0.00     0.281 C 
ATOM     10  C   UNL     1    -109.684 -12.632  44.406  1.00  0.00     0.041 C 
ATOM     11  C   UNL     1    -109.495 -13.907  43.559  1.00  0.00     0.150 C 
ATOM     12  C   UNL     1    -108.023 -14.356  43.426  1.00  0.00     0.174 C 
ATOM     13  O   UNL     1    -110.353 -14.964  43.972  1.00  0.00    -0.344 OA
ATOM     14  C   UNL     1    -107.529 -15.084  44.683  1.00  0.00     0.179 C 
ATOM     15  C   UNL     1    -108.519 -16.180  45.053  1.00  0.00     0.202 C 
BRANCH  12  16
ATOM     16  O   UNL     1    -107.222 -13.241  43.142  1.00  0.00    -0.388 OA
ATOM     17  H   UNL     1    -107.826 -12.514  42.840  1.00  0.00     0.211 HD
ENDBRANCH  12  16
BRANCH  14  18
ATOM     18  O   UNL     1    -106.278 -15.669  44.427  1.00  0.00    -0.387 OA
ATOM     19  H   UNL     1    -105.701 -15.483  45.215  1.00  0.00     0.211 HD
ENDBRANCH  14  18
BRANCH  15  20
ATOM     20  O   UNL     1    -108.471 -17.216  44.100  1.00  0.00    -0.385 OA
ATOM     21  H   UNL     1    -107.639 -17.730  44.271  1.00  0.00     0.211 HD
ENDBRANCH  15  20
ENDBRANCH   8   9
ENDBRANCH   7   8
ENDBRANCH   1   7
BRANCH   2  22
ATOM     22  O   UNL     1    -111.552 -19.363  45.819  1.00  0.00    -0.387 OA
ATOM     23  H   UNL     1    -111.791 -18.542  45.308  1.00  0.00     0.211 HD
ENDBRANCH   2  22
BRANCH   3  24
ATOM     24  O   UNL     1    -110.021 -20.769  47.536  1.00  0.00    -0.387 OA
ATOM     25  H   UNL     1    -109.318 -20.321  48.079  1.00  0.00     0.211 HD
ENDBRANCH   3  24
BRANCH   5  26
ATOM     26  O   UNL     1    -111.312 -18.116  51.194  1.00  0.00    -0.454 OA
BRANCH  26  27
ATOM     27  C   UNL     1    -110.646 -17.011  51.777  1.00  0.00     0.214 A 
ATOM     28  C   UNL     1    -109.231 -16.855  51.919  1.00  0.00     0.180 A 
ATOM     29  C   UNL     1    -111.464 -15.977  52.278  1.00  0.00     0.239 A 
ATOM     30  O   UNL     1    -108.749 -15.858  52.644  1.00  0.00    -0.452 OA
ATOM     31  C   UNL     1    -110.895 -14.865  52.933  1.00  0.00     0.111 A 
ATOM     32  O   UNL     1    -112.712 -16.089  52.139  1.00  0.00    -0.285 OA
ATOM     33  C   UNL     1    -109.498 -14.900  53.168  1.00  0.00     0.146 A 
ATOM     34  C   UNL     1    -111.624 -13.742  53.394  1.00  0.00     0.134 A 
ATOM     35  C   UNL     1    -108.879 -13.926  53.953  1.00  0.00     0.094 A 
ATOM     36  C   UNL     1    -110.976 -12.771  54.177  1.00  0.00     0.093 A 
ATOM     37  C   UNL     1    -109.614 -12.845  54.439  1.00  0.00     0.123 A 
BRANCH  28  38
ATOM     38  C   UNL     1    -108.234 -17.668  51.195  1.00  0.00     0.025 A 
ATOM     39  C   UNL     1    -108.030 -19.005  51.543  1.00  0.00     0.062 A 
ATOM     40  C   UNL     1    -107.339 -17.042  50.311  1.00  0.00     0.016 A 
ATOM     41  C   UNL     1    -106.954 -19.726  51.020  1.00  0.00     0.158 A 
ATOM     42  C   UNL     1    -106.285 -17.767  49.745  1.00  0.00     0.051 A 
ATOM     43  C   UNL     1    -106.081 -19.105  50.091  1.00  0.00     0.157 A 
BRANCH  41  44
ATOM     44  O   UNL     1    -106.757 -21.035  51.479  1.00  0.00    -0.504 OA
ATOM     45  H   UNL     1    -107.516 -21.674  51.692  1.00  0.00     0.293 HD
ENDBRANCH  41  44
BRANCH  43  46
ATOM     46  O   UNL     1    -105.002 -19.778  49.518  1.00  0.00    -0.504 OA
ATOM     47  H   UNL     1    -104.029 -19.641  49.783  1.00  0.00     0.293 HD
ENDBRANCH  43  46
ENDBRANCH  28  38
BRANCH  34  48
ATOM     48  O   UNL     1    -112.978 -13.520  53.086  1.00  0.00    -0.507 OA
ATOM     49  H   UNL     1    -113.290 -12.731  52.540  1.00  0.00     0.293 HD
ENDBRANCH  34  48
BRANCH  37  50
ATOM     50  O   UNL     1    -108.999 -11.833  55.176  1.00  0.00    -0.508 OA
ATOM     51  H   UNL     1    -108.094 -11.970  55.611  1.00  0.00     0.293 HD
ENDBRANCH  37  50
ENDBRANCH  26  27
ENDBRANCH   5  26
BRANCH   4  52
ATOM     52  O   UNL     1    -112.011 -20.792  50.279  1.00  0.00    -0.384 OA
ATOM     53  H   UNL     1    -111.642 -21.714  50.253  1.00  0.00     0.211 HD
ENDBRANCH   4  52
TORSDOF 16
ENDMDL
MODEL 5
REMARK VINA RESULT:    -5.308      4.508      8.240
REMARK INTER + INTRA:         -10.713
REMARK INTER:                  -9.129
REMARK INTRA:                  -1.584
REMARK UNBOUND:                -1.992
REMARK SMILES C[C@@H]1O[C@@H](OC[C@H]2O[C@H](Oc3c(-c4ccc(O)c(O)c4)oc4cc(O)cc(O)c4c3=O)[C@@H](O)[C@H](O)[C@@H]2O)[C@@H](O)[C@@H](O)[C@@H]1O
REMARK SMILES IDX 7 1 36 2 34 3 32 4 9 5 8 6 6 7 5 8 4 9 1 10 2 11 42 12 3 13
REMARK SMILES IDX 40 14 38 15 43 16 41 18 39 20 37 22 35 24 10 26 11 27 12 28
REMARK SMILES IDX 30 29 21 30 29 31 31 32 22 33 27 34 23 35 26 36 24 37 13 38
REMARK SMILES IDX 20 39 14 40 18 41 15 42 16 43 19 44 17 46 28 48 25 50 33 52
REMARK H PARENT 43 17 41 19 39 21 37 23 35 25 19 45 17 47 28 49 25 51 33 53
REMARK Flexibility Score: inf
ROOT
ATOM      1  C   UNL     1    -113.134 -12.238  53.066  1.00  0.00     0.180 C 
ATOM      2  C   UNL     1    -112.635 -11.001  53.845  1.00  0.00     0.177 C 
ATOM      3  C   UNL     1    -112.743 -11.277  55.359  1.00  0.00     0.180 C 
ATOM      4  C   UNL     1    -112.131 -12.670  55.732  1.00  0.00     0.214 C 
ATOM      5  C   UNL     1    -111.600 -13.422  54.484  1.00  0.00     0.339 C 
ATOM      6  O   UNL     1    -112.552 -13.490  53.446  1.00  0.00    -0.332 OA
ENDROOT
BRANCH   1   7
ATOM      7  C   UNL     1    -113.011 -12.038  51.539  1.00  0.00     0.198 C 
BRANCH   7   8
ATOM      8  O   UNL     1    -112.172 -10.938  51.254  1.00  0.00    -0.347 OA
BRANCH   8   9
ATOM      9  C   UNL     1    -112.513 -10.294  50.027  1.00  0.00     0.281 C 
ATOM     10  C   UNL     1    -112.132 -10.309  46.987  1.00  0.00     0.041 C 
ATOM     11  C   UNL     1    -111.537  -9.377  48.062  1.00  0.00     0.150 C 
ATOM     12  C   UNL     1    -112.309  -8.051  48.237  1.00  0.00     0.174 C 
ATOM     13  O   UNL     1    -111.317 -10.048  49.298  1.00  0.00    -0.344 OA
ATOM     14  C   UNL     1    -113.588  -8.235  49.064  1.00  0.00     0.179 C 
ATOM     15  C   UNL     1    -113.253  -8.975  50.353  1.00  0.00     0.202 C 
BRANCH  12  16
ATOM     16  O   UNL     1    -112.598  -7.514  46.975  1.00  0.00    -0.388 OA
ATOM     17  H   UNL     1    -111.795  -7.016  46.675  1.00  0.00     0.211 HD
ENDBRANCH  12  16
BRANCH  14  18
ATOM     18  O   UNL     1    -114.124  -6.978  49.388  1.00  0.00    -0.387 OA
ATOM     19  H   UNL     1    -113.404  -6.459  49.837  1.00  0.00     0.211 HD
ENDBRANCH  14  18
BRANCH  15  20
ATOM     20  O   UNL     1    -112.494  -8.145  51.201  1.00  0.00    -0.385 OA
ATOM     21  H   UNL     1    -111.954  -7.549  50.620  1.00  0.00     0.211 HD
ENDBRANCH  15  20
ENDBRANCH   8   9
ENDBRANCH   7   8
ENDBRANCH   1   7
BRANCH   2  22
ATOM     22  O   UNL     1    -113.425  -9.886  53.516  1.00  0.00    -0.387 OA
ATOM     23  H   UNL     1    -113.259  -9.177  54.195  1.00  0.00     0.211 HD
ENDBRANCH   2  22
BRANCH   3  24
ATOM     24  O   UNL     1    -114.094 -11.232  55.755  1.00  0.00    -0.387 OA
ATOM     25  H   UNL     1    -114.104 -11.120  56.744  1.00  0.00     0.211 HD
ENDBRANCH   3  24
BRANCH   5  26
ATOM     26  O   UNL     1    -111.117 -14.739  54.791  1.00  0.00    -0.454 OA
BRANCH  26  27
ATOM     27  C   UNL     1    -110.860 -15.850  53.951  1.00  0.00     0.214 A 
ATOM     28  C   UNL     1    -109.785 -15.972  53.016  1.00  0.00     0.180 A 
ATOM     29  C   UNL     1    -111.765 -16.928  54.039  1.00  0.00     0.239 A 
ATOM     30  O   UNL     1    -109.764 -16.986  52.165  1.00  0.00    -0.452 OA
ATOM     31  C   UNL     1    -111.629 -18.052  53.197  1.00  0.00     0.111 A 
ATOM     32  O   UNL     1    -112.705 -16.845  54.876  1.00  0.00    -0.285 OA
ATOM     33  C   UNL     1    -110.630 -17.987  52.193  1.00  0.00     0.146 A 
ATOM     34  C   UNL     1    -112.434 -19.214  53.268  1.00  0.00     0.134 A 
ATOM     35  C   UNL     1    -110.535 -18.977  51.213  1.00  0.00     0.094 A 
ATOM     36  C   UNL     1    -112.314 -20.200  52.273  1.00  0.00     0.093 A 
ATOM     37  C   UNL     1    -111.362 -20.098  51.267  1.00  0.00     0.123 A 
BRANCH  28  38
ATOM     38  C   UNL     1    -108.593 -15.100  53.008  1.00  0.00     0.025 A 
ATOM     39  C   UNL     1    -108.437 -14.115  53.986  1.00  0.00     0.062 A 
ATOM     40  C   UNL     1    -107.731 -15.113  51.899  1.00  0.00     0.016 A 
ATOM     41  C   UNL     1    -107.433 -13.148  53.875  1.00  0.00     0.158 A 
ATOM     42  C   UNL     1    -106.694 -14.180  51.802  1.00  0.00     0.051 A 
ATOM     43  C   UNL     1    -106.535 -13.195  52.779  1.00  0.00     0.157 A 
BRANCH  41  44
ATOM     44  O   UNL     1    -107.388 -12.137  54.843  1.00  0.00    -0.504 OA
ATOM     45  H   UNL     1    -106.922 -11.246  54.702  1.00  0.00     0.293 HD
ENDBRANCH  41  44
BRANCH  43  46
ATOM     46  O   UNL     1    -105.500 -12.272  52.625  1.00  0.00    -0.504 OA
ATOM     47  H   UNL     1    -104.513 -12.484  52.759  1.00  0.00     0.293 HD
ENDBRANCH  43  46
ENDBRANCH  28  38
BRANCH  34  48
ATOM     48  O   UNL     1    -113.346 -19.460  54.310  1.00  0.00    -0.507 OA
ATOM     49  H   UNL     1    -114.324 -19.223  54.244  1.00  0.00     0.293 HD
ENDBRANCH  34  48
BRANCH  37  50
ATOM     50  O   UNL     1    -111.240 -21.124  50.329  1.00  0.00    -0.508 OA
ATOM     51  H   UNL     1    -112.043 -21.473  49.818  1.00  0.00     0.293 HD
ENDBRANCH  37  50
ENDBRANCH  26  27
ENDBRANCH   5  26
BRANCH   4  52
ATOM     52  O   UNL     1    -111.080 -12.498  56.650  1.00  0.00    -0.384 OA
ATOM     53  H   UNL     1    -111.475 -12.193  57.509  1.00  0.00     0.211 HD
ENDBRANCH   4  52
TORSDOF 16
ENDMDL
MODEL 6
REMARK VINA RESULT:    -5.261      3.689      9.967
REMARK INTER + INTRA:         -10.635
REMARK INTER:                  -7.744
REMARK INTRA:                  -2.892
REMARK UNBOUND:                -1.992
REMARK SMILES C[C@@H]1O[C@@H](OC[C@H]2O[C@H](Oc3c(-c4ccc(O)c(O)c4)oc4cc(O)cc(O)c4c3=O)[C@@H](O)[C@H](O)[C@@H]2O)[C@@H](O)[C@@H](O)[C@@H]1O
REMARK SMILES IDX 7 1 36 2 34 3 32 4 9 5 8 6 6 7 5 8 4 9 1 10 2 11 42 12 3 13
REMARK SMILES IDX 40 14 38 15 43 16 41 18 39 20 37 22 35 24 10 26 11 27 12 28
REMARK SMILES IDX 30 29 21 30 29 31 31 32 22 33 27 34 23 35 26 36 24 37 13 38
REMARK SMILES IDX 20 39 14 40 18 41 15 42 16 43 19 44 17 46 28 48 25 50 33 52
REMARK H PARENT 43 17 41 19 39 21 37 23 35 25 19 45 17 47 28 49 25 51 33 53
REMARK Flexibility Score: inf
ROOT
ATOM      1  C   UNL     1    -109.673 -15.308  52.771  1.00  0.00     0.180 C 
ATOM      2  C   UNL     1    -108.982 -14.265  53.676  1.00  0.00     0.177 C 
ATOM      3  C   UNL     1    -110.028 -13.236  54.154  1.00  0.00     0.180 C 
ATOM      4  C   UNL     1    -111.313 -13.941  54.704  1.00  0.00     0.214 C 
ATOM      5  C   UNL     1    -111.217 -15.485  54.601  1.00  0.00     0.339 C 
ATOM      6  O   UNL     1    -110.849 -15.921  53.311  1.00  0.00    -0.332 OA
ENDROOT
BRANCH   1   7
ATOM      7  C   UNL     1    -108.684 -16.394  52.292  1.00  0.00     0.198 C 
BRANCH   7   8
ATOM      8  O   UNL     1    -109.309 -17.249  51.358  1.00  0.00    -0.347 OA
BRANCH   8   9
ATOM      9  C   UNL     1    -108.544 -17.407  50.163  1.00  0.00     0.281 C 
ATOM     10  C   UNL     1    -108.626 -17.376  47.100  1.00  0.00     0.041 C 
ATOM     11  C   UNL     1    -108.540 -18.560  48.084  1.00  0.00     0.150 C 
ATOM     12  C   UNL     1    -107.103 -19.076  48.316  1.00  0.00     0.174 C 
ATOM     13  O   UNL     1    -109.232 -18.305  49.301  1.00  0.00    -0.344 OA
ATOM     14  C   UNL     1    -106.320 -18.180  49.283  1.00  0.00     0.179 C 
ATOM     15  C   UNL     1    -107.147 -17.952  50.542  1.00  0.00     0.202 C 
BRANCH  12  16
ATOM     16  O   UNL     1    -106.445 -19.183  47.083  1.00  0.00    -0.388 OA
ATOM     17  H   UNL     1    -107.073 -18.864  46.385  1.00  0.00     0.211 HD
ENDBRANCH  12  16
BRANCH  14  18
ATOM     18  O   UNL     1    -105.116 -18.810  49.639  1.00  0.00    -0.387 OA
ATOM     19  H   UNL     1    -105.241 -19.188  50.551  1.00  0.00     0.211 HD
ENDBRANCH  14  18
BRANCH  15  20
ATOM     20  O   UNL     1    -107.234 -19.146  51.284  1.00  0.00    -0.385 OA
ATOM     21  H   UNL     1    -107.218 -18.894  52.244  1.00  0.00     0.211 HD
ENDBRANCH  15  20
ENDBRANCH   8   9
ENDBRANCH   7   8
ENDBRANCH   1   7
BRANCH   2  22
ATOM     22  O   UNL     1    -107.975 -13.605  52.950  1.00  0.00    -0.387 OA
ATOM     23  H   UNL     1    -107.724 -12.781  53.448  1.00  0.00     0.211 HD
ENDBRANCH   2  22
BRANCH   3  24
ATOM     24  O   UNL     1    -110.374 -12.381  53.091  1.00  0.00    -0.387 OA
ATOM     25  H   UNL     1    -110.836 -12.938  52.407  1.00  0.00     0.211 HD
ENDBRANCH   3  24
BRANCH   5  26
ATOM     26  O   UNL     1    -112.421 -16.148  55.016  1.00  0.00    -0.454 OA
BRANCH  26  27
ATOM     27  C   UNL     1    -112.622 -17.239  55.897  1.00  0.00     0.214 A 
ATOM     28  C   UNL     1    -112.763 -18.612  55.524  1.00  0.00     0.180 A 
ATOM     29  C   UNL     1    -112.705 -16.931  57.271  1.00  0.00     0.239 A 
ATOM     30  O   UNL     1    -113.126 -19.506  56.430  1.00  0.00    -0.452 OA
ATOM     31  C   UNL     1    -112.966 -17.941  58.220  1.00  0.00     0.111 A 
ATOM     32  O   UNL     1    -112.558 -15.727  57.618  1.00  0.00    -0.285 OA
ATOM     33  C   UNL     1    -113.259 -19.235  57.719  1.00  0.00     0.146 A 
ATOM     34  C   UNL     1    -112.985 -17.745  59.622  1.00  0.00     0.134 A 
ATOM     35  C   UNL     1    -113.692 -20.252  58.572  1.00  0.00     0.094 A 
ATOM     36  C   UNL     1    -113.418 -18.788  60.460  1.00  0.00     0.093 A 
ATOM     37  C   UNL     1    -113.748 -20.035  59.948  1.00  0.00     0.123 A 
BRANCH  28  38
ATOM     38  C   UNL     1    -112.404 -19.149  54.196  1.00  0.00     0.025 A 
ATOM     39  C   UNL     1    -111.112 -19.621  53.955  1.00  0.00     0.062 A 
ATOM     40  C   UNL     1    -113.289 -18.984  53.118  1.00  0.00     0.016 A 
ATOM     41  C   UNL     1    -110.693 -19.933  52.659  1.00  0.00     0.158 A 
ATOM     42  C   UNL     1    -112.897 -19.337  51.823  1.00  0.00     0.051 A 
ATOM     43  C   UNL     1    -111.605 -19.811  51.580  1.00  0.00     0.157 A 
BRANCH  41  44
ATOM     44  O   UNL     1    -109.358 -20.316  52.476  1.00  0.00    -0.504 OA
ATOM     45  H   UNL     1    -108.658 -19.719  52.047  1.00  0.00     0.293 HD
ENDBRANCH  41  44
BRANCH  43  46
ATOM     46  O   UNL     1    -111.254 -20.128  50.268  1.00  0.00    -0.504 OA
ATOM     47  H   UNL     1    -110.338 -19.956  49.858  1.00  0.00     0.293 HD
ENDBRANCH  43  46
ENDBRANCH  28  38
BRANCH  34  48
ATOM     48  O   UNL     1    -112.561 -16.556  60.241  1.00  0.00    -0.507 OA
ATOM     49  H   UNL     1    -112.034 -16.548  61.102  1.00  0.00     0.293 HD
ENDBRANCH  34  48
BRANCH  37  50
ATOM     50  O   UNL     1    -114.123 -21.059  60.820  1.00  0.00    -0.508 OA
ATOM     51  H   UNL     1    -114.769 -21.786  60.536  1.00  0.00     0.293 HD
ENDBRANCH  37  50
ENDBRANCH  26  27
ENDBRANCH   5  26
BRANCH   4  52
ATOM     52  O   UNL     1    -111.517 -13.579  56.048  1.00  0.00    -0.384 OA
ATOM     53  H   UNL     1    -112.413 -13.154  56.114  1.00  0.00     0.211 HD
ENDBRANCH   4  52
TORSDOF 16
ENDMDL
MODEL 7
REMARK VINA RESULT:    -5.206      2.969      7.626
REMARK INTER + INTRA:         -10.546
REMARK INTER:                  -8.154
REMARK INTRA:                  -2.391
REMARK UNBOUND:                -1.992
REMARK SMILES C[C@@H]1O[C@@H](OC[C@H]2O[C@H](Oc3c(-c4ccc(O)c(O)c4)oc4cc(O)cc(O)c4c3=O)[C@@H](O)[C@H](O)[C@@H]2O)[C@@H](O)[C@@H](O)[C@@H]1O
REMARK SMILES IDX 7 1 36 2 34 3 32 4 9 5 8 6 6 7 5 8 4 9 1 10 2 11 42 12 3 13
REMARK SMILES IDX 40 14 38 15 43 16 41 18 39 20 37 22 35 24 10 26 11 27 12 28
REMARK SMILES IDX 30 29 21 30 29 31 31 32 22 33 27 34 23 35 26 36 24 37 13 38
REMARK SMILES IDX 20 39 14 40 18 41 15 42 16 43 19 44 17 46 28 48 25 50 33 52
REMARK H PARENT 43 17 41 19 39 21 37 23 35 25 19 45 17 47 28 49 25 51 33 53
REMARK Flexibility Score: inf
ROOT
ATOM      1  C   UNL     1    -108.685 -14.115  52.973  1.00  0.00     0.180 C 
ATOM      2  C   UNL     1    -108.233 -13.977  54.443  1.00  0.00     0.177 C 
ATOM      3  C   UNL     1    -109.291 -13.172  55.227  1.00  0.00     0.180 C 
ATOM      4  C   UNL     1    -110.736 -13.712  54.956  1.00  0.00     0.214 C 
ATOM      5  C   UNL     1    -110.734 -14.895  53.952  1.00  0.00     0.339 C 
ATOM      6  O   UNL     1    -110.016 -14.604  52.774  1.00  0.00    -0.332 OA
ENDROOT
BRANCH   1   7
ATOM      7  C   UNL     1    -107.684 -14.949  52.144  1.00  0.00     0.198 C 
BRANCH   7   8
ATOM      8  O   UNL     1    -108.110 -16.294  52.070  1.00  0.00    -0.347 OA
BRANCH   8   9
ATOM      9  C   UNL     1    -108.286 -16.740  50.725  1.00  0.00     0.281 C 
ATOM     10  C   UNL     1    -110.298 -17.137  48.449  1.00  0.00     0.041 C 
ATOM     11  C   UNL     1    -109.640 -18.167  49.390  1.00  0.00     0.150 C 
ATOM     12  C   UNL     1    -108.400 -18.862  48.787  1.00  0.00     0.174 C 
ATOM     13  O   UNL     1    -109.391 -17.634  50.687  1.00  0.00    -0.344 OA
ATOM     14  C   UNL     1    -107.154 -17.969  48.848  1.00  0.00     0.179 C 
ATOM     15  C   UNL     1    -106.984 -17.436  50.264  1.00  0.00     0.202 C 
BRANCH  12  16
ATOM     16  O   UNL     1    -108.681 -19.247  47.469  1.00  0.00    -0.388 OA
ATOM     17  H   UNL     1    -109.319 -18.584  47.098  1.00  0.00     0.211 HD
ENDBRANCH  12  16
BRANCH  14  18
ATOM     18  O   UNL     1    -106.018 -18.721  48.506  1.00  0.00    -0.387 OA
ATOM     19  H   UNL     1    -106.110 -19.607  48.949  1.00  0.00     0.211 HD
ENDBRANCH  14  18
BRANCH  15  20
ATOM     20  O   UNL     1    -106.614 -18.482  51.132  1.00  0.00    -0.385 OA
ATOM     21  H   UNL     1    -105.623 -18.477  51.188  1.00  0.00     0.211 HD
ENDBRANCH  15  20
ENDBRANCH   8   9
ENDBRANCH   7   8
ENDBRANCH   1   7
BRANCH   2  22
ATOM     22  O   UNL     1    -107.000 -13.303  54.496  1.00  0.00    -0.387 OA
ATOM     23  H   UNL     1    -106.285 -13.946  54.240  1.00  0.00     0.211 HD
ENDBRANCH   2  22
BRANCH   3  24
ATOM     24  O   UNL     1    -109.217 -11.814  54.866  1.00  0.00    -0.387 OA
ATOM     25  H   UNL     1    -108.264 -11.619  54.658  1.00  0.00     0.211 HD
ENDBRANCH   3  24
BRANCH   5  26
ATOM     26  O   UNL     1    -112.057 -15.346  53.620  1.00  0.00    -0.454 OA
BRANCH  26  27
ATOM     27  C   UNL     1    -112.491 -16.436  52.827  1.00  0.00     0.214 A 
ATOM     28  C   UNL     1    -112.542 -17.807  53.230  1.00  0.00     0.180 A 
ATOM     29  C   UNL     1    -112.895 -16.134  51.510  1.00  0.00     0.239 A 
ATOM     30  O   UNL     1    -112.796 -18.747  52.334  1.00  0.00    -0.452 OA
ATOM     31  C   UNL     1    -113.284 -17.161  50.624  1.00  0.00     0.111 A 
ATOM     32  O   UNL     1    -112.879 -14.926  51.147  1.00  0.00    -0.285 OA
ATOM     33  C   UNL     1    -113.130 -18.495  51.077  1.00  0.00     0.146 A 
ATOM     34  C   UNL     1    -113.783 -16.950  49.316  1.00  0.00     0.134 A 
ATOM     35  C   UNL     1    -113.330 -19.572  50.213  1.00  0.00     0.094 A 
ATOM     36  C   UNL     1    -113.982 -18.053  48.467  1.00  0.00     0.093 A 
ATOM     37  C   UNL     1    -113.781 -19.352  48.912  1.00  0.00     0.123 A 
BRANCH  28  38
ATOM     38  C   UNL     1    -112.455 -18.260  54.633  1.00  0.00     0.025 A 
ATOM     39  C   UNL     1    -112.511 -17.333  55.676  1.00  0.00     0.062 A 
ATOM     40  C   UNL     1    -112.096 -19.590  54.911  1.00  0.00     0.016 A 
ATOM     41  C   UNL     1    -112.221 -17.713  56.989  1.00  0.00     0.158 A 
ATOM     42  C   UNL     1    -111.849 -19.992  56.227  1.00  0.00     0.051 A 
ATOM     43  C   UNL     1    -111.906 -19.066  57.272  1.00  0.00     0.157 A 
BRANCH  41  44
ATOM     44  O   UNL     1    -112.209 -16.715  57.972  1.00  0.00    -0.504 OA
ATOM     45  H   UNL     1    -111.523 -16.673  58.719  1.00  0.00     0.293 HD
ENDBRANCH  41  44
BRANCH  43  46
ATOM     46  O   UNL     1    -111.629 -19.511  58.565  1.00  0.00    -0.504 OA
ATOM     47  H   UNL     1    -110.927 -20.212  58.797  1.00  0.00     0.293 HD
ENDBRANCH  43  46
ENDBRANCH  28  38
BRANCH  34  48
ATOM     48  O   UNL     1    -114.124 -15.682  48.814  1.00  0.00    -0.507 OA
ATOM     49  H   UNL     1    -113.432 -15.015  48.504  1.00  0.00     0.293 HD
ENDBRANCH  34  48
BRANCH  37  50
ATOM     50  O   UNL     1    -114.041 -20.422  48.053  1.00  0.00    -0.508 OA
ATOM     51  H   UNL     1    -113.993 -20.316  47.047  1.00  0.00     0.293 HD
ENDBRANCH  37  50
ENDBRANCH  26  27
ENDBRANCH   5  26
BRANCH   4  52
ATOM     52  O   UNL     1    -111.322 -14.132  56.164  1.00  0.00    -0.384 OA
ATOM     53  H   UNL     1    -111.836 -13.366  56.533  1.00  0.00     0.211 HD
ENDBRANCH   4  52
TORSDOF 16
ENDMDL
MODEL 8
REMARK VINA RESULT:    -5.063      5.365      9.612
REMARK INTER + INTRA:         -10.310
REMARK INTER:                  -8.734
REMARK INTRA:                  -1.576
REMARK UNBOUND:                -1.992
REMARK SMILES C[C@@H]1O[C@@H](OC[C@H]2O[C@H](Oc3c(-c4ccc(O)c(O)c4)oc4cc(O)cc(O)c4c3=O)[C@@H](O)[C@H](O)[C@@H]2O)[C@@H](O)[C@@H](O)[C@@H]1O
REMARK SMILES IDX 7 1 36 2 34 3 32 4 9 5 8 6 6 7 5 8 4 9 1 10 2 11 42 12 3 13
REMARK SMILES IDX 40 14 38 15 43 16 41 18 39 20 37 22 35 24 10 26 11 27 12 28
REMARK SMILES IDX 30 29 21 30 29 31 31 32 22 33 27 34 23 35 26 36 24 37 13 38
REMARK SMILES IDX 20 39 14 40 18 41 15 42 16 43 19 44 17 46 28 48 25 50 33 52
REMARK H PARENT 43 17 41 19 39 21 37 23 35 25 19 45 17 47 28 49 25 51 33 53
REMARK Flexibility Score: inf
ROOT
ATOM      1  C   UNL     1    -112.183 -11.770  51.544  1.00  0.00     0.180 C 
ATOM      2  C   UNL     1    -113.685 -12.097  51.405  1.00  0.00     0.177 C 
ATOM      3  C   UNL     1    -113.907 -13.597  51.696  1.00  0.00     0.180 C 
ATOM      4  C   UNL     1    -113.183 -14.037  53.013  1.00  0.00     0.214 C 
ATOM      5  C   UNL     1    -112.410 -12.863  53.670  1.00  0.00     0.339 C 
ATOM      6  O   UNL     1    -111.561 -12.197  52.761  1.00  0.00    -0.332 OA
ENDROOT
BRANCH   1   7
ATOM      7  C   UNL     1    -111.901 -10.269  51.305  1.00  0.00     0.198 C 
BRANCH   7   8
ATOM      8  O   UNL     1    -113.069  -9.509  51.535  1.00  0.00    -0.347 OA
BRANCH   8   9
ATOM      9  C   UNL     1    -113.392  -8.657  50.436  1.00  0.00     0.281 C 
ATOM     10  C   UNL     1    -113.761  -8.501  47.398  1.00  0.00     0.041 C 
ATOM     11  C   UNL     1    -112.610  -7.995  48.291  1.00  0.00     0.150 C 
ATOM     12  C   UNL     1    -112.717  -6.499  48.659  1.00  0.00     0.174 C 
ATOM     13  O   UNL     1    -112.402  -8.823  49.429  1.00  0.00    -0.344 OA
ATOM     14  C   UNL     1    -113.732  -6.254  49.782  1.00  0.00     0.179 C 
ATOM     15  C   UNL     1    -113.438  -7.197  50.942  1.00  0.00     0.202 C 
BRANCH  12  16
ATOM     16  O   UNL     1    -113.046  -5.762  47.513  1.00  0.00    -0.388 OA
ATOM     17  H   UNL     1    -112.648  -4.859  47.619  1.00  0.00     0.211 HD
ENDBRANCH  12  16
BRANCH  14  18
ATOM     18  O   UNL     1    -113.624  -4.929  50.236  1.00  0.00    -0.387 OA
ATOM     19  H   UNL     1    -112.725  -4.600  49.967  1.00  0.00     0.211 HD
ENDBRANCH  14  18
BRANCH  15  20
ATOM     20  O   UNL     1    -112.235  -6.823  51.574  1.00  0.00    -0.385 OA
ATOM     21  H   UNL     1    -112.372  -6.937  52.550  1.00  0.00     0.211 HD
ENDBRANCH  15  20
ENDBRANCH   8   9
ENDBRANCH   7   8
ENDBRANCH   1   7
BRANCH   2  22
ATOM     22  O   UNL     1    -114.112 -11.807  50.098  1.00  0.00    -0.387 OA
ATOM     23  H   UNL     1    -114.865 -11.158  50.154  1.00  0.00     0.211 HD
ENDBRANCH   2  22
BRANCH   3  24
ATOM     24  O   UNL     1    -113.433 -14.365  50.616  1.00  0.00    -0.387 OA
ATOM     25  H   UNL     1    -113.969 -14.107  49.817  1.00  0.00     0.211 HD
ENDBRANCH   3  24
BRANCH   5  26
ATOM     26  O   UNL     1    -111.665 -13.266  54.830  1.00  0.00    -0.454 OA
BRANCH  26  27
ATOM     27  C   UNL     1    -111.400 -14.552  55.359  1.00  0.00     0.214 A 
ATOM     28  C   UNL     1    -110.321 -15.414  54.985  1.00  0.00     0.180 A 
ATOM     29  C   UNL     1    -112.299 -15.029  56.335  1.00  0.00     0.239 A 
ATOM     30  O   UNL     1    -110.293 -16.662  55.426  1.00  0.00    -0.452 OA
ATOM     31  C   UNL     1    -112.154 -16.324  56.875  1.00  0.00     0.111 A 
ATOM     32  O   UNL     1    -113.242 -14.271  56.692  1.00  0.00    -0.285 OA
ATOM     33  C   UNL     1    -111.154 -17.151  56.305  1.00  0.00     0.146 A 
ATOM     34  C   UNL     1    -112.953 -16.857  57.915  1.00  0.00     0.134 A 
ATOM     35  C   UNL     1    -111.050 -18.497  56.660  1.00  0.00     0.094 A 
ATOM     36  C   UNL     1    -112.825 -18.215  58.258  1.00  0.00     0.093 A 
ATOM     37  C   UNL     1    -111.871 -19.025  57.656  1.00  0.00     0.123 A 
BRANCH  28  38
ATOM     38  C   UNL     1    -109.135 -14.972  54.226  1.00  0.00     0.025 A 
ATOM     39  C   UNL     1    -108.329 -13.942  54.718  1.00  0.00     0.062 A 
ATOM     40  C   UNL     1    -108.940 -15.430  52.913  1.00  0.00     0.016 A 
ATOM     41  C   UNL     1    -107.333 -13.369  53.923  1.00  0.00     0.158 A 
ATOM     42  C   UNL     1    -107.917 -14.897  52.124  1.00  0.00     0.051 A 
ATOM     43  C   UNL     1    -107.109 -13.868  52.614  1.00  0.00     0.157 A 
BRANCH  41  44
ATOM     44  O   UNL     1    -106.621 -12.282  54.446  1.00  0.00    -0.504 OA
ATOM     45  H   UNL     1    -105.848 -11.835  53.965  1.00  0.00     0.293 HD
ENDBRANCH  41  44
BRANCH  43  46
ATOM     46  O   UNL     1    -106.116 -13.352  51.781  1.00  0.00    -0.504 OA
ATOM     47  H   UNL     1    -105.231 -13.815  51.583  1.00  0.00     0.293 HD
ENDBRANCH  43  46
ENDBRANCH  28  38
BRANCH  34  48
ATOM     48  O   UNL     1    -113.866 -16.090  58.659  1.00  0.00    -0.507 OA
ATOM     49  H   UNL     1    -114.386 -15.323  58.259  1.00  0.00     0.293 HD
ENDBRANCH  34  48
BRANCH  37  50
ATOM     50  O   UNL     1    -111.741 -20.353  58.063  1.00  0.00    -0.508 OA
ATOM     51  H   UNL     1    -112.411 -21.060  57.783  1.00  0.00     0.293 HD
ENDBRANCH  37  50
ENDBRANCH  26  27
ENDBRANCH   5  26
BRANCH   4  52
ATOM     52  O   UNL     1    -114.125 -14.539  53.930  1.00  0.00    -0.384 OA
ATOM     53  H   UNL     1    -113.641 -15.124  54.570  1.00  0.00     0.211 HD
ENDBRANCH   4  52
TORSDOF 16
ENDMDL
MODEL 9
REMARK VINA RESULT:    -4.996      3.775      6.714
REMARK INTER + INTRA:         -10.201
REMARK INTER:                  -8.247
REMARK INTRA:                  -1.954
REMARK UNBOUND:                -1.992
REMARK SMILES C[C@@H]1O[C@@H](OC[C@H]2O[C@H](Oc3c(-c4ccc(O)c(O)c4)oc4cc(O)cc(O)c4c3=O)[C@@H](O)[C@H](O)[C@@H]2O)[C@@H](O)[C@@H](O)[C@@H]1O
REMARK SMILES IDX 7 1 36 2 34 3 32 4 9 5 8 6 6 7 5 8 4 9 1 10 2 11 42 12 3 13
REMARK SMILES IDX 40 14 38 15 43 16 41 18 39 20 37 22 35 24 10 26 11 27 12 28
REMARK SMILES IDX 30 29 21 30 29 31 31 32 22 33 27 34 23 35 26 36 24 37 13 38
REMARK SMILES IDX 20 39 14 40 18 41 15 42 16 43 19 44 17 46 28 48 25 50 33 52
REMARK H PARENT 43 17 41 19 39 21 37 23 35 25 19 45 17 47 28 49 25 51 33 53
REMARK Flexibility Score: inf
ROOT
ATOM      1  C   UNL     1    -113.131 -15.476  55.656  1.00  0.00     0.180 C 
ATOM      2  C   UNL     1    -112.814 -15.671  57.155  1.00  0.00     0.177 C 
ATOM      3  C   UNL     1    -112.723 -17.181  57.461  1.00  0.00     0.180 C 
ATOM      4  C   UNL     1    -111.817 -17.923  56.422  1.00  0.00     0.214 C 
ATOM      5  C   UNL     1    -111.268 -16.957  55.339  1.00  0.00     0.339 C 
ATOM      6  O   UNL     1    -112.281 -16.179  54.742  1.00  0.00    -0.332 OA
ENDROOT
BRANCH   1   7
ATOM      7  C   UNL     1    -113.193 -13.980  55.276  1.00  0.00     0.198 C 
BRANCH   7   8
ATOM      8  O   UNL     1    -112.536 -13.759  54.045  1.00  0.00    -0.347 OA
BRANCH   8   9
ATOM      9  C   UNL     1    -113.151 -12.726  53.275  1.00  0.00     0.281 C 
ATOM     10  C   UNL     1    -114.125 -11.907  50.488  1.00  0.00     0.041 C 
ATOM     11  C   UNL     1    -112.875 -11.468  51.277  1.00  0.00     0.150 C 
ATOM     12  C   UNL     1    -113.050 -10.133  52.034  1.00  0.00     0.174 C 
ATOM     13  O   UNL     1    -112.367 -12.505  52.109  1.00  0.00    -0.344 OA
ATOM     14  C   UNL     1    -113.843 -10.310  53.335  1.00  0.00     0.179 C 
ATOM     15  C   UNL     1    -113.237 -11.449  54.144  1.00  0.00     0.202 C 
BRANCH  12  16
ATOM     16  O   UNL     1    -113.669  -9.200  51.190  1.00  0.00    -0.388 OA
ATOM     17  H   UNL     1    -113.261  -8.316  51.380  1.00  0.00     0.211 HD
ENDBRANCH  12  16
BRANCH  14  18
ATOM     18  O   UNL     1    -113.776  -9.129  54.092  1.00  0.00    -0.387 OA
ATOM     19  H   UNL     1    -114.696  -8.938  54.419  1.00  0.00     0.211 HD
ENDBRANCH  14  18
BRANCH  15  20
ATOM     20  O   UNL     1    -111.975 -11.069  54.642  1.00  0.00    -0.385 OA
ATOM     21  H   UNL     1    -111.433 -10.772  53.865  1.00  0.00     0.211 HD
ENDBRANCH  15  20
ENDBRANCH   8   9
ENDBRANCH   7   8
ENDBRANCH   1   7
BRANCH   2  22
ATOM     22  O   UNL     1    -113.836 -15.098  57.931  1.00  0.00    -0.387 OA
ATOM     23  H   UNL     1    -114.640 -15.681  57.863  1.00  0.00     0.211 HD
ENDBRANCH   2  22
BRANCH   3  24
ATOM     24  O   UNL     1    -114.013 -17.746  57.453  1.00  0.00    -0.387 OA
ATOM     25  H   UNL     1    -114.015 -18.460  56.760  1.00  0.00     0.211 HD
ENDBRANCH   3  24
BRANCH   5  26
ATOM     26  O   UNL     1    -110.508 -17.632  54.324  1.00  0.00    -0.454 OA
BRANCH  26  27
ATOM     27  C   UNL     1    -110.552 -17.527  52.912  1.00  0.00     0.214 A 
ATOM     28  C   UNL     1    -109.970 -16.485  52.124  1.00  0.00     0.180 A 
ATOM     29  C   UNL     1    -111.250 -18.543  52.227  1.00  0.00     0.239 A 
ATOM     30  O   UNL     1    -110.238 -16.412  50.830  1.00  0.00    -0.452 OA
ATOM     31  C   UNL     1    -111.402 -18.491  50.826  1.00  0.00     0.111 A 
ATOM     32  O   UNL     1    -111.749 -19.481  52.906  1.00  0.00    -0.285 OA
ATOM     33  C   UNL     1    -110.933 -17.325  50.169  1.00  0.00     0.146 A 
ATOM     34  C   UNL     1    -112.012 -19.501  50.043  1.00  0.00     0.134 A 
ATOM     35  C   UNL     1    -111.190 -17.114  48.814  1.00  0.00     0.094 A 
ATOM     36  C   UNL     1    -112.254 -19.267  48.678  1.00  0.00     0.093 A 
ATOM     37  C   UNL     1    -111.831 -18.098  48.060  1.00  0.00     0.123 A 
BRANCH  28  38
ATOM     38  C   UNL     1    -108.963 -15.531  52.629  1.00  0.00     0.025 A 
ATOM     39  C   UNL     1    -109.240 -14.743  53.748  1.00  0.00     0.062 A 
ATOM     40  C   UNL     1    -107.820 -15.257  51.860  1.00  0.00     0.016 A 
ATOM     41  C   UNL     1    -108.394 -13.692  54.112  1.00  0.00     0.158 A 
ATOM     42  C   UNL     1    -106.941 -14.238  52.241  1.00  0.00     0.051 A 
ATOM     43  C   UNL     1    -107.216 -13.450  53.361  1.00  0.00     0.157 A 
BRANCH  41  44
ATOM     44  O   UNL     1    -108.778 -12.886  55.192  1.00  0.00    -0.504 OA
ATOM     45  H   UNL     1    -109.716 -12.879  55.580  1.00  0.00     0.293 HD
ENDBRANCH  41  44
BRANCH  43  46
ATOM     46  O   UNL     1    -106.322 -12.431  53.687  1.00  0.00    -0.504 OA
ATOM     47  H   UNL     1    -106.182 -11.586  53.136  1.00  0.00     0.293 HD
ENDBRANCH  43  46
ENDBRANCH  28  38
BRANCH  34  48
ATOM     48  O   UNL     1    -112.373 -20.761  50.553  1.00  0.00    -0.507 OA
ATOM     49  H   UNL     1    -112.909 -20.872  51.400  1.00  0.00     0.293 HD
ENDBRANCH  34  48
BRANCH  37  50
ATOM     50  O   UNL     1    -112.044 -17.927  46.692  1.00  0.00    -0.508 OA
ATOM     51  H   UNL     1    -111.866 -17.040  46.235  1.00  0.00     0.293 HD
ENDBRANCH  37  50
ENDBRANCH  26  27
ENDBRANCH   5  26
BRANCH   4  52
ATOM     52  O   UNL     1    -110.738 -18.537  57.083  1.00  0.00    -0.384 OA
ATOM     53  H   UNL     1    -110.861 -18.394  58.058  1.00  0.00     0.211 HD
ENDBRANCH   4  52
TORSDOF 16
ENDMDL
