MODEL 1
REMARK VINA RESULT:    -4.309      0.000      0.000
REMARK INTER + INTRA:          -6.404
REMARK INTER:                  -6.576
REMARK INTRA:                   0.172
REMARK UNBOUND:                 0.172
REMARK SMILES CC1=CCC[C@H](C)C(=O)C[C@@H](C(C)C)C(=O)C1
REMARK SMILES IDX 8 1 9 2 6 3 7 4 5 5 4 6 3 7 2 8 1 9 10 11 11 12 15 13 16 14
REMARK SMILES IDX 17 15 12 17 13 18 14 19
REMARK H PARENT
REMARK Flexibility Score: 70.00
ROOT
ATOM      1  C   UNL     1      30.373  19.272  23.262  1.00  0.00     0.136 C 
ATOM      2  O   UNL     1      29.811  18.392  22.624  1.00  0.00    -0.299 OA
ENDROOT
BRANCH   1   3
ATOM      3  C   UNL     1      30.459  19.173  24.771  1.00  0.00     0.053 C 
ATOM      4  C   UNL     1      29.048  19.028  25.350  1.00  0.00     0.016 C 
BRANCH   3   5
ATOM      5  C   UNL     1      31.346  17.989  25.219  1.00  0.00     0.015 C 
BRANCH   5   6
ATOM      6  C   UNL     1      32.753  18.016  24.602  1.00  0.00     0.028 C 
BRANCH   6   7
ATOM      7  C   UNL     1      33.639  19.020  25.301  1.00  0.00    -0.028 C 
ATOM      8  C   UNL     1      34.470  19.898  24.692  1.00  0.00    -0.070 CG0
ATOM      9  C   UNL     1      35.281  20.825  25.563  1.00  0.00     0.039 C 
ATOM     10  G   UNL     1      34.597  20.014  23.186  1.00  0.00     0.000 G0
ENDBRANCH   6   7
ENDBRANCH   5   6
ENDBRANCH   3   5
ENDBRANCH   1   3
BRANCH   1  11
ATOM     11  C   UNL     1      30.953  20.452  22.523  1.00  0.00     0.087 C 
BRANCH  11  12
ATOM     12  C   UNL     1      32.317  20.111  21.872  1.00  0.00     0.066 C 
BRANCH  12  13
ATOM     13  C   UNL     1      33.454  20.816  22.592  1.00  0.00     0.140 C 
ATOM     14  O   UNL     1      33.466  22.037  22.664  1.00  0.00    -0.299 OA
BRANCH  13  15
ATOM     15  C   UNL     1      34.609  20.044  23.179  1.00  0.00     0.106 CG0
ATOM     16  G   UNL     1      34.471  19.927  24.684  1.00  0.00     0.000 G0
ENDBRANCH  13  15
ENDBRANCH  12  13
BRANCH  12  17
ATOM     17  C   UNL     1      32.371  20.419  20.342  1.00  0.00    -0.006 C 
ATOM     18  C   UNL     1      31.650  19.375  19.470  1.00  0.00     0.008 C 
ATOM     19  C   UNL     1      33.816  20.607  19.850  1.00  0.00     0.008 C 
ENDBRANCH  12  17
ENDBRANCH  11  12
ENDBRANCH   1  11
TORSDOF 1
ENDMDL
MODEL 2
REMARK VINA RESULT:    -4.194      4.745      7.174
REMARK INTER + INTRA:          -6.228
REMARK INTER:                  -6.215
REMARK INTRA:                  -0.014
REMARK UNBOUND:                 0.172
REMARK SMILES CC1=CCC[C@H](C)C(=O)C[C@@H](C(C)C)C(=O)C1
REMARK SMILES IDX 8 1 9 2 6 3 7 4 5 5 4 6 3 7 2 8 1 9 10 11 11 12 15 13 16 14
REMARK SMILES IDX 17 15 12 17 13 18 14 19
REMARK H PARENT
REMARK Flexibility Score: 70.00
ROOT
ATOM      1  C   UNL     1      38.088  17.277  25.582  1.00  0.00     0.136 C 
ATOM      2  O   UNL     1      37.486  16.564  24.791  1.00  0.00    -0.299 OA
ENDROOT
BRANCH   1   3
ATOM      3  C   UNL     1      39.589  17.130  25.740  1.00  0.00     0.053 C 
ATOM      4  C   UNL     1      40.279  17.579  24.448  1.00  0.00     0.016 C 
BRANCH   3   5
ATOM      5  C   UNL     1      40.121  17.943  26.943  1.00  0.00     0.015 C 
BRANCH   5   6
ATOM      6  C   UNL     1      40.980  19.148  26.529  1.00  0.00     0.028 C 
BRANCH   6   7
ATOM      7  C   UNL     1      40.722  20.338  27.423  1.00  0.00    -0.028 C 
ATOM      8  C   UNL     1      39.836  21.330  27.180  1.00  0.00    -0.070 CG0
ATOM      9  C   UNL     1      39.721  22.441  28.195  1.00  0.00     0.039 C 
ATOM     10  G   UNL     1      38.936  21.361  25.961  1.00  0.00     0.000 G0
ENDBRANCH   6   7
ENDBRANCH   5   6
ENDBRANCH   3   5
ENDBRANCH   1   3
BRANCH   1  11
ATOM     11  C   UNL     1      37.313  18.278  26.400  1.00  0.00     0.087 C 
BRANCH  11  12
ATOM     12  C   UNL     1      37.004  19.566  25.595  1.00  0.00     0.066 C 
BRANCH  12  13
ATOM     13  C   UNL     1      37.554  20.793  26.301  1.00  0.00     0.140 C 
ATOM     14  O   UNL     1      36.871  21.376  27.131  1.00  0.00    -0.299 OA
BRANCH  13  15
ATOM     15  C   UNL     1      38.915  21.348  25.963  1.00  0.00     0.106 CG0
ATOM     16  G   UNL     1      39.824  21.328  27.176  1.00  0.00     0.000 G0
ENDBRANCH  13  15
ENDBRANCH  12  13
BRANCH  12  17
ATOM     17  C   UNL     1      35.486  19.756  25.282  1.00  0.00    -0.006 C 
ATOM     18  C   UNL     1      34.688  18.440  25.240  1.00  0.00     0.008 C 
ATOM     19  C   UNL     1      35.268  20.544  23.980  1.00  0.00     0.008 C 
ENDBRANCH  12  17
ENDBRANCH  11  12
ENDBRANCH   1  11
TORSDOF 1
ENDMDL
MODEL 3
REMARK VINA RESULT:    -4.134      1.753      4.882
REMARK INTER + INTRA:          -6.137
REMARK INTER:                  -6.701
REMARK INTRA:                   0.564
REMARK UNBOUND:                 0.172
REMARK SMILES CC1=CCC[C@H](C)C(=O)C[C@@H](C(C)C)C(=O)C1
REMARK SMILES IDX 8 1 9 2 6 3 7 4 5 5 4 6 3 7 2 8 1 9 10 11 11 12 15 13 16 14
REMARK SMILES IDX 17 15 12 17 13 18 14 19
REMARK H PARENT
REMARK Flexibility Score: 70.00
ROOT
ATOM      1  C   UNL     1      33.266  18.694  24.867  1.00  0.00     0.136 C 
ATOM      2  O   UNL     1      33.282  17.650  24.231  1.00  0.00    -0.299 OA
ENDROOT
BRANCH   1   3
ATOM      3  C   UNL     1      34.563  19.422  25.157  1.00  0.00     0.053 C 
ATOM      4  C   UNL     1      35.619  18.410  25.615  1.00  0.00     0.016 C 
BRANCH   3   5
ATOM      5  C   UNL     1      35.071  20.205  23.924  1.00  0.00     0.015 C 
BRANCH   5   6
ATOM      6  C   UNL     1      33.999  21.110  23.297  1.00  0.00     0.028 C 
BRANCH   6   7
ATOM      7  C   UNL     1      33.415  20.487  22.052  1.00  0.00    -0.028 C 
ATOM      8  C   UNL     1      32.116  20.152  21.872  1.00  0.00    -0.070 CG0
ATOM      9  C   UNL     1      31.721  19.536  20.552  1.00  0.00     0.039 C 
ATOM     10  G   UNL     1      31.043  20.397  22.913  1.00  0.00     0.000 G0
ENDBRANCH   6   7
ENDBRANCH   5   6
ENDBRANCH   3   5
ENDBRANCH   1   3
BRANCH   1  11
ATOM     11  C   UNL     1      31.946  19.225  25.365  1.00  0.00     0.087 C 
BRANCH  11  12
ATOM     12  C   UNL     1      30.746  18.495  24.711  1.00  0.00     0.066 C 
BRANCH  12  13
ATOM     13  C   UNL     1      30.388  19.125  23.376  1.00  0.00     0.140 C 
ATOM     14  O   UNL     1      29.595  18.567  22.631  1.00  0.00    -0.299 OA
BRANCH  13  15
ATOM     15  C   UNL     1      31.035  20.407  22.916  1.00  0.00     0.106 CG0
ATOM     16  G   UNL     1      32.115  20.131  21.889  1.00  0.00     0.000 G0
ENDBRANCH  13  15
ENDBRANCH  12  13
BRANCH  12  17
ATOM     17  C   UNL     1      29.485  18.422  25.630  1.00  0.00    -0.006 C 
ATOM     18  C   UNL     1      28.761  19.768  25.803  1.00  0.00     0.008 C 
ATOM     19  C   UNL     1      29.821  17.825  27.007  1.00  0.00     0.008 C 
ENDBRANCH  12  17
ENDBRANCH  11  12
ENDBRANCH   1  11
TORSDOF 1
ENDMDL
MODEL 4
REMARK VINA RESULT:    -4.117      1.861      4.269
REMARK INTER + INTRA:          -6.112
REMARK INTER:                  -6.367
REMARK INTRA:                   0.256
REMARK UNBOUND:                 0.172
REMARK SMILES CC1=CCC[C@H](C)C(=O)C[C@@H](C(C)C)C(=O)C1
REMARK SMILES IDX 8 1 9 2 6 3 7 4 5 5 4 6 3 7 2 8 1 9 10 11 11 12 15 13 16 14
REMARK SMILES IDX 17 15 12 17 13 18 14 19
REMARK H PARENT
REMARK Flexibility Score: 70.00
ROOT
ATOM      1  C   UNL     1      31.746  21.111  23.382  1.00  0.00     0.136 C 
ATOM      2  O   UNL     1      31.408  21.951  24.205  1.00  0.00    -0.299 OA
ENDROOT
BRANCH   1   3
ATOM      3  C   UNL     1      32.691  21.492  22.260  1.00  0.00     0.053 C 
ATOM      4  C   UNL     1      32.790  23.018  22.178  1.00  0.00     0.016 C 
BRANCH   3   5
ATOM      5  C   UNL     1      34.094  20.874  22.456  1.00  0.00     0.015 C 
BRANCH   5   6
ATOM      6  C   UNL     1      34.566  20.889  23.919  1.00  0.00     0.028 C 
BRANCH   6   7
ATOM      7  C   UNL     1      35.515  19.749  24.202  1.00  0.00    -0.028 C 
ATOM      8  C   UNL     1      35.265  18.697  25.015  1.00  0.00    -0.070 CG0
ATOM      9  C   UNL     1      36.344  17.654  25.173  1.00  0.00     0.039 C 
ATOM     10  G   UNL     1      33.949  18.503  25.742  1.00  0.00     0.000 G0
ENDBRANCH   6   7
ENDBRANCH   5   6
ENDBRANCH   3   5
ENDBRANCH   1   3
BRANCH   1  11
ATOM     11  C   UNL     1      31.195  19.713  23.496  1.00  0.00     0.087 C 
BRANCH  11  12
ATOM     12  C   UNL     1      31.519  19.075  24.871  1.00  0.00     0.066 C 
BRANCH  12  13
ATOM     13  C   UNL     1      32.800  18.260  24.803  1.00  0.00     0.140 C 
ATOM     14  O   UNL     1      32.903  17.353  23.989  1.00  0.00    -0.299 OA
BRANCH  13  15
ATOM     15  C   UNL     1      33.938  18.508  25.760  1.00  0.00     0.106 CG0
ATOM     16  G   UNL     1      35.243  18.696  25.011  1.00  0.00     0.000 G0
ENDBRANCH  13  15
ENDBRANCH  12  13
BRANCH  12  17
ATOM     17  C   UNL     1      30.354  18.206  25.445  1.00  0.00    -0.006 C 
ATOM     18  C   UNL     1      28.953  18.773  25.154  1.00  0.00     0.008 C 
ATOM     19  C   UNL     1      30.519  17.961  26.954  1.00  0.00     0.008 C 
ENDBRANCH  12  17
ENDBRANCH  11  12
ENDBRANCH   1  11
TORSDOF 1
ENDMDL
MODEL 5
REMARK VINA RESULT:    -4.098      4.664      7.351
REMARK INTER + INTRA:          -6.081
REMARK INTER:                  -6.023
REMARK INTRA:                  -0.058
REMARK UNBOUND:                 0.172
REMARK SMILES CC1=CCC[C@H](C)C(=O)C[C@@H](C(C)C)C(=O)C1
REMARK SMILES IDX 8 1 9 2 6 3 7 4 5 5 4 6 3 7 2 8 1 9 10 11 11 12 15 13 16 14
REMARK SMILES IDX 17 15 12 17 13 18 14 19
REMARK H PARENT
REMARK Flexibility Score: 70.00
ROOT
ATOM      1  C   UNL     1      37.505  21.388  27.013  1.00  0.00     0.136 C 
ATOM      2  O   UNL     1      36.473  22.000  27.248  1.00  0.00    -0.299 OA
ENDROOT
BRANCH   1   3
ATOM      3  C   UNL     1      38.694  21.528  27.941  1.00  0.00     0.053 C 
ATOM      4  C   UNL     1      38.455  20.688  29.200  1.00  0.00     0.016 C 
BRANCH   3   5
ATOM      5  C   UNL     1      40.012  21.101  27.255  1.00  0.00     0.015 C 
BRANCH   5   6
ATOM      6  C   UNL     1      40.663  19.869  27.903  1.00  0.00     0.028 C 
BRANCH   6   7
ATOM      7  C   UNL     1      40.917  18.783  26.885  1.00  0.00    -0.028 C 
ATOM      8  C   UNL     1      40.030  17.836  26.503  1.00  0.00    -0.070 CG0
ATOM      9  C   UNL     1      40.470  16.830  25.469  1.00  0.00     0.039 C 
ATOM     10  G   UNL     1      38.613  17.761  27.038  1.00  0.00     0.000 G0
ENDBRANCH   6   7
ENDBRANCH   5   6
ENDBRANCH   3   5
ENDBRANCH   1   3
BRANCH   1  11
ATOM     11  C   UNL     1      37.574  20.517  25.784  1.00  0.00     0.087 C 
BRANCH  11  12
ATOM     12  C   UNL     1      36.710  19.239  25.933  1.00  0.00     0.066 C 
BRANCH  12  13
ATOM     13  C   UNL     1      37.581  17.994  25.940  1.00  0.00     0.140 C 
ATOM     14  O   UNL     1      37.432  17.141  25.076  1.00  0.00    -0.299 OA
BRANCH  13  15
ATOM     15  C   UNL     1      38.596  17.754  27.028  1.00  0.00     0.106 CG0
ATOM     16  G   UNL     1      40.007  17.846  26.481  1.00  0.00     0.000 G0
ENDBRANCH  13  15
ENDBRANCH  12  13
BRANCH  12  17
ATOM     17  C   UNL     1      35.593  19.113  24.849  1.00  0.00    -0.006 C 
ATOM     18  C   UNL     1      35.427  20.369  23.975  1.00  0.00     0.008 C 
ATOM     19  C   UNL     1      34.242  18.721  25.469  1.00  0.00     0.008 C 
ENDBRANCH  12  17
ENDBRANCH  11  12
ENDBRANCH   1  11
TORSDOF 1
ENDMDL
MODEL 6
REMARK VINA RESULT:    -4.066      5.078      7.585
REMARK INTER + INTRA:          -6.033
REMARK INTER:                  -5.886
REMARK INTRA:                  -0.147
REMARK UNBOUND:                 0.172
REMARK SMILES CC1=CCC[C@H](C)C(=O)C[C@@H](C(C)C)C(=O)C1
REMARK SMILES IDX 8 1 9 2 6 3 7 4 5 5 4 6 3 7 2 8 1 9 10 11 11 12 15 13 16 14
REMARK SMILES IDX 17 15 12 17 13 18 14 19
REMARK H PARENT
REMARK Flexibility Score: 70.00
ROOT
ATOM      1  C   UNL     1      36.896  19.895  25.754  1.00  0.00     0.136 C 
ATOM      2  O   UNL     1      37.021  20.543  24.724  1.00  0.00    -0.299 OA
ENDROOT
BRANCH   1   3
ATOM      3  C   UNL     1      36.111  18.598  25.740  1.00  0.00     0.053 C 
ATOM      4  C   UNL     1      34.911  18.744  24.799  1.00  0.00     0.016 C 
BRANCH   3   5
ATOM      5  C   UNL     1      36.989  17.401  25.306  1.00  0.00     0.015 C 
BRANCH   5   6
ATOM      6  C   UNL     1      37.778  16.775  26.467  1.00  0.00     0.028 C 
BRANCH   6   7
ATOM      7  C   UNL     1      39.267  16.867  26.231  1.00  0.00    -0.028 C 
ATOM      8  C   UNL     1      40.115  17.711  26.864  1.00  0.00    -0.070 CG0
ATOM      9  C   UNL     1      41.576  17.657  26.490  1.00  0.00     0.039 C 
ATOM     10  G   UNL     1      39.673  18.676  27.946  1.00  0.00     0.000 G0
ENDBRANCH   6   7
ENDBRANCH   5   6
ENDBRANCH   3   5
ENDBRANCH   1   3
BRANCH   1  11
ATOM     11  C   UNL     1      37.515  20.417  27.026  1.00  0.00     0.087 C 
BRANCH  11  12
ATOM     12  C   UNL     1      38.958  20.933  26.796  1.00  0.00     0.066 C 
BRANCH  12  13
ATOM     13  C   UNL     1      39.961  20.110  27.586  1.00  0.00     0.140 C 
ATOM     14  O   UNL     1      41.044  20.592  27.886  1.00  0.00    -0.299 OA
BRANCH  13  15
ATOM     15  C   UNL     1      39.674  18.679  27.968  1.00  0.00     0.106 CG0
ATOM     16  G   UNL     1      40.106  17.729  26.869  1.00  0.00     0.000 G0
ENDBRANCH  13  15
ENDBRANCH  12  13
BRANCH  12  17
ATOM     17  C   UNL     1      39.135  22.452  27.112  1.00  0.00    -0.006 C 
ATOM     18  C   UNL     1      37.978  23.057  27.928  1.00  0.00     0.008 C 
ATOM     19  C   UNL     1      39.364  23.275  25.834  1.00  0.00     0.008 C 
ENDBRANCH  12  17
ENDBRANCH  11  12
ENDBRANCH   1  11
TORSDOF 1
ENDMDL
MODEL 7
REMARK VINA RESULT:    -3.804      4.807      7.789
REMARK INTER + INTRA:          -5.633
REMARK INTER:                  -6.264
REMARK INTRA:                   0.631
REMARK UNBOUND:                 0.172
REMARK SMILES CC1=CCC[C@H](C)C(=O)C[C@@H](C(C)C)C(=O)C1
REMARK SMILES IDX 8 1 9 2 6 3 7 4 5 5 4 6 3 7 2 8 1 9 10 11 11 12 15 13 16 14
REMARK SMILES IDX 17 15 12 17 13 18 14 19
REMARK H PARENT
REMARK Flexibility Score: 70.00
ROOT
ATOM      1  C   UNL     1      39.266  19.657  28.076  1.00  0.00     0.136 C 
ATOM      2  O   UNL     1      40.344  20.235  28.098  1.00  0.00    -0.299 OA
ENDROOT
BRANCH   1   3
ATOM      3  C   UNL     1      38.011  20.385  28.516  1.00  0.00     0.053 C 
ATOM      4  C   UNL     1      38.296  21.146  29.814  1.00  0.00     0.016 C 
BRANCH   3   5
ATOM      5  C   UNL     1      37.499  21.356  27.427  1.00  0.00     0.015 C 
BRANCH   5   6
ATOM      6  C   UNL     1      37.592  20.777  26.006  1.00  0.00     0.028 C 
BRANCH   6   7
ATOM      7  C   UNL     1      36.245  20.299  25.520  1.00  0.00    -0.028 C 
ATOM      8  C   UNL     1      35.747  19.050  25.677  1.00  0.00    -0.070 CG0
ATOM      9  C   UNL     1      34.376  18.760  25.118  1.00  0.00     0.039 C 
ATOM     10  G   UNL     1      36.484  17.948  26.412  1.00  0.00     0.000 G0
ENDBRANCH   6   7
ENDBRANCH   5   6
ENDBRANCH   3   5
ENDBRANCH   1   3
BRANCH   1  11
ATOM     11  C   UNL     1      39.216  18.219  27.627  1.00  0.00     0.087 C 
BRANCH  11  12
ATOM     12  C   UNL     1      39.093  18.099  26.087  1.00  0.00     0.066 C 
BRANCH  12  13
ATOM     13  C   UNL     1      37.736  17.542  25.692  1.00  0.00     0.140 C 
ATOM     14  O   UNL     1      37.641  16.788  24.734  1.00  0.00    -0.299 OA
BRANCH  13  15
ATOM     15  C   UNL     1      36.481  17.941  26.427  1.00  0.00     0.106 CG0
ATOM     16  G   UNL     1      35.744  19.037  25.683  1.00  0.00     0.000 G0
ENDBRANCH  13  15
ENDBRANCH  12  13
BRANCH  12  17
ATOM     17  C   UNL     1      40.235  17.257  25.434  1.00  0.00    -0.006 C 
ATOM     18  C   UNL     1      41.206  16.631  26.450  1.00  0.00     0.008 C 
ATOM     19  C   UNL     1      41.018  18.074  24.392  1.00  0.00     0.008 C 
ENDBRANCH  12  17
ENDBRANCH  11  12
ENDBRANCH   1  11
TORSDOF 1
ENDMDL
MODEL 8
REMARK VINA RESULT:    -3.771      5.219      8.649
REMARK INTER + INTRA:          -5.583
REMARK INTER:                  -5.421
REMARK INTRA:                  -0.162
REMARK UNBOUND:                 0.172
REMARK SMILES CC1=CCC[C@H](C)C(=O)C[C@@H](C(C)C)C(=O)C1
REMARK SMILES IDX 8 1 9 2 6 3 7 4 5 5 4 6 3 7 2 8 1 9 10 11 11 12 15 13 16 14
REMARK SMILES IDX 17 15 12 17 13 18 14 19
REMARK H PARENT
REMARK Flexibility Score: 70.00
ROOT
ATOM      1  C   UNL     1      40.713  18.956  26.195  1.00  0.00     0.136 C 
ATOM      2  O   UNL     1      41.374  18.249  26.943  1.00  0.00    -0.299 OA
ENDROOT
BRANCH   1   3
ATOM      3  C   UNL     1      40.394  18.481  24.792  1.00  0.00     0.053 C 
ATOM      4  C   UNL     1      41.693  18.375  23.987  1.00  0.00     0.016 C 
BRANCH   3   5
ATOM      5  C   UNL     1      39.656  17.122  24.800  1.00  0.00     0.015 C 
BRANCH   5   6
ATOM      6  C   UNL     1      38.426  17.104  25.720  1.00  0.00     0.028 C 
BRANCH   6   7
ATOM      7  C   UNL     1      37.294  17.917  25.139  1.00  0.00    -0.028 C 
ATOM      8  C   UNL     1      36.573  18.852  25.800  1.00  0.00    -0.070 CG0
ATOM      9  C   UNL     1      35.474  19.561  25.047  1.00  0.00     0.039 C 
ATOM     10  G   UNL     1      36.838  19.239  27.242  1.00  0.00     0.000 G0
ENDBRANCH   6   7
ENDBRANCH   5   6
ENDBRANCH   3   5
ENDBRANCH   1   3
BRANCH   1  11
ATOM     11  C   UNL     1      40.243  20.301  26.689  1.00  0.00     0.087 C 
BRANCH  11  12
ATOM     12  C   UNL     1      39.220  20.167  27.845  1.00  0.00     0.066 C 
BRANCH  12  13
ATOM     13  C   UNL     1      37.803  20.387  27.345  1.00  0.00     0.140 C 
ATOM     14  O   UNL     1      37.429  21.512  27.046  1.00  0.00    -0.299 OA
BRANCH  13  15
ATOM     15  C   UNL     1      36.817  19.249  27.257  1.00  0.00     0.106 CG0
ATOM     16  G   UNL     1      36.580  18.849  25.815  1.00  0.00     0.000 G0
ENDBRANCH  13  15
ENDBRANCH  12  13
BRANCH  12  17
ATOM     17  C   UNL     1      39.520  21.109  29.054  1.00  0.00    -0.006 C 
ATOM     18  C   UNL     1      40.986  21.076  29.522  1.00  0.00     0.008 C 
ATOM     19  C   UNL     1      38.583  20.828  30.240  1.00  0.00     0.008 C 
ENDBRANCH  12  17
ENDBRANCH  11  12
ENDBRANCH   1  11
TORSDOF 1
ENDMDL
MODEL 9
REMARK VINA RESULT:    -3.597      5.692      8.576
REMARK INTER + INTRA:          -5.317
REMARK INTER:                  -5.094
REMARK INTRA:                  -0.222
REMARK UNBOUND:                 0.172
REMARK SMILES CC1=CCC[C@H](C)C(=O)C[C@@H](C(C)C)C(=O)C1
REMARK SMILES IDX 8 1 9 2 6 3 7 4 5 5 4 6 3 7 2 8 1 9 10 11 11 12 15 13 16 14
REMARK SMILES IDX 17 15 12 17 13 18 14 19
REMARK H PARENT
REMARK Flexibility Score: 70.00
ROOT
ATOM      1  C   UNL     1      38.456  22.164  27.124  1.00  0.00     0.136 C 
ATOM      2  O   UNL     1      37.347  22.478  27.534  1.00  0.00    -0.299 OA
ENDROOT
BRANCH   1   3
ATOM      3  C   UNL     1      39.694  22.683  27.827  1.00  0.00     0.053 C 
ATOM      4  C   UNL     1      39.784  24.201  27.640  1.00  0.00     0.016 C 
BRANCH   3   5
ATOM      5  C   UNL     1      39.693  22.327  29.331  1.00  0.00     0.015 C 
BRANCH   5   6
ATOM      6  C   UNL     1      40.185  20.900  29.618  1.00  0.00     0.028 C 
BRANCH   6   7
ATOM      7  C   UNL     1      41.408  20.566  28.797  1.00  0.00    -0.028 C 
ATOM      8  C   UNL     1      41.503  19.564  27.893  1.00  0.00    -0.070 CG0
ATOM      9  C   UNL     1      42.814  19.385  27.170  1.00  0.00     0.039 C 
ATOM     10  G   UNL     1      40.349  18.641  27.553  1.00  0.00     0.000 G0
ENDBRANCH   6   7
ENDBRANCH   5   6
ENDBRANCH   3   5
ENDBRANCH   1   3
BRANCH   1  11
ATOM     11  C   UNL     1      38.562  21.277  25.910  1.00  0.00     0.087 C 
BRANCH  11  12
ATOM     12  C   UNL     1      38.355  19.783  26.267  1.00  0.00     0.066 C 
BRANCH  12  13
ATOM     13  C   UNL     1      39.677  19.035  26.262  1.00  0.00     0.140 C 
ATOM     14  O   UNL     1      40.191  18.713  25.200  1.00  0.00    -0.299 OA
BRANCH  13  15
ATOM     15  C   UNL     1      40.352  18.627  27.547  1.00  0.00     0.106 CG0
ATOM     16  G   UNL     1      41.495  19.565  27.879  1.00  0.00     0.000 G0
ENDBRANCH  13  15
ENDBRANCH  12  13
BRANCH  12  17
ATOM     17  C   UNL     1      37.320  19.061  25.347  1.00  0.00    -0.006 C 
ATOM     18  C   UNL     1      36.271  20.002  24.729  1.00  0.00     0.008 C 
ATOM     19  C   UNL     1      36.620  17.903  26.079  1.00  0.00     0.008 C 
ENDBRANCH  12  17
ENDBRANCH  11  12
ENDBRANCH   1  11
TORSDOF 1
ENDMDL
