MODEL 1
REMARK VINA RESULT:    -4.996      0.000      0.000
REMARK INTER + INTRA:         -11.030
REMARK INTER:                  -8.792
REMARK INTRA:                  -2.238
REMARK UNBOUND:                -2.238
REMARK SMILES CCCCCCC=CCCCCCCCC(=O)[O-]
REMARK SMILES IDX 10 1 11 2 12 3 13 4 14 5 15 6 16 7 17 8 18 9 9 10 8 11 7 12
REMARK SMILES IDX 6 13 5 14 4 15 3 16 2 17 1 18
REMARK H PARENT
REMARK Flexibility Score: inf
ROOT
ATOM      1  C   UNL     1      -4.214 -24.820  47.092  1.00  0.00     0.004 C 
ENDROOT
BRANCH   1   2
ATOM      2  C   UNL     1      -5.125 -24.270  48.203  1.00  0.00     0.000 C 
BRANCH   2   3
ATOM      3  C   UNL     1      -4.527 -24.461  49.607  1.00  0.00     0.000 C 
BRANCH   3   4
ATOM      4  C   UNL     1      -2.988 -24.441  49.600  1.00  0.00     0.000 C 
BRANCH   4   5
ATOM      5  C   UNL     1      -2.408 -23.394  50.563  1.00  0.00     0.006 C 
BRANCH   5   6
ATOM      6  C   UNL     1      -1.663 -22.268  49.834  1.00  0.00     0.053 C 
BRANCH   6   7
ATOM      7  C   UNL     1      -0.220 -22.253  50.235  1.00  0.00     0.041 C 
ATOM      8  O   UNL     1       0.147 -22.817  51.298  1.00  0.00    -0.550 OA
ATOM      9  O   UNL     1       0.711 -21.575  49.457  1.00  0.00    -0.550 OA
ENDBRANCH   6   7
ENDBRANCH   5   6
ENDBRANCH   4   5
ENDBRANCH   3   4
ENDBRANCH   2   3
ENDBRANCH   1   2
BRANCH   1  10
ATOM     10  C   UNL     1      -4.025 -23.811  45.949  1.00  0.00     0.027 C 
BRANCH  10  11
ATOM     11  C   UNL     1      -3.266 -22.588  46.401  1.00  0.00    -0.031 C 
ATOM     12  C   UNL     1      -3.777 -21.343  46.447  1.00  0.00    -0.031 C 
BRANCH  12  13
ATOM     13  C   UNL     1      -5.153 -20.959  45.958  1.00  0.00     0.027 C 
BRANCH  13  14
ATOM     14  C   UNL     1      -6.131 -20.707  47.119  1.00  0.00     0.004 C 
BRANCH  14  15
ATOM     15  C   UNL     1      -5.487 -20.059  48.359  1.00  0.00     0.000 C 
BRANCH  15  16
ATOM     16  C   UNL     1      -5.972 -20.686  49.677  1.00  0.00    -0.000 C 
BRANCH  16  17
ATOM     17  C   UNL     1      -4.860 -20.770  50.735  1.00  0.00    -0.003 C 
ATOM     18  C   UNL     1      -4.446 -19.400  51.272  1.00  0.00     0.004 C 
ENDBRANCH  16  17
ENDBRANCH  15  16
ENDBRANCH  14  15
ENDBRANCH  13  14
ENDBRANCH  12  13
ENDBRANCH  10  11
ENDBRANCH   1  10
TORSDOF 13
ENDMDL
MODEL 2
REMARK VINA RESULT:    -4.900      3.094      5.249
REMARK INTER + INTRA:         -10.862
REMARK INTER:                  -8.245
REMARK INTRA:                  -2.618
REMARK UNBOUND:                -2.238
REMARK SMILES CCCCCCC=CCCCCCCCC(=O)[O-]
REMARK SMILES IDX 10 1 11 2 12 3 13 4 14 5 15 6 16 7 17 8 18 9 9 10 8 11 7 12
REMARK SMILES IDX 6 13 5 14 4 15 3 16 2 17 1 18
REMARK H PARENT
REMARK Flexibility Score: inf
ROOT
ATOM      1  C   UNL     1      -1.837 -24.347  46.254  1.00  0.00     0.004 C 
ENDROOT
BRANCH   1   2
ATOM      2  C   UNL     1      -0.870 -23.385  46.968  1.00  0.00     0.000 C 
BRANCH   2   3
ATOM      3  C   UNL     1      -1.505 -22.014  47.255  1.00  0.00     0.000 C 
BRANCH   3   4
ATOM      4  C   UNL     1      -2.615 -21.657  46.251  1.00  0.00     0.000 C 
BRANCH   4   5
ATOM      5  C   UNL     1      -3.899 -21.169  46.941  1.00  0.00     0.006 C 
BRANCH   5   6
ATOM      6  C   UNL     1      -5.107 -21.148  45.996  1.00  0.00     0.053 C 
BRANCH   6   7
ATOM      7  C   UNL     1      -5.958 -19.945  46.265  1.00  0.00     0.041 C 
ATOM      8  O   UNL     1      -6.116 -19.071  45.373  1.00  0.00    -0.550 OA
ATOM      9  O   UNL     1      -6.537 -19.768  47.515  1.00  0.00    -0.550 OA
ENDBRANCH   6   7
ENDBRANCH   5   6
ENDBRANCH   4   5
ENDBRANCH   3   4
ENDBRANCH   2   3
ENDBRANCH   1   2
BRANCH   1  10
ATOM     10  C   UNL     1      -2.663 -25.177  47.248  1.00  0.00     0.027 C 
BRANCH  10  11
ATOM     11  C   UNL     1      -4.136 -24.865  47.150  1.00  0.00    -0.031 C 
ATOM     12  C   UNL     1      -4.910 -24.487  48.185  1.00  0.00    -0.031 C 
BRANCH  12  13
ATOM     13  C   UNL     1      -4.450 -24.415  49.622  1.00  0.00     0.027 C 
BRANCH  13  14
ATOM     14  C   UNL     1      -4.100 -22.977  50.046  1.00  0.00     0.004 C 
BRANCH  14  15
ATOM     15  C   UNL     1      -2.660 -22.805  50.567  1.00  0.00     0.000 C 
BRANCH  15  16
ATOM     16  C   UNL     1      -1.864 -24.122  50.557  1.00  0.00    -0.000 C 
BRANCH  16  17
ATOM     17  C   UNL     1      -0.345 -23.892  50.617  1.00  0.00    -0.003 C 
ATOM     18  C   UNL     1       0.025 -22.438  50.904  1.00  0.00     0.004 C 
ENDBRANCH  16  17
ENDBRANCH  15  16
ENDBRANCH  14  15
ENDBRANCH  13  14
ENDBRANCH  12  13
ENDBRANCH  10  11
ENDBRANCH   1  10
TORSDOF 13
ENDMDL
MODEL 3
REMARK VINA RESULT:    -4.886      2.300      4.305
REMARK INTER + INTRA:         -10.837
REMARK INTER:                  -8.833
REMARK INTRA:                  -2.004
REMARK UNBOUND:                -2.238
REMARK SMILES CCCCCCC=CCCCCCCCC(=O)[O-]
REMARK SMILES IDX 10 1 11 2 12 3 13 4 14 5 15 6 16 7 17 8 18 9 9 10 8 11 7 12
REMARK SMILES IDX 6 13 5 14 4 15 3 16 2 17 1 18
REMARK H PARENT
REMARK Flexibility Score: inf
ROOT
ATOM      1  C   UNL     1      -4.483 -24.482  46.814  1.00  0.00     0.004 C 
ENDROOT
BRANCH   1   2
ATOM      2  C   UNL     1      -4.718 -24.676  48.323  1.00  0.00     0.000 C 
BRANCH   2   3
ATOM      3  C   UNL     1      -5.277 -23.415  49.002  1.00  0.00     0.000 C 
BRANCH   3   4
ATOM      4  C   UNL     1      -5.425 -22.236  48.023  1.00  0.00     0.000 C 
BRANCH   4   5
ATOM      5  C   UNL     1      -4.838 -20.930  48.583  1.00  0.00     0.006 C 
BRANCH   5   6
ATOM      6  C   UNL     1      -5.587 -20.429  49.825  1.00  0.00     0.053 C 
BRANCH   6   7
ATOM      7  C   UNL     1      -4.617 -20.008  50.884  1.00  0.00     0.041 C 
ATOM      8  O   UNL     1      -4.716 -18.872  51.418  1.00  0.00    -0.550 OA
ATOM      9  O   UNL     1      -3.574 -20.851  51.248  1.00  0.00    -0.550 OA
ENDBRANCH   6   7
ENDBRANCH   5   6
ENDBRANCH   4   5
ENDBRANCH   3   4
ENDBRANCH   2   3
ENDBRANCH   1   2
BRANCH   1  10
ATOM     10  C   UNL     1      -3.473 -25.493  46.253  1.00  0.00     0.027 C 
BRANCH  10  11
ATOM     11  C   UNL     1      -2.270 -25.642  47.153  1.00  0.00    -0.031 C 
ATOM     12  C   UNL     1      -1.300 -24.720  47.294  1.00  0.00    -0.031 C 
BRANCH  12  13
ATOM     13  C   UNL     1      -1.208 -23.439  46.500  1.00  0.00     0.027 C 
BRANCH  13  14
ATOM     14  C   UNL     1      -0.589 -22.292  47.319  1.00  0.00     0.004 C 
BRANCH  14  15
ATOM     15  C   UNL     1      -1.271 -22.047  48.678  1.00  0.00     0.000 C 
BRANCH  15  16
ATOM     16  C   UNL     1      -0.288 -22.133  49.859  1.00  0.00    -0.000 C 
BRANCH  16  17
ATOM     17  C   UNL     1      -0.491 -23.402  50.703  1.00  0.00    -0.003 C 
ATOM     18  C   UNL     1      -1.935 -23.903  50.686  1.00  0.00     0.004 C 
ENDBRANCH  16  17
ENDBRANCH  15  16
ENDBRANCH  14  15
ENDBRANCH  13  14
ENDBRANCH  12  13
ENDBRANCH  10  11
ENDBRANCH   1  10
TORSDOF 13
ENDMDL
MODEL 4
REMARK VINA RESULT:    -4.847      3.100      4.512
REMARK INTER + INTRA:         -10.768
REMARK INTER:                  -8.099
REMARK INTRA:                  -2.669
REMARK UNBOUND:                -2.238
REMARK SMILES CCCCCCC=CCCCCCCCC(=O)[O-]
REMARK SMILES IDX 10 1 11 2 12 3 13 4 14 5 15 6 16 7 17 8 18 9 9 10 8 11 7 12
REMARK SMILES IDX 6 13 5 14 4 15 3 16 2 17 1 18
REMARK H PARENT
REMARK Flexibility Score: inf
ROOT
ATOM      1  C   UNL     1      -1.699 -23.443  49.845  1.00  0.00     0.004 C 
ENDROOT
BRANCH   1   2
ATOM      2  C   UNL     1      -1.508 -22.129  49.067  1.00  0.00     0.000 C 
BRANCH   2   3
ATOM      3  C   UNL     1      -1.231 -22.361  47.572  1.00  0.00     0.000 C 
BRANCH   3   4
ATOM      4  C   UNL     1      -0.979 -23.844  47.244  1.00  0.00     0.000 C 
BRANCH   4   5
ATOM      5  C   UNL     1      -2.053 -24.432  46.314  1.00  0.00     0.006 C 
BRANCH   5   6
ATOM      6  C   UNL     1      -2.197 -25.952  46.464  1.00  0.00     0.053 C 
BRANCH   6   7
ATOM      7  C   UNL     1      -3.328 -26.454  45.621  1.00  0.00     0.041 C 
ATOM      8  O   UNL     1      -4.309 -25.706  45.368  1.00  0.00    -0.550 OA
ATOM      9  O   UNL     1      -3.320 -27.762  45.154  1.00  0.00    -0.550 OA
ENDBRANCH   6   7
ENDBRANCH   5   6
ENDBRANCH   4   5
ENDBRANCH   3   4
ENDBRANCH   2   3
ENDBRANCH   1   2
BRANCH   1  10
ATOM     10  C   UNL     1      -3.153 -23.637  50.301  1.00  0.00     0.027 C 
BRANCH  10  11
ATOM     11  C   UNL     1      -3.823 -24.773  49.568  1.00  0.00    -0.031 C 
ATOM     12  C   UNL     1      -4.898 -24.641  48.768  1.00  0.00    -0.031 C 
BRANCH  12  13
ATOM     13  C   UNL     1      -5.663 -23.355  48.561  1.00  0.00     0.027 C 
BRANCH  13  14
ATOM     14  C   UNL     1      -4.959 -22.416  47.565  1.00  0.00     0.004 C 
BRANCH  14  15
ATOM     15  C   UNL     1      -5.145 -20.918  47.868  1.00  0.00     0.000 C 
BRANCH  15  16
ATOM     16  C   UNL     1      -5.562 -20.655  49.326  1.00  0.00    -0.000 C 
BRANCH  16  17
ATOM     17  C   UNL     1      -4.554 -19.769  50.076  1.00  0.00    -0.003 C 
ATOM     18  C   UNL     1      -4.216 -20.301  51.468  1.00  0.00     0.004 C 
ENDBRANCH  16  17
ENDBRANCH  15  16
ENDBRANCH  14  15
ENDBRANCH  13  14
ENDBRANCH  12  13
ENDBRANCH  10  11
ENDBRANCH   1  10
TORSDOF 13
ENDMDL
MODEL 5
REMARK VINA RESULT:    -4.835      2.740      5.072
REMARK INTER + INTRA:         -10.748
REMARK INTER:                  -8.257
REMARK INTRA:                  -2.492
REMARK UNBOUND:                -2.238
REMARK SMILES CCCCCCC=CCCCCCCCC(=O)[O-]
REMARK SMILES IDX 10 1 11 2 12 3 13 4 14 5 15 6 16 7 17 8 18 9 9 10 8 11 7 12
REMARK SMILES IDX 6 13 5 14 4 15 3 16 2 17 1 18
REMARK H PARENT
REMARK Flexibility Score: inf
ROOT
ATOM      1  C   UNL     1      -1.801 -25.208  47.424  1.00  0.00     0.004 C 
ENDROOT
BRANCH   1   2
ATOM      2  C   UNL     1      -3.146 -25.358  46.691  1.00  0.00     0.000 C 
BRANCH   2   3
ATOM      3  C   UNL     1      -4.100 -24.182  46.958  1.00  0.00     0.000 C 
BRANCH   3   4
ATOM      4  C   UNL     1      -5.167 -24.517  48.016  1.00  0.00     0.000 C 
BRANCH   4   5
ATOM      5  C   UNL     1      -5.663 -23.271  48.767  1.00  0.00     0.006 C 
BRANCH   5   6
ATOM      6  C   UNL     1      -5.590 -21.998  47.913  1.00  0.00     0.053 C 
BRANCH   6   7
ATOM      7  C   UNL     1      -5.908 -20.794  48.744  1.00  0.00     0.041 C 
ATOM      8  O   UNL     1      -6.151 -19.690  48.191  1.00  0.00    -0.550 OA
ATOM      9  O   UNL     1      -5.888 -20.881  50.130  1.00  0.00    -0.550 OA
ENDBRANCH   6   7
ENDBRANCH   5   6
ENDBRANCH   4   5
ENDBRANCH   3   4
ENDBRANCH   2   3
ENDBRANCH   1   2
BRANCH   1  10
ATOM     10  C   UNL     1      -1.903 -25.609  48.903  1.00  0.00     0.027 C 
BRANCH  10  11
ATOM     11  C   UNL     1      -0.904 -24.864  49.755  1.00  0.00    -0.031 C 
ATOM     12  C   UNL     1      -1.181 -23.757  50.470  1.00  0.00    -0.031 C 
BRANCH  12  13
ATOM     13  C   UNL     1      -2.504 -23.030  50.450  1.00  0.00     0.027 C 
BRANCH  13  14
ATOM     14  C   UNL     1      -2.423 -21.701  49.678  1.00  0.00     0.004 C 
BRANCH  14  15
ATOM     15  C   UNL     1      -1.317 -21.659  48.606  1.00  0.00     0.000 C 
BRANCH  15  16
ATOM     16  C   UNL     1      -1.875 -21.481  47.184  1.00  0.00    -0.000 C 
BRANCH  16  17
ATOM     17  C   UNL     1      -0.848 -21.845  46.098  1.00  0.00    -0.003 C 
ATOM     18  C   UNL     1      -1.485 -22.503  44.875  1.00  0.00     0.004 C 
ENDBRANCH  16  17
ENDBRANCH  15  16
ENDBRANCH  14  15
ENDBRANCH  13  14
ENDBRANCH  12  13
ENDBRANCH  10  11
ENDBRANCH   1  10
TORSDOF 13
ENDMDL
MODEL 6
REMARK VINA RESULT:    -4.793      1.569      4.471
REMARK INTER + INTRA:         -10.673
REMARK INTER:                  -8.144
REMARK INTRA:                  -2.529
REMARK UNBOUND:                -2.238
REMARK SMILES CCCCCCC=CCCCCCCCC(=O)[O-]
REMARK SMILES IDX 10 1 11 2 12 3 13 4 14 5 15 6 16 7 17 8 18 9 9 10 8 11 7 12
REMARK SMILES IDX 6 13 5 14 4 15 3 16 2 17 1 18
REMARK H PARENT
REMARK Flexibility Score: inf
ROOT
ATOM      1  C   UNL     1      -4.734 -20.995  46.183  1.00  0.00     0.004 C 
ENDROOT
BRANCH   1   2
ATOM      2  C   UNL     1      -3.460 -21.756  45.776  1.00  0.00     0.000 C 
BRANCH   2   3
ATOM      3  C   UNL     1      -2.357 -21.677  46.844  1.00  0.00     0.000 C 
BRANCH   3   4
ATOM      4  C   UNL     1      -0.983 -22.115  46.305  1.00  0.00     0.000 C 
BRANCH   4   5
ATOM      5  C   UNL     1       0.112 -22.079  47.384  1.00  0.00     0.006 C 
BRANCH   5   6
ATOM      6  C   UNL     1      -0.447 -21.787  48.783  1.00  0.00     0.053 C 
BRANCH   6   7
ATOM      7  C   UNL     1       0.652 -21.816  49.800  1.00  0.00     0.041 C 
ATOM      8  O   UNL     1       1.855 -21.825  49.430  1.00  0.00    -0.550 OA
ATOM      9  O   UNL     1       0.346 -21.880  51.153  1.00  0.00    -0.550 OA
ENDBRANCH   6   7
ENDBRANCH   5   6
ENDBRANCH   4   5
ENDBRANCH   3   4
ENDBRANCH   2   3
ENDBRANCH   1   2
BRANCH   1  10
ATOM     10  C   UNL     1      -4.952 -21.006  47.703  1.00  0.00     0.027 C 
BRANCH  10  11
ATOM     11  C   UNL     1      -5.612 -22.282  48.165  1.00  0.00    -0.031 C 
ATOM     12  C   UNL     1      -5.239 -22.989  49.249  1.00  0.00    -0.031 C 
BRANCH  12  13
ATOM     13  C   UNL     1      -4.041 -22.672  50.112  1.00  0.00     0.027 C 
BRANCH  13  14
ATOM     14  C   UNL     1      -3.019 -23.823  50.129  1.00  0.00     0.004 C 
BRANCH  14  15
ATOM     15  C   UNL     1      -3.242 -24.883  49.034  1.00  0.00     0.000 C 
BRANCH  15  16
ATOM     16  C   UNL     1      -1.960 -25.202  48.246  1.00  0.00    -0.000 C 
BRANCH  16  17
ATOM     17  C   UNL     1      -2.248 -25.628  46.798  1.00  0.00    -0.003 C 
ATOM     18  C   UNL     1      -3.682 -25.326  46.363  1.00  0.00     0.004 C 
ENDBRANCH  16  17
ENDBRANCH  15  16
ENDBRANCH  14  15
ENDBRANCH  13  14
ENDBRANCH  12  13
ENDBRANCH  10  11
ENDBRANCH   1  10
TORSDOF 13
ENDMDL
MODEL 7
REMARK VINA RESULT:    -4.757      2.450      5.409
REMARK INTER + INTRA:         -10.611
REMARK INTER:                  -8.812
REMARK INTRA:                  -1.799
REMARK UNBOUND:                -2.238
REMARK SMILES CCCCCCC=CCCCCCCCC(=O)[O-]
REMARK SMILES IDX 10 1 11 2 12 3 13 4 14 5 15 6 16 7 17 8 18 9 9 10 8 11 7 12
REMARK SMILES IDX 6 13 5 14 4 15 3 16 2 17 1 18
REMARK H PARENT
REMARK Flexibility Score: inf
ROOT
ATOM      1  C   UNL     1      -5.068 -21.917  47.136  1.00  0.00     0.004 C 
ENDROOT
BRANCH   1   2
ATOM      2  C   UNL     1      -5.261 -22.305  48.613  1.00  0.00     0.000 C 
BRANCH   2   3
ATOM      3  C   UNL     1      -5.629 -23.787  48.793  1.00  0.00     0.000 C 
BRANCH   3   4
ATOM      4  C   UNL     1      -4.559 -24.568  49.577  1.00  0.00     0.000 C 
BRANCH   4   5
ATOM      5  C   UNL     1      -3.471 -23.652  50.160  1.00  0.00     0.006 C 
BRANCH   5   6
ATOM      6  C   UNL     1      -2.065 -24.013  49.661  1.00  0.00     0.053 C 
BRANCH   6   7
ATOM      7  C   UNL     1      -1.129 -22.861  49.862  1.00  0.00     0.041 C 
ATOM      8  O   UNL     1      -0.482 -22.751  50.936  1.00  0.00    -0.550 OA
ATOM      9  O   UNL     1      -1.008 -21.884  48.881  1.00  0.00    -0.550 OA
ENDBRANCH   6   7
ENDBRANCH   5   6
ENDBRANCH   4   5
ENDBRANCH   3   4
ENDBRANCH   2   3
ENDBRANCH   1   2
BRANCH   1  10
ATOM     10  C   UNL     1      -3.793 -22.533  46.540  1.00  0.00     0.027 C 
BRANCH  10  11
ATOM     11  C   UNL     1      -4.083 -23.315  45.282  1.00  0.00    -0.031 C 
ATOM     12  C   UNL     1      -4.086 -24.659  45.199  1.00  0.00    -0.031 C 
BRANCH  12  13
ATOM     13  C   UNL     1      -3.700 -25.591  46.322  1.00  0.00     0.027 C 
BRANCH  13  14
ATOM     14  C   UNL     1      -2.450 -26.423  45.981  1.00  0.00     0.004 C 
BRANCH  14  15
ATOM     15  C   UNL     1      -2.630 -27.370  44.780  1.00  0.00     0.000 C 
BRANCH  15  16
ATOM     16  C   UNL     1      -2.907 -28.822  45.205  1.00  0.00    -0.000 C 
BRANCH  16  17
ATOM     17  C   UNL     1      -4.205 -29.377  44.596  1.00  0.00    -0.003 C 
ATOM     18  C   UNL     1      -5.238 -28.288  44.305  1.00  0.00     0.004 C 
ENDBRANCH  16  17
ENDBRANCH  15  16
ENDBRANCH  14  15
ENDBRANCH  13  14
ENDBRANCH  12  13
ENDBRANCH  10  11
ENDBRANCH   1  10
TORSDOF 13
ENDMDL
MODEL 8
REMARK VINA RESULT:    -4.689      2.213      4.746
REMARK INTER + INTRA:         -10.490
REMARK INTER:                  -8.231
REMARK INTRA:                  -2.259
REMARK UNBOUND:                -2.238
REMARK SMILES CCCCCCC=CCCCCCCCC(=O)[O-]
REMARK SMILES IDX 10 1 11 2 12 3 13 4 14 5 15 6 16 7 17 8 18 9 9 10 8 11 7 12
REMARK SMILES IDX 6 13 5 14 4 15 3 16 2 17 1 18
REMARK H PARENT
REMARK Flexibility Score: inf
ROOT
ATOM      1  C   UNL     1      -2.456 -25.152  48.642  1.00  0.00     0.004 C 
ENDROOT
BRANCH   1   2
ATOM      2  C   UNL     1      -3.715 -24.680  49.392  1.00  0.00     0.000 C 
BRANCH   2   3
ATOM      3  C   UNL     1      -4.891 -24.384  48.447  1.00  0.00     0.000 C 
BRANCH   3   4
ATOM      4  C   UNL     1      -5.247 -22.887  48.402  1.00  0.00     0.000 C 
BRANCH   4   5
ATOM      5  C   UNL     1      -5.004 -22.184  49.748  1.00  0.00     0.006 C 
BRANCH   5   6
ATOM      6  C   UNL     1      -5.056 -20.655  49.633  1.00  0.00     0.053 C 
BRANCH   6   7
ATOM      7  C   UNL     1      -4.457 -20.020  50.850  1.00  0.00     0.041 C 
ATOM      8  O   UNL     1      -4.875 -18.903  51.252  1.00  0.00    -0.550 OA
ATOM      9  O   UNL     1      -3.406 -20.642  51.513  1.00  0.00    -0.550 OA
ENDBRANCH   6   7
ENDBRANCH   5   6
ENDBRANCH   4   5
ENDBRANCH   3   4
ENDBRANCH   2   3
ENDBRANCH   1   2
BRANCH   1  10
ATOM     10  C   UNL     1      -1.179 -24.938  49.468  1.00  0.00     0.027 C 
BRANCH  10  11
ATOM     11  C   UNL     1      -1.353 -23.850  50.499  1.00  0.00    -0.031 C 
ATOM     12  C   UNL     1      -0.825 -22.615  50.406  1.00  0.00    -0.031 C 
BRANCH  12  13
ATOM     13  C   UNL     1       0.107 -22.159  49.309  1.00  0.00     0.027 C 
BRANCH  13  14
ATOM     14  C   UNL     1      -0.561 -22.208  47.923  1.00  0.00     0.004 C 
BRANCH  14  15
ATOM     15  C   UNL     1      -1.860 -21.387  47.818  1.00  0.00     0.000 C 
BRANCH  15  16
ATOM     16  C   UNL     1      -2.510 -21.480  46.426  1.00  0.00    -0.000 C 
BRANCH  16  17
ATOM     17  C   UNL     1      -1.985 -22.673  45.610  1.00  0.00    -0.003 C 
ATOM     18  C   UNL     1      -3.076 -23.689  45.274  1.00  0.00     0.004 C 
ENDBRANCH  16  17
ENDBRANCH  15  16
ENDBRANCH  14  15
ENDBRANCH  13  14
ENDBRANCH  12  13
ENDBRANCH  10  11
ENDBRANCH   1  10
TORSDOF 13
ENDMDL
MODEL 9
REMARK VINA RESULT:    -4.675      1.562      3.037
REMARK INTER + INTRA:         -10.465
REMARK INTER:                  -8.311
REMARK INTRA:                  -2.154
REMARK UNBOUND:                -2.238
REMARK SMILES CCCCCCC=CCCCCCCCC(=O)[O-]
REMARK SMILES IDX 10 1 11 2 12 3 13 4 14 5 15 6 16 7 17 8 18 9 9 10 8 11 7 12
REMARK SMILES IDX 6 13 5 14 4 15 3 16 2 17 1 18
REMARK H PARENT
REMARK Flexibility Score: inf
ROOT
ATOM      1  C   UNL     1      -2.384 -24.177  45.887  1.00  0.00     0.004 C 
ENDROOT
BRANCH   1   2
ATOM      2  C   UNL     1      -0.985 -23.674  45.492  1.00  0.00     0.000 C 
BRANCH   2   3
ATOM      3  C   UNL     1      -0.451 -22.597  46.451  1.00  0.00     0.000 C 
BRANCH   3   4
ATOM      4  C   UNL     1      -1.547 -21.615  46.902  1.00  0.00     0.000 C 
BRANCH   4   5
ATOM      5  C   UNL     1      -1.629 -21.485  48.432  1.00  0.00     0.006 C 
BRANCH   5   6
ATOM      6  C   UNL     1      -0.292 -21.788  49.123  1.00  0.00     0.053 C 
BRANCH   6   7
ATOM      7  C   UNL     1      -0.528 -22.342  50.493  1.00  0.00     0.041 C 
ATOM      8  O   UNL     1       0.447 -22.657  51.225  1.00  0.00    -0.550 OA
ATOM      9  O   UNL     1      -1.825 -22.556  50.944  1.00  0.00    -0.550 OA
ENDBRANCH   6   7
ENDBRANCH   5   6
ENDBRANCH   4   5
ENDBRANCH   3   4
ENDBRANCH   2   3
ENDBRANCH   1   2
BRANCH   1  10
ATOM     10  C   UNL     1      -2.317 -25.405  46.807  1.00  0.00     0.027 C 
BRANCH  10  11
ATOM     11  C   UNL     1      -2.409 -25.019  48.263  1.00  0.00    -0.031 C 
ATOM     12  C   UNL     1      -3.552 -24.701  48.901  1.00  0.00    -0.031 C 
BRANCH  12  13
ATOM     13  C   UNL     1      -4.903 -24.581  48.237  1.00  0.00     0.027 C 
BRANCH  13  14
ATOM     14  C   UNL     1      -5.657 -23.316  48.683  1.00  0.00     0.004 C 
BRANCH  14  15
ATOM     15  C   UNL     1      -5.242 -22.035  47.934  1.00  0.00     0.000 C 
BRANCH  15  16
ATOM     16  C   UNL     1      -5.339 -20.776  48.812  1.00  0.00    -0.000 C 
BRANCH  16  17
ATOM     17  C   UNL     1      -4.875 -21.028  50.256  1.00  0.00    -0.003 C 
ATOM     18  C   UNL     1      -4.582 -19.737  51.020  1.00  0.00     0.004 C 
ENDBRANCH  16  17
ENDBRANCH  15  16
ENDBRANCH  14  15
ENDBRANCH  13  14
ENDBRANCH  12  13
ENDBRANCH  10  11
ENDBRANCH   1  10
TORSDOF 13
ENDMDL
