MODEL 1
REMARK VINA RESULT:    -1.117      0.000      0.000
REMARK INTER + INTRA:          -3.932
REMARK INTER:                  -2.424
REMARK INTRA:                  -1.508
REMARK UNBOUND:                -1.508
REMARK SMILES CCCCCCCCCCCCCCCCCCCCCC(=O)[O-]
REMARK SMILES IDX 12 1 11 2 10 3 9 4 8 5 7 6 6 7 5 8 4 9 3 10 2 11 1 12 13 13
REMARK SMILES IDX 14 14 15 15 16 16 17 17 18 18 19 19 20 20 21 21 22 22 23 23
REMARK SMILES IDX 24 24
REMARK H PARENT
REMARK Flexibility Score: inf
ROOT
ATOM      1  C   UNL     1      13.507   7.758  15.763  1.00  0.00     0.000 C 
ENDROOT
BRANCH   1   2
ATOM      2  C   UNL     1      13.071   8.833  14.752  1.00  0.00     0.000 C 
BRANCH   2   3
ATOM      3  C   UNL     1      13.044  10.240  15.366  1.00  0.00     0.000 C 
BRANCH   3   4
ATOM      4  C   UNL     1      11.962  11.136  14.738  1.00  0.00    -0.000 C 
BRANCH   4   5
ATOM      5  C   UNL     1      11.983  12.574  15.287  1.00  0.00    -0.000 C 
BRANCH   5   6
ATOM      6  C   UNL     1      13.325  13.017  15.898  1.00  0.00    -0.000 C 
BRANCH   6   7
ATOM      7  C   UNL     1      13.714  14.453  15.517  1.00  0.00    -0.000 C 
BRANCH   7   8
ATOM      8  C   UNL     1      12.682  15.069  14.564  1.00  0.00    -0.000 C 
BRANCH   8   9
ATOM      9  C   UNL     1      13.360  15.614  13.299  1.00  0.00    -0.000 C 
BRANCH   9  10
ATOM     10  C   UNL     1      12.936  14.868  12.021  1.00  0.00    -0.000 C 
BRANCH  10  11
ATOM     11  C   UNL     1      12.876  13.336  12.157  1.00  0.00    -0.003 C 
ATOM     12  C   UNL     1      11.656  12.722  11.469  1.00  0.00     0.004 C 
ENDBRANCH  10  11
ENDBRANCH   9  10
ENDBRANCH   8   9
ENDBRANCH   7   8
ENDBRANCH   6   7
ENDBRANCH   5   6
ENDBRANCH   4   5
ENDBRANCH   3   4
ENDBRANCH   2   3
ENDBRANCH   1   2
BRANCH   1  13
ATOM     13  C   UNL     1      12.315   7.090  16.465  1.00  0.00     0.000 C 
BRANCH  13  14
ATOM     14  C   UNL     1      12.604   6.762  17.940  1.00  0.00     0.000 C 
BRANCH  14  15
ATOM     15  C   UNL     1      13.064   5.301  18.132  1.00  0.00     0.000 C 
BRANCH  15  16
ATOM     16  C   UNL     1      12.884   4.427  16.878  1.00  0.00     0.000 C 
BRANCH  16  17
ATOM     17  C   UNL     1      14.036   3.433  16.672  1.00  0.00     0.000 C 
BRANCH  17  18
ATOM     18  C   UNL     1      15.160   4.004  15.792  1.00  0.00     0.000 C 
BRANCH  18  19
ATOM     19  C   UNL     1      14.632   4.965  14.711  1.00  0.00     0.000 C 
BRANCH  19  20
ATOM     20  C   UNL     1      15.401   4.835  13.386  1.00  0.00     0.006 C 
BRANCH  20  21
ATOM     21  C   UNL     1      16.922   4.842  13.588  1.00  0.00     0.053 C 
BRANCH  21  22
ATOM     22  C   UNL     1      17.584   3.946  12.590  1.00  0.00     0.041 C 
ATOM     23  O   UNL     1      17.051   3.743  11.467  1.00  0.00    -0.550 OA
ATOM     24  O   UNL     1      18.818   3.375  12.879  1.00  0.00    -0.550 OA
ENDBRANCH  21  22
ENDBRANCH  20  21
ENDBRANCH  19  20
ENDBRANCH  18  19
ENDBRANCH  17  18
ENDBRANCH  16  17
ENDBRANCH  15  16
ENDBRANCH  14  15
ENDBRANCH  13  14
ENDBRANCH   1  13
TORSDOF 20
ENDMDL
MODEL 2
REMARK VINA RESULT:    -0.936      3.640      9.160
REMARK INTER + INTRA:          -3.539
REMARK INTER:                  -2.113
REMARK INTRA:                  -1.426
REMARK UNBOUND:                -1.508
REMARK SMILES CCCCCCCCCCCCCCCCCCCCCC(=O)[O-]
REMARK SMILES IDX 12 1 11 2 10 3 9 4 8 5 7 6 6 7 5 8 4 9 3 10 2 11 1 12 13 13
REMARK SMILES IDX 14 14 15 15 16 16 17 17 18 18 19 19 20 20 21 21 22 22 23 23
REMARK SMILES IDX 24 24
REMARK H PARENT
REMARK Flexibility Score: inf
ROOT
ATOM      1  C   UNL     1      12.571   6.794  17.940  1.00  0.00     0.000 C 
ENDROOT
BRANCH   1   2
ATOM      2  C   UNL     1      13.017   5.336  18.143  1.00  0.00     0.000 C 
BRANCH   2   3
ATOM      3  C   UNL     1      12.833   4.485  16.877  1.00  0.00     0.000 C 
BRANCH   3   4
ATOM      4  C   UNL     1      14.004   3.514  16.647  1.00  0.00    -0.000 C 
BRANCH   4   5
ATOM      5  C   UNL     1      14.968   3.989  15.544  1.00  0.00    -0.000 C 
BRANCH   5   6
ATOM      6  C   UNL     1      14.392   5.056  14.594  1.00  0.00    -0.000 C 
BRANCH   6   7
ATOM      7  C   UNL     1      15.179   5.180  13.281  1.00  0.00    -0.000 C 
BRANCH   7   8
ATOM      8  C   UNL     1      14.317   4.768  12.082  1.00  0.00    -0.000 C 
BRANCH   8   9
ATOM      9  C   UNL     1      15.194   4.320  10.904  1.00  0.00    -0.000 C 
BRANCH   9  10
ATOM     10  C   UNL     1      16.198   3.218  11.286  1.00  0.00    -0.000 C 
BRANCH  10  11
ATOM     11  C   UNL     1      17.667   3.675  11.346  1.00  0.00    -0.003 C 
ATOM     12  C   UNL     1      18.258   3.604  12.754  1.00  0.00     0.004 C 
ENDBRANCH  10  11
ENDBRANCH   9  10
ENDBRANCH   8   9
ENDBRANCH   7   8
ENDBRANCH   6   7
ENDBRANCH   5   6
ENDBRANCH   4   5
ENDBRANCH   3   4
ENDBRANCH   2   3
ENDBRANCH   1   2
BRANCH   1  13
ATOM     13  C   UNL     1      12.444   7.172  16.457  1.00  0.00     0.000 C 
BRANCH  13  14
ATOM     14  C   UNL     1      13.644   7.991  15.949  1.00  0.00     0.000 C 
BRANCH  14  15
ATOM     15  C   UNL     1      13.240   8.993  14.847  1.00  0.00     0.000 C 
BRANCH  15  16
ATOM     16  C   UNL     1      12.381  10.162  15.361  1.00  0.00     0.000 C 
BRANCH  16  17
ATOM     17  C   UNL     1      12.462  11.404  14.459  1.00  0.00     0.000 C 
BRANCH  17  18
ATOM     18  C   UNL     1      12.148  12.704  15.216  1.00  0.00     0.000 C 
BRANCH  18  19
ATOM     19  C   UNL     1      13.401  13.336  15.850  1.00  0.00     0.000 C 
BRANCH  19  20
ATOM     20  C   UNL     1      13.931  14.528  15.035  1.00  0.00     0.006 C 
BRANCH  20  21
ATOM     21  C   UNL     1      12.817  15.263  14.278  1.00  0.00     0.053 C 
BRANCH  21  22
ATOM     22  C   UNL     1      13.144  15.345  12.821  1.00  0.00     0.041 C 
ATOM     23  O   UNL     1      13.735  16.357  12.359  1.00  0.00    -0.550 OA
ATOM     24  O   UNL     1      12.842  14.281  11.980  1.00  0.00    -0.550 OA
ENDBRANCH  21  22
ENDBRANCH  20  21
ENDBRANCH  19  20
ENDBRANCH  18  19
ENDBRANCH  17  18
ENDBRANCH  16  17
ENDBRANCH  15  16
ENDBRANCH  14  15
ENDBRANCH  13  14
ENDBRANCH   1  13
TORSDOF 20
ENDMDL
MODEL 3
REMARK VINA RESULT:    -0.865      3.660      9.231
REMARK INTER + INTRA:          -3.383
REMARK INTER:                  -2.241
REMARK INTRA:                  -1.142
REMARK UNBOUND:                -1.508
REMARK SMILES CCCCCCCCCCCCCCCCCCCCCC(=O)[O-]
REMARK SMILES IDX 12 1 11 2 10 3 9 4 8 5 7 6 6 7 5 8 4 9 3 10 2 11 1 12 13 13
REMARK SMILES IDX 14 14 15 15 16 16 17 17 18 18 19 19 20 20 21 21 22 22 23 23
REMARK SMILES IDX 24 24
REMARK H PARENT
REMARK Flexibility Score: inf
ROOT
ATOM      1  C   UNL     1      12.322   6.235  16.929  1.00  0.00     0.000 C 
ENDROOT
BRANCH   1   2
ATOM      2  C   UNL     1      12.993   5.865  18.263  1.00  0.00     0.000 C 
BRANCH   2   3
ATOM      3  C   UNL     1      12.188   4.823  19.054  1.00  0.00     0.000 C 
BRANCH   3   4
ATOM      4  C   UNL     1      12.509   3.381  18.623  1.00  0.00    -0.000 C 
BRANCH   4   5
ATOM      5  C   UNL     1      12.907   3.274  17.140  1.00  0.00    -0.000 C 
BRANCH   5   6
ATOM      6  C   UNL     1      14.328   2.739  16.885  1.00  0.00    -0.000 C 
BRANCH   6   7
ATOM      7  C   UNL     1      15.202   3.712  16.080  1.00  0.00    -0.000 C 
BRANCH   7   8
ATOM      8  C   UNL     1      14.377   4.435  15.008  1.00  0.00    -0.000 C 
BRANCH   8   9
ATOM      9  C   UNL     1      15.284   5.249  14.074  1.00  0.00    -0.000 C 
BRANCH   9  10
ATOM     10  C   UNL     1      15.323   4.692  12.640  1.00  0.00    -0.000 C 
BRANCH  10  11
ATOM     11  C   UNL     1      16.706   4.203  12.174  1.00  0.00    -0.003 C 
ATOM     12  C   UNL     1      17.750   4.207  13.291  1.00  0.00     0.004 C 
ENDBRANCH  10  11
ENDBRANCH   9  10
ENDBRANCH   8   9
ENDBRANCH   7   8
ENDBRANCH   6   7
ENDBRANCH   5   6
ENDBRANCH   4   5
ENDBRANCH   3   4
ENDBRANCH   2   3
ENDBRANCH   1   2
BRANCH   1  13
ATOM     13  C   UNL     1      12.446   7.731  16.600  1.00  0.00     0.000 C 
BRANCH  13  14
ATOM     14  C   UNL     1      13.387   8.000  15.413  1.00  0.00     0.000 C 
BRANCH  14  15
ATOM     15  C   UNL     1      13.534   9.508  15.117  1.00  0.00     0.000 C 
BRANCH  15  16
ATOM     16  C   UNL     1      12.215  10.189  14.711  1.00  0.00     0.000 C 
BRANCH  16  17
ATOM     17  C   UNL     1      12.407  11.650  14.274  1.00  0.00     0.000 C 
BRANCH  17  18
ATOM     18  C   UNL     1      12.166  12.645  15.421  1.00  0.00     0.000 C 
BRANCH  18  19
ATOM     19  C   UNL     1      13.256  13.728  15.502  1.00  0.00     0.000 C 
BRANCH  19  20
ATOM     20  C   UNL     1      12.791  15.072  14.918  1.00  0.00     0.006 C 
BRANCH  20  21
ATOM     21  C   UNL     1      13.762  15.620  13.863  1.00  0.00     0.053 C 
BRANCH  21  22
ATOM     22  C   UNL     1      13.233  15.366  12.487  1.00  0.00     0.041 C 
ATOM     23  O   UNL     1      12.790  14.228  12.178  1.00  0.00    -0.550 OA
ATOM     24  O   UNL     1      13.182  16.400  11.560  1.00  0.00    -0.550 OA
ENDBRANCH  21  22
ENDBRANCH  20  21
ENDBRANCH  19  20
ENDBRANCH  18  19
ENDBRANCH  17  18
ENDBRANCH  16  17
ENDBRANCH  15  16
ENDBRANCH  14  15
ENDBRANCH  13  14
ENDBRANCH   1  13
TORSDOF 20
ENDMDL
MODEL 4
REMARK VINA RESULT:    -0.760      3.598      5.005
REMARK INTER + INTRA:          -3.157
REMARK INTER:                  -1.801
REMARK INTRA:                  -1.355
REMARK UNBOUND:                -1.508
REMARK SMILES CCCCCCCCCCCCCCCCCCCCCC(=O)[O-]
REMARK SMILES IDX 12 1 11 2 10 3 9 4 8 5 7 6 6 7 5 8 4 9 3 10 2 11 1 12 13 13
REMARK SMILES IDX 14 14 15 15 16 16 17 17 18 18 19 19 20 20 21 21 22 22 23 23
REMARK SMILES IDX 24 24
REMARK H PARENT
REMARK Flexibility Score: inf
ROOT
ATOM      1  C   UNL     1      13.180   8.682  15.414  1.00  0.00     0.000 C 
ENDROOT
BRANCH   1   2
ATOM      2  C   UNL     1      13.301  10.112  14.858  1.00  0.00     0.000 C 
BRANCH   2   3
ATOM      3  C   UNL     1      11.936  10.798  14.702  1.00  0.00     0.000 C 
BRANCH   3   4
ATOM      4  C   UNL     1      12.003  12.310  14.974  1.00  0.00    -0.000 C 
BRANCH   4   5
ATOM      5  C   UNL     1      13.276  12.725  15.736  1.00  0.00    -0.000 C 
BRANCH   5   6
ATOM      6  C   UNL     1      13.668  14.207  15.587  1.00  0.00    -0.000 C 
BRANCH   6   7
ATOM      7  C   UNL     1      12.810  14.955  14.554  1.00  0.00    -0.000 C 
BRANCH   7   8
ATOM      8  C   UNL     1      13.657  15.951  13.754  1.00  0.00    -0.000 C 
BRANCH   8   9
ATOM      9  C   UNL     1      13.294  15.906  12.263  1.00  0.00    -0.000 C 
BRANCH   9  10
ATOM     10  C   UNL     1      12.201  14.872  11.940  1.00  0.00    -0.000 C 
BRANCH  10  11
ATOM     11  C   UNL     1      12.719  13.450  11.659  1.00  0.00    -0.003 C 
ATOM     12  C   UNL     1      11.597  12.420  11.523  1.00  0.00     0.004 C 
ENDBRANCH  10  11
ENDBRANCH   9  10
ENDBRANCH   8   9
ENDBRANCH   7   8
ENDBRANCH   6   7
ENDBRANCH   5   6
ENDBRANCH   4   5
ENDBRANCH   3   4
ENDBRANCH   2   3
ENDBRANCH   1   2
BRANCH   1  13
ATOM     13  C   UNL     1      14.345   7.779  14.982  1.00  0.00     0.000 C 
BRANCH  13  14
ATOM     14  C   UNL     1      13.870   6.432  14.411  1.00  0.00     0.000 C 
BRANCH  14  15
ATOM     15  C   UNL     1      14.663   5.241  14.991  1.00  0.00     0.000 C 
BRANCH  15  16
ATOM     16  C   UNL     1      14.025   4.632  16.252  1.00  0.00     0.000 C 
BRANCH  16  17
ATOM     17  C   UNL     1      12.658   5.248  16.588  1.00  0.00     0.000 C 
BRANCH  17  18
ATOM     18  C   UNL     1      12.718   6.192  17.800  1.00  0.00     0.000 C 
BRANCH  18  19
ATOM     19  C   UNL     1      12.921   5.437  19.126  1.00  0.00     0.000 C 
BRANCH  19  20
ATOM     20  C   UNL     1      11.622   4.791  19.637  1.00  0.00     0.006 C 
BRANCH  20  21
ATOM     21  C   UNL     1      11.793   3.298  19.947  1.00  0.00     0.053 C 
BRANCH  21  22
ATOM     22  C   UNL     1      11.890   3.080  21.424  1.00  0.00     0.041 C 
ATOM     23  O   UNL     1      11.823   1.916  21.900  1.00  0.00    -0.550 OA
ATOM     24  O   UNL     1      12.105   4.160  22.272  1.00  0.00    -0.550 OA
ENDBRANCH  21  22
ENDBRANCH  20  21
ENDBRANCH  19  20
ENDBRANCH  18  19
ENDBRANCH  17  18
ENDBRANCH  16  17
ENDBRANCH  15  16
ENDBRANCH  14  15
ENDBRANCH  13  14
ENDBRANCH   1  13
TORSDOF 20
ENDMDL
MODEL 5
REMARK VINA RESULT:    -0.707      1.063      2.418
REMARK INTER + INTRA:          -3.042
REMARK INTER:                  -1.413
REMARK INTRA:                  -1.629
REMARK UNBOUND:                -1.508
REMARK SMILES CCCCCCCCCCCCCCCCCCCCCC(=O)[O-]
REMARK SMILES IDX 12 1 11 2 10 3 9 4 8 5 7 6 6 7 5 8 4 9 3 10 2 11 1 12 13 13
REMARK SMILES IDX 14 14 15 15 16 16 17 17 18 18 19 19 20 20 21 21 22 22 23 23
REMARK SMILES IDX 24 24
REMARK H PARENT
REMARK Flexibility Score: inf
ROOT
ATOM      1  C   UNL     1      12.242   6.651  18.132  1.00  0.00     0.000 C 
ENDROOT
BRANCH   1   2
ATOM      2  C   UNL     1      12.370   6.714  16.600  1.00  0.00     0.000 C 
BRANCH   2   3
ATOM      3  C   UNL     1      13.765   7.170  16.148  1.00  0.00     0.000 C 
BRANCH   3   4
ATOM      4  C   UNL     1      13.706   8.174  14.983  1.00  0.00    -0.000 C 
BRANCH   4   5
ATOM      5  C   UNL     1      12.593   9.224  15.154  1.00  0.00    -0.000 C 
BRANCH   5   6
ATOM      6  C   UNL     1      13.050  10.686  14.995  1.00  0.00    -0.000 C 
BRANCH   6   7
ATOM      7  C   UNL     1      11.942  11.608  14.463  1.00  0.00    -0.000 C 
BRANCH   7   8
ATOM      8  C   UNL     1      11.878  12.912  15.268  1.00  0.00    -0.000 C 
BRANCH   8   9
ATOM      9  C   UNL     1      13.242  13.615  15.286  1.00  0.00    -0.000 C 
BRANCH   9  10
ATOM     10  C   UNL     1      13.214  15.000  14.615  1.00  0.00    -0.000 C 
BRANCH  10  11
ATOM     11  C   UNL     1      13.146  14.972  13.077  1.00  0.00    -0.003 C 
ATOM     12  C   UNL     1      13.659  16.259  12.432  1.00  0.00     0.004 C 
ENDBRANCH  10  11
ENDBRANCH   9  10
ENDBRANCH   8   9
ENDBRANCH   7   8
ENDBRANCH   6   7
ENDBRANCH   5   6
ENDBRANCH   4   5
ENDBRANCH   3   4
ENDBRANCH   2   3
ENDBRANCH   1   2
BRANCH   1  13
ATOM     13  C   UNL     1      13.070   5.513  18.748  1.00  0.00     0.000 C 
BRANCH  13  14
ATOM     14  C   UNL     1      12.206   4.311  19.168  1.00  0.00     0.000 C 
BRANCH  14  15
ATOM     15  C   UNL     1      12.552   3.037  18.368  1.00  0.00     0.000 C 
BRANCH  15  16
ATOM     16  C   UNL     1      13.037   3.321  16.935  1.00  0.00     0.000 C 
BRANCH  16  17
ATOM     17  C   UNL     1      14.499   2.905  16.706  1.00  0.00     0.000 C 
BRANCH  17  18
ATOM     18  C   UNL     1      15.299   3.963  15.928  1.00  0.00     0.000 C 
BRANCH  18  19
ATOM     19  C   UNL     1      14.593   4.402  14.633  1.00  0.00     0.000 C 
BRANCH  19  20
ATOM     20  C   UNL     1      15.522   5.200  13.702  1.00  0.00     0.006 C 
BRANCH  20  21
ATOM     21  C   UNL     1      15.961   4.388  12.477  1.00  0.00     0.053 C 
BRANCH  21  22
ATOM     22  C   UNL     1      17.405   4.014  12.590  1.00  0.00     0.041 C 
ATOM     23  O   UNL     1      18.042   3.625  11.576  1.00  0.00    -0.550 OA
ATOM     24  O   UNL     1      18.062   4.143  13.808  1.00  0.00    -0.550 OA
ENDBRANCH  21  22
ENDBRANCH  20  21
ENDBRANCH  19  20
ENDBRANCH  18  19
ENDBRANCH  17  18
ENDBRANCH  16  17
ENDBRANCH  15  16
ENDBRANCH  14  15
ENDBRANCH  13  14
ENDBRANCH   1  13
TORSDOF 20
ENDMDL
MODEL 6
REMARK VINA RESULT:    -0.502      3.036      8.953
REMARK INTER + INTRA:          -2.596
REMARK INTER:                  -0.990
REMARK INTRA:                  -1.606
REMARK UNBOUND:                -1.508
REMARK SMILES CCCCCCCCCCCCCCCCCCCCCC(=O)[O-]
REMARK SMILES IDX 12 1 11 2 10 3 9 4 8 5 7 6 6 7 5 8 4 9 3 10 2 11 1 12 13 13
REMARK SMILES IDX 14 14 15 15 16 16 17 17 18 18 19 19 20 20 21 21 22 22 23 23
REMARK SMILES IDX 24 24
REMARK H PARENT
REMARK Flexibility Score: inf
ROOT
ATOM      1  C   UNL     1      12.509   8.024  16.726  1.00  0.00     0.000 C 
ENDROOT
BRANCH   1   2
ATOM      2  C   UNL     1      12.341   6.501  16.868  1.00  0.00     0.000 C 
BRANCH   2   3
ATOM      3  C   UNL     1      12.806   5.986  18.239  1.00  0.00     0.000 C 
BRANCH   3   4
ATOM      4  C   UNL     1      12.918   4.452  18.283  1.00  0.00    -0.000 C 
BRANCH   4   5
ATOM      5  C   UNL     1      12.987   3.816  16.883  1.00  0.00    -0.000 C 
BRANCH   5   6
ATOM      6  C   UNL     1      14.377   3.296  16.474  1.00  0.00    -0.000 C 
BRANCH   6   7
ATOM      7  C   UNL     1      15.215   4.343  15.726  1.00  0.00    -0.000 C 
BRANCH   7   8
ATOM      8  C   UNL     1      14.411   4.982  14.588  1.00  0.00    -0.000 C 
BRANCH   8   9
ATOM      9  C   UNL     1      15.313   5.298  13.387  1.00  0.00    -0.000 C 
BRANCH   9  10
ATOM     10  C   UNL     1      14.796   4.693  12.070  1.00  0.00    -0.000 C 
BRANCH  10  11
ATOM     11  C   UNL     1      15.884   4.088  11.165  1.00  0.00    -0.003 C 
ATOM     12  C   UNL     1      17.175   3.762  11.916  1.00  0.00     0.004 C 
ENDBRANCH  10  11
ENDBRANCH   9  10
ENDBRANCH   8   9
ENDBRANCH   7   8
ENDBRANCH   6   7
ENDBRANCH   5   6
ENDBRANCH   4   5
ENDBRANCH   3   4
ENDBRANCH   2   3
ENDBRANCH   1   2
BRANCH   1  13
ATOM     13  C   UNL     1      13.098   8.428  15.366  1.00  0.00     0.000 C 
BRANCH  13  14
ATOM     14  C   UNL     1      12.523   9.756  14.842  1.00  0.00     0.000 C 
BRANCH  14  15
ATOM     15  C   UNL     1      13.437  10.956  15.168  1.00  0.00     0.000 C 
BRANCH  15  16
ATOM     16  C   UNL     1      12.670  12.268  15.411  1.00  0.00     0.000 C 
BRANCH  16  17
ATOM     17  C   UNL     1      13.573  13.509  15.340  1.00  0.00     0.000 C 
BRANCH  17  18
ATOM     18  C   UNL     1      12.774  14.822  15.349  1.00  0.00     0.000 C 
BRANCH  18  19
ATOM     19  C   UNL     1      12.833  15.559  13.999  1.00  0.00     0.000 C 
BRANCH  19  20
ATOM     20  C   UNL     1      13.398  14.677  12.874  1.00  0.00     0.006 C 
BRANCH  20  21
ATOM     21  C   UNL     1      12.344  14.332  11.814  1.00  0.00     0.053 C 
BRANCH  21  22
ATOM     22  C   UNL     1      12.178  12.849  11.707  1.00  0.00     0.041 C 
ATOM     23  O   UNL     1      12.901  12.184  10.920  1.00  0.00    -0.550 OA
ATOM     24  O   UNL     1      11.257  12.194  12.516  1.00  0.00    -0.550 OA
ENDBRANCH  21  22
ENDBRANCH  20  21
ENDBRANCH  19  20
ENDBRANCH  18  19
ENDBRANCH  17  18
ENDBRANCH  16  17
ENDBRANCH  15  16
ENDBRANCH  14  15
ENDBRANCH  13  14
ENDBRANCH   1  13
TORSDOF 20
ENDMDL
MODEL 7
REMARK VINA RESULT:    -0.439      1.195      1.935
REMARK INTER + INTRA:          -2.461
REMARK INTER:                  -0.866
REMARK INTRA:                  -1.595
REMARK UNBOUND:                -1.508
REMARK SMILES CCCCCCCCCCCCCCCCCCCCCC(=O)[O-]
REMARK SMILES IDX 12 1 11 2 10 3 9 4 8 5 7 6 6 7 5 8 4 9 3 10 2 11 1 12 13 13
REMARK SMILES IDX 14 14 15 15 16 16 17 17 18 18 19 19 20 20 21 21 22 22 23 23
REMARK SMILES IDX 24 24
REMARK H PARENT
REMARK Flexibility Score: inf
ROOT
ATOM      1  C   UNL     1      12.469   6.765  16.502  1.00  0.00     0.000 C 
ENDROOT
BRANCH   1   2
ATOM      2  C   UNL     1      13.656   7.553  15.923  1.00  0.00     0.000 C 
BRANCH   2   3
ATOM      3  C   UNL     1      13.230   8.517  14.805  1.00  0.00     0.000 C 
BRANCH   3   4
ATOM      4  C   UNL     1      12.976   9.943  15.322  1.00  0.00    -0.000 C 
BRANCH   4   5
ATOM      5  C   UNL     1      12.201  10.815  14.317  1.00  0.00    -0.000 C 
BRANCH   5   6
ATOM      6  C   UNL     1      12.165  12.317  14.654  1.00  0.00    -0.000 C 
BRANCH   6   7
ATOM      7  C   UNL     1      13.160  12.711  15.756  1.00  0.00    -0.000 C 
BRANCH   7   8
ATOM      8  C   UNL     1      13.488  14.207  15.693  1.00  0.00    -0.000 C 
BRANCH   8   9
ATOM      9  C   UNL     1      12.750  14.883  14.529  1.00  0.00    -0.000 C 
BRANCH   9  10
ATOM     10  C   UNL     1      13.583  15.982  13.845  1.00  0.00    -0.000 C 
BRANCH  10  11
ATOM     11  C   UNL     1      13.425  16.055  12.316  1.00  0.00    -0.003 C 
ATOM     12  C   UNL     1      12.487  14.986  11.759  1.00  0.00     0.004 C 
ENDBRANCH  10  11
ENDBRANCH   9  10
ENDBRANCH   8   9
ENDBRANCH   7   8
ENDBRANCH   6   7
ENDBRANCH   5   6
ENDBRANCH   4   5
ENDBRANCH   3   4
ENDBRANCH   2   3
ENDBRANCH   1   2
BRANCH   1  13
ATOM     13  C   UNL     1      12.397   6.845  18.034  1.00  0.00     0.000 C 
BRANCH  13  14
ATOM     14  C   UNL     1      13.222   5.745  18.724  1.00  0.00     0.000 C 
BRANCH  14  15
ATOM     15  C   UNL     1      12.415   4.442  18.911  1.00  0.00     0.000 C 
BRANCH  15  16
ATOM     16  C   UNL     1      12.942   3.264  18.072  1.00  0.00     0.000 C 
BRANCH  16  17
ATOM     17  C   UNL     1      13.178   3.637  16.601  1.00  0.00     0.000 C 
BRANCH  17  18
ATOM     18  C   UNL     1      14.580   3.241  16.109  1.00  0.00     0.000 C 
BRANCH  18  19
ATOM     19  C   UNL     1      15.298   4.393  15.383  1.00  0.00     0.000 C 
BRANCH  19  20
ATOM     20  C   UNL     1      14.611   4.771  14.060  1.00  0.00     0.006 C 
BRANCH  20  21
ATOM     21  C   UNL     1      15.618   5.059  12.939  1.00  0.00     0.053 C 
BRANCH  21  22
ATOM     22  C   UNL     1      15.189   4.391  11.670  1.00  0.00     0.041 C 
ATOM     23  O   UNL     1      14.023   4.560  11.226  1.00  0.00    -0.550 OA
ATOM     24  O   UNL     1      16.095   3.621  10.951  1.00  0.00    -0.550 OA
ENDBRANCH  21  22
ENDBRANCH  20  21
ENDBRANCH  19  20
ENDBRANCH  18  19
ENDBRANCH  17  18
ENDBRANCH  16  17
ENDBRANCH  15  16
ENDBRANCH  14  15
ENDBRANCH  13  14
ENDBRANCH   1  13
TORSDOF 20
ENDMDL
MODEL 8
REMARK VINA RESULT:    -0.411      1.208      2.900
REMARK INTER + INTRA:          -2.400
REMARK INTER:                  -0.706
REMARK INTRA:                  -1.693
REMARK UNBOUND:                -1.508
REMARK SMILES CCCCCCCCCCCCCCCCCCCCCC(=O)[O-]
REMARK SMILES IDX 12 1 11 2 10 3 9 4 8 5 7 6 6 7 5 8 4 9 3 10 2 11 1 12 13 13
REMARK SMILES IDX 14 14 15 15 16 16 17 17 18 18 19 19 20 20 21 21 22 22 23 23
REMARK SMILES IDX 24 24
REMARK H PARENT
REMARK Flexibility Score: inf
ROOT
ATOM      1  C   UNL     1      12.872   5.631  18.184  1.00  0.00     0.000 C 
ENDROOT
BRANCH   1   2
ATOM      2  C   UNL     1      12.295   6.284  16.916  1.00  0.00     0.000 C 
BRANCH   2   3
ATOM      3  C   UNL     1      12.858   7.693  16.674  1.00  0.00     0.000 C 
BRANCH   3   4
ATOM      4  C   UNL     1      13.338   7.893  15.226  1.00  0.00    -0.000 C 
BRANCH   4   5
ATOM      5  C   UNL     1      13.650   9.365  14.898  1.00  0.00    -0.000 C 
BRANCH   5   6
ATOM      6  C   UNL     1      12.560  10.369  15.316  1.00  0.00    -0.000 C 
BRANCH   6   7
ATOM      7  C   UNL     1      12.414  11.541  14.334  1.00  0.00    -0.000 C 
BRANCH   7   8
ATOM      8  C   UNL     1      11.786  12.760  15.021  1.00  0.00    -0.000 C 
BRANCH   8   9
ATOM      9  C   UNL     1      12.869  13.699  15.570  1.00  0.00    -0.000 C 
BRANCH   9  10
ATOM     10  C   UNL     1      13.727  14.339  14.464  1.00  0.00    -0.000 C 
BRANCH  10  11
ATOM     11  C   UNL     1      13.111  15.588  13.809  1.00  0.00    -0.003 C 
ATOM     12  C   UNL     1      13.161  15.550  12.282  1.00  0.00     0.004 C 
ENDBRANCH  10  11
ENDBRANCH   9  10
ENDBRANCH   8   9
ENDBRANCH   7   8
ENDBRANCH   6   7
ENDBRANCH   5   6
ENDBRANCH   4   5
ENDBRANCH   3   4
ENDBRANCH   2   3
ENDBRANCH   1   2
BRANCH   1  13
ATOM     13  C   UNL     1      12.869   4.097  18.112  1.00  0.00     0.000 C 
BRANCH  13  14
ATOM     14  C   UNL     1      13.214   3.570  16.708  1.00  0.00     0.000 C 
BRANCH  14  15
ATOM     15  C   UNL     1      14.734   3.375  16.517  1.00  0.00     0.000 C 
BRANCH  15  16
ATOM     16  C   UNL     1      15.353   4.331  15.482  1.00  0.00     0.000 C 
BRANCH  16  17
ATOM     17  C   UNL     1      14.360   4.748  14.385  1.00  0.00     0.000 C 
BRANCH  17  18
ATOM     18  C   UNL     1      15.060   5.320  13.142  1.00  0.00     0.000 C 
BRANCH  18  19
ATOM     19  C   UNL     1      14.592   4.647  11.839  1.00  0.00     0.000 C 
BRANCH  19  20
ATOM     20  C   UNL     1      15.768   4.188  10.961  1.00  0.00     0.006 C 
BRANCH  20  21
ATOM     21  C   UNL     1      16.597   3.080  11.625  1.00  0.00     0.053 C 
BRANCH  21  22
ATOM     22  C   UNL     1      17.959   3.588  11.977  1.00  0.00     0.041 C 
ATOM     23  O   UNL     1      18.923   3.420  11.186  1.00  0.00    -0.550 OA
ATOM     24  O   UNL     1      18.152   4.294  13.159  1.00  0.00    -0.550 OA
ENDBRANCH  21  22
ENDBRANCH  20  21
ENDBRANCH  19  20
ENDBRANCH  18  19
ENDBRANCH  17  18
ENDBRANCH  16  17
ENDBRANCH  15  16
ENDBRANCH  14  15
ENDBRANCH  13  14
ENDBRANCH   1  13
TORSDOF 20
ENDMDL
MODEL 9
REMARK VINA RESULT:    -0.324      4.609      9.586
REMARK INTER + INTRA:          -2.211
REMARK INTER:                  -1.728
REMARK INTRA:                  -0.484
REMARK UNBOUND:                -1.508
REMARK SMILES CCCCCCCCCCCCCCCCCCCCCC(=O)[O-]
REMARK SMILES IDX 12 1 11 2 10 3 9 4 8 5 7 6 6 7 5 8 4 9 3 10 2 11 1 12 13 13
REMARK SMILES IDX 14 14 15 15 16 16 17 17 18 18 19 19 20 20 21 21 22 22 23 23
REMARK SMILES IDX 24 24
REMARK H PARENT
REMARK Flexibility Score: inf
ROOT
ATOM      1  C   UNL     1      13.357   5.449  15.829  1.00  0.00     0.000 C 
ENDROOT
BRANCH   1   2
ATOM      2  C   UNL     1      13.889   4.169  16.497  1.00  0.00     0.000 C 
BRANCH   2   3
ATOM      3  C   UNL     1      12.869   3.544  17.461  1.00  0.00     0.000 C 
BRANCH   3   4
ATOM      4  C   UNL     1      12.572   4.448  18.670  1.00  0.00    -0.000 C 
BRANCH   4   5
ATOM      5  C   UNL     1      12.750   5.945  18.355  1.00  0.00    -0.000 C 
BRANCH   5   6
ATOM      6  C   UNL     1      13.561   6.736  19.399  1.00  0.00    -0.000 C 
BRANCH   6   7
ATOM      7  C   UNL     1      15.078   6.625  19.191  1.00  0.00    -0.000 C 
BRANCH   7   8
ATOM      8  C   UNL     1      15.842   7.225  20.377  1.00  0.00    -0.000 C 
BRANCH   8   9
ATOM      9  C   UNL     1      16.888   6.237  20.914  1.00  0.00    -0.000 C 
BRANCH   9  10
ATOM     10  C   UNL     1      16.802   6.040  22.438  1.00  0.00    -0.000 C 
BRANCH  10  11
ATOM     11  C   UNL     1      17.545   4.802  22.972  1.00  0.00    -0.003 C 
ATOM     12  C   UNL     1      18.983   5.101  23.395  1.00  0.00     0.004 C 
ENDBRANCH  10  11
ENDBRANCH   9  10
ENDBRANCH   8   9
ENDBRANCH   7   8
ENDBRANCH   6   7
ENDBRANCH   5   6
ENDBRANCH   4   5
ENDBRANCH   3   4
ENDBRANCH   2   3
ENDBRANCH   1   2
BRANCH   1  13
ATOM     13  C   UNL     1      14.288   5.970  14.725  1.00  0.00     0.000 C 
BRANCH  13  14
ATOM     14  C   UNL     1      14.399   7.504  14.718  1.00  0.00     0.000 C 
BRANCH  14  15
ATOM     15  C   UNL     1      13.173   8.179  15.368  1.00  0.00     0.000 C 
BRANCH  15  16
ATOM     16  C   UNL     1      13.252   9.716  15.388  1.00  0.00     0.000 C 
BRANCH  16  17
ATOM     17  C   UNL     1      12.109  10.383  14.607  1.00  0.00     0.000 C 
BRANCH  17  18
ATOM     18  C   UNL     1      12.310  11.898  14.443  1.00  0.00     0.000 C 
BRANCH  18  19
ATOM     19  C   UNL     1      12.872  12.560  15.714  1.00  0.00     0.000 C 
BRANCH  19  20
ATOM     20  C   UNL     1      13.648  13.852  15.408  1.00  0.00     0.006 C 
BRANCH  20  21
ATOM     21  C   UNL     1      12.755  14.942  14.802  1.00  0.00     0.053 C 
BRANCH  21  22
ATOM     22  C   UNL     1      13.293  15.380  13.477  1.00  0.00     0.041 C 
ATOM     23  O   UNL     1      14.001  16.418  13.391  1.00  0.00    -0.550 OA
ATOM     24  O   UNL     1      13.055  14.613  12.343  1.00  0.00    -0.550 OA
ENDBRANCH  21  22
ENDBRANCH  20  21
ENDBRANCH  19  20
ENDBRANCH  18  19
ENDBRANCH  17  18
ENDBRANCH  16  17
ENDBRANCH  15  16
ENDBRANCH  14  15
ENDBRANCH  13  14
ENDBRANCH   1  13
TORSDOF 20
ENDMDL
