MODEL 1
REMARK VINA RESULT:    -5.359      0.000      0.000
REMARK INTER + INTRA:          -6.034
REMARK INTER:                  -5.672
REMARK INTRA:                  -0.362
REMARK UNBOUND:                -0.362
REMARK SMILES C=C(C)[C@@H]1CC[C@@H](C)[C@@]12CC=C(C)CC2
REMARK SMILES IDX 8 1 7 2 6 3 5 4 4 5 9 6 15 7 14 8 12 9 11 10 10 11 13 12
REMARK SMILES IDX 2 13 1 14 3 15
REMARK H PARENT
REMARK Flexibility Score: inf
ROOT
ATOM      1  C   UNL     1      14.125  10.029  21.416  1.00  0.00     0.008 C 
ATOM      2  C   UNL     1      14.241   8.699  22.192  1.00  0.00    -0.007 C 
ATOM      3  C   UNL     1      13.181   7.713  21.684  1.00  0.00     0.004 C 
ATOM      4  C   UNL     1      12.048   7.712  22.709  1.00  0.00     0.009 C 
ATOM      5  C   UNL     1      12.429   8.720  23.802  1.00  0.00     0.021 C 
ATOM      6  C   UNL     1      13.985   8.789  23.736  1.00  0.00    -0.017 C 
ATOM      7  C   UNL     1      14.685   7.535  24.408  1.00  0.00     0.012 C 
ATOM      8  C   UNL     1      15.933   7.862  25.259  1.00  0.00     0.031 C 
ATOM      9  C   UNL     1      16.703   9.039  24.703  1.00  0.00    -0.077 C 
ATOM     10  C   UNL     1      16.025  10.125  24.303  1.00  0.00    -0.027 C 
ATOM     11  C   UNL     1      14.523  10.117  24.350  1.00  0.00     0.035 C 
ATOM     12  C   UNL     1      18.198   8.998  24.575  1.00  0.00     0.039 C 
ENDROOT
BRANCH   5  13
ATOM     13  C   UNL     1      11.688   8.437  25.118  1.00  0.00    -0.077 C 
ATOM     14  C   UNL     1      11.253   9.388  25.967  1.00  0.00     0.008 C 
ATOM     15  C   UNL     1      11.263   7.011  25.406  1.00  0.00     0.039 C 
ENDBRANCH   5  13
TORSDOF 1
ENDMDL
MODEL 2
REMARK VINA RESULT:    -5.235     10.527     12.493
REMARK INTER + INTRA:          -5.903
REMARK INTER:                  -5.722
REMARK INTRA:                  -0.182
REMARK UNBOUND:                -0.362
REMARK SMILES C=C(C)[C@@H]1CC[C@@H](C)[C@@]12CC=C(C)CC2
REMARK SMILES IDX 8 1 7 2 6 3 5 4 4 5 9 6 15 7 14 8 12 9 11 10 10 11 13 12
REMARK SMILES IDX 2 13 1 14 3 15
REMARK H PARENT
REMARK Flexibility Score: inf
ROOT
ATOM      1  C   UNL     1       3.777   5.733  16.282  1.00  0.00     0.008 C 
ATOM      2  C   UNL     1       4.068   7.073  15.572  1.00  0.00    -0.007 C 
ATOM      3  C   UNL     1       3.729   6.949  14.080  1.00  0.00     0.004 C 
ATOM      4  C   UNL     1       5.050   6.765  13.337  1.00  0.00     0.009 C 
ATOM      5  C   UNL     1       6.163   6.749  14.394  1.00  0.00     0.021 C 
ATOM      6  C   UNL     1       5.564   7.543  15.594  1.00  0.00    -0.017 C 
ATOM      7  C   UNL     1       5.573   9.112  15.360  1.00  0.00     0.012 C 
ATOM      8  C   UNL     1       5.973   9.954  16.592  1.00  0.00     0.031 C 
ATOM      9  C   UNL     1       5.519   9.314  17.886  1.00  0.00    -0.077 C 
ATOM     10  C   UNL     1       5.699   7.995  18.053  1.00  0.00    -0.027 C 
ATOM     11  C   UNL     1       6.279   7.181  16.932  1.00  0.00     0.035 C 
ATOM     12  C   UNL     1       4.856  10.125  18.962  1.00  0.00     0.039 C 
ENDROOT
BRANCH   5  13
ATOM     13  C   UNL     1       7.528   7.109  13.788  1.00  0.00    -0.077 C 
ATOM     14  C   UNL     1       8.589   7.535  14.499  1.00  0.00     0.008 C 
ATOM     15  C   UNL     1       7.759   6.808  12.321  1.00  0.00     0.039 C 
ENDBRANCH   5  13
TORSDOF 1
ENDMDL
MODEL 3
REMARK VINA RESULT:    -5.210      1.107      3.327
REMARK INTER + INTRA:          -5.877
REMARK INTER:                  -5.736
REMARK INTRA:                  -0.141
REMARK UNBOUND:                -0.362
REMARK SMILES C=C(C)[C@@H]1CC[C@@H](C)[C@@]12CC=C(C)CC2
REMARK SMILES IDX 8 1 7 2 6 3 5 4 4 5 9 6 15 7 14 8 12 9 11 10 10 11 13 12
REMARK SMILES IDX 2 13 1 14 3 15
REMARK H PARENT
REMARK Flexibility Score: inf
ROOT
ATOM      1  C   UNL     1      13.856   6.836  26.058  1.00  0.00     0.008 C 
ATOM      2  C   UNL     1      13.847   8.272  25.489  1.00  0.00    -0.007 C 
ATOM      3  C   UNL     1      12.410   8.810  25.473  1.00  0.00     0.004 C 
ATOM      4  C   UNL     1      11.910   8.700  24.034  1.00  0.00     0.009 C 
ATOM      5  C   UNL     1      13.042   8.069  23.211  1.00  0.00     0.021 C 
ATOM      6  C   UNL     1      14.336   8.418  24.007  1.00  0.00    -0.017 C 
ATOM      7  C   UNL     1      14.796   9.923  23.805  1.00  0.00     0.012 C 
ATOM      8  C   UNL     1      16.318  10.124  23.637  1.00  0.00     0.031 C 
ATOM      9  C   UNL     1      17.113   9.118  24.441  1.00  0.00    -0.077 C 
ATOM     10  C   UNL     1      16.734   7.832  24.423  1.00  0.00    -0.027 C 
ATOM     11  C   UNL     1      15.498   7.436  23.666  1.00  0.00     0.035 C 
ATOM     12  C   UNL     1      18.292   9.543  25.267  1.00  0.00     0.039 C 
ENDROOT
BRANCH   5  13
ATOM     13  C   UNL     1      12.903   8.388  21.714  1.00  0.00    -0.077 C 
ATOM     14  C   UNL     1      12.794   7.461  20.744  1.00  0.00     0.008 C 
ATOM     15  C   UNL     1      12.704   9.835  21.309  1.00  0.00     0.039 C 
ENDBRANCH   5  13
TORSDOF 1
ENDMDL
MODEL 4
REMARK VINA RESULT:    -5.150     10.490     13.015
REMARK INTER + INTRA:          -5.814
REMARK INTER:                  -5.435
REMARK INTRA:                  -0.378
REMARK UNBOUND:                -0.362
REMARK SMILES C=C(C)[C@@H]1CC[C@@H](C)[C@@]12CC=C(C)CC2
REMARK SMILES IDX 8 1 7 2 6 3 5 4 4 5 9 6 15 7 14 8 12 9 11 10 10 11 13 12
REMARK SMILES IDX 2 13 1 14 3 15
REMARK H PARENT
REMARK Flexibility Score: inf
ROOT
ATOM      1  C   UNL     1       5.664   7.369  19.024  1.00  0.00     0.008 C 
ATOM      2  C   UNL     1       5.006   8.434  18.120  1.00  0.00    -0.007 C 
ATOM      3  C   UNL     1       4.826   9.739  18.909  1.00  0.00     0.004 C 
ATOM      4  C   UNL     1       3.358   9.809  19.324  1.00  0.00     0.009 C 
ATOM      5  C   UNL     1       2.683   8.532  18.806  1.00  0.00     0.021 C 
ATOM      6  C   UNL     1       3.568   8.090  17.601  1.00  0.00    -0.017 C 
ATOM      7  C   UNL     1       3.312   8.959  16.299  1.00  0.00     0.012 C 
ATOM      8  C   UNL     1       3.269   8.158  14.978  1.00  0.00     0.031 C 
ATOM      9  C   UNL     1       4.204   6.969  15.007  1.00  0.00    -0.077 C 
ATOM     10  C   UNL     1       4.234   6.197  16.104  1.00  0.00    -0.027 C 
ATOM     11  C   UNL     1       3.396   6.571  17.294  1.00  0.00     0.035 C 
ATOM     12  C   UNL     1       5.103   6.661  13.846  1.00  0.00     0.039 C 
ENDROOT
BRANCH   5  13
ATOM     13  C   UNL     1       1.162   8.708  18.670  1.00  0.00    -0.077 C 
ATOM     14  C   UNL     1       0.270   7.702  18.735  1.00  0.00     0.008 C 
ATOM     15  C   UNL     1       0.609  10.118  18.630  1.00  0.00     0.039 C 
ENDBRANCH   5  13
TORSDOF 1
ENDMDL
MODEL 5
REMARK VINA RESULT:    -5.085      1.549      3.464
REMARK INTER + INTRA:          -5.745
REMARK INTER:                  -5.383
REMARK INTRA:                  -0.362
REMARK UNBOUND:                -0.362
REMARK SMILES C=C(C)[C@@H]1CC[C@@H](C)[C@@]12CC=C(C)CC2
REMARK SMILES IDX 8 1 7 2 6 3 5 4 4 5 9 6 15 7 14 8 12 9 11 10 10 11 13 12
REMARK SMILES IDX 2 13 1 14 3 15
REMARK H PARENT
REMARK Flexibility Score: inf
ROOT
ATOM      1  C   UNL     1      13.718   6.130  26.827  1.00  0.00     0.008 C 
ATOM      2  C   UNL     1      13.143   7.512  26.447  1.00  0.00    -0.007 C 
ATOM      3  C   UNL     1      11.655   7.571  26.821  1.00  0.00     0.004 C 
ATOM      4  C   UNL     1      10.864   7.368  25.530  1.00  0.00     0.009 C 
ATOM      5  C   UNL     1      11.885   7.159  24.404  1.00  0.00     0.021 C 
ATOM      6  C   UNL     1      13.176   7.865  24.920  1.00  0.00    -0.017 C 
ATOM      7  C   UNL     1      13.105   9.444  24.795  1.00  0.00     0.012 C 
ATOM      8  C   UNL     1      14.407  10.120  24.310  1.00  0.00     0.031 C 
ATOM      9  C   UNL     1      15.638   9.384  24.789  1.00  0.00    -0.077 C 
ATOM     10  C   UNL     1      15.664   8.045  24.707  1.00  0.00    -0.027 C 
ATOM     11  C   UNL     1      14.451   7.312  24.211  1.00  0.00     0.035 C 
ATOM     12  C   UNL     1      16.808  10.125  25.369  1.00  0.00     0.039 C 
ENDROOT
BRANCH   5  13
ATOM     13  C   UNL     1      11.285   7.478  23.026  1.00  0.00    -0.077 C 
ATOM     14  C   UNL     1      11.584   6.817  21.892  1.00  0.00     0.008 C 
ATOM     15  C   UNL     1      10.157   8.488  22.956  1.00  0.00     0.039 C 
ENDBRANCH   5  13
TORSDOF 1
ENDMDL
MODEL 6
REMARK VINA RESULT:    -4.890      1.547      4.934
REMARK INTER + INTRA:          -5.539
REMARK INTER:                  -5.236
REMARK INTRA:                  -0.303
REMARK UNBOUND:                -0.362
REMARK SMILES C=C(C)[C@@H]1CC[C@@H](C)[C@@]12CC=C(C)CC2
REMARK SMILES IDX 8 1 7 2 6 3 5 4 4 5 9 6 15 7 14 8 12 9 11 10 10 11 13 12
REMARK SMILES IDX 2 13 1 14 3 15
REMARK H PARENT
REMARK Flexibility Score: inf
ROOT
ATOM      1  C   UNL     1      10.966   6.792  22.844  1.00  0.00     0.008 C 
ATOM      2  C   UNL     1      11.040   8.041  23.748  1.00  0.00    -0.007 C 
ATOM      3  C   UNL     1      11.505   9.248  22.922  1.00  0.00     0.004 C 
ATOM      4  C   UNL     1      12.983   9.462  23.240  1.00  0.00     0.009 C 
ATOM      5  C   UNL     1      13.395   8.363  24.229  1.00  0.00     0.021 C 
ATOM      6  C   UNL     1      12.063   7.962  24.933  1.00  0.00    -0.017 C 
ATOM      7  C   UNL     1      11.605   9.014  26.028  1.00  0.00     0.012 C 
ATOM      8  C   UNL     1      11.047   8.399  27.331  1.00  0.00     0.031 C 
ATOM      9  C   UNL     1      10.314   7.101  27.076  1.00  0.00    -0.077 C 
ATOM     10  C   UNL     1      10.864   6.200  26.248  1.00  0.00    -0.027 C 
ATOM     11  C   UNL     1      12.151   6.530  25.546  1.00  0.00     0.035 C 
ATOM     12  C   UNL     1       8.983   6.824  27.712  1.00  0.00     0.039 C 
ENDROOT
BRANCH   5  13
ATOM     13  C   UNL     1      14.646   8.757  25.029  1.00  0.00    -0.077 C 
ATOM     14  C   UNL     1      15.269   7.956  25.914  1.00  0.00     0.008 C 
ATOM     15  C   UNL     1      15.329  10.065  24.685  1.00  0.00     0.039 C 
ENDBRANCH   5  13
TORSDOF 1
ENDMDL
MODEL 7
REMARK VINA RESULT:    -4.778      9.569     11.898
REMARK INTER + INTRA:          -5.420
REMARK INTER:                  -5.196
REMARK INTRA:                  -0.224
REMARK UNBOUND:                -0.362
REMARK SMILES C=C(C)[C@@H]1CC[C@@H](C)[C@@]12CC=C(C)CC2
REMARK SMILES IDX 8 1 7 2 6 3 5 4 4 5 9 6 15 7 14 8 12 9 11 10 10 11 13 12
REMARK SMILES IDX 2 13 1 14 3 15
REMARK H PARENT
REMARK Flexibility Score: inf
ROOT
ATOM      1  C   UNL     1       6.348   7.330  19.059  1.00  0.00     0.008 C 
ATOM      2  C   UNL     1       6.256   8.594  18.177  1.00  0.00    -0.007 C 
ATOM      3  C   UNL     1       5.663   9.750  18.994  1.00  0.00     0.004 C 
ATOM      4  C   UNL     1       4.198   9.881  18.581  1.00  0.00     0.009 C 
ATOM      5  C   UNL     1       3.923   8.783  17.545  1.00  0.00     0.021 C 
ATOM      6  C   UNL     1       5.320   8.481  16.924  1.00  0.00    -0.017 C 
ATOM      7  C   UNL     1       5.782   9.585  15.884  1.00  0.00     0.012 C 
ATOM      8  C   UNL     1       6.463   9.038  14.609  1.00  0.00     0.031 C 
ATOM      9  C   UNL     1       7.257   7.781  14.888  1.00  0.00    -0.077 C 
ATOM     10  C   UNL     1       6.711   6.828  15.658  1.00  0.00    -0.027 C 
ATOM     11  C   UNL     1       5.363   7.062  16.278  1.00  0.00     0.035 C 
ATOM     12  C   UNL     1       8.642   7.600  14.336  1.00  0.00     0.039 C 
ENDROOT
BRANCH   5  13
ATOM     13  C   UNL     1       2.705   9.119  16.670  1.00  0.00    -0.077 C 
ATOM     14  C   UNL     1       2.383   8.476  15.532  1.00  0.00     0.008 C 
ATOM     15  C   UNL     1       1.702  10.124  17.200  1.00  0.00     0.039 C 
ENDBRANCH   5  13
TORSDOF 1
ENDMDL
MODEL 8
REMARK VINA RESULT:    -4.769      1.450      4.451
REMARK INTER + INTRA:          -5.410
REMARK INTER:                  -5.089
REMARK INTRA:                  -0.320
REMARK UNBOUND:                -0.362
REMARK SMILES C=C(C)[C@@H]1CC[C@@H](C)[C@@]12CC=C(C)CC2
REMARK SMILES IDX 8 1 7 2 6 3 5 4 4 5 9 6 15 7 14 8 12 9 11 10 10 11 13 12
REMARK SMILES IDX 2 13 1 14 3 15
REMARK H PARENT
REMARK Flexibility Score: inf
ROOT
ATOM      1  C   UNL     1      11.294   8.478  25.559  1.00  0.00     0.008 C 
ATOM      2  C   UNL     1      12.246   7.744  24.591  1.00  0.00    -0.007 C 
ATOM      3  C   UNL     1      12.948   6.596  25.330  1.00  0.00     0.004 C 
ATOM      4  C   UNL     1      14.358   7.079  25.665  1.00  0.00     0.009 C 
ATOM      5  C   UNL     1      14.474   8.520  25.150  1.00  0.00     0.021 C 
ATOM      6  C   UNL     1      13.418   8.606  24.007  1.00  0.00    -0.017 C 
ATOM      7  C   UNL     1      13.902   7.907  22.668  1.00  0.00     0.012 C 
ATOM      8  C   UNL     1      13.563   8.675  21.371  1.00  0.00     0.031 C 
ATOM      9  C   UNL     1      12.255   9.426  21.484  1.00  0.00    -0.077 C 
ATOM     10  C   UNL     1      12.004  10.123  22.603  1.00  0.00    -0.027 C 
ATOM     11  C   UNL     1      12.990  10.082  23.736  1.00  0.00     0.035 C 
ATOM     12  C   UNL     1      11.237   9.384  20.381  1.00  0.00     0.039 C 
ENDROOT
BRANCH   5  13
ATOM     13  C   UNL     1      15.939   8.928  24.929  1.00  0.00    -0.077 C 
ATOM     14  C   UNL     1      16.457  10.123  25.269  1.00  0.00     0.008 C 
ATOM     15  C   UNL     1      16.911   7.866  24.455  1.00  0.00     0.039 C 
ENDBRANCH   5  13
TORSDOF 1
ENDMDL
MODEL 9
REMARK VINA RESULT:    -4.730      9.406     11.761
REMARK INTER + INTRA:          -5.368
REMARK INTER:                  -5.084
REMARK INTRA:                  -0.285
REMARK UNBOUND:                -0.362
REMARK SMILES C=C(C)[C@@H]1CC[C@@H](C)[C@@]12CC=C(C)CC2
REMARK SMILES IDX 8 1 7 2 6 3 5 4 4 5 9 6 15 7 14 8 12 9 11 10 10 11 13 12
REMARK SMILES IDX 2 13 1 14 3 15
REMARK H PARENT
REMARK Flexibility Score: inf
ROOT
ATOM      1  C   UNL     1       3.230   8.245  14.795  1.00  0.00     0.008 C 
ATOM      2  C   UNL     1       4.379   7.290  15.185  1.00  0.00    -0.007 C 
ATOM      3  C   UNL     1       3.843   6.194  16.117  1.00  0.00     0.004 C 
ATOM      4  C   UNL     1       4.258   6.576  17.536  1.00  0.00     0.009 C 
ATOM      5  C   UNL     1       5.009   7.910  17.442  1.00  0.00     0.021 C 
ATOM      6  C   UNL     1       5.560   7.939  15.984  1.00  0.00    -0.017 C 
ATOM      7  C   UNL     1       6.833   7.013  15.789  1.00  0.00     0.012 C 
ATOM      8  C   UNL     1       7.955   7.619  14.917  1.00  0.00     0.031 C 
ATOM      9  C   UNL     1       7.403   8.506  13.823  1.00  0.00    -0.077 C 
ATOM     10  C   UNL     1       6.427   9.375  14.126  1.00  0.00    -0.027 C 
ATOM     11  C   UNL     1       5.862   9.396  15.517  1.00  0.00     0.035 C 
ATOM     12  C   UNL     1       7.914   8.409  12.415  1.00  0.00     0.039 C 
ENDROOT
BRANCH   5  13
ATOM     13  C   UNL     1       5.924   8.135  18.657  1.00  0.00    -0.077 C 
ATOM     14  C   UNL     1       6.727   9.203  18.820  1.00  0.00     0.008 C 
ATOM     15  C   UNL     1       5.797   7.184  19.830  1.00  0.00     0.039 C 
ENDBRANCH   5  13
TORSDOF 1
ENDMDL
