MODEL 1
REMARK VINA RESULT:    -2.495      0.000      0.000
REMARK INTER + INTRA:          -2.894
REMARK INTER:                  -3.151
REMARK INTRA:                   0.257
REMARK UNBOUND:                 0.257
REMARK SMILES O=C(C=Cc1ccc(O)cc1)c1ccc(O)cc1O
REMARK SMILES IDX 4 1 3 2 5 3 6 4 7 5 8 6 11 7 10 8 9 9 2 11 1 12 12 13 18 14
REMARK SMILES IDX 13 15 17 16 14 17 15 18 19 19 16 21
REMARK H PARENT 9 10 19 20 16 22
REMARK Flexibility Score: inf
ROOT
ATOM      1  C   UNL     1      71.877  40.413  20.015  1.00  0.00     0.012 C 
ATOM      2  C   UNL     1      72.771  40.355  19.016  1.00  0.00     0.053 C 
ENDROOT
BRANCH   1   3
ATOM      3  C   UNL     1      70.417  40.587  19.811  1.00  0.00    -0.025 A 
ATOM      4  C   UNL     1      69.829  40.638  18.530  1.00  0.00     0.012 A 
ATOM      5  C   UNL     1      68.448  40.814  18.394  1.00  0.00     0.047 A 
ATOM      6  C   UNL     1      67.638  40.949  19.528  1.00  0.00     0.115 A 
ATOM      7  C   UNL     1      69.596  40.740  20.940  1.00  0.00     0.012 A 
ATOM      8  C   UNL     1      68.216  40.914  20.799  1.00  0.00     0.047 A 
BRANCH   6   9
ATOM      9  O   UNL     1      66.262  41.123  19.402  1.00  0.00    -0.508 OA
ATOM     10  H   UNL     1      65.867  41.726  18.689  1.00  0.00     0.293 HD
ENDBRANCH   6   9
ENDBRANCH   1   3
BRANCH   2  11
ATOM     11  C   UNL     1      74.221  40.184  19.247  1.00  0.00     0.189 C 
ATOM     12  O   UNL     1      74.968  40.032  18.243  1.00  0.00    -0.289 OA
BRANCH  11  13
ATOM     13  C   UNL     1      74.824  40.158  20.602  1.00  0.00     0.064 A 
ATOM     14  C   UNL     1      74.418  39.198  21.552  1.00  0.00     0.130 A 
ATOM     15  C   UNL     1      75.777  41.125  20.968  1.00  0.00     0.020 A 
ATOM     16  C   UNL     1      74.980  39.207  22.839  1.00  0.00     0.093 A 
ATOM     17  C   UNL     1      76.332  41.124  22.249  1.00  0.00     0.047 A 
ATOM     18  C   UNL     1      75.935  40.164  23.188  1.00  0.00     0.119 A 
BRANCH  14  19
ATOM     19  O   UNL     1      73.472  38.230  21.215  1.00  0.00    -0.507 OA
ATOM     20  H   UNL     1      73.026  38.217  20.306  1.00  0.00     0.293 HD
ENDBRANCH  14  19
BRANCH  18  21
ATOM     21  O   UNL     1      76.483  40.155  24.469  1.00  0.00    -0.508 OA
ATOM     22  H   UNL     1      76.860  39.309  24.878  1.00  0.00     0.293 HD
ENDBRANCH  18  21
ENDBRANCH  11  13
ENDBRANCH   2  11
TORSDOF 6
ENDMDL
MODEL 2
REMARK VINA RESULT:    -2.354      0.974      1.908
REMARK INTER + INTRA:          -2.716
REMARK INTER:                  -2.215
REMARK INTRA:                  -0.501
REMARK UNBOUND:                 0.257
REMARK SMILES O=C(C=Cc1ccc(O)cc1)c1ccc(O)cc1O
REMARK SMILES IDX 4 1 3 2 5 3 6 4 7 5 8 6 11 7 10 8 9 9 2 11 1 12 12 13 18 14
REMARK SMILES IDX 13 15 17 16 14 17 15 18 19 19 16 21
REMARK H PARENT 9 10 19 20 16 22
REMARK Flexibility Score: inf
ROOT
ATOM      1  C   UNL     1      71.542  41.065  19.638  1.00  0.00     0.012 C 
ATOM      2  C   UNL     1      72.287  39.968  19.435  1.00  0.00     0.053 C 
ENDROOT
BRANCH   1   3
ATOM      3  C   UNL     1      70.061  41.090  19.535  1.00  0.00    -0.025 A 
ATOM      4  C   UNL     1      69.220  41.093  20.667  1.00  0.00     0.012 A 
ATOM      5  C   UNL     1      67.829  41.107  20.514  1.00  0.00     0.047 A 
ATOM      6  C   UNL     1      67.260  41.110  19.236  1.00  0.00     0.115 A 
ATOM      7  C   UNL     1      69.477  41.077  18.258  1.00  0.00     0.012 A 
ATOM      8  C   UNL     1      68.087  41.092  18.110  1.00  0.00     0.047 A 
BRANCH   6   9
ATOM      9  O   UNL     1      65.877  41.125  19.073  1.00  0.00    -0.508 OA
ATOM     10  H   UNL     1      65.429  41.733  18.397  1.00  0.00     0.293 HD
ENDBRANCH   6   9
ENDBRANCH   1   3
BRANCH   2  11
ATOM     11  C   UNL     1      73.762  39.971  19.541  1.00  0.00     0.189 C 
ATOM     12  O   UNL     1      74.431  39.756  18.495  1.00  0.00    -0.289 OA
BRANCH  11  13
ATOM     13  C   UNL     1      74.479  40.189  20.821  1.00  0.00     0.064 A 
ATOM     14  C   UNL     1      75.806  40.665  20.831  1.00  0.00     0.130 A 
ATOM     15  C   UNL     1      73.853  39.876  22.041  1.00  0.00     0.020 A 
ATOM     16  C   UNL     1      76.478  40.837  22.051  1.00  0.00     0.093 A 
ATOM     17  C   UNL     1      74.529  40.054  23.250  1.00  0.00     0.047 A 
ATOM     18  C   UNL     1      75.843  40.536  23.258  1.00  0.00     0.119 A 
BRANCH  14  19
ATOM     19  O   UNL     1      76.451  40.979  19.634  1.00  0.00    -0.507 OA
ATOM     20  H   UNL     1      77.092  41.760  19.566  1.00  0.00     0.293 HD
ENDBRANCH  14  19
BRANCH  18  21
ATOM     21  O   UNL     1      76.525  40.716  24.459  1.00  0.00    -0.508 OA
ATOM     22  H   UNL     1      77.519  40.539  24.536  1.00  0.00     0.293 HD
ENDBRANCH  18  21
ENDBRANCH  11  13
ENDBRANCH   2  11
TORSDOF 6
ENDMDL
MODEL 3
REMARK VINA RESULT:     0.202      3.684      7.717
REMARK INTER + INTRA:           0.512
REMARK INTER:                   0.988
REMARK INTRA:                  -0.476
REMARK UNBOUND:                 0.257
REMARK SMILES O=C(C=Cc1ccc(O)cc1)c1ccc(O)cc1O
REMARK SMILES IDX 4 1 3 2 5 3 6 4 7 5 8 6 11 7 10 8 9 9 2 11 1 12 12 13 18 14
REMARK SMILES IDX 13 15 17 16 14 17 15 18 19 19 16 21
REMARK H PARENT 9 10 19 20 16 22
REMARK Flexibility Score: inf
ROOT
ATOM      1  C   UNL     1      76.126  39.674  24.863  1.00  0.00     0.012 C 
ATOM      2  C   UNL     1      75.310  40.281  23.988  1.00  0.00     0.053 C 
ENDROOT
BRANCH   1   3
ATOM      3  C   UNL     1      75.884  39.628  26.327  1.00  0.00    -0.025 A 
ATOM      4  C   UNL     1      75.822  38.419  27.051  1.00  0.00     0.012 A 
ATOM      5  C   UNL     1      75.581  38.433  28.429  1.00  0.00     0.047 A 
ATOM      6  C   UNL     1      75.390  39.646  29.100  1.00  0.00     0.115 A 
ATOM      7  C   UNL     1      75.675  40.838  27.009  1.00  0.00     0.012 A 
ATOM      8  C   UNL     1      75.435  40.846  28.387  1.00  0.00     0.047 A 
BRANCH   6   9
ATOM      9  O   UNL     1      75.150  39.670  30.472  1.00  0.00    -0.508 OA
ATOM     10  H   UNL     1      74.743  38.875  30.952  1.00  0.00     0.293 HD
ENDBRANCH   6   9
ENDBRANCH   1   3
BRANCH   2  11
ATOM     11  C   UNL     1      75.577  40.314  22.534  1.00  0.00     0.189 C 
ATOM     12  O   UNL     1      76.442  41.125  22.108  1.00  0.00    -0.289 OA
BRANCH  11  13
ATOM     13  C   UNL     1      74.855  39.457  21.562  1.00  0.00     0.064 A 
ATOM     14  C   UNL     1      75.397  39.202  20.285  1.00  0.00     0.130 A 
ATOM     15  C   UNL     1      73.594  38.929  21.889  1.00  0.00     0.020 A 
ATOM     16  C   UNL     1      74.686  38.413  19.368  1.00  0.00     0.093 A 
ATOM     17  C   UNL     1      72.894  38.142  20.971  1.00  0.00     0.047 A 
ATOM     18  C   UNL     1      73.439  37.882  19.708  1.00  0.00     0.119 A 
BRANCH  14  19
ATOM     19  O   UNL     1      76.645  39.718  19.934  1.00  0.00    -0.507 OA
ATOM     20  H   UNL     1      77.291  40.065  20.633  1.00  0.00     0.293 HD
ENDBRANCH  14  19
BRANCH  18  21
ATOM     21  O   UNL     1      72.749  37.099  18.786  1.00  0.00    -0.508 OA
ATOM     22  H   UNL     1      72.381  36.189  19.033  1.00  0.00     0.293 HD
ENDBRANCH  18  21
ENDBRANCH  11  13
ENDBRANCH   2  11
TORSDOF 6
ENDMDL
MODEL 4
REMARK VINA RESULT:     0.375      1.045      1.547
REMARK INTER + INTRA:           0.731
REMARK INTER:                  -0.079
REMARK INTRA:                   0.810
REMARK UNBOUND:                 0.257
REMARK SMILES O=C(C=Cc1ccc(O)cc1)c1ccc(O)cc1O
REMARK SMILES IDX 4 1 3 2 5 3 6 4 7 5 8 6 11 7 10 8 9 9 2 11 1 12 12 13 18 14
REMARK SMILES IDX 13 15 17 16 14 17 15 18 19 19 16 21
REMARK H PARENT 9 10 19 20 16 22
REMARK Flexibility Score: inf
ROOT
ATOM      1  C   UNL     1      71.777  39.934  19.923  1.00  0.00     0.012 C 
ATOM      2  C   UNL     1      72.758  40.842  19.810  1.00  0.00     0.053 C 
ENDROOT
BRANCH   1   3
ATOM      3  C   UNL     1      70.334  40.251  19.775  1.00  0.00    -0.025 A 
ATOM      4  C   UNL     1      69.467  40.387  20.879  1.00  0.00     0.012 A 
ATOM      5  C   UNL     1      68.113  40.677  20.683  1.00  0.00     0.047 A 
ATOM      6  C   UNL     1      67.604  40.826  19.388  1.00  0.00     0.115 A 
ATOM      7  C   UNL     1      69.807  40.388  18.480  1.00  0.00     0.012 A 
ATOM      8  C   UNL     1      68.453  40.679  18.289  1.00  0.00     0.047 A 
BRANCH   6   9
ATOM      9  O   UNL     1      66.257  41.116  19.183  1.00  0.00    -0.508 OA
ATOM     10  H   UNL     1      65.705  40.614  18.496  1.00  0.00     0.293 HD
ENDBRANCH   6   9
ENDBRANCH   1   3
BRANCH   2  11
ATOM     11  C   UNL     1      74.187  40.500  19.965  1.00  0.00     0.189 C 
ATOM     12  O   UNL     1      74.858  40.269  18.923  1.00  0.00    -0.289 OA
BRANCH  11  13
ATOM     13  C   UNL     1      74.853  40.392  21.286  1.00  0.00     0.064 A 
ATOM     14  C   UNL     1      74.135  40.633  22.476  1.00  0.00     0.130 A 
ATOM     15  C   UNL     1      76.225  40.093  21.362  1.00  0.00     0.020 A 
ATOM     16  C   UNL     1      74.789  40.555  23.715  1.00  0.00     0.093 A 
ATOM     17  C   UNL     1      76.866  40.013  22.600  1.00  0.00     0.047 A 
ATOM     18  C   UNL     1      76.149  40.244  23.780  1.00  0.00     0.119 A 
BRANCH  14  19
ATOM     19  O   UNL     1      72.774  40.936  22.428  1.00  0.00    -0.507 OA
ATOM     20  H   UNL     1      72.116  40.528  23.081  1.00  0.00     0.293 HD
ENDBRANCH  14  19
BRANCH  18  21
ATOM     21  O   UNL     1      76.780  40.167  25.020  1.00  0.00    -0.508 OA
ATOM     22  H   UNL     1      77.758  40.403  25.132  1.00  0.00     0.293 HD
ENDBRANCH  18  21
ENDBRANCH  11  13
ENDBRANCH   2  11
TORSDOF 6
ENDMDL
MODEL 5
REMARK VINA RESULT:     0.447      3.734      7.709
REMARK INTER + INTRA:           0.822
REMARK INTER:                   1.278
REMARK INTRA:                  -0.456
REMARK UNBOUND:                 0.257
REMARK SMILES O=C(C=Cc1ccc(O)cc1)c1ccc(O)cc1O
REMARK SMILES IDX 4 1 3 2 5 3 6 4 7 5 8 6 11 7 10 8 9 9 2 11 1 12 12 13 18 14
REMARK SMILES IDX 13 15 17 16 14 17 15 18 19 19 16 21
REMARK H PARENT 9 10 19 20 16 22
REMARK Flexibility Score: inf
ROOT
ATOM      1  C   UNL     1      76.155  39.740  24.768  1.00  0.00     0.012 C 
ATOM      2  C   UNL     1      75.261  40.180  23.870  1.00  0.00     0.053 C 
ENDROOT
BRANCH   1   3
ATOM      3  C   UNL     1      75.886  39.641  26.225  1.00  0.00    -0.025 A 
ATOM      4  C   UNL     1      75.642  40.772  27.032  1.00  0.00     0.012 A 
ATOM      5  C   UNL     1      75.404  40.623  28.402  1.00  0.00     0.047 A 
ATOM      6  C   UNL     1      75.413  39.351  28.987  1.00  0.00     0.115 A 
ATOM      7  C   UNL     1      75.909  38.372  26.826  1.00  0.00     0.012 A 
ATOM      8  C   UNL     1      75.669  38.228  28.196  1.00  0.00     0.047 A 
BRANCH   6   9
ATOM      9  O   UNL     1      75.176  39.193  30.350  1.00  0.00    -0.508 OA
ATOM     10  H   UNL     1      75.659  39.756  31.041  1.00  0.00     0.293 HD
ENDBRANCH   6   9
ENDBRANCH   1   3
BRANCH   2  11
ATOM     11  C   UNL     1      75.556  40.271  22.425  1.00  0.00     0.189 C 
ATOM     12  O   UNL     1      76.402  41.125  22.045  1.00  0.00    -0.289 OA
BRANCH  11  13
ATOM     13  C   UNL     1      74.883  39.425  21.409  1.00  0.00     0.064 A 
ATOM     14  C   UNL     1      75.458  39.235  20.135  1.00  0.00     0.130 A 
ATOM     15  C   UNL     1      73.636  38.841  21.693  1.00  0.00     0.020 A 
ATOM     16  C   UNL     1      74.792  38.455  19.177  1.00  0.00     0.093 A 
ATOM     17  C   UNL     1      72.983  38.063  20.734  1.00  0.00     0.047 A 
ATOM     18  C   UNL     1      73.559  37.868  19.474  1.00  0.00     0.119 A 
BRANCH  14  19
ATOM     19  O   UNL     1      76.692  39.808  19.827  1.00  0.00    -0.507 OA
ATOM     20  H   UNL     1      77.026  39.868  18.873  1.00  0.00     0.293 HD
ENDBRANCH  14  19
BRANCH  18  21
ATOM     21  O   UNL     1      72.915  37.094  18.511  1.00  0.00    -0.508 OA
ATOM     22  H   UNL     1      72.302  37.510  17.821  1.00  0.00     0.293 HD
ENDBRANCH  18  21
ENDBRANCH  11  13
ENDBRANCH   2  11
TORSDOF 6
ENDMDL
