MODEL 1
REMARK VINA RESULT:    -4.858      0.000      0.000
REMARK INTER + INTRA:          -5.461
REMARK INTER:                  -5.284
REMARK INTRA:                  -0.177
REMARK UNBOUND:                -0.177
REMARK SMILES C=C(C)[C@@H]1CC[C@H](C)C[C@H]1O
REMARK SMILES IDX 8 1 7 2 6 3 5 4 4 5 10 6 9 7 11 8 2 10 1 11 3 12
REMARK H PARENT 11 9
REMARK Flexibility Score: inf
ROOT
ATOM      1  C   UNL     1     115.337 123.311 128.173  1.00  0.00     0.008 C 
ATOM      2  C   UNL     1     113.965 122.694 128.490  1.00  0.00    -0.012 C 
ATOM      3  C   UNL     1     114.057 121.177 128.752  1.00  0.00     0.004 C 
ATOM      4  C   UNL     1     114.679 120.855 130.119  1.00  0.00     0.011 C 
ATOM      5  C   UNL     1     113.920 121.565 131.257  1.00  0.00     0.043 C 
ATOM      6  C   UNL     1     113.879 123.092 131.027  1.00  0.00     0.121 C 
ATOM      7  C   UNL     1     113.256 123.418 129.654  1.00  0.00     0.035 C 
ENDROOT
BRANCH   6   8
ATOM      8  O   UNL     1     113.113 123.693 132.040  1.00  0.00    -0.392 OA
ATOM      9  H   UNL     1     113.513 124.585 132.212  1.00  0.00     0.210 HD
ENDBRANCH   6   8
BRANCH   5  10
ATOM     10  C   UNL     1     114.535 121.224 132.606  1.00  0.00    -0.075 C 
ATOM     11  C   UNL     1     113.907 120.373 133.434  1.00  0.00     0.008 C 
ATOM     12  C   UNL     1     115.851 121.835 133.020  1.00  0.00     0.039 C 
ENDBRANCH   5  10
TORSDOF 2
ENDMDL
MODEL 2
REMARK VINA RESULT:    -4.693     13.942     15.733
REMARK INTER + INTRA:          -5.282
REMARK INTER:                  -5.079
REMARK INTRA:                  -0.203
REMARK UNBOUND:                -0.177
REMARK SMILES C=C(C)[C@@H]1CC[C@H](C)C[C@H]1O
REMARK SMILES IDX 8 1 7 2 6 3 5 4 4 5 10 6 9 7 11 8 2 10 1 11 3 12
REMARK H PARENT 11 9
REMARK Flexibility Score: inf
ROOT
ATOM      1  C   UNL     1     124.106 118.362 120.809  1.00  0.00     0.008 C 
ATOM      2  C   UNL     1     123.552 119.758 121.136  1.00  0.00    -0.012 C 
ATOM      3  C   UNL     1     124.453 120.523 122.126  1.00  0.00     0.004 C 
ATOM      4  C   UNL     1     125.746 121.031 121.472  1.00  0.00     0.011 C 
ATOM      5  C   UNL     1     125.440 121.890 120.229  1.00  0.00     0.043 C 
ATOM      6  C   UNL     1     124.588 121.103 119.208  1.00  0.00     0.121 C 
ATOM      7  C   UNL     1     123.290 120.591 119.864  1.00  0.00     0.035 C 
ENDROOT
BRANCH   6   8
ATOM      8  O   UNL     1     124.265 121.944 118.130  1.00  0.00    -0.392 OA
ATOM      9  H   UNL     1     123.995 121.356 117.377  1.00  0.00     0.210 HD
ENDBRANCH   6   8
BRANCH   5  10
ATOM     10  C   UNL     1     126.728 122.400 119.600  1.00  0.00    -0.075 C 
ATOM     11  C   UNL     1     127.633 121.529 119.125  1.00  0.00     0.008 C 
ATOM     12  C   UNL     1     126.996 123.882 119.505  1.00  0.00     0.039 C 
ENDBRANCH   5  10
TORSDOF 2
ENDMDL
MODEL 3
REMARK VINA RESULT:    -4.607     11.910     13.376
REMARK INTER + INTRA:          -5.188
REMARK INTER:                  -5.045
REMARK INTRA:                  -0.144
REMARK UNBOUND:                -0.177
REMARK SMILES C=C(C)[C@@H]1CC[C@H](C)C[C@H]1O
REMARK SMILES IDX 8 1 7 2 6 3 5 4 4 5 10 6 9 7 11 8 2 10 1 11 3 12
REMARK H PARENT 11 9
REMARK Flexibility Score: inf
ROOT
ATOM      1  C   UNL     1     122.689 133.024 129.392  1.00  0.00     0.008 C 
ATOM      2  C   UNL     1     121.931 133.303 130.700  1.00  0.00    -0.012 C 
ATOM      3  C   UNL     1     121.457 134.768 130.796  1.00  0.00     0.004 C 
ATOM      4  C   UNL     1     120.265 135.060 129.874  1.00  0.00     0.011 C 
ATOM      5  C   UNL     1     119.101 134.086 130.144  1.00  0.00     0.043 C 
ATOM      6  C   UNL     1     119.559 132.619 129.988  1.00  0.00     0.121 C 
ATOM      7  C   UNL     1     120.758 132.323 130.913  1.00  0.00     0.035 C 
ENDROOT
BRANCH   6   8
ATOM      8  O   UNL     1     118.495 131.763 130.320  1.00  0.00    -0.392 OA
ATOM      9  H   UNL     1     117.686 132.333 130.411  1.00  0.00     0.210 HD
ENDBRANCH   6   8
BRANCH   5  10
ATOM     10  C   UNL     1     117.920 134.397 129.236  1.00  0.00    -0.075 C 
ATOM     11  C   UNL     1     118.125 134.655 127.934  1.00  0.00     0.008 C 
ATOM     12  C   UNL     1     116.516 134.415 129.789  1.00  0.00     0.039 C 
ENDBRANCH   5  10
TORSDOF 2
ENDMDL
MODEL 4
REMARK VINA RESULT:    -4.541      1.800      3.541
REMARK INTER + INTRA:          -5.116
REMARK INTER:                  -4.922
REMARK INTRA:                  -0.194
REMARK UNBOUND:                -0.177
REMARK SMILES C=C(C)[C@@H]1CC[C@H](C)C[C@H]1O
REMARK SMILES IDX 8 1 7 2 6 3 5 4 4 5 10 6 9 7 11 8 2 10 1 11 3 12
REMARK H PARENT 11 9
REMARK Flexibility Score: inf
ROOT
ATOM      1  C   UNL     1     114.348 119.939 130.015  1.00  0.00     0.008 C 
ATOM      2  C   UNL     1     114.715 120.389 131.438  1.00  0.00    -0.012 C 
ATOM      3  C   UNL     1     116.176 120.876 131.536  1.00  0.00     0.004 C 
ATOM      4  C   UNL     1     116.379 122.254 130.892  1.00  0.00     0.011 C 
ATOM      5  C   UNL     1     115.411 123.296 131.489  1.00  0.00     0.043 C 
ATOM      6  C   UNL     1     113.943 122.838 131.337  1.00  0.00     0.121 C 
ATOM      7  C   UNL     1     113.737 121.452 131.982  1.00  0.00     0.035 C 
ENDROOT
BRANCH   6   8
ATOM      8  O   UNL     1     113.100 123.772 131.962  1.00  0.00    -0.392 OA
ATOM      9  H   UNL     1     113.361 123.799 132.919  1.00  0.00     0.210 HD
ENDBRANCH   6   8
BRANCH   5  10
ATOM     10  C   UNL     1     115.635 124.660 130.854  1.00  0.00    -0.075 C 
ATOM     11  C   UNL     1     116.032 125.695 131.612  1.00  0.00     0.008 C 
ATOM     12  C   UNL     1     115.415 124.859 129.375  1.00  0.00     0.039 C 
ENDBRANCH   5  10
TORSDOF 2
ENDMDL
MODEL 5
REMARK VINA RESULT:    -4.522      3.183      4.732
REMARK INTER + INTRA:          -5.096
REMARK INTER:                  -4.890
REMARK INTRA:                  -0.206
REMARK UNBOUND:                -0.177
REMARK SMILES C=C(C)[C@@H]1CC[C@H](C)C[C@H]1O
REMARK SMILES IDX 8 1 7 2 6 3 5 4 4 5 10 6 9 7 11 8 2 10 1 11 3 12
REMARK H PARENT 11 9
REMARK Flexibility Score: inf
ROOT
ATOM      1  C   UNL     1     114.143 120.059 131.919  1.00  0.00     0.008 C 
ATOM      2  C   UNL     1     114.368 121.255 132.858  1.00  0.00    -0.012 C 
ATOM      3  C   UNL     1     114.257 120.857 134.344  1.00  0.00     0.004 C 
ATOM      4  C   UNL     1     115.475 120.060 134.831  1.00  0.00     0.011 C 
ATOM      5  C   UNL     1     116.785 120.827 134.564  1.00  0.00     0.043 C 
ATOM      6  C   UNL     1     116.928 121.174 133.065  1.00  0.00     0.121 C 
ATOM      7  C   UNL     1     115.704 121.974 132.573  1.00  0.00     0.035 C 
ENDROOT
BRANCH   6   8
ATOM      8  O   UNL     1     118.091 121.940 132.876  1.00  0.00    -0.392 OA
ATOM      9  H   UNL     1     118.268 121.957 131.899  1.00  0.00     0.210 HD
ENDBRANCH   6   8
BRANCH   5  10
ATOM     10  C   UNL     1     117.983 120.035 135.066  1.00  0.00    -0.075 C 
ATOM     11  C   UNL     1     118.231 118.811 134.572  1.00  0.00     0.008 C 
ATOM     12  C   UNL     1     118.897 120.616 136.116  1.00  0.00     0.039 C 
ENDBRANCH   5  10
TORSDOF 2
ENDMDL
MODEL 6
REMARK VINA RESULT:    -4.521      1.875      4.705
REMARK INTER + INTRA:          -5.095
REMARK INTER:                  -4.901
REMARK INTRA:                  -0.194
REMARK UNBOUND:                -0.177
REMARK SMILES C=C(C)[C@@H]1CC[C@H](C)C[C@H]1O
REMARK SMILES IDX 8 1 7 2 6 3 5 4 4 5 10 6 9 7 11 8 2 10 1 11 3 12
REMARK H PARENT 11 9
REMARK Flexibility Score: inf
ROOT
ATOM      1  C   UNL     1     117.289 119.312 134.360  1.00  0.00     0.008 C 
ATOM      2  C   UNL     1     116.458 120.590 134.564  1.00  0.00    -0.012 C 
ATOM      3  C   UNL     1     116.872 121.714 133.592  1.00  0.00     0.004 C 
ATOM      4  C   UNL     1     116.391 121.456 132.157  1.00  0.00     0.011 C 
ATOM      5  C   UNL     1     114.867 121.225 132.114  1.00  0.00     0.043 C 
ATOM      6  C   UNL     1     114.458 120.059 133.041  1.00  0.00     0.121 C 
ATOM      7  C   UNL     1     114.941 120.315 134.483  1.00  0.00     0.035 C 
ENDROOT
BRANCH   6   8
ATOM      8  O   UNL     1     113.058 119.933 133.035  1.00  0.00    -0.392 OA
ATOM      9  H   UNL     1     112.738 120.327 132.182  1.00  0.00     0.210 HD
ENDBRANCH   6   8
BRANCH   5  10
ATOM     10  C   UNL     1     114.402 120.988 130.685  1.00  0.00    -0.075 C 
ATOM     11  C   UNL     1     113.662 121.917 130.059  1.00  0.00     0.008 C 
ATOM     12  C   UNL     1     114.768 119.714 129.965  1.00  0.00     0.039 C 
ENDBRANCH   5  10
TORSDOF 2
ENDMDL
MODEL 7
REMARK VINA RESULT:    -4.444      1.819      4.440
REMARK INTER + INTRA:          -5.011
REMARK INTER:                  -4.862
REMARK INTRA:                  -0.149
REMARK UNBOUND:                -0.177
REMARK SMILES C=C(C)[C@@H]1CC[C@H](C)C[C@H]1O
REMARK SMILES IDX 8 1 7 2 6 3 5 4 4 5 10 6 9 7 11 8 2 10 1 11 3 12
REMARK H PARENT 11 9
REMARK Flexibility Score: inf
ROOT
ATOM      1  C   UNL     1     115.893 121.055 132.537  1.00  0.00     0.008 C 
ATOM      2  C   UNL     1     114.391 120.910 132.243  1.00  0.00    -0.012 C 
ATOM      3  C   UNL     1     113.696 122.277 132.078  1.00  0.00     0.004 C 
ATOM      4  C   UNL     1     114.040 122.952 130.743  1.00  0.00     0.011 C 
ATOM      5  C   UNL     1     113.721 122.026 129.552  1.00  0.00     0.043 C 
ATOM      6  C   UNL     1     114.465 120.678 129.685  1.00  0.00     0.121 C 
ATOM      7  C   UNL     1     114.122 119.999 131.027  1.00  0.00     0.035 C 
ENDROOT
BRANCH   6   8
ATOM      8  O   UNL     1     114.087 119.835 128.627  1.00  0.00    -0.392 OA
ATOM      9  H   UNL     1     114.075 120.392 127.805  1.00  0.00     0.210 HD
ENDBRANCH   6   8
BRANCH   5  10
ATOM     10  C   UNL     1     114.051 122.713 128.235  1.00  0.00    -0.075 C 
ATOM     11  C   UNL     1     115.206 123.384 128.100  1.00  0.00     0.008 C 
ATOM     12  C   UNL     1     113.086 122.645 127.077  1.00  0.00     0.039 C 
ENDBRANCH   5  10
TORSDOF 2
ENDMDL
MODEL 8
REMARK VINA RESULT:    -4.409      2.121      4.439
REMARK INTER + INTRA:          -4.972
REMARK INTER:                  -4.829
REMARK INTRA:                  -0.144
REMARK UNBOUND:                -0.177
REMARK SMILES C=C(C)[C@@H]1CC[C@H](C)C[C@H]1O
REMARK SMILES IDX 8 1 7 2 6 3 5 4 4 5 10 6 9 7 11 8 2 10 1 11 3 12
REMARK H PARENT 11 9
REMARK Flexibility Score: inf
ROOT
ATOM      1  C   UNL     1     114.497 120.843 134.855  1.00  0.00     0.008 C 
ATOM      2  C   UNL     1     114.878 120.131 133.547  1.00  0.00    -0.012 C 
ATOM      3  C   UNL     1     113.826 120.345 132.440  1.00  0.00     0.004 C 
ATOM      4  C   UNL     1     113.874 121.761 131.851  1.00  0.00     0.011 C 
ATOM      5  C   UNL     1     115.287 122.105 131.340  1.00  0.00     0.043 C 
ATOM      6  C   UNL     1     116.335 121.949 132.465  1.00  0.00     0.121 C 
ATOM      7  C   UNL     1     116.287 120.527 133.059  1.00  0.00     0.035 C 
ENDROOT
BRANCH   6   8
ATOM      8  O   UNL     1     117.616 122.192 131.941  1.00  0.00    -0.392 OA
ATOM      9  H   UNL     1     117.533 122.158 130.952  1.00  0.00     0.210 HD
ENDBRANCH   6   8
BRANCH   5  10
ATOM     10  C   UNL     1     115.316 123.504 130.744  1.00  0.00    -0.075 C 
ATOM     11  C   UNL     1     115.287 124.577 131.551  1.00  0.00     0.008 C 
ATOM     12  C   UNL     1     115.380 123.695 129.249  1.00  0.00     0.039 C 
ENDBRANCH   5  10
TORSDOF 2
ENDMDL
MODEL 9
REMARK VINA RESULT:    -4.373      2.163      3.591
REMARK INTER + INTRA:          -4.933
REMARK INTER:                  -4.734
REMARK INTRA:                  -0.200
REMARK UNBOUND:                -0.177
REMARK SMILES C=C(C)[C@@H]1CC[C@H](C)C[C@H]1O
REMARK SMILES IDX 8 1 7 2 6 3 5 4 4 5 10 6 9 7 11 8 2 10 1 11 3 12
REMARK H PARENT 11 9
REMARK Flexibility Score: inf
ROOT
ATOM      1  C   UNL     1     114.549 120.181 130.489  1.00  0.00     0.008 C 
ATOM      2  C   UNL     1     113.713 121.211 131.265  1.00  0.00    -0.012 C 
ATOM      3  C   UNL     1     114.409 121.664 132.565  1.00  0.00     0.004 C 
ATOM      4  C   UNL     1     115.590 122.608 132.299  1.00  0.00     0.011 C 
ATOM      5  C   UNL     1     115.153 123.823 131.457  1.00  0.00     0.043 C 
ATOM      6  C   UNL     1     114.510 123.371 130.126  1.00  0.00     0.121 C 
ATOM      7  C   UNL     1     113.324 122.422 130.391  1.00  0.00     0.035 C 
ENDROOT
BRANCH   6   8
ATOM      8  O   UNL     1     114.055 124.501 129.425  1.00  0.00    -0.392 OA
ATOM      9  H   UNL     1     113.114 124.318 129.165  1.00  0.00     0.210 HD
ENDBRANCH   6   8
BRANCH   5  10
ATOM     10  C   UNL     1     116.328 124.758 131.215  1.00  0.00    -0.075 C 
ATOM     11  C   UNL     1     117.461 124.285 130.670  1.00  0.00     0.008 C 
ATOM     12  C   UNL     1     116.230 126.218 131.583  1.00  0.00     0.039 C 
ENDBRANCH   5  10
TORSDOF 2
ENDMDL
