MODEL 1
REMARK VINA RESULT:    -4.851      0.000      0.000
REMARK INTER + INTRA:          -5.620
REMARK INTER:                  -5.560
REMARK INTRA:                  -0.060
REMARK UNBOUND:                -0.060
REMARK SMILES CC(C)[C@H]([NH3+])C(=O)[O-]
REMARK SMILES IDX 4 1 5 2 6 6 7 7 8 8 2 9 1 10 3 11
REMARK H PARENT 5 3 5 4 5 5
REMARK Flexibility Score: inf
ROOT
ATOM      1  C   UNL     1       6.836   0.870  15.009  1.00  0.00     0.230 C 
ENDROOT
BRANCH   1   2
ATOM      2  N   UNL     1       5.426   0.770  14.600  1.00  0.00    -0.350 N 
ATOM      3  H   UNL     1       4.901   1.646  14.822  1.00  0.00     0.345 HD
ATOM      4  H   UNL     1       5.355   0.570  13.579  1.00  0.00     0.345 HD
ATOM      5  H   UNL     1       4.973  -0.024  15.109  1.00  0.00     0.345 HD
ENDBRANCH   1   2
BRANCH   1   6
ATOM      6  C   UNL     1       7.601  -0.364  14.598  1.00  0.00     0.099 C 
ATOM      7  O   UNL     1       7.737  -0.641  13.376  1.00  0.00    -0.544 OA
ATOM      8  O   UNL     1       8.200  -1.179  15.551  1.00  0.00    -0.544 OA
ENDBRANCH   1   6
BRANCH   1   9
ATOM      9  C   UNL     1       7.011   1.150  16.532  1.00  0.00     0.047 C 
ATOM     10  C   UNL     1       7.988   2.305  16.794  1.00  0.00     0.014 C 
ATOM     11  C   UNL     1       5.684   1.401  17.268  1.00  0.00     0.014 C 
ENDBRANCH   1   9
TORSDOF 3
ENDMDL
MODEL 2
REMARK VINA RESULT:    -4.704      1.398      1.474
REMARK INTER + INTRA:          -5.452
REMARK INTER:                  -5.387
REMARK INTRA:                  -0.064
REMARK UNBOUND:                -0.060
REMARK SMILES CC(C)[C@H]([NH3+])C(=O)[O-]
REMARK SMILES IDX 4 1 5 2 6 6 7 7 8 8 2 9 1 10 3 11
REMARK H PARENT 5 3 5 4 5 5
REMARK Flexibility Score: inf
ROOT
ATOM      1  C   UNL     1       7.005   0.160  15.546  1.00  0.00     0.230 C 
ENDROOT
BRANCH   1   2
ATOM      2  N   UNL     1       6.891   1.028  14.364  1.00  0.00    -0.350 N 
ATOM      3  H   UNL     1       6.448   0.525  13.562  1.00  0.00     0.345 HD
ATOM      4  H   UNL     1       6.335   1.882  14.589  1.00  0.00     0.345 HD
ATOM      5  H   UNL     1       7.845   1.342  14.070  1.00  0.00     0.345 HD
ENDBRANCH   1   2
BRANCH   1   6
ATOM      6  C   UNL     1       6.784  -1.285  15.172  1.00  0.00     0.099 C 
ATOM      7  O   UNL     1       6.634  -1.604  13.963  1.00  0.00    -0.544 OA
ATOM      8  O   UNL     1       6.789  -2.279  16.143  1.00  0.00    -0.544 OA
ENDBRANCH   1   6
BRANCH   1   9
ATOM      9  C   UNL     1       6.056   0.585  16.707  1.00  0.00     0.047 C 
ATOM     10  C   UNL     1       6.593   1.805  17.470  1.00  0.00     0.014 C 
ATOM     11  C   UNL     1       4.607   0.837  16.257  1.00  0.00     0.014 C 
ENDBRANCH   1   9
TORSDOF 3
ENDMDL
MODEL 3
REMARK VINA RESULT:    -4.609      3.140      4.005
REMARK INTER + INTRA:          -5.343
REMARK INTER:                  -5.277
REMARK INTRA:                  -0.066
REMARK UNBOUND:                -0.060
REMARK SMILES CC(C)[C@H]([NH3+])C(=O)[O-]
REMARK SMILES IDX 4 1 5 2 6 6 7 7 8 8 2 9 1 10 3 11
REMARK H PARENT 5 3 5 4 5 5
REMARK Flexibility Score: inf
ROOT
ATOM      1  C   UNL     1       4.666   0.641  17.539  1.00  0.00     0.230 C 
ENDROOT
BRANCH   1   2
ATOM      2  N   UNL     1       4.825   1.625  18.622  1.00  0.00    -0.350 N 
ATOM      3  H   UNL     1       5.270   2.505  18.276  1.00  0.00     0.345 HD
ATOM      4  H   UNL     1       3.901   1.847  19.052  1.00  0.00     0.345 HD
ATOM      5  H   UNL     1       5.433   1.220  19.372  1.00  0.00     0.345 HD
ENDBRANCH   1   2
BRANCH   1   6
ATOM      6  C   UNL     1       4.419  -0.737  18.101  1.00  0.00     0.099 C 
ATOM      7  O   UNL     1       5.174  -1.692  17.777  1.00  0.00    -0.544 OA
ATOM      8  O   UNL     1       3.392  -0.961  19.011  1.00  0.00    -0.544 OA
ENDBRANCH   1   6
BRANCH   1   9
ATOM      9  C   UNL     1       5.867   0.628  16.546  1.00  0.00     0.047 C 
ATOM     10  C   UNL     1       5.411   0.821  15.092  1.00  0.00     0.014 C 
ATOM     11  C   UNL     1       6.966   1.647  16.895  1.00  0.00     0.014 C 
ENDBRANCH   1   9
TORSDOF 3
ENDMDL
MODEL 4
REMARK VINA RESULT:    -4.560      2.692      3.733
REMARK INTER + INTRA:          -5.287
REMARK INTER:                  -5.237
REMARK INTRA:                  -0.050
REMARK UNBOUND:                -0.060
REMARK SMILES CC(C)[C@H]([NH3+])C(=O)[O-]
REMARK SMILES IDX 4 1 5 2 6 6 7 7 8 8 2 9 1 10 3 11
REMARK H PARENT 5 3 5 4 5 5
REMARK Flexibility Score: inf
ROOT
ATOM      1  C   UNL     1       4.984   1.192  17.888  1.00  0.00     0.230 C 
ENDROOT
BRANCH   1   2
ATOM      2  N   UNL     1       3.972   0.860  16.873  1.00  0.00    -0.350 N 
ATOM      3  H   UNL     1       3.868   1.628  16.172  1.00  0.00     0.345 HD
ATOM      4  H   UNL     1       4.223  -0.026  16.383  1.00  0.00     0.345 HD
ATOM      5  H   UNL     1       3.048   0.711  17.341  1.00  0.00     0.345 HD
ENDBRANCH   1   2
BRANCH   1   6
ATOM      6  C   UNL     1       6.355   1.290  17.264  1.00  0.00     0.099 C 
ATOM      7  O   UNL     1       7.123   2.237  17.582  1.00  0.00    -0.544 OA
ATOM      8  O   UNL     1       6.801   0.322  16.373  1.00  0.00    -0.544 OA
ENDBRANCH   1   6
BRANCH   1   9
ATOM      9  C   UNL     1       4.991   0.200  19.090  1.00  0.00     0.047 C 
ATOM     10  C   UNL     1       4.447   0.848  20.371  1.00  0.00     0.014 C 
ATOM     11  C   UNL     1       4.249  -1.117  18.805  1.00  0.00     0.014 C 
ENDBRANCH   1   9
TORSDOF 3
ENDMDL
MODEL 5
REMARK VINA RESULT:    -4.465      1.627      2.410
REMARK INTER + INTRA:          -5.177
REMARK INTER:                  -5.286
REMARK INTRA:                   0.109
REMARK UNBOUND:                -0.060
REMARK SMILES CC(C)[C@H]([NH3+])C(=O)[O-]
REMARK SMILES IDX 4 1 5 2 6 6 7 7 8 8 2 9 1 10 3 11
REMARK H PARENT 5 3 5 4 5 5
REMARK Flexibility Score: inf
ROOT
ATOM      1  C   UNL     1       5.904   0.999  15.383  1.00  0.00     0.230 C 
ENDROOT
BRANCH   1   2
ATOM      2  N   UNL     1       5.604  -0.003  14.348  1.00  0.00    -0.350 N 
ATOM      3  H   UNL     1       4.652   0.142  13.942  1.00  0.00     0.345 HD
ATOM      4  H   UNL     1       6.316   0.034  13.587  1.00  0.00     0.345 HD
ATOM      5  H   UNL     1       5.641  -0.960  14.770  1.00  0.00     0.345 HD
ENDBRANCH   1   2
BRANCH   1   6
ATOM      6  C   UNL     1       7.351   0.917  15.803  1.00  0.00     0.099 C 
ATOM      7  O   UNL     1       7.940  -0.197  15.813  1.00  0.00    -0.544 OA
ATOM      8  O   UNL     1       8.061   2.064  16.136  1.00  0.00    -0.544 OA
ENDBRANCH   1   6
BRANCH   1   9
ATOM      9  C   UNL     1       4.961   0.899  16.620  1.00  0.00     0.047 C 
ATOM     10  C   UNL     1       4.581  -0.555  16.935  1.00  0.00     0.014 C 
ATOM     11  C   UNL     1       5.521   1.585  17.878  1.00  0.00     0.014 C 
ENDBRANCH   1   9
TORSDOF 3
ENDMDL
MODEL 6
REMARK VINA RESULT:    -4.428      1.874      2.391
REMARK INTER + INTRA:          -5.136
REMARK INTER:                  -5.281
REMARK INTRA:                   0.146
REMARK UNBOUND:                -0.060
REMARK SMILES CC(C)[C@H]([NH3+])C(=O)[O-]
REMARK SMILES IDX 4 1 5 2 6 6 7 7 8 8 2 9 1 10 3 11
REMARK H PARENT 5 3 5 4 5 5
REMARK Flexibility Score: inf
ROOT
ATOM      1  C   UNL     1       7.780  -0.510  15.055  1.00  0.00     0.230 C 
ENDROOT
BRANCH   1   2
ATOM      2  N   UNL     1       8.494  -0.665  13.778  1.00  0.00    -0.350 N 
ATOM      3  H   UNL     1       7.841  -0.927  13.005  1.00  0.00     0.345 HD
ATOM      4  H   UNL     1       8.992   0.217  13.529  1.00  0.00     0.345 HD
ATOM      5  H   UNL     1       9.214  -1.419  13.872  1.00  0.00     0.345 HD
ENDBRANCH   1   2
BRANCH   1   6
ATOM      6  C   UNL     1       6.828  -1.659  15.279  1.00  0.00     0.099 C 
ATOM      7  O   UNL     1       6.608  -2.482  14.351  1.00  0.00    -0.544 OA
ATOM      8  O   UNL     1       6.220  -1.849  16.514  1.00  0.00    -0.544 OA
ENDBRANCH   1   6
BRANCH   1   9
ATOM      9  C   UNL     1       7.041   0.856  15.178  1.00  0.00     0.047 C 
ATOM     10  C   UNL     1       5.535   0.720  14.905  1.00  0.00     0.014 C 
ATOM     11  C   UNL     1       7.273   1.563  16.525  1.00  0.00     0.014 C 
ENDBRANCH   1   9
TORSDOF 3
ENDMDL
MODEL 7
REMARK VINA RESULT:    -4.379      1.412      1.987
REMARK INTER + INTRA:          -5.079
REMARK INTER:                  -5.035
REMARK INTRA:                  -0.043
REMARK UNBOUND:                -0.060
REMARK SMILES CC(C)[C@H]([NH3+])C(=O)[O-]
REMARK SMILES IDX 4 1 5 2 6 6 7 7 8 8 2 9 1 10 3 11
REMARK H PARENT 5 3 5 4 5 5
REMARK Flexibility Score: inf
ROOT
ATOM      1  C   UNL     1       6.220  -0.743  15.250  1.00  0.00     0.230 C 
ENDROOT
BRANCH   1   2
ATOM      2  N   UNL     1       6.067  -1.604  16.434  1.00  0.00    -0.350 N 
ATOM      3  H   UNL     1       6.907  -1.554  17.053  1.00  0.00     0.345 HD
ATOM      4  H   UNL     1       5.218  -1.331  16.976  1.00  0.00     0.345 HD
ATOM      5  H   UNL     1       5.940  -2.596  16.127  1.00  0.00     0.345 HD
ENDBRANCH   1   2
BRANCH   1   6
ATOM      6  C   UNL     1       7.582  -0.930  14.626  1.00  0.00     0.099 C 
ATOM      7  O   UNL     1       7.780  -0.573  13.435  1.00  0.00    -0.544 OA
ATOM      8  O   UNL     1       8.637  -1.449  15.366  1.00  0.00    -0.544 OA
ENDBRANCH   1   6
BRANCH   1   9
ATOM      9  C   UNL     1       5.949   0.761  15.551  1.00  0.00     0.047 C 
ATOM     10  C   UNL     1       4.635   0.965  16.320  1.00  0.00     0.014 C 
ATOM     11  C   UNL     1       7.106   1.461  16.285  1.00  0.00     0.014 C 
ENDBRANCH   1   9
TORSDOF 3
ENDMDL
MODEL 8
REMARK VINA RESULT:    -4.333      3.599      4.973
REMARK INTER + INTRA:          -5.026
REMARK INTER:                  -5.008
REMARK INTRA:                  -0.018
REMARK UNBOUND:                -0.060
REMARK SMILES CC(C)[C@H]([NH3+])C(=O)[O-]
REMARK SMILES IDX 4 1 5 2 6 6 7 7 8 8 2 9 1 10 3 11
REMARK H PARENT 5 3 5 4 5 5
REMARK Flexibility Score: inf
ROOT
ATOM      1  C   UNL     1       8.329  -3.071  15.303  1.00  0.00     0.230 C 
ENDROOT
BRANCH   1   2
ATOM      2  N   UNL     1       7.285  -3.759  14.528  1.00  0.00    -0.350 N 
ATOM      3  H   UNL     1       7.462  -3.685  13.500  1.00  0.00     0.345 HD
ATOM      4  H   UNL     1       7.233  -4.765  14.799  1.00  0.00     0.345 HD
ATOM      5  H   UNL     1       6.356  -3.327  14.736  1.00  0.00     0.345 HD
ENDBRANCH   1   2
BRANCH   1   6
ATOM      6  C   UNL     1       8.415  -1.616  14.911  1.00  0.00     0.099 C 
ATOM      7  O   UNL     1       9.147  -0.830  15.570  1.00  0.00    -0.544 OA
ATOM      8  O   UNL     1       7.729  -1.137  13.801  1.00  0.00    -0.544 OA
ENDBRANCH   1   6
BRANCH   1   9
ATOM      9  C   UNL     1       9.723  -3.758  15.193  1.00  0.00     0.047 C 
ATOM     10  C   UNL     1      10.419  -3.865  16.558  1.00  0.00     0.014 C 
ATOM     11  C   UNL     1       9.679  -5.137  14.512  1.00  0.00     0.014 C 
ENDBRANCH   1   9
TORSDOF 3
ENDMDL
MODEL 9
REMARK VINA RESULT:    -4.272      1.790      2.597
REMARK INTER + INTRA:          -4.956
REMARK INTER:                  -4.930
REMARK INTRA:                  -0.026
REMARK UNBOUND:                -0.060
REMARK SMILES CC(C)[C@H]([NH3+])C(=O)[O-]
REMARK SMILES IDX 4 1 5 2 6 6 7 7 8 8 2 9 1 10 3 11
REMARK H PARENT 5 3 5 4 5 5
REMARK Flexibility Score: inf
ROOT
ATOM      1  C   UNL     1       6.897   1.100  16.889  1.00  0.00     0.230 C 
ENDROOT
BRANCH   1   2
ATOM      2  N   UNL     1       7.586   2.380  17.116  1.00  0.00    -0.350 N 
ATOM      3  H   UNL     1       8.041   2.729  16.242  1.00  0.00     0.345 HD
ATOM      4  H   UNL     1       6.916   3.098  17.470  1.00  0.00     0.345 HD
ATOM      5  H   UNL     1       8.326   2.252  17.845  1.00  0.00     0.345 HD
ENDBRANCH   1   2
BRANCH   1   6
ATOM      6  C   UNL     1       7.281   0.515  15.552  1.00  0.00     0.099 C 
ATOM      7  O   UNL     1       7.913  -0.573  15.502  1.00  0.00    -0.544 OA
ATOM      8  O   UNL     1       6.907   1.140  14.369  1.00  0.00    -0.544 OA
ENDBRANCH   1   6
BRANCH   1   9
ATOM      9  C   UNL     1       5.348   1.210  17.022  1.00  0.00     0.047 C 
ATOM     10  C   UNL     1       4.642  -0.085  16.593  1.00  0.00     0.014 C 
ATOM     11  C   UNL     1       4.878   1.630  18.426  1.00  0.00     0.014 C 
ENDBRANCH   1   9
TORSDOF 3
ENDMDL
