MODEL 1
REMARK VINA RESULT:    -5.159      0.000      0.000
REMARK INTER + INTRA:          -6.104
REMARK INTER:                  -5.913
REMARK INTRA:                  -0.191
REMARK UNBOUND:                -0.191
REMARK SMILES COc1ccc(C(C)=O)c(O)c1
REMARK SMILES IDX 6 1 10 2 12 3 3 4 4 5 5 6 7 7 8 8 9 9 11 10 2 12 1 13
REMARK H PARENT 11 11
REMARK Flexibility Score: inf
ROOT
ATOM      1  C   UNL     1       0.945 -21.018  -5.989  1.00  0.00     0.059 A 
ATOM      2  C   UNL     1       1.654 -19.852  -6.361  1.00  0.00     0.130 A 
ATOM      3  C   UNL     1       1.788 -18.793  -5.450  1.00  0.00     0.093 A 
ATOM      4  C   UNL     1       1.211 -18.869  -4.172  1.00  0.00     0.122 A 
ATOM      5  C   UNL     1       0.496 -20.013  -3.815  1.00  0.00     0.047 A 
ATOM      6  C   UNL     1       0.360 -21.075  -4.711  1.00  0.00     0.019 A 
ENDROOT
BRANCH   1   7
ATOM      7  C   UNL     1       0.783 -22.182  -6.903  1.00  0.00     0.163 C 
ATOM      8  C   UNL     1       0.201 -23.487  -6.449  1.00  0.00     0.093 C 
ATOM      9  O   UNL     1       1.143 -22.077  -8.107  1.00  0.00    -0.294 OA
ENDBRANCH   1   7
BRANCH   2  10
ATOM     10  O   UNL     1       2.206 -19.728  -7.636  1.00  0.00    -0.507 OA
ATOM     11  H   UNL     1       2.693 -20.496  -8.085  1.00  0.00     0.293 HD
ENDBRANCH   2  10
BRANCH   4  12
ATOM     12  O   UNL     1       1.319 -17.832  -3.233  1.00  0.00    -0.497 OA
ATOM     13  C   UNL     1       2.431 -17.649  -2.362  1.00  0.00     0.278 C 
ENDBRANCH   4  12
TORSDOF 3
ENDMDL
MODEL 2
REMARK VINA RESULT:    -4.891      1.326      1.326
REMARK INTER + INTRA:          -5.797
REMARK INTER:                  -5.469
REMARK INTRA:                  -0.328
REMARK UNBOUND:                -0.191
REMARK SMILES COc1ccc(C(C)=O)c(O)c1
REMARK SMILES IDX 6 1 10 2 12 3 3 4 4 5 5 6 7 7 8 8 9 9 11 10 2 12 1 13
REMARK H PARENT 11 11
REMARK Flexibility Score: inf
ROOT
ATOM      1  C   UNL     1       1.381 -21.340  -5.776  1.00  0.00     0.059 A 
ATOM      2  C   UNL     1       2.747 -21.001  -5.632  1.00  0.00     0.130 A 
ATOM      3  C   UNL     1       3.171 -20.257  -4.520  1.00  0.00     0.093 A 
ATOM      4  C   UNL     1       2.249 -19.829  -3.550  1.00  0.00     0.122 A 
ATOM      5  C   UNL     1       0.899 -20.149  -3.705  1.00  0.00     0.047 A 
ATOM      6  C   UNL     1       0.467 -20.892  -4.805  1.00  0.00     0.019 A 
ENDROOT
BRANCH   1   7
ATOM      7  C   UNL     1       0.872 -22.140  -6.923  1.00  0.00     0.163 C 
ATOM      8  C   UNL     1       0.140 -23.436  -6.739  1.00  0.00     0.093 C 
ATOM      9  O   UNL     1       1.056 -21.722  -8.099  1.00  0.00    -0.294 OA
ENDBRANCH   1   7
BRANCH   2  10
ATOM     10  O   UNL     1       3.682 -21.376  -6.596  1.00  0.00    -0.507 OA
ATOM     11  H   UNL     1       3.405 -21.822  -7.464  1.00  0.00     0.293 HD
ENDBRANCH   2  10
BRANCH   4  12
ATOM     12  O   UNL     1       2.630 -19.082  -2.425  1.00  0.00    -0.497 OA
ATOM     13  C   UNL     1       2.491 -17.669  -2.312  1.00  0.00     0.278 C 
ENDBRANCH   4  12
TORSDOF 3
ENDMDL
MODEL 3
REMARK VINA RESULT:    -4.670     10.647     11.150
REMARK INTER + INTRA:          -5.544
REMARK INTER:                  -5.216
REMARK INTRA:                  -0.328
REMARK UNBOUND:                -0.191
REMARK SMILES COc1ccc(C(C)=O)c(O)c1
REMARK SMILES IDX 6 1 10 2 12 3 3 4 4 5 5 6 7 7 8 8 9 9 11 10 2 12 1 13
REMARK H PARENT 11 11
REMARK Flexibility Score: inf
ROOT
ATOM      1  C   UNL     1      -6.925 -27.457  -3.273  1.00  0.00     0.059 A 
ATOM      2  C   UNL     1      -6.509 -26.608  -2.221  1.00  0.00     0.130 A 
ATOM      3  C   UNL     1      -7.272 -25.477  -1.890  1.00  0.00     0.093 A 
ATOM      4  C   UNL     1      -8.441 -25.166  -2.605  1.00  0.00     0.122 A 
ATOM      5  C   UNL     1      -8.837 -25.996  -3.655  1.00  0.00     0.047 A 
ATOM      6  C   UNL     1      -8.089 -27.126  -3.990  1.00  0.00     0.019 A 
ENDROOT
BRANCH   1   7
ATOM      7  C   UNL     1      -6.169 -28.680  -3.660  1.00  0.00     0.163 C 
ATOM      8  C   UNL     1      -6.851 -29.955  -4.056  1.00  0.00     0.093 C 
ATOM      9  O   UNL     1      -4.908 -28.653  -3.660  1.00  0.00    -0.294 OA
ENDBRANCH   1   7
BRANCH   2  10
ATOM     10  O   UNL     1      -5.333 -26.865  -1.517  1.00  0.00    -0.507 OA
ATOM     11  H   UNL     1      -4.882 -27.773  -1.544  1.00  0.00     0.293 HD
ENDBRANCH   2  10
BRANCH   4  12
ATOM     12  O   UNL     1      -9.230 -24.045  -2.309  1.00  0.00    -0.497 OA
ATOM     13  C   UNL     1      -8.724 -22.820  -1.788  1.00  0.00     0.278 C 
ENDBRANCH   4  12
TORSDOF 3
ENDMDL
MODEL 4
REMARK VINA RESULT:    -4.587      0.974      4.575
REMARK INTER + INTRA:          -5.448
REMARK INTER:                  -5.113
REMARK INTRA:                  -0.335
REMARK UNBOUND:                -0.191
REMARK SMILES COc1ccc(C(C)=O)c(O)c1
REMARK SMILES IDX 6 1 10 2 12 3 3 4 4 5 5 6 7 7 8 8 9 9 11 10 2 12 1 13
REMARK H PARENT 11 11
REMARK Flexibility Score: inf
ROOT
ATOM      1  C   UNL     1       1.459 -18.915  -4.588  1.00  0.00     0.059 A 
ATOM      2  C   UNL     1       1.929 -18.932  -5.922  1.00  0.00     0.130 A 
ATOM      3  C   UNL     1       1.677 -20.045  -6.740  1.00  0.00     0.093 A 
ATOM      4  C   UNL     1       0.975 -21.156  -6.243  1.00  0.00     0.122 A 
ATOM      5  C   UNL     1       0.529 -21.143  -4.920  1.00  0.00     0.047 A 
ATOM      6  C   UNL     1       0.770 -20.040  -4.099  1.00  0.00     0.019 A 
ENDROOT
BRANCH   1   7
ATOM      7  C   UNL     1       1.679 -17.759  -3.678  1.00  0.00     0.163 C 
ATOM      8  C   UNL     1       2.391 -17.891  -2.365  1.00  0.00     0.093 C 
ATOM      9  O   UNL     1       1.257 -16.619  -4.014  1.00  0.00    -0.294 OA
ENDBRANCH   1   7
BRANCH   2  10
ATOM     10  O   UNL     1       2.663 -17.864  -6.435  1.00  0.00    -0.507 OA
ATOM     11  H   UNL     1       3.102 -17.906  -7.348  1.00  0.00     0.293 HD
ENDBRANCH   2  10
BRANCH   4  12
ATOM     12  O   UNL     1       0.704 -22.288  -7.025  1.00  0.00    -0.497 OA
ATOM     13  C   UNL     1       0.209 -23.522  -6.512  1.00  0.00     0.278 C 
ENDBRANCH   4  12
TORSDOF 3
ENDMDL
MODEL 5
REMARK VINA RESULT:    -4.495     12.979     14.490
REMARK INTER + INTRA:          -5.343
REMARK INTER:                  -5.010
REMARK INTRA:                  -0.333
REMARK UNBOUND:                -0.191
REMARK SMILES COc1ccc(C(C)=O)c(O)c1
REMARK SMILES IDX 6 1 10 2 12 3 3 4 4 5 5 6 7 7 8 8 9 9 11 10 2 12 1 13
REMARK H PARENT 11 11
REMARK Flexibility Score: inf
ROOT
ATOM      1  C   UNL     1       3.840 -25.978   7.521  1.00  0.00     0.059 A 
ATOM      2  C   UNL     1       4.991 -25.809   8.327  1.00  0.00     0.130 A 
ATOM      3  C   UNL     1       5.882 -24.757   8.064  1.00  0.00     0.093 A 
ATOM      4  C   UNL     1       5.654 -23.874   6.995  1.00  0.00     0.122 A 
ATOM      5  C   UNL     1       4.528 -24.055   6.191  1.00  0.00     0.047 A 
ATOM      6  C   UNL     1       3.632 -25.095   6.446  1.00  0.00     0.019 A 
ENDROOT
BRANCH   1   7
ATOM      7  C   UNL     1       2.848 -27.062   7.760  1.00  0.00     0.163 C 
ATOM      8  C   UNL     1       2.139 -27.764   6.642  1.00  0.00     0.093 C 
ATOM      9  O   UNL     1       2.589 -27.412   8.943  1.00  0.00    -0.294 OA
ENDBRANCH   1   7
BRANCH   2  10
ATOM     10  O   UNL     1       5.267 -26.691   9.371  1.00  0.00    -0.507 OA
ATOM     11  H   UNL     1       5.263 -27.696   9.237  1.00  0.00     0.293 HD
ENDBRANCH   2  10
BRANCH   4  12
ATOM     12  O   UNL     1       6.521 -22.812   6.697  1.00  0.00    -0.497 OA
ATOM     13  C   UNL     1       6.545 -22.119   5.453  1.00  0.00     0.278 C 
ENDBRANCH   4  12
TORSDOF 3
ENDMDL
MODEL 6
REMARK VINA RESULT:    -4.448      1.515      2.287
REMARK INTER + INTRA:          -5.289
REMARK INTER:                  -4.995
REMARK INTRA:                  -0.293
REMARK UNBOUND:                -0.191
REMARK SMILES COc1ccc(C(C)=O)c(O)c1
REMARK SMILES IDX 6 1 10 2 12 3 3 4 4 5 5 6 7 7 8 8 9 9 11 10 2 12 1 13
REMARK H PARENT 11 11
REMARK Flexibility Score: inf
ROOT
ATOM      1  C   UNL     1       1.528 -20.293  -6.177  1.00  0.00     0.059 A 
ATOM      2  C   UNL     1       0.905 -20.386  -4.910  1.00  0.00     0.130 A 
ATOM      3  C   UNL     1       1.145 -19.402  -3.938  1.00  0.00     0.093 A 
ATOM      4  C   UNL     1       2.014 -18.330  -4.202  1.00  0.00     0.122 A 
ATOM      5  C   UNL     1       2.642 -18.253  -5.446  1.00  0.00     0.047 A 
ATOM      6  C   UNL     1       2.406 -19.223  -6.422  1.00  0.00     0.019 A 
ENDROOT
BRANCH   1   7
ATOM      7  C   UNL     1       1.300 -21.294  -7.255  1.00  0.00     0.163 C 
ATOM      8  C   UNL     1       1.466 -20.964  -8.708  1.00  0.00     0.093 C 
ATOM      9  O   UNL     1       0.955 -22.467  -6.947  1.00  0.00    -0.294 OA
ENDBRANCH   1   7
BRANCH   2  10
ATOM     10  O   UNL     1       0.067 -21.457  -4.602  1.00  0.00    -0.507 OA
ATOM     11  H   UNL     1       0.372 -22.419  -4.701  1.00  0.00     0.293 HD
ENDBRANCH   2  10
BRANCH   4  12
ATOM     12  O   UNL     1       2.284 -17.328  -3.258  1.00  0.00    -0.497 OA
ATOM     13  C   UNL     1       2.712 -17.575  -1.921  1.00  0.00     0.278 C 
ENDBRANCH   4  12
TORSDOF 3
ENDMDL
MODEL 7
REMARK VINA RESULT:    -4.418     10.388     12.057
REMARK INTER + INTRA:          -5.254
REMARK INTER:                  -4.911
REMARK INTRA:                  -0.343
REMARK UNBOUND:                -0.191
REMARK SMILES COc1ccc(C(C)=O)c(O)c1
REMARK SMILES IDX 6 1 10 2 12 3 3 4 4 5 5 6 7 7 8 8 9 9 11 10 2 12 1 13
REMARK H PARENT 11 11
REMARK Flexibility Score: inf
ROOT
ATOM      1  C   UNL     1      -8.152 -24.878  -2.355  1.00  0.00     0.059 A 
ATOM      2  C   UNL     1      -9.121 -25.445  -3.215  1.00  0.00     0.130 A 
ATOM      3  C   UNL     1      -8.839 -26.638  -3.899  1.00  0.00     0.093 A 
ATOM      4  C   UNL     1      -7.592 -27.270  -3.755  1.00  0.00     0.122 A 
ATOM      5  C   UNL     1      -6.631 -26.697  -2.920  1.00  0.00     0.047 A 
ATOM      6  C   UNL     1      -6.903 -25.514  -2.231  1.00  0.00     0.019 A 
ENDROOT
BRANCH   1   7
ATOM      7  C   UNL     1      -8.397 -23.626  -1.588  1.00  0.00     0.163 C 
ATOM      8  C   UNL     1      -7.403 -22.505  -1.537  1.00  0.00     0.093 C 
ATOM      9  O   UNL     1      -9.480 -23.491  -0.955  1.00  0.00    -0.294 OA
ENDBRANCH   1   7
BRANCH   2  10
ATOM     10  O   UNL     1     -10.353 -24.823  -3.411  1.00  0.00    -0.507 OA
ATOM     11  H   UNL     1     -11.064 -25.223  -4.014  1.00  0.00     0.293 HD
ENDBRANCH   2  10
BRANCH   4  12
ATOM     12  O   UNL     1      -7.269 -28.460  -4.422  1.00  0.00    -0.497 OA
ATOM     13  C   UNL     1      -6.511 -29.523  -3.852  1.00  0.00     0.278 C 
ENDBRANCH   4  12
TORSDOF 3
ENDMDL
MODEL 8
REMARK VINA RESULT:    -4.411     12.042     13.990
REMARK INTER + INTRA:          -5.247
REMARK INTER:                  -4.980
REMARK INTRA:                  -0.267
REMARK UNBOUND:                -0.191
REMARK SMILES COc1ccc(C(C)=O)c(O)c1
REMARK SMILES IDX 6 1 10 2 12 3 3 4 4 5 5 6 7 7 8 8 9 9 11 10 2 12 1 13
REMARK H PARENT 11 11
REMARK Flexibility Score: inf
ROOT
ATOM      1  C   UNL     1       5.453 -24.471   7.351  1.00  0.00     0.059 A 
ATOM      2  C   UNL     1       5.971 -25.490   6.517  1.00  0.00     0.130 A 
ATOM      3  C   UNL     1       6.092 -25.271   5.136  1.00  0.00     0.093 A 
ATOM      4  C   UNL     1       5.688 -24.053   4.564  1.00  0.00     0.122 A 
ATOM      5  C   UNL     1       5.161 -23.057   5.388  1.00  0.00     0.047 A 
ATOM      6  C   UNL     1       5.040 -23.262   6.764  1.00  0.00     0.019 A 
ENDROOT
BRANCH   1   7
ATOM      7  C   UNL     1       5.317 -24.636   8.824  1.00  0.00     0.163 C 
ATOM      8  C   UNL     1       5.226 -23.468   9.759  1.00  0.00     0.093 C 
ATOM      9  O   UNL     1       5.272 -25.797   9.314  1.00  0.00    -0.294 OA
ENDBRANCH   1   7
BRANCH   2  10
ATOM     10  O   UNL     1       6.343 -26.726   7.045  1.00  0.00    -0.507 OA
ATOM     11  H   UNL     1       7.279 -27.099   6.924  1.00  0.00     0.293 HD
ENDBRANCH   2  10
BRANCH   4  12
ATOM     12  O   UNL     1       5.790 -23.794   3.190  1.00  0.00    -0.497 OA
ATOM     13  C   UNL     1       5.279 -24.647   2.170  1.00  0.00     0.278 C 
ENDBRANCH   4  12
TORSDOF 3
ENDMDL
MODEL 9
REMARK VINA RESULT:    -4.384      2.623      3.063
REMARK INTER + INTRA:          -5.216
REMARK INTER:                  -4.880
REMARK INTRA:                  -0.336
REMARK UNBOUND:                -0.191
REMARK SMILES COc1ccc(C(C)=O)c(O)c1
REMARK SMILES IDX 6 1 10 2 12 3 3 4 4 5 5 6 7 7 8 8 9 9 11 10 2 12 1 13
REMARK H PARENT 11 11
REMARK Flexibility Score: inf
ROOT
ATOM      1  C   UNL     1       2.082 -20.996  -6.094  1.00  0.00     0.059 A 
ATOM      2  C   UNL     1       1.583 -20.550  -4.848  1.00  0.00     0.130 A 
ATOM      3  C   UNL     1       2.473 -20.140  -3.843  1.00  0.00     0.093 A 
ATOM      4  C   UNL     1       3.862 -20.183  -4.053  1.00  0.00     0.122 A 
ATOM      5  C   UNL     1       4.351 -20.642  -5.277  1.00  0.00     0.047 A 
ATOM      6  C   UNL     1       3.475 -21.048  -6.286  1.00  0.00     0.019 A 
ENDROOT
BRANCH   1   7
ATOM      7  C   UNL     1       1.190 -21.427  -7.205  1.00  0.00     0.163 C 
ATOM      8  C   UNL     1       1.412 -21.003  -8.626  1.00  0.00     0.093 C 
ATOM      9  O   UNL     1       0.208 -22.178  -6.953  1.00  0.00    -0.294 OA
ENDBRANCH   1   7
BRANCH   2  10
ATOM     10  O   UNL     1       0.213 -20.532  -4.592  1.00  0.00    -0.507 OA
ATOM     11  H   UNL     1      -0.466 -20.355  -5.324  1.00  0.00     0.293 HD
ENDBRANCH   2  10
BRANCH   4  12
ATOM     12  O   UNL     1       4.785 -19.786  -3.075  1.00  0.00    -0.497 OA
ATOM     13  C   UNL     1       5.775 -20.639  -2.508  1.00  0.00     0.278 C 
ENDBRANCH   4  12
TORSDOF 3
ENDMDL
