MODEL 1
REMARK VINA RESULT:    -4.850      0.000      0.000
REMARK INTER + INTRA:          -4.850
REMARK INTER:                  -4.850
REMARK INTRA:                   0.000
REMARK UNBOUND:                 0.000
REMARK SMILES CC1(C)[C@@H]2CC[C@@]1(C)C(=O)C2
REMARK SMILES IDX 1 1 2 2 4 3 5 4 6 5 7 6 9 7 10 8 11 9 8 10 3 11
REMARK H PARENT
REMARK Flexibility Score: inf
ROOT
ATOM      1  C   UNL     1     -33.574  38.888  43.674  1.00  0.00     0.012 C 
ATOM      2  C   UNL     1     -33.204  39.682  42.384  1.00  0.00    -0.020 C 
ATOM      3  C   UNL     1     -31.703  39.618  42.018  1.00  0.00     0.003 C 
ATOM      4  C   UNL     1     -31.029  40.346  43.214  1.00  0.00     0.005 C 
ATOM      5  C   UNL     1     -32.049  41.458  43.564  1.00  0.00     0.015 C 
ATOM      6  C   UNL     1     -33.179  41.218  42.533  1.00  0.00     0.032 C 
ATOM      7  C   UNL     1     -32.580  41.617  41.207  1.00  0.00     0.139 C 
ATOM      8  O   UNL     1     -32.802  42.654  40.602  1.00  0.00    -0.299 OA
ATOM      9  C   UNL     1     -31.584  40.576  40.800  1.00  0.00     0.080 C 
ATOM     10  C   UNL     1     -34.511  41.895  42.872  1.00  0.00     0.020 C 
ATOM     11  C   UNL     1     -34.146  39.152  41.257  1.00  0.00     0.012 C 
ENDROOT
TORSDOF 0
ENDMDL
MODEL 2
REMARK VINA RESULT:    -4.845      5.255      6.941
REMARK INTER + INTRA:          -4.845
REMARK INTER:                  -4.845
REMARK INTRA:                   0.000
REMARK UNBOUND:                 0.000
REMARK SMILES CC1(C)[C@@H]2CC[C@@]1(C)C(=O)C2
REMARK SMILES IDX 1 1 2 2 4 3 5 4 6 5 7 6 9 7 10 8 11 9 8 10 3 11
REMARK H PARENT
REMARK Flexibility Score: inf
ROOT
ATOM      1  C   UNL     1     -34.731  38.919  45.466  1.00  0.00     0.012 C 
ATOM      2  C   UNL     1     -35.710  37.916  46.149  1.00  0.00    -0.020 C 
ATOM      3  C   UNL     1     -35.836  36.562  45.411  1.00  0.00     0.003 C 
ATOM      4  C   UNL     1     -36.471  36.972  44.053  1.00  0.00     0.005 C 
ATOM      5  C   UNL     1     -37.428  38.124  44.450  1.00  0.00     0.015 C 
ATOM      6  C   UNL     1     -37.212  38.233  45.979  1.00  0.00     0.032 C 
ATOM      7  C   UNL     1     -37.827  36.977  46.545  1.00  0.00     0.139 C 
ATOM      8  O   UNL     1     -38.906  36.899  47.112  1.00  0.00    -0.299 OA
ATOM      9  C   UNL     1     -36.945  35.817  46.204  1.00  0.00     0.080 C 
ATOM     10  C   UNL     1     -37.711  39.539  46.606  1.00  0.00     0.020 C 
ATOM     11  C   UNL     1     -35.238  37.778  47.631  1.00  0.00     0.012 C 
ENDROOT
TORSDOF 0
ENDMDL
MODEL 3
REMARK VINA RESULT:    -4.836      1.130      2.939
REMARK INTER + INTRA:          -4.836
REMARK INTER:                  -4.836
REMARK INTRA:                   0.000
REMARK UNBOUND:                 0.000
REMARK SMILES CC1(C)[C@@H]2CC[C@@]1(C)C(=O)C2
REMARK SMILES IDX 1 1 2 2 4 3 5 4 6 5 7 6 9 7 10 8 11 9 8 10 3 11
REMARK H PARENT
REMARK Flexibility Score: inf
ROOT
ATOM      1  C   UNL     1     -30.929  39.523  42.873  1.00  0.00     0.012 C 
ATOM      2  C   UNL     1     -32.122  40.488  43.147  1.00  0.00    -0.020 C 
ATOM      3  C   UNL     1     -33.351  39.799  43.786  1.00  0.00     0.003 C 
ATOM      4  C   UNL     1     -33.804  38.811  42.675  1.00  0.00     0.005 C 
ATOM      5  C   UNL     1     -33.513  39.598  41.372  1.00  0.00     0.015 C 
ATOM      6  C   UNL     1     -32.922  40.927  41.901  1.00  0.00     0.032 C 
ATOM      7  C   UNL     1     -34.086  41.632  42.552  1.00  0.00     0.139 C 
ATOM      8  O   UNL     1     -34.712  42.569  42.081  1.00  0.00    -0.299 OA
ATOM      9  C   UNL     1     -34.419  40.927  43.831  1.00  0.00     0.080 C 
ATOM     10  C   UNL     1     -32.164  41.753  40.857  1.00  0.00     0.020 C 
ATOM     11  C   UNL     1     -31.551  41.663  44.001  1.00  0.00     0.012 C 
ENDROOT
TORSDOF 0
ENDMDL
MODEL 4
REMARK VINA RESULT:    -4.800      5.319      6.589
REMARK INTER + INTRA:          -4.800
REMARK INTER:                  -4.800
REMARK INTRA:                   0.000
REMARK UNBOUND:                 0.000
REMARK SMILES CC1(C)[C@@H]2CC[C@@]1(C)C(=O)C2
REMARK SMILES IDX 1 1 2 2 4 3 5 4 6 5 7 6 9 7 10 8 11 9 8 10 3 11
REMARK H PARENT
REMARK Flexibility Score: inf
ROOT
ATOM      1  C   UNL     1     -36.933  35.380  43.185  1.00  0.00     0.012 C 
ATOM      2  C   UNL     1     -36.377  36.381  44.243  1.00  0.00    -0.020 C 
ATOM      3  C   UNL     1     -34.869  36.690  44.083  1.00  0.00     0.003 C 
ATOM      4  C   UNL     1     -34.208  35.311  44.363  1.00  0.00     0.005 C 
ATOM      5  C   UNL     1     -35.117  34.707  45.463  1.00  0.00     0.015 C 
ATOM      6  C   UNL     1     -36.185  35.809  45.664  1.00  0.00     0.032 C 
ATOM      7  C   UNL     1     -35.446  36.946  46.325  1.00  0.00     0.139 C 
ATOM      8  O   UNL     1     -35.500  37.246  47.507  1.00  0.00    -0.299 OA
ATOM      9  C   UNL     1     -34.549  37.586  45.311  1.00  0.00     0.080 C 
ATOM     10  C   UNL     1     -37.452  35.350  46.393  1.00  0.00     0.020 C 
ATOM     11  C   UNL     1     -37.285  37.649  44.168  1.00  0.00     0.012 C 
ENDROOT
TORSDOF 0
ENDMDL
MODEL 5
REMARK VINA RESULT:    -4.788      1.305      2.554
REMARK INTER + INTRA:          -4.788
REMARK INTER:                  -4.788
REMARK INTRA:                   0.000
REMARK UNBOUND:                 0.000
REMARK SMILES CC1(C)[C@@H]2CC[C@@]1(C)C(=O)C2
REMARK SMILES IDX 1 1 2 2 4 3 5 4 6 5 7 6 9 7 10 8 11 9 8 10 3 11
REMARK H PARENT
REMARK Flexibility Score: inf
ROOT
ATOM      1  C   UNL     1     -31.398  41.658  43.892  1.00  0.00     0.012 C 
ATOM      2  C   UNL     1     -32.413  40.986  42.919  1.00  0.00    -0.020 C 
ATOM      3  C   UNL     1     -32.533  39.454  43.099  1.00  0.00     0.003 C 
ATOM      4  C   UNL     1     -31.117  38.952  42.704  1.00  0.00     0.005 C 
ATOM      5  C   UNL     1     -30.712  39.917  41.561  1.00  0.00     0.015 C 
ATOM      6  C   UNL     1     -31.941  40.852  41.455  1.00  0.00     0.032 C 
ATOM      7  C   UNL     1     -33.036  39.984  40.888  1.00  0.00     0.139 C 
ATOM      8  O   UNL     1     -33.437  39.995  39.734  1.00  0.00    -0.299 OA
ATOM      9  C   UNL     1     -33.485  39.026  41.948  1.00  0.00     0.080 C 
ATOM     10  C   UNL     1     -31.690  42.158  40.694  1.00  0.00     0.020 C 
ATOM     11  C   UNL     1     -33.766  41.745  43.100  1.00  0.00     0.012 C 
ENDROOT
TORSDOF 0
ENDMDL
MODEL 6
REMARK VINA RESULT:    -4.723      4.286      5.590
REMARK INTER + INTRA:          -4.723
REMARK INTER:                  -4.723
REMARK INTRA:                   0.000
REMARK UNBOUND:                 0.000
REMARK SMILES CC1(C)[C@@H]2CC[C@@]1(C)C(=O)C2
REMARK SMILES IDX 1 1 2 2 4 3 5 4 6 5 7 6 9 7 10 8 11 9 8 10 3 11
REMARK H PARENT
REMARK Flexibility Score: inf
ROOT
ATOM      1  C   UNL     1     -34.689  35.325  44.353  1.00  0.00     0.012 C 
ATOM      2  C   UNL     1     -35.824  36.325  43.980  1.00  0.00    -0.020 C 
ATOM      3  C   UNL     1     -35.335  37.561  43.187  1.00  0.00     0.003 C 
ATOM      4  C   UNL     1     -34.409  38.277  44.210  1.00  0.00     0.005 C 
ATOM      5  C   UNL     1     -35.124  38.024  45.562  1.00  0.00     0.015 C 
ATOM      6  C   UNL     1     -36.358  37.190  45.143  1.00  0.00     0.032 C 
ATOM      7  C   UNL     1     -37.238  38.156  44.390  1.00  0.00     0.139 C 
ATOM      8  O   UNL     1     -38.251  38.688  44.819  1.00  0.00    -0.299 OA
ATOM      9  C   UNL     1     -36.610  38.440  43.061  1.00  0.00     0.080 C 
ATOM     10  C   UNL     1     -37.047  36.443  46.290  1.00  0.00     0.020 C 
ATOM     11  C   UNL     1     -36.915  35.495  43.232  1.00  0.00     0.012 C 
ENDROOT
TORSDOF 0
ENDMDL
MODEL 7
REMARK VINA RESULT:    -4.719      4.488      6.301
REMARK INTER + INTRA:          -4.719
REMARK INTER:                  -4.719
REMARK INTRA:                   0.000
REMARK UNBOUND:                 0.000
REMARK SMILES CC1(C)[C@@H]2CC[C@@]1(C)C(=O)C2
REMARK SMILES IDX 1 1 2 2 4 3 5 4 6 5 7 6 9 7 10 8 11 9 8 10 3 11
REMARK H PARENT
REMARK Flexibility Score: inf
ROOT
ATOM      1  C   UNL     1     -37.251  38.501  44.691  1.00  0.00     0.012 C 
ATOM      2  C   UNL     1     -36.621  37.105  44.402  1.00  0.00    -0.020 C 
ATOM      3  C   UNL     1     -36.973  36.028  45.457  1.00  0.00     0.003 C 
ATOM      4  C   UNL     1     -36.298  36.579  46.744  1.00  0.00     0.005 C 
ATOM      5  C   UNL     1     -35.004  37.237  46.203  1.00  0.00     0.015 C 
ATOM      6  C   UNL     1     -35.107  36.988  44.679  1.00  0.00     0.032 C 
ATOM      7  C   UNL     1     -34.907  35.502  44.518  1.00  0.00     0.139 C 
ATOM      8  O   UNL     1     -33.889  34.952  44.128  1.00  0.00    -0.299 OA
ATOM      9  C   UNL     1     -36.132  34.798  45.015  1.00  0.00     0.080 C 
ATOM     10  C   UNL     1     -34.185  37.863  43.822  1.00  0.00     0.020 C 
ATOM     11  C   UNL     1     -37.049  36.720  42.951  1.00  0.00     0.012 C 
ENDROOT
TORSDOF 0
ENDMDL
MODEL 8
REMARK VINA RESULT:    -4.656      1.426      3.039
REMARK INTER + INTRA:          -4.656
REMARK INTER:                  -4.656
REMARK INTRA:                   0.000
REMARK UNBOUND:                 0.000
REMARK SMILES CC1(C)[C@@H]2CC[C@@]1(C)C(=O)C2
REMARK SMILES IDX 1 1 2 2 4 3 5 4 6 5 7 6 9 7 10 8 11 9 8 10 3 11
REMARK H PARENT
REMARK Flexibility Score: inf
ROOT
ATOM      1  C   UNL     1     -34.315  39.193  41.275  1.00  0.00     0.012 C 
ATOM      2  C   UNL     1     -33.741  39.911  42.534  1.00  0.00    -0.020 C 
ATOM      3  C   UNL     1     -34.503  41.201  42.922  1.00  0.00     0.003 C 
ATOM      4  C   UNL     1     -34.242  42.130  41.703  1.00  0.00     0.005 C 
ATOM      5  C   UNL     1     -32.793  41.766  41.293  1.00  0.00     0.015 C 
ATOM      6  C   UNL     1     -32.414  40.671  42.319  1.00  0.00     0.032 C 
ATOM      7  C   UNL     1     -32.294  41.400  43.634  1.00  0.00     0.139 C 
ATOM      8  O   UNL     1     -31.252  41.711  44.190  1.00  0.00    -0.299 OA
ATOM      9  C   UNL     1     -33.667  41.778  44.098  1.00  0.00     0.080 C 
ATOM     10  C   UNL     1     -31.196  39.825  41.934  1.00  0.00     0.020 C 
ATOM     11  C   UNL     1     -33.703  38.843  43.672  1.00  0.00     0.012 C 
ENDROOT
TORSDOF 0
ENDMDL
MODEL 9
REMARK VINA RESULT:    -4.627      1.406      3.086
REMARK INTER + INTRA:          -4.627
REMARK INTER:                  -4.627
REMARK INTRA:                   0.000
REMARK UNBOUND:                 0.000
REMARK SMILES CC1(C)[C@@H]2CC[C@@]1(C)C(=O)C2
REMARK SMILES IDX 1 1 2 2 4 3 5 4 6 5 7 6 9 7 10 8 11 9 8 10 3 11
REMARK H PARENT
REMARK Flexibility Score: inf
ROOT
ATOM      1  C   UNL     1     -33.329  39.344  42.624  1.00  0.00     0.012 C 
ATOM      2  C   UNL     1     -33.739  40.740  42.064  1.00  0.00    -0.020 C 
ATOM      3  C   UNL     1     -35.089  40.740  41.308  1.00  0.00     0.003 C 
ATOM      4  C   UNL     1     -34.795  39.823  40.087  1.00  0.00     0.005 C 
ATOM      5  C   UNL     1     -33.321  40.160  39.748  1.00  0.00     0.015 C 
ATOM      6  C   UNL     1     -32.957  41.214  40.820  1.00  0.00     0.032 C 
ATOM      7  C   UNL     1     -33.752  42.438  40.441  1.00  0.00     0.139 C 
ATOM      8  O   UNL     1     -33.314  43.438  39.893  1.00  0.00    -0.299 OA
ATOM      9  C   UNL     1     -35.195  42.187  40.753  1.00  0.00     0.080 C 
ATOM     10  C   UNL     1     -31.454  41.449  41.006  1.00  0.00     0.020 C 
ATOM     11  C   UNL     1     -33.701  41.728  43.273  1.00  0.00     0.012 C 
ENDROOT
TORSDOF 0
ENDMDL
