MODEL 1
REMARK VINA RESULT:    -3.784      0.000      0.000
REMARK INTER + INTRA:         -16.658
REMARK INTER:                  -9.977
REMARK INTRA:                  -6.681
REMARK UNBOUND:                -6.681
REMARK SMILES CCCCCCCCCCCCCCCCCCCCCCCCCCCCCC(=O)[O-]
REMARK SMILES IDX 16 1 17 2 18 3 19 4 20 5 21 6 22 7 23 8 24 9 25 10 26 11
REMARK SMILES IDX 27 12 28 13 29 14 30 15 31 16 32 17 15 18 14 19 13 20 12 21
REMARK SMILES IDX 11 22 10 23 9 24 8 25 7 26 6 27 5 28 4 29 3 30 2 31 1 32
REMARK H PARENT
REMARK Flexibility Score: inf
ROOT
ATOM      1  C   UNL     1     -22.732  -5.668  -6.139  1.00  0.00     0.000 C 
ENDROOT
BRANCH   1   2
ATOM      2  C   UNL     1     -23.755  -5.916  -7.269  1.00  0.00     0.000 C 
BRANCH   2   3
ATOM      3  C   UNL     1     -24.808  -4.802  -7.405  1.00  0.00     0.000 C 
BRANCH   3   4
ATOM      4  C   UNL     1     -24.922  -3.927  -6.136  1.00  0.00     0.000 C 
BRANCH   4   5
ATOM      5  C   UNL     1     -26.349  -3.907  -5.557  1.00  0.00     0.000 C 
BRANCH   5   6
ATOM      6  C   UNL     1     -26.994  -5.306  -5.449  1.00  0.00     0.000 C 
BRANCH   6   7
ATOM      7  C   UNL     1     -26.640  -6.077  -4.162  1.00  0.00     0.000 C 
BRANCH   7   8
ATOM      8  C   UNL     1     -25.753  -7.305  -4.423  1.00  0.00     0.000 C 
BRANCH   8   9
ATOM      9  C   UNL     1     -24.814  -7.563  -3.235  1.00  0.00     0.000 C 
BRANCH   9  10
ATOM     10  C   UNL     1     -24.718  -6.358  -2.286  1.00  0.00     0.000 C 
BRANCH  10  11
ATOM     11  C   UNL     1     -23.367  -5.634  -2.382  1.00  0.00     0.000 C 
BRANCH  11  12
ATOM     12  C   UNL     1     -23.555  -4.173  -2.808  1.00  0.00     0.000 C 
BRANCH  12  13
ATOM     13  C   UNL     1     -24.815  -3.571  -2.167  1.00  0.00     0.006 C 
BRANCH  13  14
ATOM     14  C   UNL     1     -24.633  -2.092  -1.798  1.00  0.00     0.053 C 
BRANCH  14  15
ATOM     15  C   UNL     1     -24.253  -1.909  -0.360  1.00  0.00     0.041 C 
ATOM     16  O   UNL     1     -25.136  -1.934   0.538  1.00  0.00    -0.550 OA
ATOM     17  O   UNL     1     -22.923  -1.700  -0.012  1.00  0.00    -0.550 OA
ENDBRANCH  14  15
ENDBRANCH  13  14
ENDBRANCH  12  13
ENDBRANCH  11  12
ENDBRANCH  10  11
ENDBRANCH   9  10
ENDBRANCH   8   9
ENDBRANCH   7   8
ENDBRANCH   6   7
ENDBRANCH   5   6
ENDBRANCH   4   5
ENDBRANCH   3   4
ENDBRANCH   2   3
ENDBRANCH   1   2
BRANCH   1  18
ATOM     18  C   UNL     1     -22.118  -6.952  -5.547  1.00  0.00     0.000 C 
BRANCH  18  19
ATOM     19  C   UNL     1     -20.632  -6.781  -5.179  1.00  0.00     0.000 C 
BRANCH  19  20
ATOM     20  C   UNL     1     -20.267  -7.477  -3.859  1.00  0.00     0.000 C 
BRANCH  20  21
ATOM     21  C   UNL     1     -21.242  -8.606  -3.488  1.00  0.00     0.000 C 
BRANCH  21  22
ATOM     22  C   UNL     1     -20.669  -9.971  -3.901  1.00  0.00     0.000 C 
BRANCH  22  23
ATOM     23  C   UNL     1     -21.698 -10.867  -4.607  1.00  0.00     0.000 C 
BRANCH  23  24
ATOM     24  C   UNL     1     -23.083 -10.212  -4.718  1.00  0.00    -0.000 C 
BRANCH  24  25
ATOM     25  C   UNL     1     -23.539 -10.147  -6.183  1.00  0.00    -0.000 C 
BRANCH  25  26
ATOM     26  C   UNL     1     -22.420 -10.513  -7.175  1.00  0.00    -0.000 C 
BRANCH  26  27
ATOM     27  C   UNL     1     -22.068  -9.412  -8.196  1.00  0.00    -0.000 C 
BRANCH  27  28
ATOM     28  C   UNL     1     -20.587  -8.994  -8.230  1.00  0.00    -0.000 C 
BRANCH  28  29
ATOM     29  C   UNL     1     -19.666  -9.982  -7.491  1.00  0.00    -0.000 C 
BRANCH  29  30
ATOM     30  C   UNL     1     -18.341  -9.342  -7.038  1.00  0.00    -0.000 C 
BRANCH  30  31
ATOM     31  C   UNL     1     -17.587 -10.113  -5.941  1.00  0.00    -0.003 C 
ATOM     32  C   UNL     1     -17.059  -9.210  -4.827  1.00  0.00     0.004 C 
ENDBRANCH  30  31
ENDBRANCH  29  30
ENDBRANCH  28  29
ENDBRANCH  27  28
ENDBRANCH  26  27
ENDBRANCH  25  26
ENDBRANCH  24  25
ENDBRANCH  23  24
ENDBRANCH  22  23
ENDBRANCH  21  22
ENDBRANCH  20  21
ENDBRANCH  19  20
ENDBRANCH  18  19
ENDBRANCH   1  18
TORSDOF 28
ENDMDL
MODEL 2
REMARK VINA RESULT:    -3.682      1.171      3.266
REMARK INTER + INTRA:         -16.390
REMARK INTER:                 -10.161
REMARK INTRA:                  -6.229
REMARK UNBOUND:                -6.681
REMARK SMILES CCCCCCCCCCCCCCCCCCCCCCCCCCCCCC(=O)[O-]
REMARK SMILES IDX 16 1 17 2 18 3 19 4 20 5 21 6 22 7 23 8 24 9 25 10 26 11
REMARK SMILES IDX 27 12 28 13 29 14 30 15 31 16 32 17 15 18 14 19 13 20 12 21
REMARK SMILES IDX 11 22 10 23 9 24 8 25 7 26 6 27 5 28 4 29 3 30 2 31 1 32
REMARK H PARENT
REMARK Flexibility Score: inf
ROOT
ATOM      1  C   UNL     1     -21.948  -6.729  -4.690  1.00  0.00     0.000 C 
ENDROOT
BRANCH   1   2
ATOM      2  C   UNL     1     -21.986  -5.597  -3.640  1.00  0.00     0.000 C 
BRANCH   2   3
ATOM      3  C   UNL     1     -22.876  -5.910  -2.425  1.00  0.00     0.000 C 
BRANCH   3   4
ATOM      4  C   UNL     1     -23.233  -7.410  -2.314  1.00  0.00     0.000 C 
BRANCH   4   5
ATOM      5  C   UNL     1     -24.745  -7.648  -2.138  1.00  0.00     0.000 C 
BRANCH   5   6
ATOM      6  C   UNL     1     -25.612  -6.933  -3.197  1.00  0.00     0.000 C 
BRANCH   6   7
ATOM      7  C   UNL     1     -25.581  -7.581  -4.596  1.00  0.00     0.000 C 
BRANCH   7   8
ATOM      8  C   UNL     1     -25.632  -6.552  -5.736  1.00  0.00     0.000 C 
BRANCH   8   9
ATOM      9  C   UNL     1     -26.831  -5.607  -5.566  1.00  0.00     0.000 C 
BRANCH   9  10
ATOM     10  C   UNL     1     -26.414  -4.128  -5.511  1.00  0.00     0.000 C 
BRANCH  10  11
ATOM     11  C   UNL     1     -24.890  -3.943  -5.471  1.00  0.00     0.000 C 
BRANCH  11  12
ATOM     12  C   UNL     1     -24.475  -3.055  -4.291  1.00  0.00     0.000 C 
BRANCH  12  13
ATOM     13  C   UNL     1     -25.342  -3.343  -3.055  1.00  0.00     0.006 C 
BRANCH  13  14
ATOM     14  C   UNL     1     -25.638  -2.075  -2.241  1.00  0.00     0.053 C 
BRANCH  14  15
ATOM     15  C   UNL     1     -24.995  -2.107  -0.888  1.00  0.00     0.041 C 
ATOM     16  O   UNL     1     -25.642  -2.515   0.112  1.00  0.00    -0.550 OA
ATOM     17  O   UNL     1     -23.683  -1.676  -0.730  1.00  0.00    -0.550 OA
ENDBRANCH  14  15
ENDBRANCH  13  14
ENDBRANCH  12  13
ENDBRANCH  11  12
ENDBRANCH  10  11
ENDBRANCH   9  10
ENDBRANCH   8   9
ENDBRANCH   7   8
ENDBRANCH   6   7
ENDBRANCH   5   6
ENDBRANCH   4   5
ENDBRANCH   3   4
ENDBRANCH   2   3
ENDBRANCH   1   2
BRANCH   1  18
ATOM     18  C   UNL     1     -21.969  -6.239  -6.151  1.00  0.00     0.000 C 
BRANCH  18  19
ATOM     19  C   UNL     1     -21.434  -7.295  -7.136  1.00  0.00     0.000 C 
BRANCH  19  20
ATOM     20  C   UNL     1     -22.559  -8.052  -7.859  1.00  0.00     0.000 C 
BRANCH  20  21
ATOM     21  C   UNL     1     -22.147  -9.469  -8.288  1.00  0.00     0.000 C 
BRANCH  21  22
ATOM     22  C   UNL     1     -22.203 -10.433  -7.092  1.00  0.00     0.000 C 
BRANCH  22  23
ATOM     23  C   UNL     1     -23.428 -10.205  -6.192  1.00  0.00     0.000 C 
BRANCH  23  24
ATOM     24  C   UNL     1     -23.073 -10.169  -4.699  1.00  0.00    -0.000 C 
BRANCH  24  25
ATOM     25  C   UNL     1     -21.688 -10.787  -4.453  1.00  0.00    -0.000 C 
BRANCH  25  26
ATOM     26  C   UNL     1     -20.763  -9.873  -3.630  1.00  0.00    -0.000 C 
BRANCH  26  27
ATOM     27  C   UNL     1     -19.283  -9.882  -4.064  1.00  0.00    -0.000 C 
BRANCH  27  28
ATOM     28  C   UNL     1     -18.941 -10.841  -5.218  1.00  0.00    -0.000 C 
BRANCH  28  29
ATOM     29  C   UNL     1     -18.548 -10.107  -6.513  1.00  0.00    -0.000 C 
BRANCH  29  30
ATOM     30  C   UNL     1     -18.123  -8.647  -6.268  1.00  0.00    -0.000 C 
BRANCH  30  31
ATOM     31  C   UNL     1     -17.806  -7.839  -7.538  1.00  0.00    -0.003 C 
ATOM     32  C   UNL     1     -18.317  -8.504  -8.816  1.00  0.00     0.004 C 
ENDBRANCH  30  31
ENDBRANCH  29  30
ENDBRANCH  28  29
ENDBRANCH  27  28
ENDBRANCH  26  27
ENDBRANCH  25  26
ENDBRANCH  24  25
ENDBRANCH  23  24
ENDBRANCH  22  23
ENDBRANCH  21  22
ENDBRANCH  20  21
ENDBRANCH  19  20
ENDBRANCH  18  19
ENDBRANCH   1  18
TORSDOF 28
ENDMDL
MODEL 3
REMARK VINA RESULT:    -3.631      2.124      3.331
REMARK INTER + INTRA:         -16.257
REMARK INTER:                  -9.149
REMARK INTRA:                  -7.107
REMARK UNBOUND:                -6.681
REMARK SMILES CCCCCCCCCCCCCCCCCCCCCCCCCCCCCC(=O)[O-]
REMARK SMILES IDX 16 1 17 2 18 3 19 4 20 5 21 6 22 7 23 8 24 9 25 10 26 11
REMARK SMILES IDX 27 12 28 13 29 14 30 15 31 16 32 17 15 18 14 19 13 20 12 21
REMARK SMILES IDX 11 22 10 23 9 24 8 25 7 26 6 27 5 28 4 29 3 30 2 31 1 32
REMARK H PARENT
REMARK Flexibility Score: inf
ROOT
ATOM      1  C   UNL     1     -22.821  -5.572  -5.862  1.00  0.00     0.000 C 
ENDROOT
BRANCH   1   2
ATOM      2  C   UNL     1     -23.294  -4.198  -6.386  1.00  0.00     0.000 C 
BRANCH   2   3
ATOM      3  C   UNL     1     -24.742  -4.201  -6.909  1.00  0.00     0.000 C 
BRANCH   3   4
ATOM      4  C   UNL     1     -25.114  -5.513  -7.636  1.00  0.00     0.000 C 
BRANCH   4   5
ATOM      5  C   UNL     1     -26.408  -6.146  -7.092  1.00  0.00     0.000 C 
BRANCH   5   6
ATOM      6  C   UNL     1     -26.686  -5.812  -5.610  1.00  0.00     0.000 C 
BRANCH   6   7
ATOM      7  C   UNL     1     -26.086  -6.815  -4.604  1.00  0.00     0.000 C 
BRANCH   7   8
ATOM      8  C   UNL     1     -25.665  -6.158  -3.281  1.00  0.00     0.000 C 
BRANCH   8   9
ATOM      9  C   UNL     1     -25.843  -4.634  -3.346  1.00  0.00     0.000 C 
BRANCH   9  10
ATOM     10  C   UNL     1     -24.560  -3.873  -2.975  1.00  0.00     0.000 C 
BRANCH  10  11
ATOM     11  C   UNL     1     -23.737  -4.590  -1.894  1.00  0.00     0.000 C 
BRANCH  11  12
ATOM     12  C   UNL     1     -22.263  -4.697  -2.306  1.00  0.00     0.000 C 
BRANCH  12  13
ATOM     13  C   UNL     1     -21.636  -5.993  -1.769  1.00  0.00     0.006 C 
BRANCH  13  14
ATOM     14  C   UNL     1     -22.533  -7.216  -2.002  1.00  0.00     0.053 C 
BRANCH  14  15
ATOM     15  C   UNL     1     -22.861  -7.931  -0.726  1.00  0.00     0.041 C 
ATOM     16  O   UNL     1     -23.975  -7.752  -0.167  1.00  0.00    -0.550 OA
ATOM     17  O   UNL     1     -21.930  -8.786  -0.149  1.00  0.00    -0.550 OA
ENDBRANCH  14  15
ENDBRANCH  13  14
ENDBRANCH  12  13
ENDBRANCH  11  12
ENDBRANCH  10  11
ENDBRANCH   9  10
ENDBRANCH   8   9
ENDBRANCH   7   8
ENDBRANCH   6   7
ENDBRANCH   5   6
ENDBRANCH   4   5
ENDBRANCH   3   4
ENDBRANCH   2   3
ENDBRANCH   1   2
BRANCH   1  18
ATOM     18  C   UNL     1     -21.300  -5.799  -5.964  1.00  0.00     0.000 C 
BRANCH  18  19
ATOM     19  C   UNL     1     -20.860  -7.138  -5.342  1.00  0.00     0.000 C 
BRANCH  19  20
ATOM     20  C   UNL     1     -19.361  -7.415  -5.537  1.00  0.00     0.000 C 
BRANCH  20  21
ATOM     21  C   UNL     1     -19.051  -8.905  -5.749  1.00  0.00     0.000 C 
BRANCH  21  22
ATOM     22  C   UNL     1     -19.912  -9.773  -4.818  1.00  0.00     0.000 C 
BRANCH  22  23
ATOM     23  C   UNL     1     -20.460 -11.033  -5.506  1.00  0.00     0.000 C 
BRANCH  23  24
ATOM     24  C   UNL     1     -21.918 -11.333  -5.129  1.00  0.00    -0.000 C 
BRANCH  24  25
ATOM     25  C   UNL     1     -22.409 -10.366  -4.041  1.00  0.00    -0.000 C 
BRANCH  25  26
ATOM     26  C   UNL     1     -23.617  -9.526  -4.488  1.00  0.00    -0.000 C 
BRANCH  26  27
ATOM     27  C   UNL     1     -24.133  -9.831  -5.910  1.00  0.00    -0.000 C 
BRANCH  27  28
ATOM     28  C   UNL     1     -23.759  -8.793  -6.984  1.00  0.00    -0.000 C 
BRANCH  28  29
ATOM     29  C   UNL     1     -22.722  -9.320  -7.992  1.00  0.00    -0.000 C 
BRANCH  29  30
ATOM     30  C   UNL     1     -22.034  -8.195  -8.787  1.00  0.00    -0.000 C 
BRANCH  30  31
ATOM     31  C   UNL     1     -20.525  -8.387  -9.014  1.00  0.00    -0.003 C 
ATOM     32  C   UNL     1     -19.820  -7.111  -9.475  1.00  0.00     0.004 C 
ENDBRANCH  30  31
ENDBRANCH  29  30
ENDBRANCH  28  29
ENDBRANCH  27  28
ENDBRANCH  26  27
ENDBRANCH  25  26
ENDBRANCH  24  25
ENDBRANCH  23  24
ENDBRANCH  22  23
ENDBRANCH  21  22
ENDBRANCH  20  21
ENDBRANCH  19  20
ENDBRANCH  18  19
ENDBRANCH   1  18
TORSDOF 28
ENDMDL
MODEL 4
REMARK VINA RESULT:    -3.590      3.362      8.013
REMARK INTER + INTRA:         -16.147
REMARK INTER:                 -10.109
REMARK INTRA:                  -6.037
REMARK UNBOUND:                -6.681
REMARK SMILES CCCCCCCCCCCCCCCCCCCCCCCCCCCCCC(=O)[O-]
REMARK SMILES IDX 16 1 17 2 18 3 19 4 20 5 21 6 22 7 23 8 24 9 25 10 26 11
REMARK SMILES IDX 27 12 28 13 29 14 30 15 31 16 32 17 15 18 14 19 13 20 12 21
REMARK SMILES IDX 11 22 10 23 9 24 8 25 7 26 6 27 5 28 4 29 3 30 2 31 1 32
REMARK H PARENT
REMARK Flexibility Score: inf
ROOT
ATOM      1  C   UNL     1     -24.260  -6.880  -2.898  1.00  0.00     0.000 C 
ENDROOT
BRANCH   1   2
ATOM      2  C   UNL     1     -22.722  -6.907  -3.033  1.00  0.00     0.000 C 
BRANCH   2   3
ATOM      3  C   UNL     1     -22.203  -8.008  -3.975  1.00  0.00     0.000 C 
BRANCH   3   4
ATOM      4  C   UNL     1     -22.281  -9.418  -3.348  1.00  0.00     0.000 C 
BRANCH   4   5
ATOM      5  C   UNL     1     -23.007 -10.430  -4.255  1.00  0.00     0.000 C 
BRANCH   5   6
ATOM      6  C   UNL     1     -23.311  -9.888  -5.669  1.00  0.00     0.000 C 
BRANCH   6   7
ATOM      7  C   UNL     1     -22.384 -10.429  -6.775  1.00  0.00     0.000 C 
BRANCH   7   8
ATOM      8  C   UNL     1     -21.455 -11.550  -6.286  1.00  0.00     0.000 C 
BRANCH   8   9
ATOM      9  C   UNL     1     -20.094 -10.982  -5.855  1.00  0.00     0.000 C 
BRANCH   9  10
ATOM     10  C   UNL     1     -19.633  -9.815  -6.745  1.00  0.00     0.000 C 
BRANCH  10  11
ATOM     11  C   UNL     1     -19.095  -8.628  -5.933  1.00  0.00     0.000 C 
BRANCH  11  12
ATOM     12  C   UNL     1     -19.401  -7.299  -6.634  1.00  0.00     0.000 C 
BRANCH  12  13
ATOM     13  C   UNL     1     -20.812  -7.310  -7.243  1.00  0.00     0.006 C 
BRANCH  13  14
ATOM     14  C   UNL     1     -20.854  -6.655  -8.631  1.00  0.00     0.053 C 
BRANCH  14  15
ATOM     15  C   UNL     1     -19.720  -7.102  -9.503  1.00  0.00     0.041 C 
ATOM     16  O   UNL     1     -19.682  -8.282  -9.940  1.00  0.00    -0.550 OA
ATOM     17  O   UNL     1     -18.700  -6.215  -9.826  1.00  0.00    -0.550 OA
ENDBRANCH  14  15
ENDBRANCH  13  14
ENDBRANCH  12  13
ENDBRANCH  11  12
ENDBRANCH  10  11
ENDBRANCH   9  10
ENDBRANCH   8   9
ENDBRANCH   7   8
ENDBRANCH   6   7
ENDBRANCH   5   6
ENDBRANCH   4   5
ENDBRANCH   3   4
ENDBRANCH   2   3
ENDBRANCH   1   2
BRANCH   1  18
ATOM     18  C   UNL     1     -24.853  -5.475  -2.679  1.00  0.00     0.000 C 
BRANCH  18  19
ATOM     19  C   UNL     1     -26.209  -5.289  -3.385  1.00  0.00     0.000 C 
BRANCH  19  20
ATOM     20  C   UNL     1     -26.471  -6.363  -4.453  1.00  0.00     0.000 C 
BRANCH  20  21
ATOM     21  C   UNL     1     -26.848  -5.770  -5.819  1.00  0.00     0.000 C 
BRANCH  21  22
ATOM     22  C   UNL     1     -26.111  -6.506  -6.950  1.00  0.00     0.000 C 
BRANCH  22  23
ATOM     23  C   UNL     1     -24.586  -6.521  -6.765  1.00  0.00     0.000 C 
BRANCH  23  24
ATOM     24  C   UNL     1     -23.936  -5.162  -7.061  1.00  0.00    -0.000 C 
BRANCH  24  25
ATOM     25  C   UNL     1     -23.251  -4.601  -5.806  1.00  0.00    -0.000 C 
BRANCH  25  26
ATOM     26  C   UNL     1     -23.786  -3.216  -5.402  1.00  0.00    -0.000 C 
BRANCH  26  27
ATOM     27  C   UNL     1     -25.052  -2.760  -6.156  1.00  0.00    -0.000 C 
BRANCH  27  28
ATOM     28  C   UNL     1     -26.134  -2.095  -5.286  1.00  0.00    -0.000 C 
BRANCH  28  29
ATOM     29  C   UNL     1     -25.548  -1.198  -4.180  1.00  0.00    -0.000 C 
BRANCH  29  30
ATOM     30  C   UNL     1     -25.914  -1.678  -2.764  1.00  0.00    -0.000 C 
BRANCH  30  31
ATOM     31  C   UNL     1     -24.715  -1.943  -1.836  1.00  0.00    -0.003 C 
ATOM     32  C   UNL     1     -25.127  -2.406  -0.439  1.00  0.00     0.004 C 
ENDBRANCH  30  31
ENDBRANCH  29  30
ENDBRANCH  28  29
ENDBRANCH  27  28
ENDBRANCH  26  27
ENDBRANCH  25  26
ENDBRANCH  24  25
ENDBRANCH  23  24
ENDBRANCH  22  23
ENDBRANCH  21  22
ENDBRANCH  20  21
ENDBRANCH  19  20
ENDBRANCH  18  19
ENDBRANCH   1  18
TORSDOF 28
ENDMDL
MODEL 5
REMARK VINA RESULT:    -3.577      3.746      7.825
REMARK INTER + INTRA:         -16.114
REMARK INTER:                  -9.961
REMARK INTRA:                  -6.153
REMARK UNBOUND:                -6.681
REMARK SMILES CCCCCCCCCCCCCCCCCCCCCCCCCCCCCC(=O)[O-]
REMARK SMILES IDX 16 1 17 2 18 3 19 4 20 5 21 6 22 7 23 8 24 9 25 10 26 11
REMARK SMILES IDX 27 12 28 13 29 14 30 15 31 16 32 17 15 18 14 19 13 20 12 21
REMARK SMILES IDX 11 22 10 23 9 24 8 25 7 26 6 27 5 28 4 29 3 30 2 31 1 32
REMARK H PARENT
REMARK Flexibility Score: inf
ROOT
ATOM      1  C   UNL     1     -23.059  -7.952  -6.614  1.00  0.00     0.000 C 
ENDROOT
BRANCH   1   2
ATOM      2  C   UNL     1     -24.203  -8.315  -5.642  1.00  0.00     0.000 C 
BRANCH   2   3
ATOM      3  C   UNL     1     -24.178  -9.782  -5.179  1.00  0.00     0.000 C 
BRANCH   3   4
ATOM      4  C   UNL     1     -23.188 -10.028  -4.018  1.00  0.00     0.000 C 
BRANCH   4   5
ATOM      5  C   UNL     1     -22.185 -11.156  -4.324  1.00  0.00     0.000 C 
BRANCH   5   6
ATOM      6  C   UNL     1     -21.815 -11.268  -5.819  1.00  0.00     0.000 C 
BRANCH   6   7
ATOM      7  C   UNL     1     -20.423 -10.710  -6.179  1.00  0.00     0.000 C 
BRANCH   7   8
ATOM      8  C   UNL     1     -19.628 -10.242  -4.951  1.00  0.00     0.000 C 
BRANCH   8   9
ATOM      9  C   UNL     1     -18.220 -10.857  -4.945  1.00  0.00     0.000 C 
BRANCH   9  10
ATOM     10  C   UNL     1     -17.191  -9.983  -5.681  1.00  0.00     0.000 C 
BRANCH  10  11
ATOM     11  C   UNL     1     -17.547  -8.490  -5.645  1.00  0.00     0.000 C 
BRANCH  11  12
ATOM     12  C   UNL     1     -17.496  -7.877  -7.050  1.00  0.00     0.000 C 
BRANCH  12  13
ATOM     13  C   UNL     1     -18.912  -7.658  -7.606  1.00  0.00     0.006 C 
BRANCH  13  14
ATOM     14  C   UNL     1     -19.178  -8.490  -8.869  1.00  0.00     0.053 C 
BRANCH  14  15
ATOM     15  C   UNL     1     -18.152  -8.247  -9.935  1.00  0.00     0.041 C 
ATOM     16  O   UNL     1     -17.415  -9.187 -10.333  1.00  0.00    -0.550 OA
ATOM     17  O   UNL     1     -18.004  -6.977 -10.481  1.00  0.00    -0.550 OA
ENDBRANCH  14  15
ENDBRANCH  13  14
ENDBRANCH  12  13
ENDBRANCH  11  12
ENDBRANCH  10  11
ENDBRANCH   9  10
ENDBRANCH   8   9
ENDBRANCH   7   8
ENDBRANCH   6   7
ENDBRANCH   5   6
ENDBRANCH   4   5
ENDBRANCH   3   4
ENDBRANCH   2   3
ENDBRANCH   1   2
BRANCH   1  18
ATOM     18  C   UNL     1     -22.215  -6.739  -6.175  1.00  0.00     0.000 C 
BRANCH  18  19
ATOM     19  C   UNL     1     -21.245  -7.079  -5.028  1.00  0.00     0.000 C 
BRANCH  19  20
ATOM     20  C   UNL     1     -20.754  -5.830  -4.280  1.00  0.00     0.000 C 
BRANCH  20  21
ATOM     21  C   UNL     1     -20.645  -6.044  -2.763  1.00  0.00     0.000 C 
BRANCH  21  22
ATOM     22  C   UNL     1     -20.452  -7.535  -2.441  1.00  0.00     0.000 C 
BRANCH  22  23
ATOM     23  C   UNL     1     -21.474  -8.068  -1.425  1.00  0.00     0.000 C 
BRANCH  23  24
ATOM     24  C   UNL     1     -22.585  -7.056  -1.108  1.00  0.00    -0.000 C 
BRANCH  24  25
ATOM     25  C   UNL     1     -23.965  -7.727  -1.161  1.00  0.00    -0.000 C 
BRANCH  25  26
ATOM     26  C   UNL     1     -24.891  -7.108  -2.222  1.00  0.00    -0.000 C 
BRANCH  26  27
ATOM     27  C   UNL     1     -24.372  -5.803  -2.860  1.00  0.00    -0.000 C 
BRANCH  27  28
ATOM     28  C   UNL     1     -25.384  -5.054  -3.746  1.00  0.00    -0.000 C 
BRANCH  28  29
ATOM     29  C   UNL     1     -26.524  -5.957  -4.251  1.00  0.00    -0.000 C 
BRANCH  29  30
ATOM     30  C   UNL     1     -27.195  -5.417  -5.527  1.00  0.00    -0.000 C 
BRANCH  30  31
ATOM     31  C   UNL     1     -26.666  -6.013  -6.843  1.00  0.00    -0.003 C 
ATOM     32  C   UNL     1     -25.478  -5.242  -7.417  1.00  0.00     0.004 C 
ENDBRANCH  30  31
ENDBRANCH  29  30
ENDBRANCH  28  29
ENDBRANCH  27  28
ENDBRANCH  26  27
ENDBRANCH  25  26
ENDBRANCH  24  25
ENDBRANCH  23  24
ENDBRANCH  22  23
ENDBRANCH  21  22
ENDBRANCH  20  21
ENDBRANCH  19  20
ENDBRANCH  18  19
ENDBRANCH   1  18
TORSDOF 28
ENDMDL
MODEL 6
REMARK VINA RESULT:    -3.576      1.266      3.868
REMARK INTER + INTRA:         -16.111
REMARK INTER:                  -9.325
REMARK INTRA:                  -6.786
REMARK UNBOUND:                -6.681
REMARK SMILES CCCCCCCCCCCCCCCCCCCCCCCCCCCCCC(=O)[O-]
REMARK SMILES IDX 16 1 17 2 18 3 19 4 20 5 21 6 22 7 23 8 24 9 25 10 26 11
REMARK SMILES IDX 27 12 28 13 29 14 30 15 31 16 32 17 15 18 14 19 13 20 12 21
REMARK SMILES IDX 11 22 10 23 9 24 8 25 7 26 6 27 5 28 4 29 3 30 2 31 1 32
REMARK H PARENT
REMARK Flexibility Score: inf
ROOT
ATOM      1  C   UNL     1     -23.798  -8.506  -3.653  1.00  0.00     0.000 C 
ENDROOT
BRANCH   1   2
ATOM      2  C   UNL     1     -24.967  -7.635  -3.142  1.00  0.00     0.000 C 
BRANCH   2   3
ATOM      3  C   UNL     1     -26.021  -7.323  -4.218  1.00  0.00     0.000 C 
BRANCH   3   4
ATOM      4  C   UNL     1     -26.518  -5.861  -4.164  1.00  0.00     0.000 C 
BRANCH   4   5
ATOM      5  C   UNL     1     -26.797  -5.277  -5.562  1.00  0.00     0.000 C 
BRANCH   5   6
ATOM      6  C   UNL     1     -26.427  -6.232  -6.717  1.00  0.00     0.000 C 
BRANCH   6   7
ATOM      7  C   UNL     1     -25.145  -5.847  -7.481  1.00  0.00     0.000 C 
BRANCH   7   8
ATOM      8  C   UNL     1     -23.963  -6.782  -7.180  1.00  0.00     0.000 C 
BRANCH   8   9
ATOM      9  C   UNL     1     -22.857  -6.036  -6.418  1.00  0.00     0.000 C 
BRANCH   9  10
ATOM     10  C   UNL     1     -22.978  -4.509  -6.548  1.00  0.00     0.000 C 
BRANCH  10  11
ATOM     11  C   UNL     1     -23.004  -3.799  -5.186  1.00  0.00     0.000 C 
BRANCH  11  12
ATOM     12  C   UNL     1     -22.915  -4.810  -4.036  1.00  0.00     0.000 C 
BRANCH  12  13
ATOM     13  C   UNL     1     -23.561  -4.249  -2.760  1.00  0.00     0.006 C 
BRANCH  13  14
ATOM     14  C   UNL     1     -24.476  -3.050  -3.047  1.00  0.00     0.053 C 
BRANCH  14  15
ATOM     15  C   UNL     1     -24.793  -2.269  -1.808  1.00  0.00     0.041 C 
ATOM     16  O   UNL     1     -23.966  -1.433  -1.356  1.00  0.00    -0.550 OA
ATOM     17  O   UNL     1     -25.998  -2.472  -1.146  1.00  0.00    -0.550 OA
ENDBRANCH  14  15
ENDBRANCH  13  14
ENDBRANCH  12  13
ENDBRANCH  11  12
ENDBRANCH  10  11
ENDBRANCH   9  10
ENDBRANCH   8   9
ENDBRANCH   7   8
ENDBRANCH   6   7
ENDBRANCH   5   6
ENDBRANCH   4   5
ENDBRANCH   3   4
ENDBRANCH   2   3
ENDBRANCH   1   2
BRANCH   1  18
ATOM     18  C   UNL     1     -24.155  -9.404  -4.853  1.00  0.00     0.000 C 
BRANCH  18  19
ATOM     19  C   UNL     1     -22.961 -10.252  -5.332  1.00  0.00     0.000 C 
BRANCH  19  20
ATOM     20  C   UNL     1     -22.879 -10.343  -6.863  1.00  0.00     0.000 C 
BRANCH  20  21
ATOM     21  C   UNL     1     -21.433 -10.358  -7.385  1.00  0.00     0.000 C 
BRANCH  21  22
ATOM     22  C   UNL     1     -21.063  -8.993  -7.986  1.00  0.00     0.000 C 
BRANCH  22  23
ATOM     23  C   UNL     1     -19.546  -8.784  -8.115  1.00  0.00     0.000 C 
BRANCH  23  24
ATOM     24  C   UNL     1     -18.731  -9.949  -7.534  1.00  0.00    -0.000 C 
BRANCH  24  25
ATOM     25  C   UNL     1     -18.062  -9.540  -6.213  1.00  0.00    -0.000 C 
BRANCH  25  26
ATOM     26  C   UNL     1     -18.565 -10.356  -5.010  1.00  0.00    -0.000 C 
BRANCH  26  27
ATOM     27  C   UNL     1     -19.295  -9.537  -3.925  1.00  0.00    -0.000 C 
BRANCH  27  28
ATOM     28  C   UNL     1     -20.149  -8.367  -4.446  1.00  0.00    -0.000 C 
BRANCH  28  29
ATOM     29  C   UNL     1     -20.084  -7.125  -3.539  1.00  0.00    -0.000 C 
BRANCH  29  30
ATOM     30  C   UNL     1     -19.349  -5.942  -4.196  1.00  0.00    -0.000 C 
BRANCH  30  31
ATOM     31  C   UNL     1     -19.303  -5.977  -5.734  1.00  0.00    -0.003 C 
ATOM     32  C   UNL     1     -17.888  -5.851  -6.296  1.00  0.00     0.004 C 
ENDBRANCH  30  31
ENDBRANCH  29  30
ENDBRANCH  28  29
ENDBRANCH  27  28
ENDBRANCH  26  27
ENDBRANCH  25  26
ENDBRANCH  24  25
ENDBRANCH  23  24
ENDBRANCH  22  23
ENDBRANCH  21  22
ENDBRANCH  20  21
ENDBRANCH  19  20
ENDBRANCH  18  19
ENDBRANCH   1  18
TORSDOF 28
ENDMDL
MODEL 7
REMARK VINA RESULT:    -3.557      2.549      7.371
REMARK INTER + INTRA:         -16.062
REMARK INTER:                  -9.527
REMARK INTRA:                  -6.534
REMARK UNBOUND:                -6.681
REMARK SMILES CCCCCCCCCCCCCCCCCCCCCCCCCCCCCC(=O)[O-]
REMARK SMILES IDX 16 1 17 2 18 3 19 4 20 5 21 6 22 7 23 8 24 9 25 10 26 11
REMARK SMILES IDX 27 12 28 13 29 14 30 15 31 16 32 17 15 18 14 19 13 20 12 21
REMARK SMILES IDX 11 22 10 23 9 24 8 25 7 26 6 27 5 28 4 29 3 30 2 31 1 32
REMARK H PARENT
REMARK Flexibility Score: inf
ROOT
ATOM      1  C   UNL     1     -22.892  -8.987  -3.783  1.00  0.00     0.000 C 
ENDROOT
BRANCH   1   2
ATOM      2  C   UNL     1     -21.756 -10.032  -3.771  1.00  0.00     0.000 C 
BRANCH   2   3
ATOM      3  C   UNL     1     -22.140 -11.372  -4.424  1.00  0.00     0.000 C 
BRANCH   3   4
ATOM      4  C   UNL     1     -21.443 -11.598  -5.784  1.00  0.00     0.000 C 
BRANCH   4   5
ATOM      5  C   UNL     1     -20.372 -10.533  -6.086  1.00  0.00     0.000 C 
BRANCH   5   6
ATOM      6  C   UNL     1     -20.696  -9.660  -7.319  1.00  0.00     0.000 C 
BRANCH   6   7
ATOM      7  C   UNL     1     -22.111  -9.865  -7.895  1.00  0.00     0.000 C 
BRANCH   7   8
ATOM      8  C   UNL     1     -23.019  -8.639  -7.708  1.00  0.00     0.000 C 
BRANCH   8   9
ATOM      9  C   UNL     1     -22.217  -7.441  -7.180  1.00  0.00     0.000 C 
BRANCH   9  10
ATOM     10  C   UNL     1     -23.119  -6.294  -6.694  1.00  0.00     0.000 C 
BRANCH  10  11
ATOM     11  C   UNL     1     -22.323  -5.133  -6.080  1.00  0.00     0.000 C 
BRANCH  11  12
ATOM     12  C   UNL     1     -22.622  -4.993  -4.582  1.00  0.00     0.000 C 
BRANCH  12  13
ATOM     13  C   UNL     1     -21.329  -4.763  -3.783  1.00  0.00     0.006 C 
BRANCH  13  14
ATOM     14  C   UNL     1     -20.874  -6.023  -3.033  1.00  0.00     0.053 C 
BRANCH  14  15
ATOM     15  C   UNL     1     -19.634  -6.620  -3.626  1.00  0.00     0.041 C 
ATOM     16  O   UNL     1     -19.698  -7.286  -4.693  1.00  0.00    -0.550 OA
ATOM     17  O   UNL     1     -18.408  -6.449  -2.993  1.00  0.00    -0.550 OA
ENDBRANCH  14  15
ENDBRANCH  13  14
ENDBRANCH  12  13
ENDBRANCH  11  12
ENDBRANCH  10  11
ENDBRANCH   9  10
ENDBRANCH   8   9
ENDBRANCH   7   8
ENDBRANCH   6   7
ENDBRANCH   5   6
ENDBRANCH   4   5
ENDBRANCH   3   4
ENDBRANCH   2   3
ENDBRANCH   1   2
BRANCH   1  18
ATOM     18  C   UNL     1     -24.168  -9.446  -4.516  1.00  0.00     0.000 C 
BRANCH  18  19
ATOM     19  C   UNL     1     -25.243  -8.346  -4.575  1.00  0.00     0.000 C 
BRANCH  19  20
ATOM     20  C   UNL     1     -25.100  -7.319  -3.440  1.00  0.00     0.000 C 
BRANCH  20  21
ATOM     21  C   UNL     1     -25.961  -6.065  -3.656  1.00  0.00     0.000 C 
BRANCH  21  22
ATOM     22  C   UNL     1     -26.603  -6.084  -5.052  1.00  0.00     0.000 C 
BRANCH  22  23
ATOM     23  C   UNL     1     -26.754  -4.683  -5.665  1.00  0.00     0.000 C 
BRANCH  23  24
ATOM     24  C   UNL     1     -25.917  -3.621  -4.938  1.00  0.00    -0.000 C 
BRANCH  24  25
ATOM     25  C   UNL     1     -26.308  -2.209  -5.401  1.00  0.00    -0.000 C 
BRANCH  25  26
ATOM     26  C   UNL     1     -25.295  -1.135  -4.965  1.00  0.00    -0.000 C 
BRANCH  26  27
ATOM     27  C   UNL     1     -23.821  -1.462  -5.279  1.00  0.00    -0.000 C 
BRANCH  27  28
ATOM     28  C   UNL     1     -22.839  -1.265  -4.111  1.00  0.00    -0.000 C 
BRANCH  28  29
ATOM     29  C   UNL     1     -23.544  -1.142  -2.748  1.00  0.00    -0.000 C 
BRANCH  29  30
ATOM     30  C   UNL     1     -23.261  -2.335  -1.817  1.00  0.00    -0.000 C 
BRANCH  30  31
ATOM     31  C   UNL     1     -24.441  -3.303  -1.622  1.00  0.00    -0.003 C 
ATOM     32  C   UNL     1     -25.771  -2.589  -1.388  1.00  0.00     0.004 C 
ENDBRANCH  30  31
ENDBRANCH  29  30
ENDBRANCH  28  29
ENDBRANCH  27  28
ENDBRANCH  26  27
ENDBRANCH  25  26
ENDBRANCH  24  25
ENDBRANCH  23  24
ENDBRANCH  22  23
ENDBRANCH  21  22
ENDBRANCH  20  21
ENDBRANCH  19  20
ENDBRANCH  18  19
ENDBRANCH   1  18
TORSDOF 28
ENDMDL
MODEL 8
REMARK VINA RESULT:    -3.487      2.093      7.005
REMARK INTER + INTRA:         -15.877
REMARK INTER:                  -9.443
REMARK INTRA:                  -6.434
REMARK UNBOUND:                -6.681
REMARK SMILES CCCCCCCCCCCCCCCCCCCCCCCCCCCCCC(=O)[O-]
REMARK SMILES IDX 16 1 17 2 18 3 19 4 20 5 21 6 22 7 23 8 24 9 25 10 26 11
REMARK SMILES IDX 27 12 28 13 29 14 30 15 31 16 32 17 15 18 14 19 13 20 12 21
REMARK SMILES IDX 11 22 10 23 9 24 8 25 7 26 6 27 5 28 4 29 3 30 2 31 1 32
REMARK H PARENT
REMARK Flexibility Score: inf
ROOT
ATOM      1  C   UNL     1     -23.915  -9.885  -4.497  1.00  0.00     0.000 C 
ENDROOT
BRANCH   1   2
ATOM      2  C   UNL     1     -22.592 -10.671  -4.364  1.00  0.00     0.000 C 
BRANCH   2   3
ATOM      3  C   UNL     1     -21.845 -10.854  -5.697  1.00  0.00     0.000 C 
BRANCH   3   4
ATOM      4  C   UNL     1     -22.749 -10.622  -6.928  1.00  0.00     0.000 C 
BRANCH   4   5
ATOM      5  C   UNL     1     -22.069  -9.762  -8.010  1.00  0.00     0.000 C 
BRANCH   5   6
ATOM      6  C   UNL     1     -21.113  -8.692  -7.441  1.00  0.00     0.000 C 
BRANCH   6   7
ATOM      7  C   UNL     1     -19.697  -8.707  -8.050  1.00  0.00     0.000 C 
BRANCH   7   8
ATOM      8  C   UNL     1     -18.824  -9.850  -7.511  1.00  0.00     0.000 C 
BRANCH   8   9
ATOM      9  C   UNL     1     -18.044  -9.402  -6.266  1.00  0.00     0.000 C 
BRANCH   9  10
ATOM     10  C   UNL     1     -18.284 -10.320  -5.056  1.00  0.00     0.000 C 
BRANCH  10  11
ATOM     11  C   UNL     1     -18.836  -9.564  -3.839  1.00  0.00     0.000 C 
BRANCH  11  12
ATOM     12  C   UNL     1     -19.558  -8.281  -4.269  1.00  0.00     0.000 C 
BRANCH  12  13
ATOM     13  C   UNL     1     -20.234  -7.602  -3.067  1.00  0.00     0.006 C 
BRANCH  13  14
ATOM     14  C   UNL     1     -20.773  -8.617  -2.050  1.00  0.00     0.053 C 
BRANCH  14  15
ATOM     15  C   UNL     1     -21.718  -7.991  -1.070  1.00  0.00     0.041 C 
ATOM     16  O   UNL     1     -21.983  -8.572   0.016  1.00  0.00    -0.550 OA
ATOM     17  O   UNL     1     -22.314  -6.770  -1.360  1.00  0.00    -0.550 OA
ENDBRANCH  14  15
ENDBRANCH  13  14
ENDBRANCH  12  13
ENDBRANCH  11  12
ENDBRANCH  10  11
ENDBRANCH   9  10
ENDBRANCH   8   9
ENDBRANCH   7   8
ENDBRANCH   6   7
ENDBRANCH   5   6
ENDBRANCH   4   5
ENDBRANCH   3   4
ENDBRANCH   2   3
ENDBRANCH   1   2
BRANCH   1  18
ATOM     18  C   UNL     1     -23.790  -8.378  -4.199  1.00  0.00     0.000 C 
BRANCH  18  19
ATOM     19  C   UNL     1     -25.045  -7.805  -3.516  1.00  0.00     0.000 C 
BRANCH  19  20
ATOM     20  C   UNL     1     -25.846  -6.873  -4.439  1.00  0.00     0.000 C 
BRANCH  20  21
ATOM     21  C   UNL     1     -25.614  -7.163  -5.930  1.00  0.00     0.000 C 
BRANCH  21  22
ATOM     22  C   UNL     1     -26.191  -6.032  -6.796  1.00  0.00     0.000 C 
BRANCH  22  23
ATOM     23  C   UNL     1     -25.149  -5.397  -7.729  1.00  0.00     0.000 C 
BRANCH  23  24
ATOM     24  C   UNL     1     -23.858  -6.222  -7.831  1.00  0.00    -0.000 C 
BRANCH  24  25
ATOM     25  C   UNL     1     -22.668  -5.326  -8.207  1.00  0.00    -0.000 C 
BRANCH  25  26
ATOM     26  C   UNL     1     -21.919  -4.780  -6.979  1.00  0.00    -0.000 C 
BRANCH  26  27
ATOM     27  C   UNL     1     -22.088  -5.610  -5.689  1.00  0.00    -0.000 C 
BRANCH  27  28
ATOM     28  C   UNL     1     -22.771  -4.879  -4.519  1.00  0.00    -0.000 C 
BRANCH  28  29
ATOM     29  C   UNL     1     -23.435  -3.556  -4.943  1.00  0.00    -0.000 C 
BRANCH  29  30
ATOM     30  C   UNL     1     -24.850  -3.384  -4.362  1.00  0.00    -0.000 C 
BRANCH  30  31
ATOM     31  C   UNL     1     -25.851  -2.668  -5.286  1.00  0.00    -0.003 C 
ATOM     32  C   UNL     1     -26.210  -1.262  -4.808  1.00  0.00     0.004 C 
ENDBRANCH  30  31
ENDBRANCH  29  30
ENDBRANCH  28  29
ENDBRANCH  27  28
ENDBRANCH  26  27
ENDBRANCH  25  26
ENDBRANCH  24  25
ENDBRANCH  23  24
ENDBRANCH  22  23
ENDBRANCH  21  22
ENDBRANCH  20  21
ENDBRANCH  19  20
ENDBRANCH  18  19
ENDBRANCH   1  18
TORSDOF 28
ENDMDL
MODEL 9
REMARK VINA RESULT:    -3.477      3.037      7.765
REMARK INTER + INTRA:         -15.850
REMARK INTER:                  -9.488
REMARK INTRA:                  -6.363
REMARK UNBOUND:                -6.681
REMARK SMILES CCCCCCCCCCCCCCCCCCCCCCCCCCCCCC(=O)[O-]
REMARK SMILES IDX 16 1 17 2 18 3 19 4 20 5 21 6 22 7 23 8 24 9 25 10 26 11
REMARK SMILES IDX 27 12 28 13 29 14 30 15 31 16 32 17 15 18 14 19 13 20 12 21
REMARK SMILES IDX 11 22 10 23 9 24 8 25 7 26 6 27 5 28 4 29 3 30 2 31 1 32
REMARK H PARENT
REMARK Flexibility Score: inf
ROOT
ATOM      1  C   UNL     1     -22.825  -8.420  -7.632  1.00  0.00     0.000 C 
ENDROOT
BRANCH   1   2
ATOM      2  C   UNL     1     -21.948  -7.639  -8.636  1.00  0.00     0.000 C 
BRANCH   2   3
ATOM      3  C   UNL     1     -20.636  -8.356  -8.999  1.00  0.00     0.000 C 
BRANCH   3   4
ATOM      4  C   UNL     1     -20.193  -9.376  -7.927  1.00  0.00     0.000 C 
BRANCH   4   5
ATOM      5  C   UNL     1     -18.661  -9.514  -7.837  1.00  0.00     0.000 C 
BRANCH   5   6
ATOM      6  C   UNL     1     -18.166 -10.046  -6.474  1.00  0.00     0.000 C 
BRANCH   6   7
ATOM      7  C   UNL     1     -17.398  -9.015  -5.625  1.00  0.00     0.000 C 
BRANCH   7   8
ATOM      8  C   UNL     1     -17.454  -7.595  -6.207  1.00  0.00     0.000 C 
BRANCH   8   9
ATOM      9  C   UNL     1     -18.006  -6.602  -5.173  1.00  0.00     0.000 C 
BRANCH   9  10
ATOM     10  C   UNL     1     -19.386  -6.048  -5.565  1.00  0.00     0.000 C 
BRANCH  10  11
ATOM     11  C   UNL     1     -20.528  -7.024  -5.249  1.00  0.00     0.000 C 
BRANCH  11  12
ATOM     12  C   UNL     1     -20.422  -7.549  -3.811  1.00  0.00     0.000 C 
BRANCH  12  13
ATOM     13  C   UNL     1     -20.630  -9.070  -3.765  1.00  0.00     0.006 C 
BRANCH  13  14
ATOM     14  C   UNL     1     -21.954  -9.499  -4.414  1.00  0.00     0.053 C 
BRANCH  14  15
ATOM     15  C   UNL     1     -22.051 -10.985  -4.577  1.00  0.00     0.041 C 
ATOM     16  O   UNL     1     -22.613 -11.685  -3.694  1.00  0.00    -0.550 OA
ATOM     17  O   UNL     1     -21.510 -11.599  -5.701  1.00  0.00    -0.550 OA
ENDBRANCH  14  15
ENDBRANCH  13  14
ENDBRANCH  12  13
ENDBRANCH  11  12
ENDBRANCH  10  11
ENDBRANCH   9  10
ENDBRANCH   8   9
ENDBRANCH   7   8
ENDBRANCH   6   7
ENDBRANCH   5   6
ENDBRANCH   4   5
ENDBRANCH   3   4
ENDBRANCH   2   3
ENDBRANCH   1   2
BRANCH   1  18
ATOM     18  C   UNL     1     -24.024  -7.623  -7.083  1.00  0.00     0.000 C 
BRANCH  18  19
ATOM     19  C   UNL     1     -23.840  -6.102  -7.233  1.00  0.00     0.000 C 
BRANCH  19  20
ATOM     20  C   UNL     1     -25.171  -5.337  -7.161  1.00  0.00     0.000 C 
BRANCH  20  21
ATOM     21  C   UNL     1     -26.318  -6.183  -6.587  1.00  0.00     0.000 C 
BRANCH  21  22
ATOM     22  C   UNL     1     -27.080  -5.398  -5.507  1.00  0.00     0.000 C 
BRANCH  22  23
ATOM     23  C   UNL     1     -26.660  -5.777  -4.079  1.00  0.00     0.000 C 
BRANCH  23  24
ATOM     24  C   UNL     1     -25.986  -7.155  -4.000  1.00  0.00    -0.000 C 
BRANCH  24  25
ATOM     25  C   UNL     1     -24.599  -7.045  -3.350  1.00  0.00    -0.000 C 
BRANCH  25  26
ATOM     26  C   UNL     1     -24.204  -5.595  -3.022  1.00  0.00    -0.000 C 
BRANCH  26  27
ATOM     27  C   UNL     1     -23.186  -4.960  -3.991  1.00  0.00    -0.000 C 
BRANCH  27  28
ATOM     28  C   UNL     1     -23.085  -3.425  -3.930  1.00  0.00    -0.000 C 
BRANCH  28  29
ATOM     29  C   UNL     1     -24.140  -2.720  -4.803  1.00  0.00    -0.000 C 
BRANCH  29  30
ATOM     30  C   UNL     1     -25.366  -2.252  -3.998  1.00  0.00    -0.000 C 
BRANCH  30  31
ATOM     31  C   UNL     1     -25.075  -1.846  -2.543  1.00  0.00    -0.003 C 
ATOM     32  C   UNL     1     -25.923  -2.608  -1.526  1.00  0.00     0.004 C 
ENDBRANCH  30  31
ENDBRANCH  29  30
ENDBRANCH  28  29
ENDBRANCH  27  28
ENDBRANCH  26  27
ENDBRANCH  25  26
ENDBRANCH  24  25
ENDBRANCH  23  24
ENDBRANCH  22  23
ENDBRANCH  21  22
ENDBRANCH  20  21
ENDBRANCH  19  20
ENDBRANCH  18  19
ENDBRANCH   1  18
TORSDOF 28
ENDMDL
