MODEL 1
REMARK VINA RESULT:    -4.621      0.000      0.000
REMARK INTER + INTRA:          -6.817
REMARK INTER:                  -6.513
REMARK INTRA:                  -0.304
REMARK UNBOUND:                -0.304
REMARK SMILES CCCCCCCCC(=O)[O-]
REMARK SMILES IDX 6 1 7 2 8 3 9 4 10 5 11 6 5 7 4 8 3 9 2 10 1 11
REMARK H PARENT
REMARK Flexibility Score: inf
ROOT
ATOM      1  C   UNL     1       6.925 -13.017  -4.209  1.00  0.00     0.000 C 
ENDROOT
BRANCH   1   2
ATOM      2  C   UNL     1       5.395 -13.102  -4.097  1.00  0.00     0.006 C 
BRANCH   2   3
ATOM      3  C   UNL     1       4.737 -12.957  -5.473  1.00  0.00     0.053 C 
BRANCH   3   4
ATOM      4  C   UNL     1       4.460 -11.518  -5.772  1.00  0.00     0.041 C 
ATOM      5  O   UNL     1       3.741 -10.836  -4.995  1.00  0.00    -0.550 OA
ATOM      6  O   UNL     1       5.037 -10.915  -6.883  1.00  0.00    -0.550 OA
ENDBRANCH   3   4
ENDBRANCH   2   3
ENDBRANCH   1   2
BRANCH   1   7
ATOM      7  C   UNL     1       7.644 -13.700  -3.035  1.00  0.00     0.000 C 
BRANCH   7   8
ATOM      8  C   UNL     1       7.066 -13.294  -1.670  1.00  0.00    -0.000 C 
BRANCH   8   9
ATOM      9  C   UNL     1       8.173 -12.775  -0.740  1.00  0.00    -0.000 C 
BRANCH   9  10
ATOM     10  C   UNL     1       8.181 -11.242  -0.630  1.00  0.00    -0.003 C 
ATOM     11  C   UNL     1       9.233 -10.724   0.351  1.00  0.00     0.004 C 
ENDBRANCH   9  10
ENDBRANCH   8   9
ENDBRANCH   7   8
ENDBRANCH   1   7
TORSDOF 7
ENDMDL
MODEL 2
REMARK VINA RESULT:    -4.571      3.018      5.604
REMARK INTER + INTRA:          -6.746
REMARK INTER:                  -6.321
REMARK INTRA:                  -0.425
REMARK UNBOUND:                -0.304
REMARK SMILES CCCCCCCCC(=O)[O-]
REMARK SMILES IDX 6 1 7 2 8 3 9 4 10 5 11 6 5 7 4 8 3 9 2 10 1 11
REMARK H PARENT
REMARK Flexibility Score: inf
ROOT
ATOM      1  C   UNL     1       7.700 -13.805  -2.488  1.00  0.00     0.000 C 
ENDROOT
BRANCH   1   2
ATOM      2  C   UNL     1       7.330 -12.999  -1.234  1.00  0.00     0.006 C 
BRANCH   2   3
ATOM      3  C   UNL     1       8.582 -12.625  -0.435  1.00  0.00     0.053 C 
BRANCH   3   4
ATOM      4  C   UNL     1       8.687 -11.139  -0.291  1.00  0.00     0.041 C 
ATOM      5  O   UNL     1       9.518 -10.637   0.511  1.00  0.00    -0.550 OA
ATOM      6  O   UNL     1       7.900 -10.308  -1.078  1.00  0.00    -0.550 OA
ENDBRANCH   3   4
ENDBRANCH   2   3
ENDBRANCH   1   2
BRANCH   1   7
ATOM      7  C   UNL     1       7.306 -13.090  -3.790  1.00  0.00     0.000 C 
BRANCH   7   8
ATOM      8  C   UNL     1       6.017 -12.266  -3.647  1.00  0.00    -0.000 C 
BRANCH   8   9
ATOM      9  C   UNL     1       4.790 -13.095  -4.055  1.00  0.00    -0.000 C 
BRANCH   9  10
ATOM     10  C   UNL     1       4.534 -13.065  -5.570  1.00  0.00    -0.003 C 
ATOM     11  C   UNL     1       4.641 -11.659  -6.161  1.00  0.00     0.004 C 
ENDBRANCH   9  10
ENDBRANCH   8   9
ENDBRANCH   7   8
ENDBRANCH   1   7
TORSDOF 7
ENDMDL
MODEL 3
REMARK VINA RESULT:    -4.569      1.426      1.760
REMARK INTER + INTRA:          -6.743
REMARK INTER:                  -6.490
REMARK INTRA:                  -0.253
REMARK UNBOUND:                -0.304
REMARK SMILES CCCCCCCCC(=O)[O-]
REMARK SMILES IDX 6 1 7 2 8 3 9 4 10 5 11 6 5 7 4 8 3 9 2 10 1 11
REMARK H PARENT
REMARK Flexibility Score: inf
ROOT
ATOM      1  C   UNL     1       7.260 -13.308  -3.575  1.00  0.00     0.000 C 
ENDROOT
BRANCH   1   2
ATOM      2  C   UNL     1       5.785 -12.889  -3.662  1.00  0.00     0.006 C 
BRANCH   2   3
ATOM      3  C   UNL     1       5.229 -13.135  -5.069  1.00  0.00     0.053 C 
BRANCH   3   4
ATOM      4  C   UNL     1       3.733 -13.149  -5.045  1.00  0.00     0.041 C 
ATOM      5  O   UNL     1       3.101 -14.136  -5.507  1.00  0.00    -0.550 OA
ATOM      6  O   UNL     1       3.037 -12.094  -4.468  1.00  0.00    -0.550 OA
ENDBRANCH   3   4
ENDBRANCH   2   3
ENDBRANCH   1   2
BRANCH   1   7
ATOM      7  C   UNL     1       7.668 -13.750  -2.160  1.00  0.00     0.000 C 
BRANCH   7   8
ATOM      8  C   UNL     1       7.524 -12.624  -1.124  1.00  0.00    -0.000 C 
BRANCH   8   9
ATOM      9  C   UNL     1       8.787 -12.515  -0.256  1.00  0.00    -0.000 C 
BRANCH   9  10
ATOM     10  C   UNL     1       9.115 -11.063   0.129  1.00  0.00    -0.003 C 
ATOM     11  C   UNL     1       7.957 -10.103  -0.142  1.00  0.00     0.004 C 
ENDBRANCH   9  10
ENDBRANCH   8   9
ENDBRANCH   7   8
ENDBRANCH   1   7
TORSDOF 7
ENDMDL
MODEL 4
REMARK VINA RESULT:    -4.529      1.677      2.466
REMARK INTER + INTRA:          -6.687
REMARK INTER:                  -6.231
REMARK INTRA:                  -0.456
REMARK UNBOUND:                -0.304
REMARK SMILES CCCCCCCCC(=O)[O-]
REMARK SMILES IDX 6 1 7 2 8 3 9 4 10 5 11 6 5 7 4 8 3 9 2 10 1 11
REMARK H PARENT
REMARK Flexibility Score: inf
ROOT
ATOM      1  C   UNL     1       7.870 -13.827  -2.030  1.00  0.00     0.000 C 
ENDROOT
BRANCH   1   2
ATOM      2  C   UNL     1       7.272 -13.460  -3.396  1.00  0.00     0.006 C 
BRANCH   2   3
ATOM      3  C   UNL     1       5.983 -12.650  -3.229  1.00  0.00     0.053 C 
BRANCH   3   4
ATOM      4  C   UNL     1       4.884 -13.238  -4.057  1.00  0.00     0.041 C 
ATOM      5  O   UNL     1       3.903 -13.799  -3.502  1.00  0.00    -0.550 OA
ATOM      6  O   UNL     1       4.919 -13.123  -5.441  1.00  0.00    -0.550 OA
ENDBRANCH   3   4
ENDBRANCH   2   3
ENDBRANCH   1   2
BRANCH   1   7
ATOM      7  C   UNL     1       7.571 -12.775  -0.950  1.00  0.00     0.000 C 
BRANCH   7   8
ATOM      8  C   UNL     1       8.828 -12.347  -0.176  1.00  0.00    -0.000 C 
BRANCH   8   9
ATOM      9  C   UNL     1       8.761 -10.858   0.195  1.00  0.00    -0.000 C 
BRANCH   9  10
ATOM     10  C   UNL     1       7.821 -10.062  -0.725  1.00  0.00    -0.003 C 
ATOM     11  C   UNL     1       7.156  -8.884  -0.015  1.00  0.00     0.004 C 
ENDBRANCH   9  10
ENDBRANCH   8   9
ENDBRANCH   7   8
ENDBRANCH   1   7
TORSDOF 7
ENDMDL
MODEL 5
REMARK VINA RESULT:    -4.506      2.745      5.257
REMARK INTER + INTRA:          -6.655
REMARK INTER:                  -6.072
REMARK INTRA:                  -0.583
REMARK UNBOUND:                -0.304
REMARK SMILES CCCCCCCCC(=O)[O-]
REMARK SMILES IDX 6 1 7 2 8 3 9 4 10 5 11 6 5 7 4 8 3 9 2 10 1 11
REMARK H PARENT
REMARK Flexibility Score: inf
ROOT
ATOM      1  C   UNL     1       7.679 -13.807  -2.763  1.00  0.00     0.000 C 
ENDROOT
BRANCH   1   2
ATOM      2  C   UNL     1       6.995 -13.061  -1.607  1.00  0.00     0.006 C 
BRANCH   2   3
ATOM      3  C   UNL     1       8.033 -12.466  -0.650  1.00  0.00     0.053 C 
BRANCH   3   4
ATOM      4  C   UNL     1       8.022 -10.971  -0.730  1.00  0.00     0.041 C 
ATOM      5  O   UNL     1       8.314 -10.281   0.282  1.00  0.00    -0.550 OA
ATOM      6  O   UNL     1       7.737 -10.342  -1.935  1.00  0.00    -0.550 OA
ENDBRANCH   3   4
ENDBRANCH   2   3
ENDBRANCH   1   2
BRANCH   1   7
ATOM      7  C   UNL     1       7.254 -13.280  -4.143  1.00  0.00     0.000 C 
BRANCH   7   8
ATOM      8  C   UNL     1       5.903 -12.549  -4.107  1.00  0.00    -0.000 C 
BRANCH   8   9
ATOM      9  C   UNL     1       4.968 -13.075  -5.207  1.00  0.00    -0.000 C 
BRANCH   9  10
ATOM     10  C   UNL     1       3.569 -13.427  -4.675  1.00  0.00    -0.003 C 
ATOM     11  C   UNL     1       3.605 -14.039  -3.275  1.00  0.00     0.004 C 
ENDBRANCH   9  10
ENDBRANCH   8   9
ENDBRANCH   7   8
ENDBRANCH   1   7
TORSDOF 7
ENDMDL
MODEL 6
REMARK VINA RESULT:    -4.471      2.094      2.731
REMARK INTER + INTRA:          -6.605
REMARK INTER:                  -6.073
REMARK INTRA:                  -0.532
REMARK UNBOUND:                -0.304
REMARK SMILES CCCCCCCCC(=O)[O-]
REMARK SMILES IDX 6 1 7 2 8 3 9 4 10 5 11 6 5 7 4 8 3 9 2 10 1 11
REMARK H PARENT
REMARK Flexibility Score: inf
ROOT
ATOM      1  C   UNL     1       6.118 -12.435  -3.631  1.00  0.00     0.000 C 
ENDROOT
BRANCH   1   2
ATOM      2  C   UNL     1       4.871 -13.097  -4.237  1.00  0.00     0.006 C 
BRANCH   2   3
ATOM      3  C   UNL     1       4.096 -13.879  -3.171  1.00  0.00     0.053 C 
BRANCH   3   4
ATOM      4  C   UNL     1       3.734 -12.986  -2.026  1.00  0.00     0.041 C 
ATOM      5  O   UNL     1       2.980 -11.994  -2.210  1.00  0.00    -0.550 OA
ATOM      6  O   UNL     1       4.190 -13.277  -0.747  1.00  0.00    -0.550 OA
ENDBRANCH   3   4
ENDBRANCH   2   3
ENDBRANCH   1   2
BRANCH   1   7
ATOM      7  C   UNL     1       7.301 -13.408  -3.499  1.00  0.00     0.000 C 
BRANCH   7   8
ATOM      8  C   UNL     1       7.659 -13.709  -2.035  1.00  0.00    -0.000 C 
BRANCH   8   9
ATOM      9  C   UNL     1       7.584 -12.434  -1.181  1.00  0.00    -0.000 C 
BRANCH   9  10
ATOM     10  C   UNL     1       8.729 -12.341  -0.158  1.00  0.00    -0.003 C 
ATOM     11  C   UNL     1       9.081 -10.900   0.207  1.00  0.00     0.004 C 
ENDBRANCH   9  10
ENDBRANCH   8   9
ENDBRANCH   7   8
ENDBRANCH   1   7
TORSDOF 7
ENDMDL
MODEL 7
REMARK VINA RESULT:    -4.435      3.059      5.347
REMARK INTER + INTRA:          -6.554
REMARK INTER:                  -6.224
REMARK INTRA:                  -0.330
REMARK UNBOUND:                -0.304
REMARK SMILES CCCCCCCCC(=O)[O-]
REMARK SMILES IDX 6 1 7 2 8 3 9 4 10 5 11 6 5 7 4 8 3 9 2 10 1 11
REMARK H PARENT
REMARK Flexibility Score: inf
ROOT
ATOM      1  C   UNL     1       8.914 -11.229  -0.025  1.00  0.00     0.000 C 
ENDROOT
BRANCH   1   2
ATOM      2  C   UNL     1       7.990 -10.221  -0.725  1.00  0.00     0.006 C 
BRANCH   2   3
ATOM      3  C   UNL     1       7.072  -9.527   0.286  1.00  0.00     0.053 C 
BRANCH   3   4
ATOM      4  C   UNL     1       6.685  -8.167  -0.205  1.00  0.00     0.041 C 
ATOM      5  O   UNL     1       5.859  -8.045  -1.147  1.00  0.00    -0.550 OA
ATOM      6  O   UNL     1       7.200  -7.034   0.412  1.00  0.00    -0.550 OA
ENDBRANCH   3   4
ENDBRANCH   2   3
ENDBRANCH   1   2
BRANCH   1   7
ATOM      7  C   UNL     1       8.621 -12.682  -0.431  1.00  0.00     0.000 C 
BRANCH   7   8
ATOM      8  C   UNL     1       7.339 -12.817  -1.267  1.00  0.00    -0.000 C 
BRANCH   8   9
ATOM      9  C   UNL     1       7.572 -13.726  -2.483  1.00  0.00    -0.000 C 
BRANCH   9  10
ATOM     10  C   UNL     1       7.350 -12.995  -3.818  1.00  0.00    -0.003 C 
ATOM     11  C   UNL     1       5.906 -13.088  -4.310  1.00  0.00     0.004 C 
ENDBRANCH   9  10
ENDBRANCH   8   9
ENDBRANCH   7   8
ENDBRANCH   1   7
TORSDOF 7
ENDMDL
MODEL 8
REMARK VINA RESULT:    -4.209      3.547      5.525
REMARK INTER + INTRA:          -6.235
REMARK INTER:                  -5.834
REMARK INTRA:                  -0.401
REMARK UNBOUND:                -0.304
REMARK SMILES CCCCCCCCC(=O)[O-]
REMARK SMILES IDX 6 1 7 2 8 3 9 4 10 5 11 6 5 7 4 8 3 9 2 10 1 11
REMARK H PARENT
REMARK Flexibility Score: inf
ROOT
ATOM      1  C   UNL     1       5.940 -13.185  -4.149  1.00  0.00     0.000 C 
ENDROOT
BRANCH   1   2
ATOM      2  C   UNL     1       7.301 -13.371  -3.462  1.00  0.00     0.006 C 
BRANCH   2   3
ATOM      3  C   UNL     1       7.136 -13.485  -1.943  1.00  0.00     0.053 C 
BRANCH   3   4
ATOM      4  C   UNL     1       7.903 -12.403  -1.250  1.00  0.00     0.041 C 
ATOM      5  O   UNL     1       8.633 -12.678  -0.261  1.00  0.00    -0.550 OA
ATOM      6  O   UNL     1       7.850 -11.100  -1.727  1.00  0.00    -0.550 OA
ENDBRANCH   3   4
ENDBRANCH   2   3
ENDBRANCH   1   2
BRANCH   1   7
ATOM      7  C   UNL     1       4.804 -12.914  -3.150  1.00  0.00     0.000 C 
BRANCH   7   8
ATOM      8  C   UNL     1       3.732 -14.015  -3.159  1.00  0.00    -0.000 C 
BRANCH   8   9
ATOM      9  C   UNL     1       3.556 -14.619  -1.758  1.00  0.00    -0.000 C 
BRANCH   9  10
ATOM     10  C   UNL     1       2.455 -15.691  -1.710  1.00  0.00    -0.003 C 
ATOM     11  C   UNL     1       2.191 -16.329  -3.074  1.00  0.00     0.004 C 
ENDBRANCH   9  10
ENDBRANCH   8   9
ENDBRANCH   7   8
ENDBRANCH   1   7
TORSDOF 7
ENDMDL
MODEL 9
REMARK VINA RESULT:    -4.191      1.354      2.336
REMARK INTER + INTRA:          -6.210
REMARK INTER:                  -6.015
REMARK INTRA:                  -0.195
REMARK UNBOUND:                -0.304
REMARK SMILES CCCCCCCCC(=O)[O-]
REMARK SMILES IDX 6 1 7 2 8 3 9 4 10 5 11 6 5 7 4 8 3 9 2 10 1 11
REMARK H PARENT
REMARK Flexibility Score: inf
ROOT
ATOM      1  C   UNL     1       4.962 -12.919  -5.318  1.00  0.00     0.000 C 
ENDROOT
BRANCH   1   2
ATOM      2  C   UNL     1       4.811 -11.429  -5.661  1.00  0.00     0.006 C 
BRANCH   2   3
ATOM      3  C   UNL     1       3.442 -11.149  -6.290  1.00  0.00     0.053 C 
BRANCH   3   4
ATOM      4  C   UNL     1       3.513  -9.953  -7.187  1.00  0.00     0.041 C 
ATOM      5  O   UNL     1       2.504  -9.598  -7.851  1.00  0.00    -0.550 OA
ATOM      6  O   UNL     1       4.680  -9.202  -7.251  1.00  0.00    -0.550 OA
ENDBRANCH   3   4
ENDBRANCH   2   3
ENDBRANCH   1   2
BRANCH   1   7
ATOM      7  C   UNL     1       5.561 -13.148  -3.921  1.00  0.00     0.000 C 
BRANCH   7   8
ATOM      8  C   UNL     1       7.097 -13.200  -3.937  1.00  0.00    -0.000 C 
BRANCH   8   9
ATOM      9  C   UNL     1       7.640 -13.732  -2.603  1.00  0.00    -0.000 C 
BRANCH   9  10
ATOM     10  C   UNL     1       7.242 -12.849  -1.409  1.00  0.00    -0.003 C 
ATOM     11  C   UNL     1       8.417 -12.543  -0.481  1.00  0.00     0.004 C 
ENDBRANCH   9  10
ENDBRANCH   8   9
ENDBRANCH   7   8
ENDBRANCH   1   7
TORSDOF 7
ENDMDL
