MODEL 1
REMARK VINA RESULT:    14.932      0.000      0.000
REMARK INTER + INTRA:          26.574
REMARK INTER:                  27.154
REMARK INTRA:                  -0.579
REMARK UNBOUND:                -0.579
REMARK SMILES CCCCCCCCCCCCCC[C@H](C)C(=O)[O-]
REMARK SMILES IDX 9 1 10 2 11 3 12 4 13 5 14 6 15 7 16 8 17 9 18 10 19 11 8 12
REMARK SMILES IDX 7 13 6 14 5 15 4 16 3 17 2 18 1 19
REMARK H PARENT
REMARK Flexibility Score: inf
ROOT
ATOM      1  C   UNL     1       5.039  19.209  50.162  1.00  0.00     0.000 C 
ENDROOT
BRANCH   1   2
ATOM      2  C   UNL     1       5.475  19.081  48.688  1.00  0.00     0.000 C 
BRANCH   2   3
ATOM      3  C   UNL     1       5.994  17.688  48.279  1.00  0.00     0.000 C 
BRANCH   3   4
ATOM      4  C   UNL     1       6.434  17.561  46.807  1.00  0.00     0.000 C 
BRANCH   4   5
ATOM      5  C   UNL     1       6.495  16.121  46.267  1.00  0.00     0.001 C 
BRANCH   5   6
ATOM      6  C   UNL     1       7.571  15.933  45.183  1.00  0.00     0.009 C 
BRANCH   6   7
ATOM      7  C   UNL     1       8.704  14.995  45.645  1.00  0.00     0.032 C 
ATOM      8  C   UNL     1      10.055  15.715  45.601  1.00  0.00     0.014 C 
BRANCH   7   9
ATOM      9  C   UNL     1       8.767  13.752  44.797  1.00  0.00     0.044 C 
ATOM     10  O   UNL     1       8.401  12.644  45.271  1.00  0.00    -0.550 OA
ATOM     11  O   UNL     1       9.235  13.816  43.490  1.00  0.00    -0.550 OA
ENDBRANCH   7   9
ENDBRANCH   6   7
ENDBRANCH   5   6
ENDBRANCH   4   5
ENDBRANCH   3   4
ENDBRANCH   2   3
ENDBRANCH   1   2
BRANCH   1  12
ATOM     12  C   UNL     1       5.207  20.612  50.774  1.00  0.00     0.000 C 
BRANCH  12  13
ATOM     13  C   UNL     1       5.330  20.584  52.307  1.00  0.00    -0.000 C 
BRANCH  13  14
ATOM     14  C   UNL     1       3.969  20.447  53.007  1.00  0.00    -0.000 C 
BRANCH  14  15
ATOM     15  C   UNL     1       4.063  20.614  54.535  1.00  0.00    -0.000 C 
BRANCH  15  16
ATOM     16  C   UNL     1       4.567  22.016  54.937  1.00  0.00    -0.000 C 
BRANCH  16  17
ATOM     17  C   UNL     1       5.872  21.992  55.750  1.00  0.00    -0.000 C 
BRANCH  17  18
ATOM     18  C   UNL     1       6.688  20.711  55.532  1.00  0.00    -0.003 C 
ATOM     19  C   UNL     1       8.129  20.888  56.002  1.00  0.00     0.004 C 
ENDBRANCH  17  18
ENDBRANCH  16  17
ENDBRANCH  15  16
ENDBRANCH  14  15
ENDBRANCH  13  14
ENDBRANCH  12  13
ENDBRANCH   1  12
TORSDOF 14
ENDMDL
MODEL 2
REMARK VINA RESULT:    17.237      5.681     11.154
REMARK INTER + INTRA:          30.766
REMARK INTER:                  31.326
REMARK INTRA:                  -0.561
REMARK UNBOUND:                -0.579
REMARK SMILES CCCCCCCCCCCCCC[C@H](C)C(=O)[O-]
REMARK SMILES IDX 9 1 10 2 11 3 12 4 13 5 14 6 15 7 16 8 17 9 18 10 19 11 8 12
REMARK SMILES IDX 7 13 6 14 5 15 4 16 3 17 2 18 1 19
REMARK H PARENT
REMARK Flexibility Score: inf
ROOT
ATOM      1  C   UNL     1      11.783  13.201  43.037  1.00  0.00     0.000 C 
ENDROOT
BRANCH   1   2
ATOM      2  C   UNL     1      10.301  13.561  42.806  1.00  0.00     0.000 C 
BRANCH   2   3
ATOM      3  C   UNL     1       9.407  13.482  44.059  1.00  0.00     0.000 C 
BRANCH   3   4
ATOM      4  C   UNL     1       9.378  14.760  44.921  1.00  0.00     0.000 C 
BRANCH   4   5
ATOM      5  C   UNL     1       8.022  15.490  44.959  1.00  0.00     0.001 C 
BRANCH   5   6
ATOM      6  C   UNL     1       7.701  16.085  46.341  1.00  0.00     0.009 C 
BRANCH   6   7
ATOM      7  C   UNL     1       6.232  16.543  46.449  1.00  0.00     0.032 C 
ATOM      8  C   UNL     1       5.626  16.751  45.058  1.00  0.00     0.014 C 
BRANCH   7   9
ATOM      9  C   UNL     1       6.112  17.815  47.247  1.00  0.00     0.044 C 
ATOM     10  O   UNL     1       6.348  17.809  48.484  1.00  0.00    -0.550 OA
ATOM     11  O   UNL     1       5.735  19.000  46.627  1.00  0.00    -0.550 OA
ENDBRANCH   7   9
ENDBRANCH   6   7
ENDBRANCH   5   6
ENDBRANCH   4   5
ENDBRANCH   3   4
ENDBRANCH   2   3
ENDBRANCH   1   2
BRANCH   1  12
ATOM     12  C   UNL     1      12.230  11.854  42.440  1.00  0.00     0.000 C 
BRANCH  12  13
ATOM     13  C   UNL     1      13.004  10.983  43.445  1.00  0.00    -0.000 C 
BRANCH  13  14
ATOM     14  C   UNL     1      14.240  11.694  44.016  1.00  0.00    -0.000 C 
BRANCH  14  15
ATOM     15  C   UNL     1      15.123  10.766  44.869  1.00  0.00    -0.000 C 
BRANCH  15  16
ATOM     16  C   UNL     1      15.910  11.540  45.948  1.00  0.00    -0.000 C 
BRANCH  16  17
ATOM     17  C   UNL     1      15.108  11.786  47.237  1.00  0.00    -0.000 C 
BRANCH  17  18
ATOM     18  C   UNL     1      15.557  13.047  47.987  1.00  0.00    -0.003 C 
ATOM     19  C   UNL     1      14.460  13.552  48.921  1.00  0.00     0.004 C 
ENDBRANCH  17  18
ENDBRANCH  16  17
ENDBRANCH  15  16
ENDBRANCH  14  15
ENDBRANCH  13  14
ENDBRANCH  12  13
ENDBRANCH   1  12
TORSDOF 14
ENDMDL
