MODEL 1
REMARK VINA RESULT:    -4.523      0.000      0.000
REMARK INTER + INTRA:          -5.266
REMARK INTER:                  -5.052
REMARK INTRA:                  -0.215
REMARK UNBOUND:                -0.215
REMARK SMILES CC(C)c1ccc(C(=O)[O-])cc1
REMARK SMILES IDX 7 1 6 2 11 3 5 4 12 5 4 6 8 7 9 8 10 9 2 10 1 11 3 12
REMARK H PARENT
REMARK Flexibility Score: inf
ROOT
ATOM      1  C   UNL     1     -16.553  34.350 -16.199  1.00  0.00    -0.003 A 
ATOM      2  C   UNL     1     -16.226  33.239 -16.994  1.00  0.00     0.010 A 
ATOM      3  C   UNL     1     -17.674  35.125 -16.541  1.00  0.00     0.010 A 
ATOM      4  C   UNL     1     -17.001  32.911 -18.109  1.00  0.00     0.004 A 
ATOM      5  C   UNL     1     -18.451  34.796 -17.657  1.00  0.00     0.004 A 
ATOM      6  C   UNL     1     -18.124  33.687 -18.453  1.00  0.00    -0.045 A 
ENDROOT
BRANCH   1   7
ATOM      7  C   UNL     1     -15.728  34.694 -15.019  1.00  0.00     0.071 C 
ATOM      8  O   UNL     1     -16.263  34.860 -13.891  1.00  0.00    -0.545 OA
ATOM      9  O   UNL     1     -14.351  34.838 -15.142  1.00  0.00    -0.545 OA
ENDBRANCH   1   7
BRANCH   6  10
ATOM     10  C   UNL     1     -18.975  33.342 -19.660  1.00  0.00     0.013 C 
ATOM     11  C   UNL     1     -20.290  34.131 -19.654  1.00  0.00     0.012 C 
ATOM     12  C   UNL     1     -19.237  31.833 -19.739  1.00  0.00     0.012 C 
ENDBRANCH   6  10
TORSDOF 2
ENDMDL
MODEL 2
REMARK VINA RESULT:    -4.279      9.394     11.050
REMARK INTER + INTRA:          -4.994
REMARK INTER:                  -4.780
REMARK INTRA:                  -0.214
REMARK UNBOUND:                -0.215
REMARK SMILES CC(C)c1ccc(C(=O)[O-])cc1
REMARK SMILES IDX 7 1 6 2 11 3 5 4 12 5 4 6 8 7 9 8 10 9 2 10 1 11 3 12
REMARK H PARENT
REMARK Flexibility Score: inf
ROOT
ATOM      1  C   UNL     1     -15.905  26.069 -12.254  1.00  0.00    -0.003 A 
ATOM      2  C   UNL     1     -16.112  27.244 -11.512  1.00  0.00     0.010 A 
ATOM      3  C   UNL     1     -14.631  25.477 -12.247  1.00  0.00     0.010 A 
ATOM      4  C   UNL     1     -15.067  27.814 -10.780  1.00  0.00     0.004 A 
ATOM      5  C   UNL     1     -13.586  26.047 -11.514  1.00  0.00     0.004 A 
ATOM      6  C   UNL     1     -13.791  27.222 -10.773  1.00  0.00    -0.045 A 
ENDROOT
BRANCH   1   7
ATOM      7  C   UNL     1     -17.014  25.469 -13.028  1.00  0.00     0.071 C 
ATOM      8  O   UNL     1     -17.461  24.331 -12.729  1.00  0.00    -0.545 OA
ATOM      9  O   UNL     1     -17.577  26.156 -14.098  1.00  0.00    -0.545 OA
ENDBRANCH   1   7
BRANCH   6  10
ATOM     10  C   UNL     1     -12.649  27.830  -9.982  1.00  0.00     0.013 C 
ATOM     11  C   UNL     1     -11.705  26.745  -9.449  1.00  0.00     0.012 C 
ATOM     12  C   UNL     1     -13.173  28.712  -8.843  1.00  0.00     0.012 C 
ENDBRANCH   6  10
TORSDOF 2
ENDMDL
MODEL 3
REMARK VINA RESULT:    -4.201      9.593     10.863
REMARK INTER + INTRA:          -4.907
REMARK INTER:                  -4.696
REMARK INTRA:                  -0.211
REMARK UNBOUND:                -0.215
REMARK SMILES CC(C)c1ccc(C(=O)[O-])cc1
REMARK SMILES IDX 7 1 6 2 11 3 5 4 12 5 4 6 8 7 9 8 10 9 2 10 1 11 3 12
REMARK H PARENT
REMARK Flexibility Score: inf
ROOT
ATOM      1  C   UNL     1     -11.764  26.635 -10.048  1.00  0.00    -0.003 A 
ATOM      2  C   UNL     1     -12.404  25.852 -11.022  1.00  0.00     0.010 A 
ATOM      3  C   UNL     1     -12.446  27.736  -9.504  1.00  0.00     0.010 A 
ATOM      4  C   UNL     1     -13.699  26.164 -11.445  1.00  0.00     0.004 A 
ATOM      5  C   UNL     1     -13.742  28.048  -9.926  1.00  0.00     0.004 A 
ATOM      6  C   UNL     1     -14.383  27.267 -10.901  1.00  0.00    -0.045 A 
ENDROOT
BRANCH   1   7
ATOM      7  C   UNL     1     -10.392  26.302  -9.604  1.00  0.00     0.071 C 
ATOM      8  O   UNL     1      -9.892  26.865  -8.594  1.00  0.00    -0.545 OA
ATOM      9  O   UNL     1      -9.637  25.362 -10.296  1.00  0.00    -0.545 OA
ENDBRANCH   1   7
BRANCH   6  10
ATOM     10  C   UNL     1     -15.790  27.616 -11.350  1.00  0.00     0.013 C 
ATOM     11  C   UNL     1     -16.545  26.368 -11.824  1.00  0.00     0.012 C 
ATOM     12  C   UNL     1     -15.770  28.695 -12.439  1.00  0.00     0.012 C 
ENDBRANCH   6  10
TORSDOF 2
ENDMDL
MODEL 4
REMARK VINA RESULT:    -4.191      9.464     10.692
REMARK INTER + INTRA:          -4.896
REMARK INTER:                  -4.682
REMARK INTRA:                  -0.214
REMARK UNBOUND:                -0.215
REMARK SMILES CC(C)c1ccc(C(=O)[O-])cc1
REMARK SMILES IDX 7 1 6 2 11 3 5 4 12 5 4 6 8 7 9 8 10 9 2 10 1 11 3 12
REMARK H PARENT
REMARK Flexibility Score: inf
ROOT
ATOM      1  C   UNL     1     -12.213  27.038  -9.670  1.00  0.00    -0.003 A 
ATOM      2  C   UNL     1     -13.240  27.988  -9.550  1.00  0.00     0.010 A 
ATOM      3  C   UNL     1     -12.318  26.044 -10.658  1.00  0.00     0.010 A 
ATOM      4  C   UNL     1     -14.349  27.945 -10.399  1.00  0.00     0.004 A 
ATOM      5  C   UNL     1     -13.427  26.001 -11.507  1.00  0.00     0.004 A 
ATOM      6  C   UNL     1     -14.455  26.950 -11.388  1.00  0.00    -0.045 A 
ENDROOT
BRANCH   1   7
ATOM      7  C   UNL     1     -11.040  27.087  -8.769  1.00  0.00     0.071 C 
ATOM      8  O   UNL     1     -11.068  27.782  -7.719  1.00  0.00    -0.545 OA
ATOM      9  O   UNL     1      -9.891  26.363  -9.069  1.00  0.00    -0.545 OA
ENDBRANCH   1   7
BRANCH   6  10
ATOM     10  C   UNL     1     -15.654  26.892 -12.316  1.00  0.00     0.013 C 
ATOM     11  C   UNL     1     -16.469  28.189 -12.249  1.00  0.00     0.012 C 
ATOM     12  C   UNL     1     -16.531  25.672 -12.011  1.00  0.00     0.012 C 
ENDBRANCH   6  10
TORSDOF 2
ENDMDL
MODEL 5
REMARK VINA RESULT:    -4.146     12.688     15.030
REMARK INTER + INTRA:          -4.846
REMARK INTER:                  -4.644
REMARK INTRA:                  -0.201
REMARK UNBOUND:                -0.215
REMARK SMILES CC(C)c1ccc(C(=O)[O-])cc1
REMARK SMILES IDX 7 1 6 2 11 3 5 4 12 5 4 6 8 7 9 8 10 9 2 10 1 11 3 12
REMARK H PARENT
REMARK Flexibility Score: inf
ROOT
ATOM      1  C   UNL     1      -5.667  31.689  -6.708  1.00  0.00    -0.003 A 
ATOM      2  C   UNL     1      -7.055  31.511  -6.585  1.00  0.00     0.010 A 
ATOM      3  C   UNL     1      -4.999  31.096  -7.793  1.00  0.00     0.010 A 
ATOM      4  C   UNL     1      -7.760  30.756  -7.526  1.00  0.00     0.004 A 
ATOM      5  C   UNL     1      -5.705  30.341  -8.735  1.00  0.00     0.004 A 
ATOM      6  C   UNL     1      -7.092  30.162  -8.612  1.00  0.00    -0.045 A 
ENDROOT
BRANCH   1   7
ATOM      7  C   UNL     1      -4.924  32.488  -5.709  1.00  0.00     0.071 C 
ATOM      8  O   UNL     1      -4.463  33.621  -6.010  1.00  0.00    -0.545 OA
ATOM      9  O   UNL     1      -4.725  31.999  -4.423  1.00  0.00    -0.545 OA
ENDBRANCH   1   7
BRANCH   6  10
ATOM     10  C   UNL     1      -7.846  29.340  -9.641  1.00  0.00     0.013 C 
ATOM     11  C   UNL     1      -9.138  30.044 -10.073  1.00  0.00     0.012 C 
ATOM     12  C   UNL     1      -8.134  27.929  -9.117  1.00  0.00     0.012 C 
ENDBRANCH   6  10
TORSDOF 2
ENDMDL
MODEL 6
REMARK VINA RESULT:    -4.136     12.699     14.992
REMARK INTER + INTRA:          -4.834
REMARK INTER:                  -4.631
REMARK INTRA:                  -0.203
REMARK UNBOUND:                -0.215
REMARK SMILES CC(C)c1ccc(C(=O)[O-])cc1
REMARK SMILES IDX 7 1 6 2 11 3 5 4 12 5 4 6 8 7 9 8 10 9 2 10 1 11 3 12
REMARK H PARENT
REMARK Flexibility Score: inf
ROOT
ATOM      1  C   UNL     1      -5.659  31.662  -6.689  1.00  0.00    -0.003 A 
ATOM      2  C   UNL     1      -5.003  31.120  -7.807  1.00  0.00     0.010 A 
ATOM      3  C   UNL     1      -7.041  31.456  -6.547  1.00  0.00     0.010 A 
ATOM      4  C   UNL     1      -5.714  30.389  -8.762  1.00  0.00     0.004 A 
ATOM      5  C   UNL     1      -7.753  30.723  -7.502  1.00  0.00     0.004 A 
ATOM      6  C   UNL     1      -7.098  30.182  -8.620  1.00  0.00    -0.045 A 
ENDROOT
BRANCH   1   7
ATOM      7  C   UNL     1      -4.902  32.436  -5.681  1.00  0.00     0.071 C 
ATOM      8  O   UNL     1      -4.496  33.600  -5.940  1.00  0.00    -0.545 OA
ATOM      9  O   UNL     1      -4.631  31.889  -4.432  1.00  0.00    -0.545 OA
ENDBRANCH   1   7
BRANCH   6  10
ATOM     10  C   UNL     1      -7.882  29.390  -9.649  1.00  0.00     0.013 C 
ATOM     11  C   UNL     1      -9.231  30.054  -9.948  1.00  0.00     0.012 C 
ATOM     12  C   UNL     1      -8.069  27.936  -9.202  1.00  0.00     0.012 C 
ENDBRANCH   6  10
TORSDOF 2
ENDMDL
MODEL 7
REMARK VINA RESULT:    -4.131      8.816      9.678
REMARK INTER + INTRA:          -4.829
REMARK INTER:                  -4.624
REMARK INTRA:                  -0.205
REMARK UNBOUND:                -0.215
REMARK SMILES CC(C)c1ccc(C(=O)[O-])cc1
REMARK SMILES IDX 7 1 6 2 11 3 5 4 12 5 4 6 8 7 9 8 10 9 2 10 1 11 3 12
REMARK H PARENT
REMARK Flexibility Score: inf
ROOT
ATOM      1  C   UNL     1     -14.050  27.257 -10.743  1.00  0.00    -0.003 A 
ATOM      2  C   UNL     1     -13.628  26.124 -11.459  1.00  0.00     0.010 A 
ATOM      3  C   UNL     1     -15.370  27.710 -10.904  1.00  0.00     0.010 A 
ATOM      4  C   UNL     1     -14.507  25.459 -12.318  1.00  0.00     0.004 A 
ATOM      5  C   UNL     1     -16.250  27.044 -11.763  1.00  0.00     0.004 A 
ATOM      6  C   UNL     1     -15.829  25.912 -12.480  1.00  0.00    -0.045 A 
ENDROOT
BRANCH   1   7
ATOM      7  C   UNL     1     -13.115  27.958  -9.835  1.00  0.00     0.071 C 
ATOM      8  O   UNL     1     -12.856  29.179 -10.002  1.00  0.00    -0.545 OA
ATOM      9  O   UNL     1     -12.511  27.278  -8.784  1.00  0.00    -0.545 OA
ENDBRANCH   1   7
BRANCH   6  10
ATOM     10  C   UNL     1     -16.794  25.200 -13.409  1.00  0.00     0.013 C 
ATOM     11  C   UNL     1     -17.709  26.198 -14.128  1.00  0.00     0.012 C 
ATOM     12  C   UNL     1     -17.613  24.147 -12.653  1.00  0.00     0.012 C 
ENDBRANCH   6  10
TORSDOF 2
ENDMDL
MODEL 8
REMARK VINA RESULT:    -4.093     12.990     15.691
REMARK INTER + INTRA:          -4.786
REMARK INTER:                  -4.581
REMARK INTRA:                  -0.205
REMARK UNBOUND:                -0.215
REMARK SMILES CC(C)c1ccc(C(=O)[O-])cc1
REMARK SMILES IDX 7 1 6 2 11 3 5 4 12 5 4 6 8 7 9 8 10 9 2 10 1 11 3 12
REMARK H PARENT
REMARK Flexibility Score: inf
ROOT
ATOM      1  C   UNL     1      -7.160  30.251  -8.644  1.00  0.00    -0.003 A 
ATOM      2  C   UNL     1      -5.773  30.361  -8.838  1.00  0.00     0.010 A 
ATOM      3  C   UNL     1      -7.733  30.816  -7.492  1.00  0.00     0.010 A 
ATOM      4  C   UNL     1      -4.976  31.021  -7.899  1.00  0.00     0.004 A 
ATOM      5  C   UNL     1      -6.935  31.477  -6.554  1.00  0.00     0.004 A 
ATOM      6  C   UNL     1      -5.548  31.587  -6.745  1.00  0.00    -0.045 A 
ENDROOT
BRANCH   1   7
ATOM      7  C   UNL     1      -8.001  29.551  -9.640  1.00  0.00     0.071 C 
ATOM      8  O   UNL     1      -7.780  28.345  -9.930  1.00  0.00    -0.545 OA
ATOM      9  O   UNL     1      -9.048  30.215 -10.269  1.00  0.00    -0.545 OA
ENDBRANCH   1   7
BRANCH   6  10
ATOM     10  C   UNL     1      -4.694  32.306  -5.719  1.00  0.00     0.013 C 
ATOM     11  C   UNL     1      -5.254  32.119  -4.304  1.00  0.00     0.012 C 
ATOM     12  C   UNL     1      -4.551  33.794  -6.063  1.00  0.00     0.012 C 
ENDBRANCH   6  10
TORSDOF 2
ENDMDL
MODEL 9
REMARK VINA RESULT:    -4.065     11.530     13.563
REMARK INTER + INTRA:          -4.755
REMARK INTER:                  -4.551
REMARK INTRA:                  -0.204
REMARK UNBOUND:                -0.215
REMARK SMILES CC(C)c1ccc(C(=O)[O-])cc1
REMARK SMILES IDX 7 1 6 2 11 3 5 4 12 5 4 6 8 7 9 8 10 9 2 10 1 11 3 12
REMARK H PARENT
REMARK Flexibility Score: inf
ROOT
ATOM      1  C   UNL     1     -12.969  28.131  -4.728  1.00  0.00    -0.003 A 
ATOM      2  C   UNL     1     -13.300  29.439  -5.120  1.00  0.00     0.010 A 
ATOM      3  C   UNL     1     -12.551  27.213  -5.706  1.00  0.00     0.010 A 
ATOM      4  C   UNL     1     -13.218  29.820  -6.461  1.00  0.00     0.004 A 
ATOM      5  C   UNL     1     -12.467  27.595  -7.049  1.00  0.00     0.004 A 
ATOM      6  C   UNL     1     -12.800  28.901  -7.442  1.00  0.00    -0.045 A 
ENDROOT
BRANCH   1   7
ATOM      7  C   UNL     1     -13.059  27.732  -3.306  1.00  0.00     0.071 C 
ATOM      8  O   UNL     1     -14.171  27.712  -2.716  1.00  0.00    -0.545 OA
ATOM      9  O   UNL     1     -11.915  27.371  -2.602  1.00  0.00    -0.545 OA
ENDBRANCH   1   7
BRANCH   6  10
ATOM     10  C   UNL     1     -12.705  29.302  -8.902  1.00  0.00     0.013 C 
ATOM     11  C   UNL     1     -13.286  28.214  -9.813  1.00  0.00     0.012 C 
ATOM     12  C   UNL     1     -11.260  29.634  -9.291  1.00  0.00     0.012 C 
ENDBRANCH   6  10
TORSDOF 2
ENDMDL
