MODEL 1
REMARK VINA RESULT:    -5.049      0.000      0.000
REMARK INTER + INTRA:          -7.619
REMARK INTER:                  -6.968
REMARK INTRA:                  -0.651
REMARK UNBOUND:                -0.651
REMARK SMILES OC[C@H](O)C(O)[C@@H](O)CO
REMARK SMILES IDX 5 1 7 2 9 3 10 4 8 6 3 8 2 9 1 10 4 12 6 14
REMARK H PARENT 10 5 8 7 1 11 4 13 6 15
REMARK Flexibility Score: inf
ROOT
ATOM      1  C   UNL     1      27.438   3.605  11.993  1.00  0.00     0.176 C 
ENDROOT
BRANCH   1   2
ATOM      2  C   UNL     1      28.128   2.653  13.027  1.00  0.00     0.171 C 
BRANCH   2   3
ATOM      3  C   UNL     1      29.549   3.100  13.439  1.00  0.00     0.190 C 
BRANCH   3   4
ATOM      4  O   UNL     1      29.527   3.857  14.616  1.00  0.00    -0.394 OA
ATOM      5  H   UNL     1      29.959   3.297  15.313  1.00  0.00     0.210 HD
ENDBRANCH   3   4
ENDBRANCH   2   3
BRANCH   2   6
ATOM      6  O   UNL     1      28.078   1.301  12.638  1.00  0.00    -0.388 OA
ATOM      7  H   UNL     1      29.005   0.971  12.515  1.00  0.00     0.211 HD
ENDBRANCH   2   6
ENDBRANCH   1   2
BRANCH   1   8
ATOM      8  C   UNL     1      26.035   3.158  11.474  1.00  0.00     0.171 C 
BRANCH   8   9
ATOM      9  C   UNL     1      25.183   4.331  10.969  1.00  0.00     0.190 C 
BRANCH   9  10
ATOM     10  O   UNL     1      24.463   4.885  12.037  1.00  0.00    -0.394 OA
ATOM     11  H   UNL     1      23.691   5.359  11.632  1.00  0.00     0.210 HD
ENDBRANCH   9  10
ENDBRANCH   8   9
BRANCH   8  12
ATOM     12  O   UNL     1      25.334   2.538  12.524  1.00  0.00    -0.388 OA
ATOM     13  H   UNL     1      26.006   2.089  13.102  1.00  0.00     0.211 HD
ENDBRANCH   8  12
ENDBRANCH   1   8
BRANCH   1  14
ATOM     14  O   UNL     1      27.337   4.893  12.550  1.00  0.00    -0.388 OA
ATOM     15  H   UNL     1      27.187   5.528  11.801  1.00  0.00     0.211 HD
ENDBRANCH   1  14
TORSDOF 9
ENDMDL
MODEL 2
REMARK VINA RESULT:    -4.929      1.699      2.771
REMARK INTER + INTRA:          -7.452
REMARK INTER:                  -7.119
REMARK INTRA:                  -0.333
REMARK UNBOUND:                -0.651
REMARK SMILES OC[C@H](O)C(O)[C@@H](O)CO
REMARK SMILES IDX 5 1 7 2 9 3 10 4 8 6 3 8 2 9 1 10 4 12 6 14
REMARK H PARENT 10 5 8 7 1 11 4 13 6 15
REMARK Flexibility Score: inf
ROOT
ATOM      1  C   UNL     1      28.235   2.552  12.965  1.00  0.00     0.176 C 
ENDROOT
BRANCH   1   2
ATOM      2  C   UNL     1      29.305   3.463  13.657  1.00  0.00     0.171 C 
BRANCH   2   3
ATOM      3  C   UNL     1      30.709   3.377  13.018  1.00  0.00     0.190 C 
BRANCH   3   4
ATOM      4  O   UNL     1      31.366   4.612  13.057  1.00  0.00    -0.394 OA
ATOM      5  H   UNL     1      31.256   5.012  12.155  1.00  0.00     0.210 HD
ENDBRANCH   3   4
ENDBRANCH   2   3
BRANCH   2   6
ATOM      6  O   UNL     1      29.335   3.296  15.055  1.00  0.00    -0.388 OA
ATOM      7  H   UNL     1      29.210   4.182  15.482  1.00  0.00     0.211 HD
ENDBRANCH   2   6
ENDBRANCH   1   2
BRANCH   1   8
ATOM      8  C   UNL     1      27.154   3.285  12.110  1.00  0.00     0.171 C 
BRANCH   8   9
ATOM      9  C   UNL     1      27.030   2.716  10.689  1.00  0.00     0.190 C 
BRANCH   9  10
ATOM     10  O   UNL     1      28.187   3.016   9.957  1.00  0.00    -0.394 OA
ATOM     11  H   UNL     1      28.386   3.972  10.134  1.00  0.00     0.210 HD
ENDBRANCH   9  10
ENDBRANCH   8   9
BRANCH   8  12
ATOM     12  O   UNL     1      27.502   4.644  12.000  1.00  0.00    -0.388 OA
ATOM     13  H   UNL     1      28.213   4.712  11.309  1.00  0.00     0.211 HD
ENDBRANCH   8  12
ENDBRANCH   1   8
BRANCH   1  14
ATOM     14  O   UNL     1      28.891   1.599  12.165  1.00  0.00    -0.388 OA
ATOM     15  H   UNL     1      29.751   1.379  12.613  1.00  0.00     0.211 HD
ENDBRANCH   1  14
TORSDOF 9
ENDMDL
MODEL 3
REMARK VINA RESULT:    -4.874      1.026      3.892
REMARK INTER + INTRA:          -7.377
REMARK INTER:                  -6.745
REMARK INTRA:                  -0.632
REMARK UNBOUND:                -0.651
REMARK SMILES OC[C@H](O)C(O)[C@@H](O)CO
REMARK SMILES IDX 5 1 7 2 9 3 10 4 8 6 3 8 2 9 1 10 4 12 6 14
REMARK H PARENT 10 5 8 7 1 11 4 13 6 15
REMARK Flexibility Score: inf
ROOT
ATOM      1  C   UNL     1      27.247   3.523  12.450  1.00  0.00     0.176 C 
ENDROOT
BRANCH   1   2
ATOM      2  C   UNL     1      26.390   3.475  11.140  1.00  0.00     0.171 C 
BRANCH   2   3
ATOM      3  C   UNL     1      25.074   4.281  11.223  1.00  0.00     0.190 C 
BRANCH   3   4
ATOM      4  O   UNL     1      25.290   5.565  11.736  1.00  0.00    -0.394 OA
ATOM      5  H   UNL     1      24.931   5.556  12.661  1.00  0.00     0.210 HD
ENDBRANCH   3   4
ENDBRANCH   2   3
BRANCH   2   6
ATOM      6  O   UNL     1      26.193   2.163  10.669  1.00  0.00    -0.388 OA
ATOM      7  H   UNL     1      26.656   2.066   9.798  1.00  0.00     0.211 HD
ENDBRANCH   2   6
ENDBRANCH   1   2
BRANCH   1   8
ATOM      8  C   UNL     1      28.438   2.517  12.533  1.00  0.00     0.171 C 
BRANCH   8   9
ATOM      9  C   UNL     1      29.636   3.071  13.316  1.00  0.00     0.190 C 
BRANCH   9  10
ATOM     10  O   UNL     1      29.234   3.413  14.615  1.00  0.00    -0.394 OA
ATOM     11  H   UNL     1      29.838   4.143  14.907  1.00  0.00     0.210 HD
ENDBRANCH   9  10
ENDBRANCH   8   9
BRANCH   8  12
ATOM     12  O   UNL     1      28.877   2.219  11.229  1.00  0.00    -0.388 OA
ATOM     13  H   UNL     1      28.289   2.714  10.600  1.00  0.00     0.211 HD
ENDBRANCH   8  12
ENDBRANCH   1   8
BRANCH   1  14
ATOM     14  O   UNL     1      27.733   4.831  12.633  1.00  0.00    -0.388 OA
ATOM     15  H   UNL     1      28.692   4.759  12.883  1.00  0.00     0.211 HD
ENDBRANCH   1  14
TORSDOF 9
ENDMDL
MODEL 4
REMARK VINA RESULT:    -4.842      1.361      2.581
REMARK INTER + INTRA:          -7.333
REMARK INTER:                  -6.842
REMARK INTRA:                  -0.491
REMARK UNBOUND:                -0.651
REMARK SMILES OC[C@H](O)C(O)[C@@H](O)CO
REMARK SMILES IDX 5 1 7 2 9 3 10 4 8 6 3 8 2 9 1 10 4 12 6 14
REMARK H PARENT 10 5 8 7 1 11 4 13 6 15
REMARK Flexibility Score: inf
ROOT
ATOM      1  C   UNL     1      26.948   2.232  12.838  1.00  0.00     0.176 C 
ENDROOT
BRANCH   1   2
ATOM      2  C   UNL     1      28.075   3.280  12.547  1.00  0.00     0.171 C 
BRANCH   2   3
ATOM      3  C   UNL     1      29.384   3.026  13.326  1.00  0.00     0.190 C 
BRANCH   3   4
ATOM      4  O   UNL     1      29.303   3.509  14.637  1.00  0.00    -0.394 OA
ATOM      5  H   UNL     1      28.928   2.769  15.182  1.00  0.00     0.210 HD
ENDBRANCH   3   4
ENDBRANCH   2   3
BRANCH   2   6
ATOM      6  O   UNL     1      27.623   4.609  12.666  1.00  0.00    -0.388 OA
ATOM      7  H   UNL     1      26.842   4.732  12.069  1.00  0.00     0.211 HD
ENDBRANCH   2   6
ENDBRANCH   1   2
BRANCH   1   8
ATOM      8  C   UNL     1      25.718   2.256  11.878  1.00  0.00     0.171 C 
BRANCH   8   9
ATOM      9  C   UNL     1      26.027   1.663  10.495  1.00  0.00     0.190 C 
BRANCH   9  10
ATOM     10  O   UNL     1      25.743   0.290  10.496  1.00  0.00    -0.394 OA
ATOM     11  H   UNL     1      24.994   0.163   9.857  1.00  0.00     0.210 HD
ENDBRANCH   9  10
ENDBRANCH   8   9
BRANCH   8  12
ATOM     12  O   UNL     1      25.308   3.589  11.692  1.00  0.00    -0.388 OA
ATOM     13  H   UNL     1      24.591   3.584  11.004  1.00  0.00     0.211 HD
ENDBRANCH   8  12
ENDBRANCH   1   8
BRANCH   1  14
ATOM     14  O   UNL     1      27.511   0.942  12.839  1.00  0.00    -0.388 OA
ATOM     15  H   UNL     1      28.451   1.029  12.529  1.00  0.00     0.211 HD
ENDBRANCH   1  14
TORSDOF 9
ENDMDL
MODEL 5
REMARK VINA RESULT:    -4.776      1.616      3.973
REMARK INTER + INTRA:          -7.242
REMARK INTER:                  -6.869
REMARK INTRA:                  -0.373
REMARK UNBOUND:                -0.651
REMARK SMILES OC[C@H](O)C(O)[C@@H](O)CO
REMARK SMILES IDX 5 1 7 2 9 3 10 4 8 6 3 8 2 9 1 10 4 12 6 14
REMARK H PARENT 10 5 8 7 1 11 4 13 6 15
REMARK Flexibility Score: inf
ROOT
ATOM      1  C   UNL     1      27.224   3.324  12.283  1.00  0.00     0.176 C 
ENDROOT
BRANCH   1   2
ATOM      2  C   UNL     1      26.946   3.149  10.752  1.00  0.00     0.171 C 
BRANCH   2   3
ATOM      3  C   UNL     1      25.863   2.096  10.427  1.00  0.00     0.190 C 
BRANCH   3   4
ATOM      4  O   UNL     1      26.398   0.804  10.393  1.00  0.00    -0.394 OA
ATOM      5  H   UNL     1      27.012   0.738  11.170  1.00  0.00     0.210 HD
ENDBRANCH   3   4
ENDBRANCH   2   3
BRANCH   2   6
ATOM      6  O   UNL     1      28.125   2.961  10.005  1.00  0.00    -0.388 OA
ATOM      7  H   UNL     1      28.856   2.708  10.625  1.00  0.00     0.211 HD
ENDBRANCH   2   6
ENDBRANCH   1   2
BRANCH   1   8
ATOM      8  C   UNL     1      28.313   2.391  12.898  1.00  0.00     0.171 C 
BRANCH   8   9
ATOM      9  C   UNL     1      29.544   3.159  13.400  1.00  0.00     0.190 C 
BRANCH   9  10
ATOM     10  O   UNL     1      29.360   3.519  14.742  1.00  0.00    -0.394 OA
ATOM     11  H   UNL     1      28.838   2.783  15.156  1.00  0.00     0.210 HD
ENDBRANCH   9  10
ENDBRANCH   8   9
BRANCH   8  12
ATOM     12  O   UNL     1      28.745   1.482  11.914  1.00  0.00    -0.388 OA
ATOM     13  H   UNL     1      28.322   0.606  12.117  1.00  0.00     0.211 HD
ENDBRANCH   8  12
ENDBRANCH   1   8
BRANCH   1  14
ATOM     14  O   UNL     1      27.565   4.665  12.537  1.00  0.00    -0.388 OA
ATOM     15  H   UNL     1      26.720   5.161  12.699  1.00  0.00     0.211 HD
ENDBRANCH   1  14
TORSDOF 9
ENDMDL
MODEL 6
REMARK VINA RESULT:    -4.700      1.120      1.992
REMARK INTER + INTRA:          -7.136
REMARK INTER:                  -6.745
REMARK INTRA:                  -0.391
REMARK UNBOUND:                -0.651
REMARK SMILES OC[C@H](O)C(O)[C@@H](O)CO
REMARK SMILES IDX 5 1 7 2 9 3 10 4 8 6 3 8 2 9 1 10 4 12 6 14
REMARK H PARENT 10 5 8 7 1 11 4 13 6 15
REMARK Flexibility Score: inf
ROOT
ATOM      1  C   UNL     1      26.974   2.316  12.613  1.00  0.00     0.176 C 
ENDROOT
BRANCH   1   2
ATOM      2  C   UNL     1      28.156   3.331  12.459  1.00  0.00     0.171 C 
BRANCH   2   3
ATOM      3  C   UNL     1      29.394   2.986  13.315  1.00  0.00     0.190 C 
BRANCH   3   4
ATOM      4  O   UNL     1      29.220   3.372  14.649  1.00  0.00    -0.394 OA
ATOM      5  H   UNL     1      30.036   3.078  15.131  1.00  0.00     0.210 HD
ENDBRANCH   3   4
ENDBRANCH   2   3
BRANCH   2   6
ATOM      6  O   UNL     1      27.744   4.669  12.616  1.00  0.00    -0.388 OA
ATOM      7  H   UNL     1      26.843   4.772  12.217  1.00  0.00     0.211 HD
ENDBRANCH   2   6
ENDBRANCH   1   2
BRANCH   1   8
ATOM      8  C   UNL     1      26.060   2.124  11.362  1.00  0.00     0.171 C 
BRANCH   8   9
ATOM      9  C   UNL     1      24.698   2.818  11.504  1.00  0.00     0.190 C 
BRANCH   9  10
ATOM     10  O   UNL     1      24.888   4.190  11.723  1.00  0.00    -0.394 OA
ATOM     11  H   UNL     1      25.310   4.270  12.617  1.00  0.00     0.210 HD
ENDBRANCH   9  10
ENDBRANCH   8   9
BRANCH   8  12
ATOM     12  O   UNL     1      25.825   0.750  11.173  1.00  0.00    -0.388 OA
ATOM     13  H   UNL     1      25.224   0.450  11.905  1.00  0.00     0.211 HD
ENDBRANCH   8  12
ENDBRANCH   1   8
BRANCH   1  14
ATOM     14  O   UNL     1      27.490   1.067  13.005  1.00  0.00    -0.388 OA
ATOM     15  H   UNL     1      26.823   0.377  12.749  1.00  0.00     0.211 HD
ENDBRANCH   1  14
TORSDOF 9
ENDMDL
MODEL 7
REMARK VINA RESULT:    -4.499      1.307      4.236
REMARK INTER + INTRA:          -6.859
REMARK INTER:                  -6.238
REMARK INTRA:                  -0.621
REMARK UNBOUND:                -0.651
REMARK SMILES OC[C@H](O)C(O)[C@@H](O)CO
REMARK SMILES IDX 5 1 7 2 9 3 10 4 8 6 3 8 2 9 1 10 4 12 6 14
REMARK H PARENT 10 5 8 7 1 11 4 13 6 15
REMARK Flexibility Score: inf
ROOT
ATOM      1  C   UNL     1      27.390   2.272  12.087  1.00  0.00     0.176 C 
ENDROOT
BRANCH   1   2
ATOM      2  C   UNL     1      25.933   2.846  12.039  1.00  0.00     0.171 C 
BRANCH   2   3
ATOM      3  C   UNL     1      24.844   1.774  11.816  1.00  0.00     0.190 C 
BRANCH   3   4
ATOM      4  O   UNL     1      25.307   0.733  11.005  1.00  0.00    -0.394 OA
ATOM      5  H   UNL     1      25.380  -0.064  11.592  1.00  0.00     0.210 HD
ENDBRANCH   3   4
ENDBRANCH   2   3
BRANCH   2   6
ATOM      6  O   UNL     1      25.809   3.936  11.155  1.00  0.00    -0.388 OA
ATOM      7  H   UNL     1      26.142   3.660  10.263  1.00  0.00     0.211 HD
ENDBRANCH   2   6
ENDBRANCH   1   2
BRANCH   1   8
ATOM      8  C   UNL     1      28.530   3.304  12.353  1.00  0.00     0.171 C 
BRANCH   8   9
ATOM      9  C   UNL     1      29.536   2.824  13.409  1.00  0.00     0.190 C 
BRANCH   9  10
ATOM     10  O   UNL     1      29.241   3.416  14.645  1.00  0.00    -0.394 OA
ATOM     11  H   UNL     1      28.567   4.120  14.459  1.00  0.00     0.210 HD
ENDBRANCH   9  10
ENDBRANCH   8   9
BRANCH   8  12
ATOM     12  O   UNL     1      27.962   4.506  12.814  1.00  0.00    -0.388 OA
ATOM     13  H   UNL     1      28.398   5.248  12.318  1.00  0.00     0.211 HD
ENDBRANCH   8  12
ENDBRANCH   1   8
BRANCH   1  14
ATOM     14  O   UNL     1      27.450   1.255  13.057  1.00  0.00    -0.388 OA
ATOM     15  H   UNL     1      27.711   0.417  12.592  1.00  0.00     0.211 HD
ENDBRANCH   1  14
TORSDOF 9
ENDMDL
MODEL 8
REMARK VINA RESULT:    -4.445      1.889      2.495
REMARK INTER + INTRA:          -6.785
REMARK INTER:                  -6.276
REMARK INTRA:                  -0.510
REMARK UNBOUND:                -0.651
REMARK SMILES OC[C@H](O)C(O)[C@@H](O)CO
REMARK SMILES IDX 5 1 7 2 9 3 10 4 8 6 3 8 2 9 1 10 4 12 6 14
REMARK H PARENT 10 5 8 7 1 11 4 13 6 15
REMARK Flexibility Score: inf
ROOT
ATOM      1  C   UNL     1      25.652   3.109  10.974  1.00  0.00     0.176 C 
ENDROOT
BRANCH   1   2
ATOM      2  C   UNL     1      27.138   2.673  11.203  1.00  0.00     0.171 C 
BRANCH   2   3
ATOM      3  C   UNL     1      27.715   3.106  12.569  1.00  0.00     0.190 C 
BRANCH   3   4
ATOM      4  O   UNL     1      27.924   4.488  12.622  1.00  0.00    -0.394 OA
ATOM      5  H   UNL     1      27.032   4.898  12.769  1.00  0.00     0.210 HD
ENDBRANCH   3   4
ENDBRANCH   2   3
BRANCH   2   6
ATOM      6  O   UNL     1      27.977   3.020  10.127  1.00  0.00    -0.388 OA
ATOM      7  H   UNL     1      27.879   2.337   9.415  1.00  0.00     0.211 HD
ENDBRANCH   2   6
ENDBRANCH   1   2
BRANCH   1   8
ATOM      8  C   UNL     1      24.569   2.002  11.174  1.00  0.00     0.171 C 
BRANCH   8   9
ATOM      9  C   UNL     1      24.175   1.810  12.645  1.00  0.00     0.190 C 
BRANCH   9  10
ATOM     10  O   UNL     1      23.067   2.614  12.946  1.00  0.00    -0.394 OA
ATOM     11  H   UNL     1      22.276   2.017  12.915  1.00  0.00     0.210 HD
ENDBRANCH   9  10
ENDBRANCH   8   9
BRANCH   8  12
ATOM     12  O   UNL     1      25.074   0.777  10.700  1.00  0.00    -0.388 OA
ATOM     13  H   UNL     1      25.846   0.984  10.111  1.00  0.00     0.211 HD
ENDBRANCH   8  12
ENDBRANCH   1   8
BRANCH   1  14
ATOM     14  O   UNL     1      25.359   4.200  11.812  1.00  0.00    -0.388 OA
ATOM     15  H   UNL     1      24.971   3.834  12.650  1.00  0.00     0.211 HD
ENDBRANCH   1  14
TORSDOF 9
ENDMDL
MODEL 9
REMARK VINA RESULT:    -4.389      1.737      3.077
REMARK INTER + INTRA:          -6.708
REMARK INTER:                  -5.697
REMARK INTRA:                  -1.011
REMARK UNBOUND:                -0.651
REMARK SMILES OC[C@H](O)C(O)[C@@H](O)CO
REMARK SMILES IDX 5 1 7 2 9 3 10 4 8 6 3 8 2 9 1 10 4 12 6 14
REMARK H PARENT 10 5 8 7 1 11 4 13 6 15
REMARK Flexibility Score: inf
ROOT
ATOM      1  C   UNL     1      25.865   3.308  11.538  1.00  0.00     0.176 C 
ENDROOT
BRANCH   1   2
ATOM      2  C   UNL     1      27.362   3.474  11.965  1.00  0.00     0.171 C 
BRANCH   2   3
ATOM      3  C   UNL     1      27.938   2.256  12.719  1.00  0.00     0.190 C 
BRANCH   3   4
ATOM      4  O   UNL     1      27.980   1.120  11.903  1.00  0.00    -0.394 OA
ATOM      5  H   UNL     1      28.192   0.357  12.502  1.00  0.00     0.210 HD
ENDBRANCH   3   4
ENDBRANCH   2   3
BRANCH   2   6
ATOM      6  O   UNL     1      27.603   4.690  12.635  1.00  0.00    -0.388 OA
ATOM      7  H   UNL     1      26.954   4.775  13.379  1.00  0.00     0.211 HD
ENDBRANCH   2   6
ENDBRANCH   1   2
BRANCH   1   8
ATOM      8  C   UNL     1      25.614   2.821  10.076  1.00  0.00     0.171 C 
BRANCH   8   9
ATOM      9  C   UNL     1      24.767   1.541  10.009  1.00  0.00     0.190 C 
BRANCH   9  10
ATOM     10  O   UNL     1      25.532   0.447  10.434  1.00  0.00    -0.394 OA
ATOM     11  H   UNL     1      25.056   0.065  11.216  1.00  0.00     0.210 HD
ENDBRANCH   9  10
ENDBRANCH   8   9
BRANCH   8  12
ATOM     12  O   UNL     1      26.852   2.549   9.465  1.00  0.00    -0.388 OA
ATOM     13  H   UNL     1      27.190   3.406   9.091  1.00  0.00     0.211 HD
ENDBRANCH   8  12
ENDBRANCH   1   8
BRANCH   1  14
ATOM     14  O   UNL     1      25.227   2.431  12.434  1.00  0.00    -0.388 OA
ATOM     15  H   UNL     1      25.398   1.506  12.116  1.00  0.00     0.211 HD
ENDBRANCH   1  14
TORSDOF 9
ENDMDL
