MODEL 1
REMARK VINA RESULT:    -4.984      0.000      0.000
REMARK INTER + INTRA:          -7.487
REMARK INTER:                  -6.732
REMARK INTRA:                  -0.756
REMARK UNBOUND:                -0.756
REMARK SMILES C[C@H](O)[C@H](O)[C@H](O)[C@@H](O)C=O
REMARK SMILES IDX 4 1 2 2 1 3 3 4 6 6 8 7 10 8 11 9 9 10 7 12 5 14
REMARK H PARENT 3 5 9 11 7 13 5 15
REMARK Flexibility Score: inf
ROOT
ATOM      1  C   UNL     1     -16.423 -10.306  -3.106  1.00  0.00     0.174 C 
ENDROOT
BRANCH   1   2
ATOM      2  C   UNL     1     -15.503  -9.172  -3.632  1.00  0.00     0.142 C 
ATOM      3  C   UNL     1     -16.288  -8.147  -4.460  1.00  0.00     0.041 C 
BRANCH   2   4
ATOM      4  O   UNL     1     -14.499  -9.722  -4.445  1.00  0.00    -0.391 OA
ATOM      5  H   UNL     1     -14.846  -9.721  -5.375  1.00  0.00     0.211 HD
ENDBRANCH   2   4
ENDBRANCH   1   2
BRANCH   1   6
ATOM      6  C   UNL     1     -15.746 -11.230  -2.057  1.00  0.00     0.181 C 
BRANCH   6   7
ATOM      7  C   UNL     1     -15.560 -12.692  -2.538  1.00  0.00     0.209 C 
BRANCH   7   8
ATOM      8  C   UNL     1     -14.921 -13.529  -1.459  1.00  0.00     0.258 C 
ATOM      9  O   UNL     1     -13.705 -13.614  -1.380  1.00  0.00    -0.300 OA
ENDBRANCH   7   8
BRANCH   7  10
ATOM     10  O   UNL     1     -14.748 -12.722  -3.682  1.00  0.00    -0.383 OA
ATOM     11  H   UNL     1     -14.605 -11.778  -3.958  1.00  0.00     0.211 HD
ENDBRANCH   7  10
ENDBRANCH   6   7
BRANCH   6  12
ATOM     12  O   UNL     1     -14.515 -10.678  -1.661  1.00  0.00    -0.387 OA
ATOM     13  H   UNL     1     -14.311 -11.040  -0.759  1.00  0.00     0.211 HD
ENDBRANCH   6  12
ENDBRANCH   1   6
BRANCH   1  14
ATOM     14  O   UNL     1     -17.573  -9.743  -2.521  1.00  0.00    -0.388 OA
ATOM     15  H   UNL     1     -17.962 -10.431  -1.920  1.00  0.00     0.211 HD
ENDBRANCH   1  14
TORSDOF 8
ENDMDL
MODEL 2
REMARK VINA RESULT:    -4.905      2.617      5.010
REMARK INTER + INTRA:          -7.381
REMARK INTER:                  -6.664
REMARK INTRA:                  -0.717
REMARK UNBOUND:                -0.756
REMARK SMILES C[C@H](O)[C@H](O)[C@H](O)[C@@H](O)C=O
REMARK SMILES IDX 4 1 2 2 1 3 3 4 6 6 8 7 10 8 11 9 9 10 7 12 5 14
REMARK H PARENT 3 5 9 11 7 13 5 15
REMARK Flexibility Score: inf
ROOT
ATOM      1  C   UNL     1     -15.860 -11.868   0.518  1.00  0.00     0.174 C 
ENDROOT
BRANCH   1   2
ATOM      2  C   UNL     1     -14.930 -13.094   0.718  1.00  0.00     0.142 C 
ATOM      3  C   UNL     1     -15.520 -14.093   1.722  1.00  0.00     0.041 C 
BRANCH   2   4
ATOM      4  O   UNL     1     -13.684 -12.664   1.202  1.00  0.00    -0.391 OA
ATOM      5  H   UNL     1     -13.864 -12.047   1.959  1.00  0.00     0.211 HD
ENDBRANCH   2   4
ENDBRANCH   1   2
BRANCH   1   6
ATOM      6  C   UNL     1     -15.467 -10.971  -0.687  1.00  0.00     0.181 C 
BRANCH   6   7
ATOM      7  C   UNL     1     -15.084  -9.522  -0.290  1.00  0.00     0.209 C 
BRANCH   7   8
ATOM      8  C   UNL     1     -14.543  -8.770  -1.479  1.00  0.00     0.258 C 
ATOM      9  O   UNL     1     -13.339  -8.688  -1.664  1.00  0.00    -0.300 OA
ENDBRANCH   7   8
BRANCH   7  10
ATOM     10  O   UNL     1     -14.111  -9.542   0.721  1.00  0.00    -0.383 OA
ATOM     11  H   UNL     1     -14.496 -10.053   1.481  1.00  0.00     0.211 HD
ENDBRANCH   7  10
ENDBRANCH   6   7
BRANCH   6  12
ATOM     12  O   UNL     1     -14.426 -11.577  -1.413  1.00  0.00    -0.387 OA
ATOM     13  H   UNL     1     -14.849 -12.119  -2.130  1.00  0.00     0.211 HD
ENDBRANCH   6  12
ENDBRANCH   1   6
BRANCH   1  14
ATOM     14  O   UNL     1     -17.183 -12.311   0.325  1.00  0.00    -0.388 OA
ATOM     15  H   UNL     1     -17.781 -11.551   0.552  1.00  0.00     0.211 HD
ENDBRANCH   1  14
TORSDOF 8
ENDMDL
MODEL 3
REMARK VINA RESULT:    -4.885      1.310      1.733
REMARK INTER + INTRA:          -7.354
REMARK INTER:                  -6.859
REMARK INTRA:                  -0.495
REMARK UNBOUND:                -0.756
REMARK SMILES C[C@H](O)[C@H](O)[C@H](O)[C@@H](O)C=O
REMARK SMILES IDX 4 1 2 2 1 3 3 4 6 6 8 7 10 8 11 9 9 10 7 12 5 14
REMARK H PARENT 3 5 9 11 7 13 5 15
REMARK Flexibility Score: inf
ROOT
ATOM      1  C   UNL     1     -16.190 -10.062  -2.973  1.00  0.00     0.174 C 
ENDROOT
BRANCH   1   2
ATOM      2  C   UNL     1     -15.510  -8.900  -3.745  1.00  0.00     0.142 C 
ATOM      3  C   UNL     1     -16.485  -8.218  -4.713  1.00  0.00     0.041 C 
BRANCH   2   4
ATOM      4  O   UNL     1     -14.426  -9.399  -4.486  1.00  0.00    -0.391 OA
ATOM      5  H   UNL     1     -13.754  -8.671  -4.542  1.00  0.00     0.211 HD
ENDBRANCH   2   4
ENDBRANCH   1   2
BRANCH   1   6
ATOM      6  C   UNL     1     -15.415 -10.513  -1.705  1.00  0.00     0.181 C 
BRANCH   6   7
ATOM      7  C   UNL     1     -15.415 -12.048  -1.484  1.00  0.00     0.209 C 
BRANCH   7   8
ATOM      8  C   UNL     1     -16.381 -12.428  -0.392  1.00  0.00     0.258 C 
ATOM      9  O   UNL     1     -17.245 -11.647  -0.030  1.00  0.00    -0.300 OA
ENDBRANCH   7   8
BRANCH   7  10
ATOM     10  O   UNL     1     -14.128 -12.481  -1.129  1.00  0.00    -0.383 OA
ATOM     11  H   UNL     1     -13.551 -12.355  -1.928  1.00  0.00     0.211 HD
ENDBRANCH   7  10
ENDBRANCH   6   7
BRANCH   6  12
ATOM     12  O   UNL     1     -14.100 -10.018  -1.749  1.00  0.00    -0.387 OA
ATOM     13  H   UNL     1     -13.672 -10.401  -2.559  1.00  0.00     0.211 HD
ENDBRANCH   6  12
ENDBRANCH   1   6
BRANCH   1  14
ATOM     14  O   UNL     1     -17.485  -9.671  -2.584  1.00  0.00    -0.388 OA
ATOM     15  H   UNL     1     -17.523  -9.730  -1.593  1.00  0.00     0.211 HD
ENDBRANCH   1  14
TORSDOF 8
ENDMDL
MODEL 4
REMARK VINA RESULT:    -4.563      2.326      3.457
REMARK INTER + INTRA:          -6.919
REMARK INTER:                  -6.402
REMARK INTRA:                  -0.517
REMARK UNBOUND:                -0.756
REMARK SMILES C[C@H](O)[C@H](O)[C@H](O)[C@@H](O)C=O
REMARK SMILES IDX 4 1 2 2 1 3 3 4 6 6 8 7 10 8 11 9 9 10 7 12 5 14
REMARK H PARENT 3 5 9 11 7 13 5 15
REMARK Flexibility Score: inf
ROOT
ATOM      1  C   UNL     1     -15.883  -9.910  -2.547  1.00  0.00     0.174 C 
ENDROOT
BRANCH   1   2
ATOM      2  C   UNL     1     -15.301  -8.924  -3.595  1.00  0.00     0.142 C 
ATOM      3  C   UNL     1     -16.403  -8.326  -4.480  1.00  0.00     0.041 C 
BRANCH   2   4
ATOM      4  O   UNL     1     -14.389  -9.601  -4.421  1.00  0.00    -0.391 OA
ATOM      5  H   UNL     1     -14.272 -10.510  -4.039  1.00  0.00     0.211 HD
ENDBRANCH   2   4
ENDBRANCH   1   2
BRANCH   1   6
ATOM      6  C   UNL     1     -15.750  -9.418  -1.080  1.00  0.00     0.181 C 
BRANCH   6   7
ATOM      7  C   UNL     1     -17.092  -9.389  -0.305  1.00  0.00     0.209 C 
BRANCH   7   8
ATOM      8  C   UNL     1     -17.020  -8.423   0.850  1.00  0.00     0.258 C 
ATOM      9  O   UNL     1     -15.950  -7.943   1.188  1.00  0.00    -0.300 OA
ENDBRANCH   7   8
BRANCH   7  10
ATOM     10  O   UNL     1     -17.390 -10.669   0.187  1.00  0.00    -0.383 OA
ATOM     11  H   UNL     1     -16.548 -11.037   0.563  1.00  0.00     0.211 HD
ENDBRANCH   7  10
ENDBRANCH   6   7
BRANCH   6  12
ATOM     12  O   UNL     1     -14.801 -10.201  -0.399  1.00  0.00    -0.387 OA
ATOM     13  H   UNL     1     -13.990  -9.639  -0.284  1.00  0.00     0.211 HD
ENDBRANCH   6  12
ENDBRANCH   1   6
BRANCH   1  14
ATOM     14  O   UNL     1     -17.247 -10.130  -2.817  1.00  0.00    -0.388 OA
ATOM     15  H   UNL     1     -17.715  -9.266  -2.677  1.00  0.00     0.211 HD
ENDBRANCH   1  14
TORSDOF 8
ENDMDL
MODEL 5
REMARK VINA RESULT:    -4.530      1.463      2.230
REMARK INTER + INTRA:          -6.874
REMARK INTER:                  -6.539
REMARK INTRA:                  -0.335
REMARK UNBOUND:                -0.756
REMARK SMILES C[C@H](O)[C@H](O)[C@H](O)[C@@H](O)C=O
REMARK SMILES IDX 4 1 2 2 1 3 3 4 6 6 8 7 10 8 11 9 9 10 7 12 5 14
REMARK H PARENT 3 5 9 11 7 13 5 15
REMARK Flexibility Score: inf
ROOT
ATOM      1  C   UNL     1     -15.614  -9.897  -2.393  1.00  0.00     0.174 C 
ENDROOT
BRANCH   1   2
ATOM      2  C   UNL     1     -15.165  -8.908  -3.501  1.00  0.00     0.142 C 
ATOM      3  C   UNL     1     -16.366  -8.318  -4.252  1.00  0.00     0.041 C 
BRANCH   2   4
ATOM      4  O   UNL     1     -14.350  -9.578  -4.427  1.00  0.00    -0.391 OA
ATOM      5  H   UNL     1     -14.305 -10.528  -4.140  1.00  0.00     0.211 HD
ENDBRANCH   2   4
ENDBRANCH   1   2
BRANCH   1   6
ATOM      6  C   UNL     1     -16.499 -11.063  -2.913  1.00  0.00     0.181 C 
BRANCH   6   7
ATOM      7  C   UNL     1     -16.001 -12.467  -2.485  1.00  0.00     0.209 C 
BRANCH   7   8
ATOM      8  C   UNL     1     -16.697 -13.543  -3.278  1.00  0.00     0.258 C 
ATOM      9  O   UNL     1     -17.011 -14.597  -2.747  1.00  0.00    -0.300 OA
ENDBRANCH   7   8
BRANCH   7  10
ATOM     10  O   UNL     1     -16.252 -12.669  -1.119  1.00  0.00    -0.383 OA
ATOM     11  H   UNL     1     -15.895 -13.567  -0.890  1.00  0.00     0.211 HD
ENDBRANCH   7  10
ENDBRANCH   6   7
BRANCH   6  12
ATOM     12  O   UNL     1     -17.832 -10.865  -2.510  1.00  0.00    -0.387 OA
ATOM     13  H   UNL     1     -17.836 -10.848  -1.518  1.00  0.00     0.211 HD
ENDBRANCH   6  12
ENDBRANCH   1   6
BRANCH   1  14
ATOM     14  O   UNL     1     -14.479 -10.449  -1.769  1.00  0.00    -0.388 OA
ATOM     15  H   UNL     1     -14.704 -10.573  -0.810  1.00  0.00     0.211 HD
ENDBRANCH   1  14
TORSDOF 8
ENDMDL
MODEL 6
REMARK VINA RESULT:    -4.529      2.056      3.007
REMARK INTER + INTRA:          -6.873
REMARK INTER:                  -5.856
REMARK INTRA:                  -1.018
REMARK UNBOUND:                -0.756
REMARK SMILES C[C@H](O)[C@H](O)[C@H](O)[C@@H](O)C=O
REMARK SMILES IDX 4 1 2 2 1 3 3 4 6 6 8 7 10 8 11 9 9 10 7 12 5 14
REMARK H PARENT 3 5 9 11 7 13 5 15
REMARK Flexibility Score: inf
ROOT
ATOM      1  C   UNL     1     -15.550 -10.512  -1.598  1.00  0.00     0.174 C 
ENDROOT
BRANCH   1   2
ATOM      2  C   UNL     1     -16.454 -10.307  -2.843  1.00  0.00     0.142 C 
ATOM      3  C   UNL     1     -16.605  -8.821  -3.193  1.00  0.00     0.041 C 
BRANCH   2   4
ATOM      4  O   UNL     1     -17.731 -10.833  -2.587  1.00  0.00    -0.391 OA
ATOM      5  H   UNL     1     -17.657 -11.389  -1.768  1.00  0.00     0.211 HD
ENDBRANCH   2   4
ENDBRANCH   1   2
BRANCH   1   6
ATOM      6  C   UNL     1     -15.361 -12.000  -1.196  1.00  0.00     0.181 C 
BRANCH   6   7
ATOM      7  C   UNL     1     -16.229 -12.437   0.012  1.00  0.00     0.209 C 
BRANCH   7   8
ATOM      8  C   UNL     1     -17.134 -13.581  -0.369  1.00  0.00     0.258 C 
ATOM      9  O   UNL     1     -18.156 -13.376  -1.004  1.00  0.00    -0.300 OA
ENDBRANCH   7   8
BRANCH   7  10
ATOM     10  O   UNL     1     -17.013 -11.361   0.455  1.00  0.00    -0.383 OA
ATOM     11  H   UNL     1     -17.056 -11.424   1.445  1.00  0.00     0.211 HD
ENDBRANCH   7  10
ENDBRANCH   6   7
BRANCH   6  12
ATOM     12  O   UNL     1     -15.604 -12.828  -2.307  1.00  0.00    -0.387 OA
ATOM     13  H   UNL     1     -16.090 -13.627  -1.972  1.00  0.00     0.211 HD
ENDBRANCH   6  12
ENDBRANCH   1   6
BRANCH   1  14
ATOM     14  O   UNL     1     -14.280  -9.957  -1.845  1.00  0.00    -0.388 OA
ATOM     15  H   UNL     1     -13.630 -10.707  -1.853  1.00  0.00     0.211 HD
ENDBRANCH   1  14
TORSDOF 8
ENDMDL
MODEL 7
REMARK VINA RESULT:    -4.506      2.066      4.619
REMARK INTER + INTRA:          -6.842
REMARK INTER:                  -5.817
REMARK INTRA:                  -1.025
REMARK UNBOUND:                -0.756
REMARK SMILES C[C@H](O)[C@H](O)[C@H](O)[C@@H](O)C=O
REMARK SMILES IDX 4 1 2 2 1 3 3 4 6 6 8 7 10 8 11 9 9 10 7 12 5 14
REMARK H PARENT 3 5 9 11 7 13 5 15
REMARK Flexibility Score: inf
ROOT
ATOM      1  C   UNL     1     -15.416 -12.015  -1.096  1.00  0.00     0.174 C 
ENDROOT
BRANCH   1   2
ATOM      2  C   UNL     1     -15.873 -12.102   0.384  1.00  0.00     0.142 C 
ATOM      3  C   UNL     1     -15.791 -13.539   0.916  1.00  0.00     0.041 C 
BRANCH   2   4
ATOM      4  O   UNL     1     -17.203 -11.666   0.492  1.00  0.00    -0.391 OA
ATOM      5  H   UNL     1     -17.175 -10.687   0.653  1.00  0.00     0.211 HD
ENDBRANCH   2   4
ENDBRANCH   1   2
BRANCH   1   6
ATOM      6  C   UNL     1     -15.432 -10.573  -1.674  1.00  0.00     0.181 C 
BRANCH   6   7
ATOM      7  C   UNL     1     -16.672 -10.264  -2.551  1.00  0.00     0.209 C 
BRANCH   7   8
ATOM      8  C   UNL     1     -17.446  -9.100  -1.988  1.00  0.00     0.258 C 
ATOM      9  O   UNL     1     -18.192  -9.256  -1.035  1.00  0.00    -0.300 OA
ENDBRANCH   7   8
BRANCH   7  10
ATOM     10  O   UNL     1     -17.512 -11.387  -2.608  1.00  0.00    -0.383 OA
ATOM     11  H   UNL     1     -16.963 -12.141  -2.951  1.00  0.00     0.211 HD
ENDBRANCH   7  10
ENDBRANCH   6   7
BRANCH   6  12
ATOM     12  O   UNL     1     -15.318  -9.639  -0.630  1.00  0.00    -0.387 OA
ATOM     13  H   UNL     1     -14.532  -9.906  -0.086  1.00  0.00     0.211 HD
ENDBRANCH   6  12
ENDBRANCH   1   6
BRANCH   1  14
ATOM     14  O   UNL     1     -14.108 -12.523  -1.213  1.00  0.00    -0.388 OA
ATOM     15  H   UNL     1     -14.077 -13.371  -0.699  1.00  0.00     0.211 HD
ENDBRANCH   1  14
TORSDOF 8
ENDMDL
MODEL 8
REMARK VINA RESULT:    -4.476      2.110      4.727
REMARK INTER + INTRA:          -6.801
REMARK INTER:                  -6.247
REMARK INTRA:                  -0.554
REMARK UNBOUND:                -0.756
REMARK SMILES C[C@H](O)[C@H](O)[C@H](O)[C@@H](O)C=O
REMARK SMILES IDX 4 1 2 2 1 3 3 4 6 6 8 7 10 8 11 9 9 10 7 12 5 14
REMARK H PARENT 3 5 9 11 7 13 5 15
REMARK Flexibility Score: inf
ROOT
ATOM      1  C   UNL     1     -15.400 -12.071  -1.158  1.00  0.00     0.174 C 
ENDROOT
BRANCH   1   2
ATOM      2  C   UNL     1     -15.737 -12.036   0.356  1.00  0.00     0.142 C 
ATOM      3  C   UNL     1     -15.463 -13.389   1.026  1.00  0.00     0.041 C 
BRANCH   2   4
ATOM      4  O   UNL     1     -17.096 -11.725   0.528  1.00  0.00    -0.391 OA
ATOM      5  H   UNL     1     -17.459 -12.370   1.190  1.00  0.00     0.211 HD
ENDBRANCH   2   4
ENDBRANCH   1   2
BRANCH   1   6
ATOM      6  C   UNL     1     -15.623 -10.715  -1.882  1.00  0.00     0.181 C 
BRANCH   6   7
ATOM      7  C   UNL     1     -14.902  -9.519  -1.209  1.00  0.00     0.209 C 
BRANCH   7   8
ATOM      8  C   UNL     1     -15.619  -8.228  -1.510  1.00  0.00     0.258 C 
ATOM      9  O   UNL     1     -16.101  -8.030  -2.614  1.00  0.00    -0.300 OA
ENDBRANCH   7   8
BRANCH   7  10
ATOM     10  O   UNL     1     -13.582  -9.430  -1.675  1.00  0.00    -0.383 OA
ATOM     11  H   UNL     1     -13.120 -10.264  -1.396  1.00  0.00     0.211 HD
ENDBRANCH   7  10
ENDBRANCH   6   7
BRANCH   6  12
ATOM     12  O   UNL     1     -15.242 -10.827  -3.231  1.00  0.00    -0.387 OA
ATOM     13  H   UNL     1     -14.369 -11.299  -3.248  1.00  0.00     0.211 HD
ENDBRANCH   6  12
ENDBRANCH   1   6
BRANCH   1  14
ATOM     14  O   UNL     1     -14.054 -12.447  -1.330  1.00  0.00    -0.388 OA
ATOM     15  H   UNL     1     -13.529 -11.612  -1.439  1.00  0.00     0.211 HD
ENDBRANCH   1  14
TORSDOF 8
ENDMDL
MODEL 9
REMARK VINA RESULT:    -4.449      2.496      4.640
REMARK INTER + INTRA:          -6.766
REMARK INTER:                  -5.794
REMARK INTRA:                  -0.972
REMARK UNBOUND:                -0.756
REMARK SMILES C[C@H](O)[C@H](O)[C@H](O)[C@@H](O)C=O
REMARK SMILES IDX 4 1 2 2 1 3 3 4 6 6 8 7 10 8 11 9 9 10 7 12 5 14
REMARK H PARENT 3 5 9 11 7 13 5 15
REMARK Flexibility Score: inf
ROOT
ATOM      1  C   UNL     1     -17.996 -11.355  -0.462  1.00  0.00     0.174 C 
ENDROOT
BRANCH   1   2
ATOM      2  C   UNL     1     -17.919 -12.365  -1.638  1.00  0.00     0.142 C 
ATOM      3  C   UNL     1     -17.473 -13.754  -1.162  1.00  0.00     0.041 C 
BRANCH   2   4
ATOM      4  O   UNL     1     -16.995 -11.906  -2.591  1.00  0.00    -0.391 OA
ATOM      5  H   UNL     1     -17.457 -11.914  -3.469  1.00  0.00     0.211 HD
ENDBRANCH   2   4
ENDBRANCH   1   2
BRANCH   1   6
ATOM      6  C   UNL     1     -18.360  -9.910  -0.897  1.00  0.00     0.181 C 
BRANCH   6   7
ATOM      7  C   UNL     1     -17.137  -8.966  -1.024  1.00  0.00     0.209 C 
BRANCH   7   8
ATOM      8  C   UNL     1     -16.998  -8.463  -2.438  1.00  0.00     0.258 C 
ATOM      9  O   UNL     1     -16.661  -9.220  -3.334  1.00  0.00    -0.300 OA
ENDBRANCH   7   8
BRANCH   7  10
ATOM     10  O   UNL     1     -15.965  -9.649  -0.664  1.00  0.00    -0.383 OA
ATOM     11  H   UNL     1     -15.545  -9.965  -1.506  1.00  0.00     0.211 HD
ENDBRANCH   7  10
ENDBRANCH   6   7
BRANCH   6  12
ATOM     12  O   UNL     1     -19.088  -9.944  -2.101  1.00  0.00    -0.387 OA
ATOM     13  H   UNL     1     -18.618  -9.347  -2.740  1.00  0.00     0.211 HD
ENDBRANCH   6  12
ENDBRANCH   1   6
BRANCH   1  14
ATOM     14  O   UNL     1     -18.958 -11.793   0.468  1.00  0.00    -0.388 OA
ATOM     15  H   UNL     1     -19.845 -11.717   0.029  1.00  0.00     0.211 HD
ENDBRANCH   1  14
TORSDOF 8
ENDMDL
