MODEL 1
REMARK VINA RESULT:    -1.666      0.000      0.000
REMARK INTER + INTRA:          -1.941
REMARK INTER:                  -1.910
REMARK INTRA:                  -0.031
REMARK UNBOUND:                -0.031
REMARK SMILES CC(C)[C@H]([NH3+])C(=O)[O-]
REMARK SMILES IDX 4 1 5 2 6 6 7 7 8 8 2 9 1 10 3 11
REMARK H PARENT 5 3 5 4 5 5
REMARK Flexibility Score: inf
ROOT
ATOM      1  C   UNL     1       9.195  40.704  35.176  1.00  0.00     0.230 C 
ENDROOT
BRANCH   1   2
ATOM      2  N   UNL     1       9.829  41.964  34.757  1.00  0.00    -0.350 N 
ATOM      3  H   UNL     1       9.107  42.648  34.440  1.00  0.00     0.345 HD
ATOM      4  H   UNL     1      10.328  42.389  35.573  1.00  0.00     0.345 HD
ATOM      5  H   UNL     1      10.521  41.807  33.991  1.00  0.00     0.345 HD
ENDBRANCH   1   2
BRANCH   1   6
ATOM      6  C   UNL     1      10.207  39.586  35.223  1.00  0.00     0.099 C 
ATOM      7  O   UNL     1      10.254  38.742  34.290  1.00  0.00    -0.544 OA
ATOM      8  O   UNL     1      11.126  39.502  36.263  1.00  0.00    -0.544 OA
ENDBRANCH   1   6
BRANCH   1   9
ATOM      9  C   UNL     1       7.974  40.311  34.289  1.00  0.00     0.047 C 
ATOM     10  C   UNL     1       8.003  40.945  32.888  1.00  0.00     0.014 C 
ATOM     11  C   UNL     1       6.640  40.620  34.983  1.00  0.00     0.014 C 
ENDBRANCH   1   9
TORSDOF 3
ENDMDL
MODEL 2
REMARK VINA RESULT:    -1.456      2.730      3.609
REMARK INTER + INTRA:          -1.700
REMARK INTER:                  -1.678
REMARK INTRA:                  -0.022
REMARK UNBOUND:                -0.031
REMARK SMILES CC(C)[C@H]([NH3+])C(=O)[O-]
REMARK SMILES IDX 4 1 5 2 6 6 7 7 8 8 2 9 1 10 3 11
REMARK H PARENT 5 3 5 4 5 5
REMARK Flexibility Score: inf
ROOT
ATOM      1  C   UNL     1       7.899  40.256  34.367  1.00  0.00     0.230 C 
ENDROOT
BRANCH   1   2
ATOM      2  N   UNL     1       7.736  40.749  32.991  1.00  0.00    -0.350 N 
ATOM      3  H   UNL     1       8.439  41.493  32.784  1.00  0.00     0.345 HD
ATOM      4  H   UNL     1       7.903  39.964  32.318  1.00  0.00     0.345 HD
ATOM      5  H   UNL     1       6.775  41.124  32.830  1.00  0.00     0.345 HD
ENDBRANCH   1   2
BRANCH   1   6
ATOM      6  C   UNL     1       6.724  40.660  35.222  1.00  0.00     0.099 C 
ATOM      7  O   UNL     1       6.807  41.672  35.966  1.00  0.00    -0.544 OA
ATOM      8  O   UNL     1       5.527  39.953  35.165  1.00  0.00    -0.544 OA
ENDBRANCH   1   6
BRANCH   1   9
ATOM      9  C   UNL     1       9.242  40.705  35.021  1.00  0.00     0.047 C 
ATOM     10  C   UNL     1       9.837  41.977  34.392  1.00  0.00     0.014 C 
ATOM     11  C   UNL     1      10.284  39.576  35.021  1.00  0.00     0.014 C 
ENDBRANCH   1   9
TORSDOF 3
ENDMDL
MODEL 3
REMARK VINA RESULT:    -1.240      2.333      3.951
REMARK INTER + INTRA:          -1.452
REMARK INTER:                  -1.391
REMARK INTRA:                  -0.061
REMARK UNBOUND:                -0.031
REMARK SMILES CC(C)[C@H]([NH3+])C(=O)[O-]
REMARK SMILES IDX 4 1 5 2 6 6 7 7 8 8 2 9 1 10 3 11
REMARK H PARENT 5 3 5 4 5 5
REMARK Flexibility Score: inf
ROOT
ATOM      1  C   UNL     1      10.206  38.986  35.371  1.00  0.00     0.230 C 
ENDROOT
BRANCH   1   2
ATOM      2  N   UNL     1      10.683  38.347  34.135  1.00  0.00    -0.350 N 
ATOM      3  H   UNL     1       9.912  38.290  33.433  1.00  0.00     0.345 HD
ATOM      4  H   UNL     1      11.447  38.928  33.716  1.00  0.00     0.345 HD
ATOM      5  H   UNL     1      11.059  37.391  34.319  1.00  0.00     0.345 HD
ENDBRANCH   1   2
BRANCH   1   6
ATOM      6  C   UNL     1       9.386  40.213  35.057  1.00  0.00     0.099 C 
ATOM      7  O   UNL     1       9.289  41.138  35.906  1.00  0.00    -0.544 OA
ATOM      8  O   UNL     1       8.773  40.360  33.818  1.00  0.00    -0.544 OA
ENDBRANCH   1   6
BRANCH   1   9
ATOM      9  C   UNL     1      11.358  39.326  36.365  1.00  0.00     0.047 C 
ATOM     10  C   UNL     1      12.658  39.767  35.671  1.00  0.00     0.014 C 
ATOM     11  C   UNL     1      11.639  38.168  37.334  1.00  0.00     0.014 C 
ENDBRANCH   1   9
TORSDOF 3
ENDMDL
MODEL 4
REMARK VINA RESULT:    -1.142      2.162      3.153
REMARK INTER + INTRA:          -1.340
REMARK INTER:                  -1.598
REMARK INTRA:                   0.259
REMARK UNBOUND:                -0.031
REMARK SMILES CC(C)[C@H]([NH3+])C(=O)[O-]
REMARK SMILES IDX 4 1 5 2 6 6 7 7 8 8 2 9 1 10 3 11
REMARK H PARENT 5 3 5 4 5 5
REMARK Flexibility Score: inf
ROOT
ATOM      1  C   UNL     1       7.895  41.061  34.284  1.00  0.00     0.230 C 
ENDROOT
BRANCH   1   2
ATOM      2  N   UNL     1       6.916  40.105  34.824  1.00  0.00    -0.350 N 
ATOM      3  H   UNL     1       7.400  39.352  35.362  1.00  0.00     0.345 HD
ATOM      4  H   UNL     1       6.274  40.601  35.486  1.00  0.00     0.345 HD
ATOM      5  H   UNL     1       6.340  39.677  34.065  1.00  0.00     0.345 HD
ENDBRANCH   1   2
BRANCH   1   6
ATOM      6  C   UNL     1       8.439  40.579  32.962  1.00  0.00     0.099 C 
ATOM      7  O   UNL     1       8.331  41.303  31.937  1.00  0.00    -0.544 OA
ATOM      8  O   UNL     1       9.105  39.362  32.869  1.00  0.00    -0.544 OA
ENDBRANCH   1   6
BRANCH   1   9
ATOM      9  C   UNL     1       9.052  41.377  35.280  1.00  0.00     0.047 C 
ATOM     10  C   UNL     1       9.992  42.494  34.796  1.00  0.00     0.014 C 
ATOM     11  C   UNL     1       9.860  40.120  35.635  1.00  0.00     0.014 C 
ENDBRANCH   1   9
TORSDOF 3
ENDMDL
MODEL 5
REMARK VINA RESULT:    -1.122      1.489      1.878
REMARK INTER + INTRA:          -1.317
REMARK INTER:                  -1.413
REMARK INTRA:                   0.096
REMARK UNBOUND:                -0.031
REMARK SMILES CC(C)[C@H]([NH3+])C(=O)[O-]
REMARK SMILES IDX 4 1 5 2 6 6 7 7 8 8 2 9 1 10 3 11
REMARK H PARENT 5 3 5 4 5 5
REMARK Flexibility Score: inf
ROOT
ATOM      1  C   UNL     1       9.047  41.296  34.105  1.00  0.00     0.230 C 
ENDROOT
BRANCH   1   2
ATOM      2  N   UNL     1       8.694  41.589  32.707  1.00  0.00    -0.350 N 
ATOM      3  H   UNL     1       7.657  41.606  32.589  1.00  0.00     0.345 HD
ATOM      4  H   UNL     1       9.055  42.537  32.449  1.00  0.00     0.345 HD
ATOM      5  H   UNL     1       9.108  40.888  32.053  1.00  0.00     0.345 HD
ENDBRANCH   1   2
BRANCH   1   6
ATOM      6  C   UNL     1       9.581  39.891  34.239  1.00  0.00     0.099 C 
ATOM      7  O   UNL     1       9.425  39.069  33.298  1.00  0.00    -0.544 OA
ATOM      8  O   UNL     1      10.287  39.504  35.372  1.00  0.00    -0.544 OA
ENDBRANCH   1   6
BRANCH   1   9
ATOM      9  C   UNL     1       7.868  41.539  35.096  1.00  0.00     0.047 C 
ATOM     10  C   UNL     1       8.315  41.678  36.561  1.00  0.00     0.014 C 
ATOM     11  C   UNL     1       6.784  40.458  34.971  1.00  0.00     0.014 C 
ENDBRANCH   1   9
TORSDOF 3
ENDMDL
MODEL 6
REMARK VINA RESULT:    -1.063      1.373      1.678
REMARK INTER + INTRA:          -1.250
REMARK INTER:                  -1.203
REMARK INTRA:                  -0.047
REMARK UNBOUND:                -0.031
REMARK SMILES CC(C)[C@H]([NH3+])C(=O)[O-]
REMARK SMILES IDX 4 1 5 2 6 6 7 7 8 8 2 9 1 10 3 11
REMARK H PARENT 5 3 5 4 5 5
REMARK Flexibility Score: inf
ROOT
ATOM      1  C   UNL     1       9.187  40.377  34.317  1.00  0.00     0.230 C 
ENDROOT
BRANCH   1   2
ATOM      2  N   UNL     1       8.666  39.890  33.031  1.00  0.00    -0.350 N 
ATOM      3  H   UNL     1       9.336  40.107  32.259  1.00  0.00     0.345 HD
ATOM      4  H   UNL     1       8.560  38.849  33.070  1.00  0.00     0.345 HD
ATOM      5  H   UNL     1       7.735  40.308  32.811  1.00  0.00     0.345 HD
ENDBRANCH   1   2
BRANCH   1   6
ATOM      6  C   UNL     1      10.182  39.401  34.895  1.00  0.00     0.099 C 
ATOM      7  O   UNL     1      10.511  38.378  34.239  1.00  0.00    -0.544 OA
ATOM      8  O   UNL     1      10.780  39.642  36.127  1.00  0.00    -0.544 OA
ENDBRANCH   1   6
BRANCH   1   9
ATOM      9  C   UNL     1       8.062  40.699  35.348  1.00  0.00     0.047 C 
ATOM     10  C   UNL     1       6.644  40.444  34.810  1.00  0.00     0.014 C 
ATOM     11  C   UNL     1       8.174  42.132  35.888  1.00  0.00     0.014 C 
ENDBRANCH   1   9
TORSDOF 3
ENDMDL
MODEL 7
REMARK VINA RESULT:    -0.936      1.597      2.074
REMARK INTER + INTRA:          -1.104
REMARK INTER:                  -1.059
REMARK INTRA:                  -0.045
REMARK UNBOUND:                -0.031
REMARK SMILES CC(C)[C@H]([NH3+])C(=O)[O-]
REMARK SMILES IDX 4 1 5 2 6 6 7 7 8 8 2 9 1 10 3 11
REMARK H PARENT 5 3 5 4 5 5
REMARK Flexibility Score: inf
ROOT
ATOM      1  C   UNL     1      10.121  39.847  34.589  1.00  0.00     0.230 C 
ENDROOT
BRANCH   1   2
ATOM      2  N   UNL     1       9.516  39.008  33.542  1.00  0.00    -0.350 N 
ATOM      3  H   UNL     1       8.977  39.597  32.869  1.00  0.00     0.345 HD
ATOM      4  H   UNL     1      10.273  38.527  33.002  1.00  0.00     0.345 HD
ATOM      5  H   UNL     1       8.888  38.281  33.950  1.00  0.00     0.345 HD
ENDBRANCH   1   2
BRANCH   1   6
ATOM      6  C   UNL     1      10.780  38.992  35.643  1.00  0.00     0.099 C 
ATOM      7  O   UNL     1      10.367  37.821  35.851  1.00  0.00    -0.544 OA
ATOM      8  O   UNL     1      11.874  39.465  36.360  1.00  0.00    -0.544 OA
ENDBRANCH   1   6
BRANCH   1   9
ATOM      9  C   UNL     1       9.108  40.842  35.234  1.00  0.00     0.047 C 
ATOM     10  C   UNL     1       7.643  40.554  34.864  1.00  0.00     0.014 C 
ATOM     11  C   UNL     1       9.459  42.303  34.913  1.00  0.00     0.014 C 
ENDBRANCH   1   9
TORSDOF 3
ENDMDL
MODEL 8
REMARK VINA RESULT:    -0.913      2.246      3.434
REMARK INTER + INTRA:          -1.077
REMARK INTER:                  -1.142
REMARK INTRA:                   0.064
REMARK UNBOUND:                -0.031
REMARK SMILES CC(C)[C@H]([NH3+])C(=O)[O-]
REMARK SMILES IDX 4 1 5 2 6 6 7 7 8 8 2 9 1 10 3 11
REMARK H PARENT 5 3 5 4 5 5
REMARK Flexibility Score: inf
ROOT
ATOM      1  C   UNL     1       9.185  40.837  35.117  1.00  0.00     0.230 C 
ENDROOT
BRANCH   1   2
ATOM      2  N   UNL     1       8.899  41.609  36.337  1.00  0.00    -0.350 N 
ATOM      3  H   UNL     1       9.713  41.573  36.991  1.00  0.00     0.345 HD
ATOM      4  H   UNL     1       8.744  42.613  36.085  1.00  0.00     0.345 HD
ATOM      5  H   UNL     1       8.046  41.255  36.823  1.00  0.00     0.345 HD
ENDBRANCH   1   2
BRANCH   1   6
ATOM      6  C   UNL     1       7.932  40.650  34.298  1.00  0.00     0.099 C 
ATOM      7  O   UNL     1       6.824  40.483  34.874  1.00  0.00    -0.544 OA
ATOM      8  O   UNL     1       7.975  40.707  32.910  1.00  0.00    -0.544 OA
ENDBRANCH   1   6
BRANCH   1   9
ATOM      9  C   UNL     1       9.869  39.467  35.409  1.00  0.00     0.047 C 
ATOM     10  C   UNL     1      11.115  39.579  36.303  1.00  0.00     0.014 C 
ATOM     11  C   UNL     1      10.209  38.711  34.116  1.00  0.00     0.014 C 
ENDBRANCH   1   9
TORSDOF 3
ENDMDL
MODEL 9
REMARK VINA RESULT:    -0.535      2.607      3.332
REMARK INTER + INTRA:          -0.645
REMARK INTER:                  -0.858
REMARK INTRA:                   0.214
REMARK UNBOUND:                -0.031
REMARK SMILES CC(C)[C@H]([NH3+])C(=O)[O-]
REMARK SMILES IDX 4 1 5 2 6 6 7 7 8 8 2 9 1 10 3 11
REMARK H PARENT 5 3 5 4 5 5
REMARK Flexibility Score: inf
ROOT
ATOM      1  C   UNL     1       8.770  40.055  34.489  1.00  0.00     0.230 C 
ENDROOT
BRANCH   1   2
ATOM      2  N   UNL     1       9.936  39.256  34.080  1.00  0.00    -0.350 N 
ATOM      3  H   UNL     1      10.624  39.187  34.863  1.00  0.00     0.345 HD
ATOM      4  H   UNL     1       9.626  38.282  33.849  1.00  0.00     0.345 HD
ATOM      5  H   UNL     1      10.403  39.662  33.240  1.00  0.00     0.345 HD
ENDBRANCH   1   2
BRANCH   1   6
ATOM      6  C   UNL     1       7.988  40.513  33.283  1.00  0.00     0.099 C 
ATOM      7  O   UNL     1       6.729  40.481  33.301  1.00  0.00    -0.544 OA
ATOM      8  O   UNL     1       8.640  41.019  32.163  1.00  0.00    -0.544 OA
ENDBRANCH   1   6
BRANCH   1   9
ATOM      9  C   UNL     1       9.147  41.263  35.399  1.00  0.00     0.047 C 
ATOM     10  C   UNL     1       7.969  41.800  36.228  1.00  0.00     0.014 C 
ATOM     11  C   UNL     1       9.794  42.402  34.597  1.00  0.00     0.014 C 
ENDBRANCH   1   9
TORSDOF 3
ENDMDL
