MODEL 1
REMARK VINA RESULT:    -3.503      0.000      0.000
REMARK INTER + INTRA:          -4.187
REMARK INTER:                  -4.118
REMARK INTRA:                  -0.069
REMARK UNBOUND:                -0.069
REMARK SMILES CCCCC(=O)[O-]
REMARK SMILES IDX 4 1 5 2 6 3 7 4 3 5 2 6 1 7
REMARK H PARENT
REMARK Flexibility Score: inf
ROOT
ATOM      1  C   UNL     1      38.164 105.702 260.487  1.00  0.00     0.053 C 
ENDROOT
BRANCH   1   2
ATOM      2  C   UNL     1      37.657 106.155 261.822  1.00  0.00     0.041 C 
ATOM      3  O   UNL     1      36.439 106.022 262.115  1.00  0.00    -0.550 OA
ATOM      4  O   UNL     1      38.521 106.755 262.729  1.00  0.00    -0.550 OA
ENDBRANCH   1   2
BRANCH   1   5
ATOM      5  C   UNL     1      37.098 104.924 259.707  1.00  0.00     0.006 C 
BRANCH   5   6
ATOM      6  C   UNL     1      36.995 105.385 258.245  1.00  0.00    -0.003 C 
ATOM      7  C   UNL     1      35.996 106.529 258.097  1.00  0.00     0.004 C 
ENDBRANCH   5   6
ENDBRANCH   1   5
TORSDOF 3
ENDMDL
MODEL 2
REMARK VINA RESULT:    -3.038      1.955      2.545
REMARK INTER + INTRA:          -3.640
REMARK INTER:                  -3.624
REMARK INTRA:                  -0.016
REMARK UNBOUND:                -0.069
REMARK SMILES CCCCC(=O)[O-]
REMARK SMILES IDX 4 1 5 2 6 3 7 4 3 5 2 6 1 7
REMARK H PARENT
REMARK Flexibility Score: inf
ROOT
ATOM      1  C   UNL     1      36.644 106.073 262.368  1.00  0.00     0.053 C 
ENDROOT
BRANCH   1   2
ATOM      2  C   UNL     1      35.515 105.769 263.305  1.00  0.00     0.041 C 
ATOM      3  O   UNL     1      34.876 106.706 263.852  1.00  0.00    -0.550 OA
ATOM      4  O   UNL     1      35.190 104.451 263.600  1.00  0.00    -0.550 OA
ENDBRANCH   1   2
BRANCH   1   5
ATOM      5  C   UNL     1      36.542 105.260 261.071  1.00  0.00     0.006 C 
BRANCH   5   6
ATOM      6  C   UNL     1      37.619 105.657 260.051  1.00  0.00    -0.003 C 
ATOM      7  C   UNL     1      37.203 105.274 258.634  1.00  0.00     0.004 C 
ENDBRANCH   5   6
ENDBRANCH   1   5
TORSDOF 3
ENDMDL
MODEL 3
REMARK VINA RESULT:    -2.957      2.499      3.962
REMARK INTER + INTRA:          -3.545
REMARK INTER:                  -3.524
REMARK INTRA:                  -0.021
REMARK UNBOUND:                -0.069
REMARK SMILES CCCCC(=O)[O-]
REMARK SMILES IDX 4 1 5 2 6 3 7 4 3 5 2 6 1 7
REMARK H PARENT
REMARK Flexibility Score: inf
ROOT
ATOM      1  C   UNL     1      36.355 105.249 261.221  1.00  0.00     0.053 C 
ENDROOT
BRANCH   1   2
ATOM      2  C   UNL     1      37.101 105.744 260.021  1.00  0.00     0.041 C 
ATOM      3  O   UNL     1      38.336 105.521 259.906  1.00  0.00    -0.550 OA
ATOM      4  O   UNL     1      36.442 106.483 259.046  1.00  0.00    -0.550 OA
ENDBRANCH   1   2
BRANCH   1   5
ATOM      5  C   UNL     1      36.666 106.083 262.470  1.00  0.00     0.006 C 
BRANCH   5   6
ATOM      6  C   UNL     1      35.503 106.082 263.474  1.00  0.00    -0.003 C 
ATOM      7  C   UNL     1      35.003 104.664 263.736  1.00  0.00     0.004 C 
ENDBRANCH   5   6
ENDBRANCH   1   5
TORSDOF 3
ENDMDL
MODEL 4
REMARK VINA RESULT:    -2.794      5.330      7.266
REMARK INTER + INTRA:          -3.354
REMARK INTER:                  -3.322
REMARK INTRA:                  -0.032
REMARK UNBOUND:                -0.069
REMARK SMILES CCCCC(=O)[O-]
REMARK SMILES IDX 4 1 5 2 6 3 7 4 3 5 2 6 1 7
REMARK H PARENT
REMARK Flexibility Score: inf
ROOT
ATOM      1  C   UNL     1      34.875 105.826 266.342  1.00  0.00     0.053 C 
ENDROOT
BRANCH   1   2
ATOM      2  C   UNL     1      34.950 105.478 264.887  1.00  0.00     0.041 C 
ATOM      3  O   UNL     1      35.110 104.281 264.529  1.00  0.00    -0.550 OA
ATOM      4  O   UNL     1      34.877 106.479 263.926  1.00  0.00    -0.550 OA
ENDBRANCH   1   2
BRANCH   1   5
ATOM      5  C   UNL     1      35.210 107.302 266.592  1.00  0.00     0.006 C 
BRANCH   5   6
ATOM      6  C   UNL     1      34.944 107.720 268.045  1.00  0.00    -0.003 C 
ATOM      7  C   UNL     1      35.056 106.528 268.991  1.00  0.00     0.004 C 
ENDBRANCH   5   6
ENDBRANCH   1   5
TORSDOF 3
ENDMDL
MODEL 5
REMARK VINA RESULT:    -2.596      5.770      6.864
REMARK INTER + INTRA:          -3.121
REMARK INTER:                  -3.084
REMARK INTRA:                  -0.036
REMARK UNBOUND:                -0.069
REMARK SMILES CCCCC(=O)[O-]
REMARK SMILES IDX 4 1 5 2 6 3 7 4 3 5 2 6 1 7
REMARK H PARENT
REMARK Flexibility Score: inf
ROOT
ATOM      1  C   UNL     1      34.970 105.475 266.968  1.00  0.00     0.053 C 
ENDROOT
BRANCH   1   2
ATOM      2  C   UNL     1      35.189 106.220 268.248  1.00  0.00     0.041 C 
ATOM      3  O   UNL     1      35.116 105.618 269.352  1.00  0.00    -0.550 OA
ATOM      4  O   UNL     1      35.440 107.586 268.225  1.00  0.00    -0.550 OA
ENDBRANCH   1   2
BRANCH   1   5
ATOM      5  C   UNL     1      34.876 106.423 265.766  1.00  0.00     0.006 C 
BRANCH   5   6
ATOM      6  C   UNL     1      35.012 105.681 264.428  1.00  0.00    -0.003 C 
ATOM      7  C   UNL     1      34.878 104.173 264.619  1.00  0.00     0.004 C 
ENDBRANCH   5   6
ENDBRANCH   1   5
TORSDOF 3
ENDMDL
MODEL 6
REMARK VINA RESULT:    -2.457      2.266      3.760
REMARK INTER + INTRA:          -2.957
REMARK INTER:                  -2.891
REMARK INTRA:                  -0.066
REMARK UNBOUND:                -0.069
REMARK SMILES CCCCC(=O)[O-]
REMARK SMILES IDX 4 1 5 2 6 3 7 4 3 5 2 6 1 7
REMARK H PARENT
REMARK Flexibility Score: inf
ROOT
ATOM      1  C   UNL     1      37.790 105.422 260.368  1.00  0.00     0.053 C 
ENDROOT
BRANCH   1   2
ATOM      2  C   UNL     1      37.216 105.783 259.032  1.00  0.00     0.041 C 
ATOM      3  O   UNL     1      36.292 106.634 258.949  1.00  0.00    -0.550 OA
ATOM      4  O   UNL     1      37.679 105.154 257.883  1.00  0.00    -0.550 OA
ENDBRANCH   1   2
BRANCH   1   5
ATOM      5  C   UNL     1      36.838 105.787 261.514  1.00  0.00     0.006 C 
BRANCH   5   6
ATOM      6  C   UNL     1      37.563 106.492 262.670  1.00  0.00    -0.003 C 
ATOM      7  C   UNL     1      39.069 106.539 262.429  1.00  0.00     0.004 C 
ENDBRANCH   5   6
ENDBRANCH   1   5
TORSDOF 3
ENDMDL
MODEL 7
REMARK VINA RESULT:    -2.287      5.163      6.203
REMARK INTER + INTRA:          -2.757
REMARK INTER:                  -2.736
REMARK INTRA:                  -0.021
REMARK UNBOUND:                -0.069
REMARK SMILES CCCCC(=O)[O-]
REMARK SMILES IDX 4 1 5 2 6 3 7 4 3 5 2 6 1 7
REMARK H PARENT
REMARK Flexibility Score: inf
ROOT
ATOM      1  C   UNL     1      34.970 106.518 266.570  1.00  0.00     0.053 C 
ENDROOT
BRANCH   1   2
ATOM      2  C   UNL     1      34.893 107.812 267.320  1.00  0.00     0.041 C 
ATOM      3  O   UNL     1      34.876 108.906 266.696  1.00  0.00    -0.550 OA
ATOM      4  O   UNL     1      34.875 107.812 268.710  1.00  0.00    -0.550 OA
ENDBRANCH   1   2
BRANCH   1   5
ATOM      5  C   UNL     1      35.214 106.741 265.073  1.00  0.00     0.006 C 
BRANCH   5   6
ATOM      6  C   UNL     1      35.125 105.435 264.268  1.00  0.00    -0.003 C 
ATOM      7  C   UNL     1      35.646 105.628 262.847  1.00  0.00     0.004 C 
ENDBRANCH   5   6
ENDBRANCH   1   5
TORSDOF 3
ENDMDL
