MODEL 1
REMARK VINA RESULT:    -0.742      0.000      0.000
REMARK INTER + INTRA:          -1.673
REMARK INTER:                  -1.133
REMARK INTRA:                  -0.540
REMARK UNBOUND:                -0.540
REMARK SMILES CC1=CCC[C@@H](C)C(=O)C[C@@H](C(C)C)C(=O)C1
REMARK SMILES IDX 8 1 9 2 6 3 7 4 5 5 4 6 3 7 2 8 1 9 10 11 11 12 15 13 16 14
REMARK SMILES IDX 17 15 12 17 13 18 14 19
REMARK H PARENT
REMARK Flexibility Score: 70.00
ROOT
ATOM      1  C   UNL     1      92.719  29.978  15.519  1.00  0.00     0.136 C 
ATOM      2  O   UNL     1      93.134  29.533  16.579  1.00  0.00    -0.299 OA
ENDROOT
BRANCH   1   3
ATOM      3  C   UNL     1      93.422  31.146  14.850  1.00  0.00     0.053 C 
ATOM      4  C   UNL     1      94.866  30.815  14.441  1.00  0.00     0.016 C 
BRANCH   3   5
ATOM      5  C   UNL     1      93.333  32.419  15.714  1.00  0.00     0.015 C 
BRANCH   5   6
ATOM      6  C   UNL     1      91.892  32.891  15.990  1.00  0.00     0.028 C 
BRANCH   6   7
ATOM      7  C   UNL     1      91.290  33.546  14.774  1.00  0.00    -0.028 C 
ATOM      8  C   UNL     1      90.243  33.052  14.072  1.00  0.00    -0.070 CG0
ATOM      9  C   UNL     1      89.792  33.805  12.847  1.00  0.00     0.039 C 
ATOM     10  G   UNL     1      89.500  31.782  14.462  1.00  0.00     0.000 G0
ENDBRANCH   6   7
ENDBRANCH   5   6
ENDBRANCH   3   5
ENDBRANCH   1   3
BRANCH   1  11
ATOM     11  C   UNL     1      91.519  29.343  14.855  1.00  0.00     0.087 C 
BRANCH  11  12
ATOM     12  C   UNL     1      91.131  29.949  13.481  1.00  0.00     0.066 C 
BRANCH  12  13
ATOM     13  C   UNL     1      89.761  30.619  13.556  1.00  0.00     0.140 C 
ATOM     14  O   UNL     1      88.854  30.163  12.876  1.00  0.00    -0.299 OA
BRANCH  13  15
ATOM     15  C   UNL     1      89.478  31.792  14.473  1.00  0.00     0.106 CG0
ATOM     16  G   UNL     1      90.235  33.050  14.071  1.00  0.00     0.000 G0
ENDBRANCH  13  15
ENDBRANCH  12  13
BRANCH  12  17
ATOM     17  C   UNL     1      91.293  28.993  12.250  1.00  0.00    -0.006 C 
ATOM     18  C   UNL     1      91.545  27.532  12.666  1.00  0.00     0.008 C 
ATOM     19  C   UNL     1      92.460  29.450  11.354  1.00  0.00     0.008 C 
ENDBRANCH  12  17
ENDBRANCH  11  12
ENDBRANCH   1  11
TORSDOF 1
ENDMDL
MODEL 2
REMARK VINA RESULT:    -0.597      2.346      4.594
REMARK INTER + INTRA:          -1.451
REMARK INTER:                  -0.939
REMARK INTRA:                  -0.512
REMARK UNBOUND:                -0.540
REMARK SMILES CC1=CCC[C@@H](C)C(=O)C[C@@H](C(C)C)C(=O)C1
REMARK SMILES IDX 8 1 9 2 6 3 7 4 5 5 4 6 3 7 2 8 1 9 10 11 11 12 15 13 16 14
REMARK SMILES IDX 17 15 12 17 13 18 14 19
REMARK H PARENT
REMARK Flexibility Score: 70.00
ROOT
ATOM      1  C   UNL     1      89.580  29.970  10.173  1.00  0.00     0.136 C 
ATOM      2  O   UNL     1      89.040  30.330   9.138  1.00  0.00    -0.299 OA
ENDROOT
BRANCH   1   3
ATOM      3  C   UNL     1      88.752  29.697  11.417  1.00  0.00     0.053 C 
ATOM      4  C   UNL     1      87.926  28.406  11.309  1.00  0.00     0.016 C 
BRANCH   3   5
ATOM      5  C   UNL     1      87.889  30.919  11.789  1.00  0.00     0.015 C 
BRANCH   5   6
ATOM      6  C   UNL     1      88.703  32.155  12.220  1.00  0.00     0.028 C 
BRANCH   6   7
ATOM      7  C   UNL     1      89.406  31.915  13.531  1.00  0.00    -0.028 C 
ATOM      8  C   UNL     1      90.746  31.792  13.675  1.00  0.00    -0.070 CG0
ATOM      9  C   UNL     1      91.289  31.504  15.051  1.00  0.00     0.039 C 
ATOM     10  G   UNL     1      91.728  31.936  12.520  1.00  0.00     0.000 G0
ENDBRANCH   6   7
ENDBRANCH   5   6
ENDBRANCH   3   5
ENDBRANCH   1   3
BRANCH   1  11
ATOM     11  C   UNL     1      91.077  29.763  10.207  1.00  0.00     0.087 C 
BRANCH  11  12
ATOM     12  C   UNL     1      91.665  29.439  11.606  1.00  0.00     0.066 C 
BRANCH  12  13
ATOM     13  C   UNL     1      92.428  30.638  12.160  1.00  0.00     0.140 C 
ATOM     14  O   UNL     1      93.643  30.553  12.270  1.00  0.00    -0.299 OA
BRANCH  13  15
ATOM     15  C   UNL     1      91.744  31.938  12.533  1.00  0.00     0.106 CG0
ATOM     16  G   UNL     1      90.731  31.770  13.656  1.00  0.00     0.000 G0
ENDBRANCH  13  15
ENDBRANCH  12  13
BRANCH  12  17
ATOM     17  C   UNL     1      92.456  28.090  11.710  1.00  0.00    -0.006 C 
ATOM     18  C   UNL     1      92.921  27.571  10.338  1.00  0.00     0.008 C 
ATOM     19  C   UNL     1      91.592  27.001  12.374  1.00  0.00     0.008 C 
ENDBRANCH  12  17
ENDBRANCH  11  12
ENDBRANCH   1  11
TORSDOF 1
ENDMDL
MODEL 3
REMARK VINA RESULT:    -0.579      5.029      6.422
REMARK INTER + INTRA:          -1.424
REMARK INTER:                  -0.994
REMARK INTRA:                  -0.431
REMARK UNBOUND:                -0.540
REMARK SMILES CC1=CCC[C@@H](C)C(=O)C[C@@H](C(C)C)C(=O)C1
REMARK SMILES IDX 8 1 9 2 6 3 7 4 5 5 4 6 3 7 2 8 1 9 10 11 11 12 15 13 16 14
REMARK SMILES IDX 17 15 12 17 13 18 14 19
REMARK H PARENT
REMARK Flexibility Score: 70.00
ROOT
ATOM      1  C   UNL     1      90.510  28.920   8.327  1.00  0.00     0.136 C 
ATOM      2  O   UNL     1      89.667  28.822   7.447  1.00  0.00    -0.299 OA
ENDROOT
BRANCH   1   3
ATOM      3  C   UNL     1      90.132  29.462   9.695  1.00  0.00     0.053 C 
ATOM      4  C   UNL     1      88.880  28.787  10.276  1.00  0.00     0.016 C 
BRANCH   3   5
ATOM      5  C   UNL     1      90.015  30.999   9.671  1.00  0.00     0.015 C 
BRANCH   5   6
ATOM      6  C   UNL     1      91.205  31.729  10.324  1.00  0.00     0.028 C 
BRANCH   6   7
ATOM      7  C   UNL     1      92.055  32.420   9.289  1.00  0.00    -0.028 C 
ATOM      8  C   UNL     1      93.342  32.103   9.013  1.00  0.00    -0.070 CG0
ATOM      9  C   UNL     1      94.069  32.926   7.981  1.00  0.00     0.039 C 
ATOM     10  G   UNL     1      94.083  30.958   9.686  1.00  0.00     0.000 G0
ENDBRANCH   6   7
ENDBRANCH   5   6
ENDBRANCH   3   5
ENDBRANCH   1   3
BRANCH   1  11
ATOM     11  C   UNL     1      91.928  28.469   8.063  1.00  0.00     0.087 C 
BRANCH  11  12
ATOM     12  C   UNL     1      92.903  28.630   9.260  1.00  0.00     0.066 C 
BRANCH  12  13
ATOM     13  C   UNL     1      93.987  29.654   8.936  1.00  0.00     0.140 C 
ATOM     14  O   UNL     1      94.755  29.414   8.015  1.00  0.00    -0.299 OA
BRANCH  13  15
ATOM     15  C   UNL     1      94.115  30.968   9.680  1.00  0.00     0.106 CG0
ATOM     16  G   UNL     1      93.356  32.103   9.008  1.00  0.00     0.000 G0
ENDBRANCH  13  15
ENDBRANCH  12  13
BRANCH  12  17
ATOM     17  C   UNL     1      93.461  27.295   9.861  1.00  0.00    -0.006 C 
ATOM     18  C   UNL     1      93.832  26.268   8.776  1.00  0.00     0.008 C 
ATOM     19  C   UNL     1      92.431  26.651  10.808  1.00  0.00     0.008 C 
ENDBRANCH  12  17
ENDBRANCH  11  12
ENDBRANCH   1  11
TORSDOF 1
ENDMDL
MODEL 4
REMARK VINA RESULT:    -0.553      2.134      4.132
REMARK INTER + INTRA:          -1.383
REMARK INTER:                  -0.900
REMARK INTRA:                  -0.483
REMARK UNBOUND:                -0.540
REMARK SMILES CC1=CCC[C@@H](C)C(=O)C[C@@H](C(C)C)C(=O)C1
REMARK SMILES IDX 8 1 9 2 6 3 7 4 5 5 4 6 3 7 2 8 1 9 10 11 11 12 15 13 16 14
REMARK SMILES IDX 17 15 12 17 13 18 14 19
REMARK H PARENT
REMARK Flexibility Score: 70.00
ROOT
ATOM      1  C   UNL     1      90.798  28.266  12.144  1.00  0.00     0.136 C 
ATOM      2  O   UNL     1      91.098  27.471  11.265  1.00  0.00    -0.299 OA
ENDROOT
BRANCH   1   3
ATOM      3  C   UNL     1      89.715  29.304  11.902  1.00  0.00     0.053 C 
ATOM      4  C   UNL     1      88.570  28.774  11.024  1.00  0.00     0.016 C 
BRANCH   3   5
ATOM      5  C   UNL     1      90.314  30.616  11.359  1.00  0.00     0.015 C 
BRANCH   5   6
ATOM      6  C   UNL     1      90.312  31.775  12.376  1.00  0.00     0.028 C 
BRANCH   6   7
ATOM      7  C   UNL     1      91.712  32.124  12.809  1.00  0.00    -0.028 C 
ATOM      8  C   UNL     1      92.189  31.974  14.066  1.00  0.00    -0.070 CG0
ATOM      9  C   UNL     1      93.601  32.419  14.347  1.00  0.00     0.039 C 
ATOM     10  G   UNL     1      91.374  31.376  15.204  1.00  0.00     0.000 G0
ENDBRANCH   6   7
ENDBRANCH   5   6
ENDBRANCH   3   5
ENDBRANCH   1   3
BRANCH   1  11
ATOM     11  C   UNL     1      91.483  28.195  13.488  1.00  0.00     0.087 C 
BRANCH  11  12
ATOM     12  C   UNL     1      90.706  28.853  14.659  1.00  0.00     0.066 C 
BRANCH  12  13
ATOM     13  C   UNL     1      91.581  29.876  15.378  1.00  0.00     0.140 C 
ATOM     14  O   UNL     1      92.496  29.467  16.079  1.00  0.00    -0.299 OA
BRANCH  13  15
ATOM     15  C   UNL     1      91.385  31.370  15.218  1.00  0.00     0.106 CG0
ATOM     16  G   UNL     1      92.190  31.950  14.063  1.00  0.00     0.000 G0
ENDBRANCH  13  15
ENDBRANCH  12  13
BRANCH  12  17
ATOM     17  C   UNL     1      89.977  27.860  15.628  1.00  0.00    -0.006 C 
ATOM     18  C   UNL     1      90.334  26.390  15.346  1.00  0.00     0.008 C 
ATOM     19  C   UNL     1      88.449  28.018  15.523  1.00  0.00     0.008 C 
ENDBRANCH  12  17
ENDBRANCH  11  12
ENDBRANCH   1  11
TORSDOF 1
ENDMDL
MODEL 5
REMARK VINA RESULT:    -0.506      2.337      5.091
REMARK INTER + INTRA:          -1.312
REMARK INTER:                  -0.856
REMARK INTRA:                  -0.456
REMARK UNBOUND:                -0.540
REMARK SMILES CC1=CCC[C@@H](C)C(=O)C[C@@H](C(C)C)C(=O)C1
REMARK SMILES IDX 8 1 9 2 6 3 7 4 5 5 4 6 3 7 2 8 1 9 10 11 11 12 15 13 16 14
REMARK SMILES IDX 17 15 12 17 13 18 14 19
REMARK H PARENT
REMARK Flexibility Score: 70.00
ROOT
ATOM      1  C   UNL     1      90.941  33.604  14.014  1.00  0.00     0.136 C 
ATOM      2  O   UNL     1      89.792  34.010  14.108  1.00  0.00    -0.299 OA
ENDROOT
BRANCH   1   3
ATOM      3  C   UNL     1      91.896  34.228  13.012  1.00  0.00     0.053 C 
ATOM      4  C   UNL     1      91.809  35.762  12.985  1.00  0.00     0.016 C 
BRANCH   3   5
ATOM      5  C   UNL     1      91.721  33.604  11.613  1.00  0.00     0.015 C 
BRANCH   5   6
ATOM      6  C   UNL     1      92.863  32.653  11.202  1.00  0.00     0.028 C 
BRANCH   6   7
ATOM      7  C   UNL     1      92.442  31.211  11.323  1.00  0.00    -0.028 C 
ATOM      8  C   UNL     1      92.965  30.328  12.206  1.00  0.00    -0.070 CG0
ATOM      9  C   UNL     1      92.468  28.906  12.164  1.00  0.00     0.039 C 
ATOM     10  G   UNL     1      94.020  30.702  13.236  1.00  0.00     0.000 G0
ENDBRANCH   6   7
ENDBRANCH   5   6
ENDBRANCH   3   5
ENDBRANCH   1   3
BRANCH   1  11
ATOM     11  C   UNL     1      91.423  32.496  14.921  1.00  0.00     0.087 C 
BRANCH  11  12
ATOM     12  C   UNL     1      92.965  32.369  15.043  1.00  0.00     0.066 C 
BRANCH  12  13
ATOM     13  C   UNL     1      93.425  30.977  14.618  1.00  0.00     0.140 C 
ATOM     14  O   UNL     1      93.270  30.051  15.401  1.00  0.00    -0.299 OA
BRANCH  13  15
ATOM     15  C   UNL     1      94.022  30.697  13.254  1.00  0.00     0.106 CG0
ATOM     16  G   UNL     1      92.970  30.344  12.212  1.00  0.00     0.000 G0
ENDBRANCH  13  15
ENDBRANCH  12  13
BRANCH  12  17
ATOM     17  C   UNL     1      93.577  32.843  16.405  1.00  0.00    -0.006 C 
ATOM     18  C   UNL     1      92.918  34.130  16.932  1.00  0.00     0.008 C 
ATOM     19  C   UNL     1      95.090  33.094  16.266  1.00  0.00     0.008 C 
ENDBRANCH  12  17
ENDBRANCH  11  12
ENDBRANCH   1  11
TORSDOF 1
ENDMDL
MODEL 6
REMARK VINA RESULT:    -0.491      2.277      4.167
REMARK INTER + INTRA:          -1.290
REMARK INTER:                  -0.805
REMARK INTRA:                  -0.484
REMARK UNBOUND:                -0.540
REMARK SMILES CC1=CCC[C@@H](C)C(=O)C[C@@H](C(C)C)C(=O)C1
REMARK SMILES IDX 8 1 9 2 6 3 7 4 5 5 4 6 3 7 2 8 1 9 10 11 11 12 15 13 16 14
REMARK SMILES IDX 17 15 12 17 13 18 14 19
REMARK H PARENT
REMARK Flexibility Score: 70.00
ROOT
ATOM      1  C   UNL     1      92.754  30.643  14.941  1.00  0.00     0.136 C 
ATOM      2  O   UNL     1      93.886  30.718  14.487  1.00  0.00    -0.299 OA
ENDROOT
BRANCH   1   3
ATOM      3  C   UNL     1      92.507  30.844  16.426  1.00  0.00     0.053 C 
ATOM      4  C   UNL     1      93.417  31.921  17.039  1.00  0.00     0.016 C 
BRANCH   3   5
ATOM      5  C   UNL     1      92.583  29.506  17.189  1.00  0.00     0.015 C 
BRANCH   5   6
ATOM      6  C   UNL     1      91.214  28.973  17.658  1.00  0.00     0.028 C 
BRANCH   6   7
ATOM      7  C   UNL     1      90.827  27.728  16.904  1.00  0.00    -0.028 C 
ATOM      8  C   UNL     1      89.756  27.626  16.083  1.00  0.00    -0.070 CG0
ATOM      9  C   UNL     1      89.477  26.292  15.440  1.00  0.00     0.039 C 
ATOM     10  G   UNL     1      88.826  28.791  15.774  1.00  0.00     0.000 G0
ENDBRANCH   6   7
ENDBRANCH   5   6
ENDBRANCH   3   5
ENDBRANCH   1   3
BRANCH   1  11
ATOM     11  C   UNL     1      91.588  30.380  14.015  1.00  0.00     0.087 C 
BRANCH  11  12
ATOM     12  C   UNL     1      90.195  30.750  14.590  1.00  0.00     0.066 C 
BRANCH  12  13
ATOM     13  C   UNL     1      89.249  29.555  14.517  1.00  0.00     0.140 C 
ATOM     14  O   UNL     1      88.860  29.189  13.417  1.00  0.00    -0.299 OA
BRANCH  13  15
ATOM     15  C   UNL     1      88.814  28.784  15.747  1.00  0.00     0.106 CG0
ATOM     16  G   UNL     1      89.754  27.636  16.086  1.00  0.00     0.000 G0
ENDBRANCH  13  15
ENDBRANCH  12  13
BRANCH  12  17
ATOM     17  C   UNL     1      89.570  32.079  14.044  1.00  0.00    -0.006 C 
ATOM     18  C   UNL     1      90.345  32.645  12.840  1.00  0.00     0.008 C 
ATOM     19  C   UNL     1      89.529  33.155  15.145  1.00  0.00     0.008 C 
ENDBRANCH  12  17
ENDBRANCH  11  12
ENDBRANCH   1  11
TORSDOF 1
ENDMDL
MODEL 7
REMARK VINA RESULT:    -0.476      2.301      4.575
REMARK INTER + INTRA:          -1.267
REMARK INTER:                  -0.753
REMARK INTRA:                  -0.514
REMARK UNBOUND:                -0.540
REMARK SMILES CC1=CCC[C@@H](C)C(=O)C[C@@H](C(C)C)C(=O)C1
REMARK SMILES IDX 8 1 9 2 6 3 7 4 5 5 4 6 3 7 2 8 1 9 10 11 11 12 15 13 16 14
REMARK SMILES IDX 17 15 12 17 13 18 14 19
REMARK H PARENT
REMARK Flexibility Score: 70.00
ROOT
ATOM      1  C   UNL     1      90.025  32.143  13.859  1.00  0.00     0.136 C 
ATOM      2  O   UNL     1      89.191  33.035  13.831  1.00  0.00    -0.299 OA
ENDROOT
BRANCH   1   3
ATOM      3  C   UNL     1      91.104  32.069  12.793  1.00  0.00     0.053 C 
ATOM      4  C   UNL     1      91.883  33.386  12.643  1.00  0.00     0.016 C 
BRANCH   3   5
ATOM      5  C   UNL     1      90.529  31.569  11.453  1.00  0.00     0.015 C 
BRANCH   5   6
ATOM      6  C   UNL     1      90.812  30.081  11.164  1.00  0.00     0.028 C 
BRANCH   6   7
ATOM      7  C   UNL     1      89.606  29.229  11.463  1.00  0.00    -0.028 C 
ATOM      8  C   UNL     1      89.554  28.279  12.427  1.00  0.00    -0.070 CG0
ATOM      9  C   UNL     1      88.286  27.478  12.565  1.00  0.00     0.039 C 
ATOM     10  G   UNL     1      90.708  27.988  13.376  1.00  0.00     0.000 G0
ENDBRANCH   6   7
ENDBRANCH   5   6
ENDBRANCH   3   5
ENDBRANCH   1   3
BRANCH   1  11
ATOM     11  C   UNL     1      90.003  31.127  14.978  1.00  0.00     0.087 C 
BRANCH  11  12
ATOM     12  C   UNL     1      91.155  30.088  14.945  1.00  0.00     0.066 C 
BRANCH  12  13
ATOM     13  C   UNL     1      90.605  28.684  14.708  1.00  0.00     0.140 C 
ATOM     14  O   UNL     1      90.011  28.131  15.623  1.00  0.00    -0.299 OA
BRANCH  13  15
ATOM     15  C   UNL     1      90.729  27.974  13.374  1.00  0.00     0.106 CG0
ATOM     16  G   UNL     1      89.571  28.279  12.435  1.00  0.00     0.000 G0
ENDBRANCH  13  15
ENDBRANCH  12  13
BRANCH  12  17
ATOM     17  C   UNL     1      92.173  30.170  16.133  1.00  0.00    -0.006 C 
ATOM     18  C   UNL     1      91.769  31.218  17.185  1.00  0.00     0.008 C 
ATOM     19  C   UNL     1      93.584  30.515  15.620  1.00  0.00     0.008 C 
ENDBRANCH  12  17
ENDBRANCH  11  12
ENDBRANCH   1  11
TORSDOF 1
ENDMDL
MODEL 8
REMARK VINA RESULT:    -0.434      2.481      4.330
REMARK INTER + INTRA:          -1.202
REMARK INTER:                  -1.035
REMARK INTRA:                  -0.167
REMARK UNBOUND:                -0.540
REMARK SMILES CC1=CCC[C@@H](C)C(=O)C[C@@H](C(C)C)C(=O)C1
REMARK SMILES IDX 8 1 9 2 6 3 7 4 5 5 4 6 3 7 2 8 1 9 10 11 11 12 15 13 16 14
REMARK SMILES IDX 17 15 12 17 13 18 14 19
REMARK H PARENT
REMARK Flexibility Score: 70.00
ROOT
ATOM      1  C   UNL     1      91.673  27.504  11.401  1.00  0.00     0.136 C 
ATOM      2  O   UNL     1      91.380  26.550  10.696  1.00  0.00    -0.299 OA
ENDROOT
BRANCH   1   3
ATOM      3  C   UNL     1      92.072  28.828  10.772  1.00  0.00     0.053 C 
ATOM      4  C   UNL     1      92.223  28.740   9.245  1.00  0.00     0.016 C 
BRANCH   3   5
ATOM      5  C   UNL     1      93.324  29.414  11.455  1.00  0.00     0.015 C 
BRANCH   5   6
ATOM      6  C   UNL     1      93.044  30.658  12.321  1.00  0.00     0.028 C 
BRANCH   6   7
ATOM      7  C   UNL     1      93.721  30.552  13.663  1.00  0.00    -0.028 C 
ATOM      8  C   UNL     1      93.073  30.414  14.843  1.00  0.00    -0.070 CG0
ATOM      9  C   UNL     1      93.897  30.373  16.104  1.00  0.00     0.039 C 
ATOM     10  G   UNL     1      91.560  30.294  14.957  1.00  0.00     0.000 G0
ENDBRANCH   6   7
ENDBRANCH   5   6
ENDBRANCH   3   5
ENDBRANCH   1   3
BRANCH   1  11
ATOM     11  C   UNL     1      91.608  27.376  12.905  1.00  0.00     0.087 C 
BRANCH  11  12
ATOM     12  C   UNL     1      90.524  28.248  13.593  1.00  0.00     0.066 C 
BRANCH  12  13
ATOM     13  C   UNL     1      91.064  28.859  14.883  1.00  0.00     0.140 C 
ATOM     14  O   UNL     1      91.139  28.147  15.875  1.00  0.00    -0.299 OA
BRANCH  13  15
ATOM     15  C   UNL     1      91.549  30.292  14.965  1.00  0.00     0.106 CG0
ATOM     16  G   UNL     1      93.061  30.411  14.835  1.00  0.00     0.000 G0
ENDBRANCH  13  15
ENDBRANCH  12  13
BRANCH  12  17
ATOM     17  C   UNL     1      89.119  27.573  13.759  1.00  0.00    -0.006 C 
ATOM     18  C   UNL     1      89.109  26.107  13.290  1.00  0.00     0.008 C 
ATOM     19  C   UNL     1      88.047  28.344  12.966  1.00  0.00     0.008 C 
ENDBRANCH  12  17
ENDBRANCH  11  12
ENDBRANCH   1  11
TORSDOF 1
ENDMDL
MODEL 9
REMARK VINA RESULT:    -0.373      2.135      4.024
REMARK INTER + INTRA:          -1.109
REMARK INTER:                  -0.883
REMARK INTRA:                  -0.226
REMARK UNBOUND:                -0.540
REMARK SMILES CC1=CCC[C@@H](C)C(=O)C[C@@H](C(C)C)C(=O)C1
REMARK SMILES IDX 8 1 9 2 6 3 7 4 5 5 4 6 3 7 2 8 1 9 10 11 11 12 15 13 16 14
REMARK SMILES IDX 17 15 12 17 13 18 14 19
REMARK H PARENT
REMARK Flexibility Score: 70.00
ROOT
ATOM      1  C   UNL     1      90.089  32.404  12.704  1.00  0.00     0.136 C 
ATOM      2  O   UNL     1      89.610  33.237  11.950  1.00  0.00    -0.299 OA
ENDROOT
BRANCH   1   3
ATOM      3  C   UNL     1      90.363  32.752  14.157  1.00  0.00     0.053 C 
ATOM      4  C   UNL     1      89.077  32.874  14.991  1.00  0.00     0.016 C 
BRANCH   3   5
ATOM      5  C   UNL     1      91.259  34.001  14.271  1.00  0.00     0.015 C 
BRANCH   5   6
ATOM      6  C   UNL     1      92.765  33.710  14.118  1.00  0.00     0.028 C 
BRANCH   6   7
ATOM      7  C   UNL     1      93.204  32.608  15.047  1.00  0.00    -0.028 C 
ATOM      8  C   UNL     1      93.569  31.366  14.651  1.00  0.00    -0.070 CG0
ATOM      9  C   UNL     1      93.936  30.362  15.713  1.00  0.00     0.039 C 
ATOM     10  G   UNL     1      93.631  30.940  13.191  1.00  0.00     0.000 G0
ENDBRANCH   6   7
ENDBRANCH   5   6
ENDBRANCH   3   5
ENDBRANCH   1   3
BRANCH   1  11
ATOM     11  C   UNL     1      90.381  31.010  12.198  1.00  0.00     0.087 C 
BRANCH  11  12
ATOM     12  C   UNL     1      91.095  30.078  13.213  1.00  0.00     0.066 C 
BRANCH  12  13
ATOM     13  C   UNL     1      92.565  29.903  12.840  1.00  0.00     0.140 C 
ATOM     14  O   UNL     1      92.888  28.909  12.205  1.00  0.00    -0.299 OA
BRANCH  13  15
ATOM     15  C   UNL     1      93.622  30.932  13.188  1.00  0.00     0.106 CG0
ATOM     16  G   UNL     1      93.566  31.364  14.646  1.00  0.00     0.000 G0
ENDBRANCH  13  15
ENDBRANCH  12  13
BRANCH  12  17
ATOM     17  C   UNL     1      90.362  28.728  13.521  1.00  0.00    -0.006 C 
ATOM     18  C   UNL     1      89.699  28.117  12.274  1.00  0.00     0.008 C 
ATOM     19  C   UNL     1      89.279  28.930  14.598  1.00  0.00     0.008 C 
ENDBRANCH  12  17
ENDBRANCH  11  12
ENDBRANCH   1  11
TORSDOF 1
ENDMDL
