MODEL 1
REMARK VINA RESULT:    -6.044      0.000      0.000
REMARK INTER + INTRA:         -13.366
REMARK INTER:                 -11.697
REMARK INTRA:                  -1.669
REMARK UNBOUND:                -1.669
REMARK SMILES CCCCCCCCCCCCCCCCCC(=O)[O-]
REMARK SMILES IDX 10 1 11 2 12 3 13 4 14 5 15 6 16 7 17 8 18 9 19 10 20 11
REMARK SMILES IDX 9 12 8 13 7 14 6 15 5 16 4 17 3 18 2 19 1 20
REMARK H PARENT
REMARK Flexibility Score: inf
ROOT
ATOM      1  C   UNL     1       3.141   9.770  17.316  1.00  0.00     0.000 C 
ENDROOT
BRANCH   1   2
ATOM      2  C   UNL     1       3.124  10.864  18.405  1.00  0.00     0.000 C 
BRANCH   2   3
ATOM      3  C   UNL     1       4.352  11.789  18.364  1.00  0.00     0.000 C 
BRANCH   3   4
ATOM      4  C   UNL     1       5.233  11.557  17.125  1.00  0.00     0.000 C 
BRANCH   4   5
ATOM      5  C   UNL     1       5.171  12.736  16.130  1.00  0.00     0.000 C 
BRANCH   5   6
ATOM      6  C   UNL     1       3.764  12.987  15.551  1.00  0.00     0.000 C 
BRANCH   6   7
ATOM      7  C   UNL     1       3.559  12.496  14.106  1.00  0.00     0.006 C 
BRANCH   7   8
ATOM      8  C   UNL     1       2.795  11.167  13.990  1.00  0.00     0.053 C 
BRANCH   8   9
ATOM      9  C   UNL     1       3.719  10.007  13.775  1.00  0.00     0.041 C 
ATOM     10  O   UNL     1       4.951  10.202  13.600  1.00  0.00    -0.550 OA
ATOM     11  O   UNL     1       3.222   8.710  13.796  1.00  0.00    -0.550 OA
ENDBRANCH   8   9
ENDBRANCH   7   8
ENDBRANCH   6   7
ENDBRANCH   5   6
ENDBRANCH   4   5
ENDBRANCH   3   4
ENDBRANCH   2   3
ENDBRANCH   1   2
BRANCH   1  12
ATOM     12  C   UNL     1       2.160   8.629  17.625  1.00  0.00     0.000 C 
BRANCH  12  13
ATOM     13  C   UNL     1       2.771   7.265  17.269  1.00  0.00    -0.000 C 
BRANCH  13  14
ATOM     14  C   UNL     1       1.718   6.236  16.819  1.00  0.00    -0.000 C 
BRANCH  14  15
ATOM     15  C   UNL     1       0.505   6.086  17.761  1.00  0.00    -0.000 C 
BRANCH  15  16
ATOM     16  C   UNL     1       0.425   4.744  18.513  1.00  0.00    -0.000 C 
BRANCH  16  17
ATOM     17  C   UNL     1       1.769   4.007  18.668  1.00  0.00    -0.000 C 
BRANCH  17  18
ATOM     18  C   UNL     1       2.370   4.103  20.088  1.00  0.00    -0.000 C 
BRANCH  18  19
ATOM     19  C   UNL     1       2.947   5.493  20.390  1.00  0.00    -0.003 C 
ATOM     20  C   UNL     1       3.444   5.581  21.829  1.00  0.00     0.004 C 
ENDBRANCH  18  19
ENDBRANCH  17  18
ENDBRANCH  16  17
ENDBRANCH  15  16
ENDBRANCH  14  15
ENDBRANCH  13  14
ENDBRANCH  12  13
ENDBRANCH   1  12
TORSDOF 16
ENDMDL
MODEL 2
REMARK VINA RESULT:    -5.982      1.438      2.140
REMARK INTER + INTRA:         -13.247
REMARK INTER:                 -11.833
REMARK INTRA:                  -1.414
REMARK UNBOUND:                -1.669
REMARK SMILES CCCCCCCCCCCCCCCCCC(=O)[O-]
REMARK SMILES IDX 10 1 11 2 12 3 13 4 14 5 15 6 16 7 17 8 18 9 19 10 20 11
REMARK SMILES IDX 9 12 8 13 7 14 6 15 5 16 4 17 3 18 2 19 1 20
REMARK H PARENT
REMARK Flexibility Score: inf
ROOT
ATOM      1  C   UNL     1       2.848   8.275  16.613  1.00  0.00     0.000 C 
ENDROOT
BRANCH   1   2
ATOM      2  C   UNL     1       3.144   9.788  16.697  1.00  0.00     0.000 C 
BRANCH   2   3
ATOM      3  C   UNL     1       3.029  10.358  18.121  1.00  0.00     0.000 C 
BRANCH   3   4
ATOM      4  C   UNL     1       3.702  11.733  18.269  1.00  0.00     0.000 C 
BRANCH   4   5
ATOM      5  C   UNL     1       5.241  11.648  18.176  1.00  0.00     0.000 C 
BRANCH   5   6
ATOM      6  C   UNL     1       5.795  11.921  16.764  1.00  0.00     0.000 C 
BRANCH   6   7
ATOM      7  C   UNL     1       5.024  12.983  15.958  1.00  0.00     0.006 C 
BRANCH   7   8
ATOM      8  C   UNL     1       4.552  12.509  14.574  1.00  0.00     0.053 C 
BRANCH   8   9
ATOM      9  C   UNL     1       3.064  12.611  14.425  1.00  0.00     0.041 C 
ATOM     10  O   UNL     1       2.441  13.579  14.936  1.00  0.00    -0.550 OA
ATOM     11  O   UNL     1       2.370  11.652  13.698  1.00  0.00    -0.550 OA
ENDBRANCH   8   9
ENDBRANCH   7   8
ENDBRANCH   6   7
ENDBRANCH   5   6
ENDBRANCH   4   5
ENDBRANCH   3   4
ENDBRANCH   2   3
ENDBRANCH   1   2
BRANCH   1  12
ATOM     12  C   UNL     1       2.174   7.745  17.888  1.00  0.00     0.000 C 
BRANCH  12  13
ATOM     13  C   UNL     1       0.659   7.592  17.687  1.00  0.00    -0.000 C 
BRANCH  13  14
ATOM     14  C   UNL     1       0.064   6.420  18.489  1.00  0.00    -0.000 C 
BRANCH  14  15
ATOM     15  C   UNL     1       0.530   5.018  18.043  1.00  0.00    -0.000 C 
BRANCH  15  16
ATOM     16  C   UNL     1       1.133   4.145  19.160  1.00  0.00    -0.000 C 
BRANCH  16  17
ATOM     17  C   UNL     1       2.657   3.932  19.064  1.00  0.00    -0.000 C 
BRANCH  17  18
ATOM     18  C   UNL     1       3.485   5.132  19.574  1.00  0.00    -0.000 C 
BRANCH  18  19
ATOM     19  C   UNL     1       2.832   5.830  20.775  1.00  0.00    -0.003 C 
ATOM     20  C   UNL     1       3.534   5.456  22.076  1.00  0.00     0.004 C 
ENDBRANCH  18  19
ENDBRANCH  17  18
ENDBRANCH  16  17
ENDBRANCH  15  16
ENDBRANCH  14  15
ENDBRANCH  13  14
ENDBRANCH  12  13
ENDBRANCH   1  12
TORSDOF 16
ENDMDL
MODEL 3
REMARK VINA RESULT:    -5.818      0.701      1.209
REMARK INTER + INTRA:         -12.930
REMARK INTER:                 -11.138
REMARK INTRA:                  -1.792
REMARK UNBOUND:                -1.669
REMARK SMILES CCCCCCCCCCCCCCCCCC(=O)[O-]
REMARK SMILES IDX 10 1 11 2 12 3 13 4 14 5 15 6 16 7 17 8 18 9 19 10 20 11
REMARK SMILES IDX 9 12 8 13 7 14 6 15 5 16 4 17 3 18 2 19 1 20
REMARK H PARENT
REMARK Flexibility Score: inf
ROOT
ATOM      1  C   UNL     1       3.305  10.389  18.354  1.00  0.00     0.000 C 
ENDROOT
BRANCH   1   2
ATOM      2  C   UNL     1       4.113  11.698  18.220  1.00  0.00     0.000 C 
BRANCH   2   3
ATOM      3  C   UNL     1       5.203  11.638  17.137  1.00  0.00     0.000 C 
BRANCH   3   4
ATOM      4  C   UNL     1       5.027  12.715  16.053  1.00  0.00     0.000 C 
BRANCH   4   5
ATOM      5  C   UNL     1       3.618  13.347  16.076  1.00  0.00     0.000 C 
BRANCH   5   6
ATOM      6  C   UNL     1       2.744  12.959  14.867  1.00  0.00     0.000 C 
BRANCH   6   7
ATOM      7  C   UNL     1       3.420  12.017  13.852  1.00  0.00     0.006 C 
BRANCH   7   8
ATOM      8  C   UNL     1       2.697  10.675  13.655  1.00  0.00     0.053 C 
BRANCH   8   9
ATOM      9  C   UNL     1       3.662   9.542  13.476  1.00  0.00     0.041 C 
ATOM     10  O   UNL     1       4.903   9.751  13.530  1.00  0.00    -0.550 OA
ATOM     11  O   UNL     1       3.189   8.250  13.278  1.00  0.00    -0.550 OA
ENDBRANCH   8   9
ENDBRANCH   7   8
ENDBRANCH   6   7
ENDBRANCH   5   6
ENDBRANCH   4   5
ENDBRANCH   3   4
ENDBRANCH   2   3
ENDBRANCH   1   2
BRANCH   1  12
ATOM     12  C   UNL     1       3.189   9.640  17.018  1.00  0.00     0.000 C 
BRANCH  12  13
ATOM     13  C   UNL     1       2.594   8.239  17.222  1.00  0.00    -0.000 C 
BRANCH  13  14
ATOM     14  C   UNL     1       1.201   8.270  17.875  1.00  0.00    -0.000 C 
BRANCH  14  15
ATOM     15  C   UNL     1       0.535   6.890  18.067  1.00  0.00    -0.000 C 
BRANCH  15  16
ATOM     16  C   UNL     1       1.361   5.691  17.564  1.00  0.00    -0.000 C 
BRANCH  16  17
ATOM     17  C   UNL     1       1.059   4.355  18.270  1.00  0.00    -0.000 C 
BRANCH  17  18
ATOM     18  C   UNL     1       2.016   4.041  19.442  1.00  0.00    -0.000 C 
BRANCH  18  19
ATOM     19  C   UNL     1       3.137   5.081  19.581  1.00  0.00    -0.003 C 
ATOM     20  C   UNL     1       3.209   5.625  21.004  1.00  0.00     0.004 C 
ENDBRANCH  18  19
ENDBRANCH  17  18
ENDBRANCH  16  17
ENDBRANCH  15  16
ENDBRANCH  14  15
ENDBRANCH  13  14
ENDBRANCH  12  13
ENDBRANCH   1  12
TORSDOF 16
ENDMDL
MODEL 4
REMARK VINA RESULT:    -5.762      2.361      7.555
REMARK INTER + INTRA:         -12.821
REMARK INTER:                 -11.114
REMARK INTRA:                  -1.707
REMARK UNBOUND:                -1.669
REMARK SMILES CCCCCCCCCCCCCCCCCC(=O)[O-]
REMARK SMILES IDX 10 1 11 2 12 3 13 4 14 5 15 6 16 7 17 8 18 9 19 10 20 11
REMARK SMILES IDX 9 12 8 13 7 14 6 15 5 16 4 17 3 18 2 19 1 20
REMARK H PARENT
REMARK Flexibility Score: inf
ROOT
ATOM      1  C   UNL     1       3.119  10.040  17.457  1.00  0.00     0.000 C 
ENDROOT
BRANCH   1   2
ATOM      2  C   UNL     1       2.353   8.731  17.746  1.00  0.00     0.000 C 
BRANCH   2   3
ATOM      3  C   UNL     1       2.797   7.552  16.864  1.00  0.00     0.000 C 
BRANCH   3   4
ATOM      4  C   UNL     1       1.779   6.399  16.853  1.00  0.00     0.000 C 
BRANCH   4   5
ATOM      5  C   UNL     1       0.659   6.594  17.898  1.00  0.00     0.000 C 
BRANCH   5   6
ATOM      6  C   UNL     1       0.262   5.298  18.632  1.00  0.00     0.000 C 
BRANCH   6   7
ATOM      7  C   UNL     1       1.301   4.164  18.557  1.00  0.00     0.006 C 
BRANCH   7   8
ATOM      8  C   UNL     1       2.087   3.938  19.859  1.00  0.00     0.053 C 
BRANCH   8   9
ATOM      9  C   UNL     1       3.072   5.038  20.115  1.00  0.00     0.041 C 
ATOM     10  O   UNL     1       3.890   5.378  19.220  1.00  0.00    -0.550 OA
ATOM     11  O   UNL     1       3.067   5.706  21.334  1.00  0.00    -0.550 OA
ENDBRANCH   8   9
ENDBRANCH   7   8
ENDBRANCH   6   7
ENDBRANCH   5   6
ENDBRANCH   4   5
ENDBRANCH   3   4
ENDBRANCH   2   3
ENDBRANCH   1   2
BRANCH   1  12
ATOM     12  C   UNL     1       3.104  10.997  18.658  1.00  0.00     0.000 C 
BRANCH  12  13
ATOM     13  C   UNL     1       4.330  11.924  18.639  1.00  0.00    -0.000 C 
BRANCH  13  14
ATOM     14  C   UNL     1       5.358  11.533  17.563  1.00  0.00    -0.000 C 
BRANCH  14  15
ATOM     15  C   UNL     1       5.503  12.536  16.399  1.00  0.00    -0.000 C 
BRANCH  15  16
ATOM     16  C   UNL     1       4.175  13.060  15.821  1.00  0.00    -0.000 C 
BRANCH  16  17
ATOM     17  C   UNL     1       3.888  12.635  14.368  1.00  0.00    -0.000 C 
BRANCH  17  18
ATOM     18  C   UNL     1       3.140  11.289  14.251  1.00  0.00    -0.000 C 
BRANCH  18  19
ATOM     19  C   UNL     1       4.093  10.101  14.058  1.00  0.00    -0.003 C 
ATOM     20  C   UNL     1       3.396   8.947  13.344  1.00  0.00     0.004 C 
ENDBRANCH  18  19
ENDBRANCH  17  18
ENDBRANCH  16  17
ENDBRANCH  15  16
ENDBRANCH  14  15
ENDBRANCH  13  14
ENDBRANCH  12  13
ENDBRANCH   1  12
TORSDOF 16
ENDMDL
MODEL 5
REMARK VINA RESULT:    -5.586      2.023      3.196
REMARK INTER + INTRA:         -12.479
REMARK INTER:                 -10.817
REMARK INTRA:                  -1.663
REMARK UNBOUND:                -1.669
REMARK SMILES CCCCCCCCCCCCCCCCCC(=O)[O-]
REMARK SMILES IDX 10 1 11 2 12 3 13 4 14 5 15 6 16 7 17 8 18 9 19 10 20 11
REMARK SMILES IDX 9 12 8 13 7 14 6 15 5 16 4 17 3 18 2 19 1 20
REMARK H PARENT
REMARK Flexibility Score: inf
ROOT
ATOM      1  C   UNL     1       3.046   9.266  16.483  1.00  0.00     0.000 C 
ENDROOT
BRANCH   1   2
ATOM      2  C   UNL     1       3.422   8.962  15.017  1.00  0.00     0.000 C 
BRANCH   2   3
ATOM      3  C   UNL     1       3.881  10.202  14.231  1.00  0.00     0.000 C 
BRANCH   3   4
ATOM      4  C   UNL     1       2.766  11.250  14.067  1.00  0.00     0.000 C 
BRANCH   4   5
ATOM      5  C   UNL     1       3.254  12.681  14.380  1.00  0.00     0.000 C 
BRANCH   5   6
ATOM      6  C   UNL     1       4.713  12.746  14.874  1.00  0.00     0.000 C 
BRANCH   6   7
ATOM      7  C   UNL     1       4.876  12.962  16.390  1.00  0.00     0.006 C 
BRANCH   7   8
ATOM      8  C   UNL     1       5.581  11.809  17.122  1.00  0.00     0.053 C 
BRANCH   8   9
ATOM      9  C   UNL     1       5.157  11.716  18.557  1.00  0.00     0.041 C 
ATOM     10  O   UNL     1       3.937  11.777  18.863  1.00  0.00    -0.550 OA
ATOM     11  O   UNL     1       6.109  11.533  19.553  1.00  0.00    -0.550 OA
ENDBRANCH   8   9
ENDBRANCH   7   8
ENDBRANCH   6   7
ENDBRANCH   5   6
ENDBRANCH   4   5
ENDBRANCH   3   4
ENDBRANCH   2   3
ENDBRANCH   1   2
BRANCH   1  12
ATOM     12  C   UNL     1       2.628   8.001  17.248  1.00  0.00     0.000 C 
BRANCH  12  13
ATOM     13  C   UNL     1       1.279   8.205  17.954  1.00  0.00    -0.000 C 
BRANCH  13  14
ATOM     14  C   UNL     1       0.402   6.940  17.947  1.00  0.00    -0.000 C 
BRANCH  14  15
ATOM     15  C   UNL     1       1.113   5.652  17.482  1.00  0.00    -0.000 C 
BRANCH  15  16
ATOM     16  C   UNL     1       0.755   4.384  18.279  1.00  0.00    -0.000 C 
BRANCH  16  17
ATOM     17  C   UNL     1       1.788   3.978  19.349  1.00  0.00    -0.000 C 
BRANCH  17  18
ATOM     18  C   UNL     1       3.025   4.901  19.399  1.00  0.00    -0.000 C 
BRANCH  18  19
ATOM     19  C   UNL     1       2.925   5.959  20.507  1.00  0.00    -0.003 C 
ATOM     20  C   UNL     1       3.481   5.430  21.825  1.00  0.00     0.004 C 
ENDBRANCH  18  19
ENDBRANCH  17  18
ENDBRANCH  16  17
ENDBRANCH  15  16
ENDBRANCH  14  15
ENDBRANCH  13  14
ENDBRANCH  12  13
ENDBRANCH   1  12
TORSDOF 16
ENDMDL
MODEL 6
REMARK VINA RESULT:    -5.488      1.581      2.940
REMARK INTER + INTRA:         -12.290
REMARK INTER:                 -10.828
REMARK INTRA:                  -1.462
REMARK UNBOUND:                -1.669
REMARK SMILES CCCCCCCCCCCCCCCCCC(=O)[O-]
REMARK SMILES IDX 10 1 11 2 12 3 13 4 14 5 15 6 16 7 17 8 18 9 19 10 20 11
REMARK SMILES IDX 9 12 8 13 7 14 6 15 5 16 4 17 3 18 2 19 1 20
REMARK H PARENT
REMARK Flexibility Score: inf
ROOT
ATOM      1  C   UNL     1       0.925   8.276  17.695  1.00  0.00     0.000 C 
ENDROOT
BRANCH   1   2
ATOM      2  C   UNL     1       2.388   8.035  17.265  1.00  0.00     0.000 C 
BRANCH   2   3
ATOM      3  C   UNL     1       3.182   9.332  17.034  1.00  0.00     0.000 C 
BRANCH   3   4
ATOM      4  C   UNL     1       2.850  10.425  18.065  1.00  0.00     0.000 C 
BRANCH   4   5
ATOM      5  C   UNL     1       3.977  11.473  18.193  1.00  0.00     0.000 C 
BRANCH   5   6
ATOM      6  C   UNL     1       5.014  11.413  17.054  1.00  0.00     0.000 C 
BRANCH   6   7
ATOM      7  C   UNL     1       4.923  12.560  16.030  1.00  0.00     0.006 C 
BRANCH   7   8
ATOM      8  C   UNL     1       4.386  12.139  14.652  1.00  0.00     0.053 C 
BRANCH   8   9
ATOM      9  C   UNL     1       2.951  12.529  14.468  1.00  0.00     0.041 C 
ATOM     10  O   UNL     1       2.198  11.844  13.727  1.00  0.00    -0.550 OA
ATOM     11  O   UNL     1       2.440  13.634  15.137  1.00  0.00    -0.550 OA
ENDBRANCH   8   9
ENDBRANCH   7   8
ENDBRANCH   6   7
ENDBRANCH   5   6
ENDBRANCH   4   5
ENDBRANCH   3   4
ENDBRANCH   2   3
ENDBRANCH   1   2
BRANCH   1  12
ATOM     12  C   UNL     1       0.285   7.019  18.304  1.00  0.00     0.000 C 
BRANCH  12  13
ATOM     13  C   UNL     1       0.833   5.746  17.641  1.00  0.00    -0.000 C 
BRANCH  13  14
ATOM     14  C   UNL     1       0.983   4.575  18.628  1.00  0.00    -0.000 C 
BRANCH  14  15
ATOM     15  C   UNL     1       2.436   4.139  18.913  1.00  0.00    -0.000 C 
BRANCH  15  16
ATOM     16  C   UNL     1       3.329   5.222  19.548  1.00  0.00    -0.000 C 
BRANCH  16  17
ATOM     17  C   UNL     1       2.749   5.877  20.817  1.00  0.00    -0.000 C 
BRANCH  17  18
ATOM     18  C   UNL     1       3.487   5.480  22.114  1.00  0.00    -0.000 C 
BRANCH  18  19
ATOM     19  C   UNL     1       3.411   6.571  23.192  1.00  0.00    -0.003 C 
ATOM     20  C   UNL     1       3.388   5.962  24.590  1.00  0.00     0.004 C 
ENDBRANCH  18  19
ENDBRANCH  17  18
ENDBRANCH  16  17
ENDBRANCH  15  16
ENDBRANCH  14  15
ENDBRANCH  13  14
ENDBRANCH  12  13
ENDBRANCH   1  12
TORSDOF 16
ENDMDL
MODEL 7
REMARK VINA RESULT:    -5.471      2.041      3.206
REMARK INTER + INTRA:         -12.258
REMARK INTER:                 -11.000
REMARK INTRA:                  -1.258
REMARK UNBOUND:                -1.669
REMARK SMILES CCCCCCCCCCCCCCCCCC(=O)[O-]
REMARK SMILES IDX 10 1 11 2 12 3 13 4 14 5 15 6 16 7 17 8 18 9 19 10 20 11
REMARK SMILES IDX 9 12 8 13 7 14 6 15 5 16 4 17 3 18 2 19 1 20
REMARK H PARENT
REMARK Flexibility Score: inf
ROOT
ATOM      1  C   UNL     1       3.127   9.049  15.720  1.00  0.00     0.000 C 
ENDROOT
BRANCH   1   2
ATOM      2  C   UNL     1       4.238  10.044  15.320  1.00  0.00     0.000 C 
BRANCH   2   3
ATOM      3  C   UNL     1       3.728  11.228  14.481  1.00  0.00     0.000 C 
BRANCH   3   4
ATOM      4  C   UNL     1       4.180  12.590  15.037  1.00  0.00     0.000 C 
BRANCH   4   5
ATOM      5  C   UNL     1       3.025  13.364  15.708  1.00  0.00     0.000 C 
BRANCH   5   6
ATOM      6  C   UNL     1       3.064  13.325  17.248  1.00  0.00     0.000 C 
BRANCH   6   7
ATOM      7  C   UNL     1       3.422  11.956  17.855  1.00  0.00     0.006 C 
BRANCH   7   8
ATOM      8  C   UNL     1       4.240  12.033  19.154  1.00  0.00     0.053 C 
BRANCH   8   9
ATOM      9  C   UNL     1       5.697  11.781  18.912  1.00  0.00     0.041 C 
ATOM     10  O   UNL     1       6.444  11.418  19.859  1.00  0.00    -0.550 OA
ATOM     11  O   UNL     1       6.225  11.923  17.634  1.00  0.00    -0.550 OA
ENDBRANCH   8   9
ENDBRANCH   7   8
ENDBRANCH   6   7
ENDBRANCH   5   6
ENDBRANCH   4   5
ENDBRANCH   3   4
ENDBRANCH   2   3
ENDBRANCH   1   2
BRANCH   1  12
ATOM     12  C   UNL     1       3.168   8.706  17.217  1.00  0.00     0.000 C 
BRANCH  12  13
ATOM     13  C   UNL     1       1.791   8.240  17.713  1.00  0.00    -0.000 C 
BRANCH  13  14
ATOM     14  C   UNL     1       1.457   6.799  17.285  1.00  0.00    -0.000 C 
BRANCH  14  15
ATOM     15  C   UNL     1       0.163   6.218  17.892  1.00  0.00    -0.000 C 
BRANCH  15  16
ATOM     16  C   UNL     1       0.292   4.793  18.463  1.00  0.00    -0.000 C 
BRANCH  16  17
ATOM     17  C   UNL     1       1.677   4.144  18.276  1.00  0.00    -0.000 C 
BRANCH  17  18
ATOM     18  C   UNL     1       2.470   3.982  19.592  1.00  0.00    -0.000 C 
BRANCH  18  19
ATOM     19  C   UNL     1       3.389   5.178  19.876  1.00  0.00    -0.003 C 
ATOM     20  C   UNL     1       2.985   5.889  21.164  1.00  0.00     0.004 C 
ENDBRANCH  18  19
ENDBRANCH  17  18
ENDBRANCH  16  17
ENDBRANCH  15  16
ENDBRANCH  14  15
ENDBRANCH  13  14
ENDBRANCH  12  13
ENDBRANCH   1  12
TORSDOF 16
ENDMDL
MODEL 8
REMARK VINA RESULT:    -5.389      2.426      7.273
REMARK INTER + INTRA:         -12.098
REMARK INTER:                 -10.471
REMARK INTRA:                  -1.627
REMARK UNBOUND:                -1.669
REMARK SMILES CCCCCCCCCCCCCCCCCC(=O)[O-]
REMARK SMILES IDX 10 1 11 2 12 3 13 4 14 5 15 6 16 7 17 8 18 9 19 10 20 11
REMARK SMILES IDX 9 12 8 13 7 14 6 15 5 16 4 17 3 18 2 19 1 20
REMARK H PARENT
REMARK Flexibility Score: inf
ROOT
ATOM      1  C   UNL     1       3.507   9.150  16.094  1.00  0.00     0.000 C 
ENDROOT
BRANCH   1   2
ATOM      2  C   UNL     1       2.759   8.060  16.892  1.00  0.00     0.000 C 
BRANCH   2   3
ATOM      3  C   UNL     1       1.533   8.591  17.655  1.00  0.00     0.000 C 
BRANCH   3   4
ATOM      4  C   UNL     1       0.678   7.467  18.264  1.00  0.00     0.000 C 
BRANCH   4   5
ATOM      5  C   UNL     1       0.691   6.186  17.403  1.00  0.00     0.000 C 
BRANCH   5   6
ATOM      6  C   UNL     1       0.343   4.906  18.189  1.00  0.00     0.000 C 
BRANCH   6   7
ATOM      7  C   UNL     1       1.528   3.953  18.435  1.00  0.00     0.006 C 
BRANCH   7   8
ATOM      8  C   UNL     1       2.089   3.995  19.865  1.00  0.00     0.053 C 
BRANCH   8   9
ATOM      9  C   UNL     1       3.052   5.127  20.055  1.00  0.00     0.041 C 
ATOM     10  O   UNL     1       3.801   5.488  19.108  1.00  0.00    -0.550 OA
ATOM     11  O   UNL     1       3.103   5.802  21.269  1.00  0.00    -0.550 OA
ENDBRANCH   8   9
ENDBRANCH   7   8
ENDBRANCH   6   7
ENDBRANCH   5   6
ENDBRANCH   4   5
ENDBRANCH   3   4
ENDBRANCH   2   3
ENDBRANCH   1   2
BRANCH   1  12
ATOM     12  C   UNL     1       3.464   8.892  14.580  1.00  0.00     0.000 C 
BRANCH  12  13
ATOM     13  C   UNL     1       3.818  10.163  13.794  1.00  0.00    -0.000 C 
BRANCH  13  14
ATOM     14  C   UNL     1       2.742  11.257  13.909  1.00  0.00    -0.000 C 
BRANCH  14  15
ATOM     15  C   UNL     1       3.256  12.638  14.370  1.00  0.00    -0.000 C 
BRANCH  15  16
ATOM     16  C   UNL     1       4.683  12.643  14.949  1.00  0.00    -0.000 C 
BRANCH  16  17
ATOM     17  C   UNL     1       4.782  12.230  16.430  1.00  0.00    -0.000 C 
BRANCH  17  18
ATOM     18  C   UNL     1       3.486  12.479  17.233  1.00  0.00    -0.000 C 
BRANCH  18  19
ATOM     19  C   UNL     1       3.527  11.842  18.629  1.00  0.00    -0.003 C 
ATOM     20  C   UNL     1       4.952  11.795  19.170  1.00  0.00     0.004 C 
ENDBRANCH  18  19
ENDBRANCH  17  18
ENDBRANCH  16  17
ENDBRANCH  15  16
ENDBRANCH  14  15
ENDBRANCH  13  14
ENDBRANCH  12  13
ENDBRANCH   1  12
TORSDOF 16
ENDMDL
MODEL 9
REMARK VINA RESULT:    -5.283      2.578      7.161
REMARK INTER + INTRA:         -11.893
REMARK INTER:                 -10.482
REMARK INTRA:                  -1.412
REMARK UNBOUND:                -1.669
REMARK SMILES CCCCCCCCCCCCCCCCCC(=O)[O-]
REMARK SMILES IDX 10 1 11 2 12 3 13 4 14 5 15 6 16 7 17 8 18 9 19 10 20 11
REMARK SMILES IDX 9 12 8 13 7 14 6 15 5 16 4 17 3 18 2 19 1 20
REMARK H PARENT
REMARK Flexibility Score: inf
ROOT
ATOM      1  C   UNL     1       4.281   9.683  15.451  1.00  0.00     0.000 C 
ENDROOT
BRANCH   1   2
ATOM      2  C   UNL     1       2.860   9.343  15.950  1.00  0.00     0.000 C 
BRANCH   2   3
ATOM      3  C   UNL     1       2.844   8.597  17.295  1.00  0.00     0.000 C 
BRANCH   3   4
ATOM      4  C   UNL     1       2.324   7.154  17.170  1.00  0.00     0.000 C 
BRANCH   4   5
ATOM      5  C   UNL     1       1.062   6.908  18.025  1.00  0.00     0.000 C 
BRANCH   5   6
ATOM      6  C   UNL     1       0.488   5.484  17.888  1.00  0.00     0.000 C 
BRANCH   6   7
ATOM      7  C   UNL     1       1.447   4.353  18.305  1.00  0.00     0.006 C 
BRANCH   7   8
ATOM      8  C   UNL     1       1.740   4.295  19.812  1.00  0.00     0.053 C 
BRANCH   8   9
ATOM      9  C   UNL     1       2.962   5.083  20.175  1.00  0.00     0.041 C 
ATOM     10  O   UNL     1       3.079   5.577  21.328  1.00  0.00    -0.550 OA
ATOM     11  O   UNL     1       3.983   5.249  19.248  1.00  0.00    -0.550 OA
ENDBRANCH   8   9
ENDBRANCH   7   8
ENDBRANCH   6   7
ENDBRANCH   5   6
ENDBRANCH   4   5
ENDBRANCH   3   4
ENDBRANCH   2   3
ENDBRANCH   1   2
BRANCH   1  12
ATOM     12  C   UNL     1       4.259  10.618  14.232  1.00  0.00     0.000 C 
BRANCH  12  13
ATOM     13  C   UNL     1       2.911  11.347  14.121  1.00  0.00    -0.000 C 
BRANCH  13  14
ATOM     14  C   UNL     1       3.000  12.833  14.509  1.00  0.00    -0.000 C 
BRANCH  14  15
ATOM     15  C   UNL     1       3.924  13.145  15.706  1.00  0.00    -0.000 C 
BRANCH  15  16
ATOM     16  C   UNL     1       3.203  13.351  17.051  1.00  0.00    -0.000 C 
BRANCH  16  17
ATOM     17  C   UNL     1       3.200  12.121  17.980  1.00  0.00    -0.000 C 
BRANCH  17  18
ATOM     18  C   UNL     1       4.303  12.156  19.060  1.00  0.00    -0.000 C 
BRANCH  18  19
ATOM     19  C   UNL     1       5.629  11.559  18.567  1.00  0.00    -0.003 C 
ATOM     20  C   UNL     1       6.631  11.427  19.709  1.00  0.00     0.004 C 
ENDBRANCH  18  19
ENDBRANCH  17  18
ENDBRANCH  16  17
ENDBRANCH  15  16
ENDBRANCH  14  15
ENDBRANCH  13  14
ENDBRANCH  12  13
ENDBRANCH   1  12
TORSDOF 16
ENDMDL
