MODEL 1
REMARK VINA RESULT:    -3.817      0.000      0.000
REMARK INTER + INTRA:          -5.195
REMARK INTER:                  -4.933
REMARK INTRA:                  -0.262
REMARK UNBOUND:                -0.262
REMARK SMILES CCCCCCC(=O)[O-]
REMARK SMILES IDX 5 1 6 2 7 3 8 4 9 5 4 6 3 7 2 8 1 9
REMARK H PARENT
REMARK Flexibility Score: inf
ROOT
ATOM      1  C   UNL     1      36.468 119.845  13.356  1.00  0.00     0.006 C 
ENDROOT
BRANCH   1   2
ATOM      2  C   UNL     1      35.770 118.554  13.796  1.00  0.00     0.053 C 
BRANCH   2   3
ATOM      3  C   UNL     1      36.657 117.372  13.562  1.00  0.00     0.041 C 
ATOM      4  O   UNL     1      37.179 117.185  12.432  1.00  0.00    -0.550 OA
ATOM      5  O   UNL     1      36.868 116.449  14.579  1.00  0.00    -0.550 OA
ENDBRANCH   2   3
ENDBRANCH   1   2
BRANCH   1   6
ATOM      6  C   UNL     1      37.372 120.388  14.471  1.00  0.00     0.000 C 
BRANCH   6   7
ATOM      7  C   UNL     1      37.031 121.835  14.858  1.00  0.00    -0.000 C 
BRANCH   7   8
ATOM      8  C   UNL     1      36.645 121.976  16.338  1.00  0.00    -0.003 C 
ATOM      9  C   UNL     1      36.406 120.611  16.976  1.00  0.00     0.004 C 
ENDBRANCH   7   8
ENDBRANCH   6   7
ENDBRANCH   1   6
TORSDOF 5
ENDMDL
MODEL 2
REMARK VINA RESULT:    -3.681      6.803      8.471
REMARK INTER + INTRA:          -5.019
REMARK INTER:                  -4.854
REMARK INTRA:                  -0.165
REMARK UNBOUND:                -0.262
REMARK SMILES CCCCCCC(=O)[O-]
REMARK SMILES IDX 5 1 6 2 7 3 8 4 9 5 4 6 3 7 2 8 1 9
REMARK H PARENT
REMARK Flexibility Score: inf
ROOT
ATOM      1  C   UNL     1      42.470 117.185  10.442  1.00  0.00     0.006 C 
ENDROOT
BRANCH   1   2
ATOM      2  C   UNL     1      41.141 117.860  10.793  1.00  0.00     0.053 C 
BRANCH   2   3
ATOM      3  C   UNL     1      40.484 117.160  11.940  1.00  0.00     0.041 C 
ATOM      4  O   UNL     1      39.281 117.397  12.222  1.00  0.00    -0.550 OA
ATOM      5  O   UNL     1      41.216 116.282  12.729  1.00  0.00    -0.550 OA
ENDBRANCH   2   3
ENDBRANCH   1   2
BRANCH   1   6
ATOM      6  C   UNL     1      42.687 117.156   8.921  1.00  0.00     0.000 C 
BRANCH   6   7
ATOM      7  C   UNL     1      43.651 116.044   8.481  1.00  0.00    -0.000 C 
BRANCH   7   8
ATOM      8  C   UNL     1      43.730 114.895   9.496  1.00  0.00    -0.003 C 
ATOM      9  C   UNL     1      44.902 113.968   9.185  1.00  0.00     0.004 C 
ENDBRANCH   7   8
ENDBRANCH   6   7
ENDBRANCH   1   6
TORSDOF 5
ENDMDL
MODEL 3
REMARK VINA RESULT:    -3.670      9.333     11.271
REMARK INTER + INTRA:          -5.005
REMARK INTER:                  -4.861
REMARK INTRA:                  -0.144
REMARK UNBOUND:                -0.262
REMARK SMILES CCCCCCC(=O)[O-]
REMARK SMILES IDX 5 1 6 2 7 3 8 4 9 5 4 6 3 7 2 8 1 9
REMARK H PARENT
REMARK Flexibility Score: inf
ROOT
ATOM      1  C   UNL     1      43.745 114.988   9.433  1.00  0.00     0.006 C 
ENDROOT
BRANCH   1   2
ATOM      2  C   UNL     1      43.821 116.501   9.666  1.00  0.00     0.053 C 
BRANCH   2   3
ATOM      3  C   UNL     1      42.575 117.169   9.177  1.00  0.00     0.041 C 
ATOM      4  O   UNL     1      42.213 117.038   7.979  1.00  0.00    -0.550 OA
ATOM      5  O   UNL     1      41.840 117.980  10.033  1.00  0.00    -0.550 OA
ENDBRANCH   2   3
ENDBRANCH   1   2
BRANCH   1   6
ATOM      6  C   UNL     1      44.849 114.525   8.472  1.00  0.00     0.000 C 
BRANCH   6   7
ATOM      7  C   UNL     1      45.566 113.257   8.960  1.00  0.00    -0.000 C 
BRANCH   7   8
ATOM      8  C   UNL     1      46.263 112.496   7.822  1.00  0.00    -0.003 C 
ATOM      9  C   UNL     1      45.278 112.153   6.707  1.00  0.00     0.004 C 
ENDBRANCH   7   8
ENDBRANCH   6   7
ENDBRANCH   1   6
TORSDOF 5
ENDMDL
MODEL 4
REMARK VINA RESULT:    -3.627      8.457      9.541
REMARK INTER + INTRA:          -4.950
REMARK INTER:                  -4.791
REMARK INTRA:                  -0.158
REMARK UNBOUND:                -0.262
REMARK SMILES CCCCCCC(=O)[O-]
REMARK SMILES IDX 5 1 6 2 7 3 8 4 9 5 4 6 3 7 2 8 1 9
REMARK H PARENT
REMARK Flexibility Score: inf
ROOT
ATOM      1  C   UNL     1      44.621 116.036   8.688  1.00  0.00     0.006 C 
ENDROOT
BRANCH   1   2
ATOM      2  C   UNL     1      44.564 114.519   8.475  1.00  0.00     0.053 C 
BRANCH   2   3
ATOM      3  C   UNL     1      45.324 113.811   9.551  1.00  0.00     0.041 C 
ATOM      4  O   UNL     1      45.931 112.738   9.297  1.00  0.00    -0.550 OA
ATOM      5  O   UNL     1      45.321 114.309  10.848  1.00  0.00    -0.550 OA
ENDBRANCH   2   3
ENDBRANCH   1   2
BRANCH   1   6
ATOM      6  C   UNL     1      43.208 116.628   8.797  1.00  0.00     0.000 C 
BRANCH   6   7
ATOM      7  C   UNL     1      42.820 116.973  10.243  1.00  0.00    -0.000 C 
BRANCH   7   8
ATOM      8  C   UNL     1      41.595 117.895  10.322  1.00  0.00    -0.003 C 
ATOM      9  C   UNL     1      40.671 117.484  11.464  1.00  0.00     0.004 C 
ENDBRANCH   7   8
ENDBRANCH   6   7
ENDBRANCH   1   6
TORSDOF 5
ENDMDL
MODEL 5
REMARK VINA RESULT:    -3.604      5.962      7.607
REMARK INTER + INTRA:          -4.920
REMARK INTER:                  -4.784
REMARK INTRA:                  -0.135
REMARK UNBOUND:                -0.262
REMARK SMILES CCCCCCC(=O)[O-]
REMARK SMILES IDX 5 1 6 2 7 3 8 4 9 5 4 6 3 7 2 8 1 9
REMARK H PARENT
REMARK Flexibility Score: inf
ROOT
ATOM      1  C   UNL     1      41.069 117.728  10.837  1.00  0.00     0.006 C 
ENDROOT
BRANCH   1   2
ATOM      2  C   UNL     1      40.613 117.186  12.195  1.00  0.00     0.053 C 
BRANCH   2   3
ATOM      3  C   UNL     1      39.455 117.978  12.713  1.00  0.00     0.041 C 
ATOM      4  O   UNL     1      38.328 117.434  12.853  1.00  0.00    -0.550 OA
ATOM      5  O   UNL     1      39.606 119.330  12.993  1.00  0.00    -0.550 OA
ENDBRANCH   2   3
ENDBRANCH   1   2
BRANCH   1   6
ATOM      6  C   UNL     1      42.449 117.169  10.458  1.00  0.00     0.000 C 
BRANCH   6   7
ATOM      7  C   UNL     1      42.691 117.167   8.941  1.00  0.00    -0.000 C 
BRANCH   7   8
ATOM      8  C   UNL     1      43.832 116.227   8.525  1.00  0.00    -0.003 C 
ATOM      9  C   UNL     1      43.807 114.938   9.342  1.00  0.00     0.004 C 
ENDBRANCH   7   8
ENDBRANCH   6   7
ENDBRANCH   1   6
TORSDOF 5
ENDMDL
MODEL 6
REMARK VINA RESULT:    -3.594      8.170      9.305
REMARK INTER + INTRA:          -4.906
REMARK INTER:                  -4.742
REMARK INTRA:                  -0.164
REMARK UNBOUND:                -0.262
REMARK SMILES CCCCCCC(=O)[O-]
REMARK SMILES IDX 5 1 6 2 7 3 8 4 9 5 4 6 3 7 2 8 1 9
REMARK H PARENT
REMARK Flexibility Score: inf
ROOT
ATOM      1  C   UNL     1      44.125 115.694   8.676  1.00  0.00     0.006 C 
ENDROOT
BRANCH   1   2
ATOM      2  C   UNL     1      43.825 114.529   9.625  1.00  0.00     0.053 C 
BRANCH   2   3
ATOM      3  C   UNL     1      45.090 113.842  10.028  1.00  0.00     0.041 C 
ATOM      4  O   UNL     1      45.436 113.808  11.238  1.00  0.00    -0.550 OA
ATOM      5  O   UNL     1      45.914 113.280   9.061  1.00  0.00    -0.550 OA
ENDBRANCH   2   3
ENDBRANCH   1   2
BRANCH   1   6
ATOM      6  C   UNL     1      43.088 116.815   8.836  1.00  0.00     0.000 C 
BRANCH   6   7
ATOM      7  C   UNL     1      42.727 117.083  10.305  1.00  0.00    -0.000 C 
BRANCH   7   8
ATOM      8  C   UNL     1      41.406 117.852  10.458  1.00  0.00    -0.003 C 
ATOM      9  C   UNL     1      40.628 117.369  11.679  1.00  0.00     0.004 C 
ENDBRANCH   7   8
ENDBRANCH   6   7
ENDBRANCH   1   6
TORSDOF 5
ENDMDL
MODEL 7
REMARK VINA RESULT:    -3.567     17.146     17.918
REMARK INTER + INTRA:          -4.872
REMARK INTER:                  -4.496
REMARK INTRA:                  -0.376
REMARK UNBOUND:                -0.262
REMARK SMILES CCCCCCC(=O)[O-]
REMARK SMILES IDX 5 1 6 2 7 3 8 4 9 5 4 6 3 7 2 8 1 9
REMARK H PARENT
REMARK Flexibility Score: inf
ROOT
ATOM      1  C   UNL     1      42.605 123.479  -1.139  1.00  0.00     0.006 C 
ENDROOT
BRANCH   1   2
ATOM      2  C   UNL     1      41.642 124.297  -2.006  1.00  0.00     0.053 C 
BRANCH   2   3
ATOM      3  C   UNL     1      41.050 125.420  -1.216  1.00  0.00     0.041 C 
ATOM      4  O   UNL     1      40.658 125.228  -0.036  1.00  0.00    -0.550 OA
ATOM      5  O   UNL     1      40.885 126.670  -1.801  1.00  0.00    -0.550 OA
ENDBRANCH   2   3
ENDBRANCH   1   2
BRANCH   1   6
ATOM      6  C   UNL     1      44.039 124.015  -1.255  1.00  0.00     0.000 C 
BRANCH   6   7
ATOM      7  C   UNL     1      44.545 124.644   0.052  1.00  0.00    -0.000 C 
BRANCH   7   8
ATOM      8  C   UNL     1      45.268 125.980  -0.176  1.00  0.00    -0.003 C 
ATOM      9  C   UNL     1      44.545 126.825  -1.221  1.00  0.00     0.004 C 
ENDBRANCH   7   8
ENDBRANCH   6   7
ENDBRANCH   1   6
TORSDOF 5
ENDMDL
MODEL 8
REMARK VINA RESULT:    -3.548      8.244      9.915
REMARK INTER + INTRA:          -4.848
REMARK INTER:                  -4.508
REMARK INTRA:                  -0.340
REMARK UNBOUND:                -0.262
REMARK SMILES CCCCCCC(=O)[O-]
REMARK SMILES IDX 5 1 6 2 7 3 8 4 9 5 4 6 3 7 2 8 1 9
REMARK H PARENT
REMARK Flexibility Score: inf
ROOT
ATOM      1  C   UNL     1      44.401 116.013   8.903  1.00  0.00     0.006 C 
ENDROOT
BRANCH   1   2
ATOM      2  C   UNL     1      43.042 116.715   8.816  1.00  0.00     0.053 C 
BRANCH   2   3
ATOM      3  C   UNL     1      42.611 117.191  10.167  1.00  0.00     0.041 C 
ATOM      4  O   UNL     1      43.310 116.936  11.182  1.00  0.00    -0.550 OA
ATOM      5  O   UNL     1      41.409 117.873  10.312  1.00  0.00    -0.550 OA
ENDBRANCH   2   3
ENDBRANCH   1   2
BRANCH   1   6
ATOM      6  C   UNL     1      44.240 114.490   8.786  1.00  0.00     0.000 C 
BRANCH   6   7
ATOM      7  C   UNL     1      45.324 113.719   9.555  1.00  0.00    -0.000 C 
BRANCH   7   8
ATOM      8  C   UNL     1      45.197 113.880  11.077  1.00  0.00    -0.003 C 
ATOM      9  C   UNL     1      43.821 113.437  11.564  1.00  0.00     0.004 C 
ENDBRANCH   7   8
ENDBRANCH   6   7
ENDBRANCH   1   6
TORSDOF 5
ENDMDL
MODEL 9
REMARK VINA RESULT:    -3.514      2.602      3.620
REMARK INTER + INTRA:          -4.803
REMARK INTER:                  -4.529
REMARK INTRA:                  -0.275
REMARK UNBOUND:                -0.262
REMARK SMILES CCCCCCC(=O)[O-]
REMARK SMILES IDX 5 1 6 2 7 3 8 4 9 5 4 6 3 7 2 8 1 9
REMARK H PARENT
REMARK Flexibility Score: inf
ROOT
ATOM      1  C   UNL     1      39.132 118.952  13.675  1.00  0.00     0.006 C 
ENDROOT
BRANCH   1   2
ATOM      2  C   UNL     1      38.994 117.605  12.958  1.00  0.00     0.053 C 
BRANCH   2   3
ATOM      3  C   UNL     1      40.273 117.243  12.272  1.00  0.00     0.041 C 
ATOM      4  O   UNL     1      41.031 116.367  12.765  1.00  0.00    -0.550 OA
ATOM      5  O   UNL     1      40.652 117.909  11.113  1.00  0.00    -0.550 OA
ENDBRANCH   2   3
ENDBRANCH   1   2
BRANCH   1   6
ATOM      6  C   UNL     1      38.075 119.949  13.177  1.00  0.00     0.000 C 
BRANCH   6   7
ATOM      7  C   UNL     1      37.005 120.256  14.234  1.00  0.00    -0.000 C 
BRANCH   7   8
ATOM      8  C   UNL     1      35.849 119.245  14.217  1.00  0.00    -0.003 C 
ATOM      9  C   UNL     1      35.379 118.973  12.791  1.00  0.00     0.004 C 
ENDBRANCH   7   8
ENDBRANCH   6   7
ENDBRANCH   1   6
TORSDOF 5
ENDMDL
