MODEL 1
REMARK VINA RESULT:    -5.065      0.000      0.000
REMARK INTER + INTRA:          -7.871
REMARK INTER:                  -7.730
REMARK INTRA:                  -0.142
REMARK UNBOUND:                -0.142
REMARK SMILES CC1=CCC[C@H](C)C(=O)C[C@@H](C(C)C)C(=O)C1
REMARK SMILES IDX 8 1 9 2 6 3 7 4 5 5 4 6 3 7 2 8 1 9 10 11 11 12 15 13 16 14
REMARK SMILES IDX 17 15 12 17 13 18 14 19
REMARK H PARENT
REMARK Flexibility Score: 70.00
ROOT
ATOM      1  C   UNL     1      -8.885  33.048  25.645  1.00  0.00     0.136 C 
ATOM      2  O   UNL     1      -8.535  32.726  26.773  1.00  0.00    -0.299 OA
ENDROOT
BRANCH   1   3
ATOM      3  C   UNL     1      -8.654  34.470  25.170  1.00  0.00     0.053 C 
ATOM      4  C   UNL     1      -8.265  35.372  26.348  1.00  0.00     0.016 C 
BRANCH   3   5
ATOM      5  C   UNL     1      -7.569  34.503  24.068  1.00  0.00     0.015 C 
BRANCH   5   6
ATOM      6  C   UNL     1      -8.144  34.974  22.718  1.00  0.00     0.028 C 
BRANCH   6   7
ATOM      7  C   UNL     1      -7.638  34.177  21.542  1.00  0.00    -0.028 C 
ATOM      8  C   UNL     1      -8.139  32.990  21.119  1.00  0.00    -0.070 CG0
ATOM      9  C   UNL     1      -7.563  32.397  19.857  1.00  0.00     0.039 C 
ATOM     10  G   UNL     1      -9.206  32.207  21.873  1.00  0.00     0.000 G0
ENDBRANCH   6   7
ENDBRANCH   5   6
ENDBRANCH   3   5
ENDBRANCH   1   3
BRANCH   1  11
ATOM     11  C   UNL     1      -9.548  32.014  24.761  1.00  0.00     0.087 C 
BRANCH  11  12
ATOM     12  C   UNL     1      -8.518  31.049  24.120  1.00  0.00     0.066 C 
BRANCH  12  13
ATOM     13  C   UNL     1      -8.695  30.980  22.610  1.00  0.00     0.140 C 
ATOM     14  O   UNL     1      -8.395  29.969  21.993  1.00  0.00    -0.299 OA
BRANCH  13  15
ATOM     15  C   UNL     1      -9.217  32.183  21.862  1.00  0.00     0.106 CG0
ATOM     16  G   UNL     1      -8.139  32.982  21.140  1.00  0.00     0.000 G0
ENDBRANCH  13  15
ENDBRANCH  12  13
BRANCH  12  17
ATOM     17  C   UNL     1      -8.488  29.656  24.824  1.00  0.00    -0.006 C 
ATOM     18  C   UNL     1      -9.904  29.141  25.123  1.00  0.00     0.008 C 
ATOM     19  C   UNL     1      -7.616  29.597  26.092  1.00  0.00     0.008 C 
ENDBRANCH  12  17
ENDBRANCH  11  12
ENDBRANCH   1  11
TORSDOF 1
ENDMDL
MODEL 2
REMARK VINA RESULT:    -4.796      1.954      4.830
REMARK INTER + INTRA:          -7.462
REMARK INTER:                  -7.307
REMARK INTRA:                  -0.154
REMARK UNBOUND:                -0.142
REMARK SMILES CC1=CCC[C@H](C)C(=O)C[C@@H](C(C)C)C(=O)C1
REMARK SMILES IDX 8 1 9 2 6 3 7 4 5 5 4 6 3 7 2 8 1 9 10 11 11 12 15 13 16 14
REMARK SMILES IDX 17 15 12 17 13 18 14 19
REMARK H PARENT
REMARK Flexibility Score: 70.00
ROOT
ATOM      1  C   UNL     1      -8.489  33.711  22.185  1.00  0.00     0.136 C 
ATOM      2  O   UNL     1      -7.630  34.581  22.128  1.00  0.00    -0.299 OA
ENDROOT
BRANCH   1   3
ATOM      3  C   UNL     1      -8.686  32.781  21.003  1.00  0.00     0.053 C 
ATOM      4  C   UNL     1      -7.368  32.594  20.242  1.00  0.00     0.016 C 
BRANCH   3   5
ATOM      5  C   UNL     1      -9.250  31.419  21.473  1.00  0.00     0.015 C 
BRANCH   5   6
ATOM      6  C   UNL     1      -8.183  30.586  22.208  1.00  0.00     0.028 C 
BRANCH   6   7
ATOM      7  C   UNL     1      -8.758  29.671  23.260  1.00  0.00    -0.028 C 
ATOM      8  C   UNL     1      -8.734  29.894  24.598  1.00  0.00    -0.070 CG0
ATOM      9  C   UNL     1      -9.457  28.909  25.483  1.00  0.00     0.039 C 
ATOM     10  G   UNL     1      -7.980  31.045  25.249  1.00  0.00     0.000 G0
ENDBRANCH   6   7
ENDBRANCH   5   6
ENDBRANCH   3   5
ENDBRANCH   1   3
BRANCH   1  11
ATOM     11  C   UNL     1      -9.334  33.596  23.435  1.00  0.00     0.087 C 
BRANCH  11  12
ATOM     12  C   UNL     1      -8.470  33.540  24.720  1.00  0.00     0.066 C 
BRANCH  12  13
ATOM     13  C   UNL     1      -8.764  32.283  25.526  1.00  0.00     0.140 C 
ATOM     14  O   UNL     1      -9.624  32.287  26.394  1.00  0.00    -0.299 OA
BRANCH  13  15
ATOM     15  C   UNL     1      -7.964  31.028  25.274  1.00  0.00     0.106 CG0
ATOM     16  G   UNL     1      -8.754  29.913  24.601  1.00  0.00     0.000 G0
ENDBRANCH  13  15
ENDBRANCH  12  13
BRANCH  12  17
ATOM     17  C   UNL     1      -8.545  34.862  25.547  1.00  0.00    -0.006 C 
ATOM     18  C   UNL     1      -9.367  35.939  24.822  1.00  0.00     0.008 C 
ATOM     19  C   UNL     1      -7.179  35.428  25.977  1.00  0.00     0.008 C 
ENDBRANCH  12  17
ENDBRANCH  11  12
ENDBRANCH   1  11
TORSDOF 1
ENDMDL
MODEL 3
REMARK VINA RESULT:    -4.514      2.378      4.236
REMARK INTER + INTRA:          -7.030
REMARK INTER:                  -7.404
REMARK INTRA:                   0.374
REMARK UNBOUND:                -0.142
REMARK SMILES CC1=CCC[C@H](C)C(=O)C[C@@H](C(C)C)C(=O)C1
REMARK SMILES IDX 8 1 9 2 6 3 7 4 5 5 4 6 3 7 2 8 1 9 10 11 11 12 15 13 16 14
REMARK SMILES IDX 17 15 12 17 13 18 14 19
REMARK H PARENT
REMARK Flexibility Score: 70.00
ROOT
ATOM      1  C   UNL     1      -9.510  32.522  23.053  1.00  0.00     0.136 C 
ATOM      2  O   UNL     1     -10.009  32.542  21.936  1.00  0.00    -0.299 OA
ENDROOT
BRANCH   1   3
ATOM      3  C   UNL     1      -8.326  33.421  23.355  1.00  0.00     0.053 C 
ATOM      4  C   UNL     1      -7.888  34.175  22.092  1.00  0.00     0.016 C 
BRANCH   3   5
ATOM      5  C   UNL     1      -8.672  34.408  24.495  1.00  0.00     0.015 C 
BRANCH   5   6
ATOM      6  C   UNL     1      -7.862  34.109  25.771  1.00  0.00     0.028 C 
BRANCH   6   7
ATOM      7  C   UNL     1      -8.653  33.367  26.820  1.00  0.00    -0.028 C 
ATOM      8  C   UNL     1      -8.604  32.030  27.045  1.00  0.00    -0.070 CG0
ATOM      9  C   UNL     1      -9.393  31.489  28.212  1.00  0.00     0.039 C 
ATOM     10  G   UNL     1      -7.843  31.051  26.161  1.00  0.00     0.000 G0
ENDBRANCH   6   7
ENDBRANCH   5   6
ENDBRANCH   3   5
ENDBRANCH   1   3
BRANCH   1  11
ATOM     11  C   UNL     1     -10.088  31.593  24.098  1.00  0.00     0.087 C 
BRANCH  11  12
ATOM     12  C   UNL     1      -9.341  30.236  24.148  1.00  0.00     0.066 C 
BRANCH  12  13
ATOM     13  C   UNL     1      -8.729  29.997  25.521  1.00  0.00     0.140 C 
ATOM     14  O   UNL     1      -8.957  28.964  26.133  1.00  0.00    -0.299 OA
BRANCH  13  15
ATOM     15  C   UNL     1      -7.857  31.059  26.147  1.00  0.00     0.106 CG0
ATOM     16  G   UNL     1      -8.607  32.018  27.062  1.00  0.00     0.000 G0
ENDBRANCH  13  15
ENDBRANCH  12  13
BRANCH  12  17
ATOM     17  C   UNL     1      -8.341  30.062  22.962  1.00  0.00    -0.006 C 
ATOM     18  C   UNL     1      -8.884  29.094  21.899  1.00  0.00     0.008 C 
ATOM     19  C   UNL     1      -6.916  29.655  23.380  1.00  0.00     0.008 C 
ENDBRANCH  12  17
ENDBRANCH  11  12
ENDBRANCH   1  11
TORSDOF 1
ENDMDL
MODEL 4
REMARK VINA RESULT:    -4.164      2.086      4.281
REMARK INTER + INTRA:          -6.497
REMARK INTER:                  -7.030
REMARK INTRA:                   0.533
REMARK UNBOUND:                -0.142
REMARK SMILES CC1=CCC[C@H](C)C(=O)C[C@@H](C(C)C)C(=O)C1
REMARK SMILES IDX 8 1 9 2 6 3 7 4 5 5 4 6 3 7 2 8 1 9 10 11 11 12 15 13 16 14
REMARK SMILES IDX 17 15 12 17 13 18 14 19
REMARK H PARENT
REMARK Flexibility Score: 70.00
ROOT
ATOM      1  C   UNL     1      -7.999  34.349  23.672  1.00  0.00     0.136 C 
ATOM      2  O   UNL     1      -8.636  34.958  22.823  1.00  0.00    -0.299 OA
ENDROOT
BRANCH   1   3
ATOM      3  C   UNL     1      -7.794  34.974  25.040  1.00  0.00     0.053 C 
ATOM      4  C   UNL     1      -8.808  36.101  25.272  1.00  0.00     0.016 C 
BRANCH   3   5
ATOM      5  C   UNL     1      -7.899  33.899  26.147  1.00  0.00     0.015 C 
BRANCH   5   6
ATOM      6  C   UNL     1      -9.239  33.142  26.079  1.00  0.00     0.028 C 
BRANCH   6   7
ATOM      7  C   UNL     1      -9.192  31.784  26.734  1.00  0.00    -0.028 C 
ATOM      8  C   UNL     1      -8.471  30.722  26.297  1.00  0.00    -0.070 CG0
ATOM      9  C   UNL     1      -8.473  29.477  27.151  1.00  0.00     0.039 C 
ATOM     10  G   UNL     1      -7.709  30.702  24.979  1.00  0.00     0.000 G0
ENDBRANCH   6   7
ENDBRANCH   5   6
ENDBRANCH   3   5
ENDBRANCH   1   3
BRANCH   1  11
ATOM     11  C   UNL     1      -7.428  32.991  23.327  1.00  0.00     0.087 C 
BRANCH  11  12
ATOM     12  C   UNL     1      -8.523  32.003  22.851  1.00  0.00     0.066 C 
BRANCH  12  13
ATOM     13  C   UNL     1      -8.590  30.780  23.755  1.00  0.00     0.140 C 
ATOM     14  O   UNL     1      -9.368  29.869  23.515  1.00  0.00    -0.299 OA
BRANCH  13  15
ATOM     15  C   UNL     1      -7.711  30.706  24.981  1.00  0.00     0.106 CG0
ATOM     16  G   UNL     1      -8.479  30.693  26.296  1.00  0.00     0.000 G0
ENDBRANCH  13  15
ENDBRANCH  12  13
BRANCH  12  17
ATOM     17  C   UNL     1      -8.403  31.667  21.331  1.00  0.00    -0.006 C 
ATOM     18  C   UNL     1      -7.582  32.726  20.579  1.00  0.00     0.008 C 
ATOM     19  C   UNL     1      -9.748  31.427  20.620  1.00  0.00     0.008 C 
ENDBRANCH  12  17
ENDBRANCH  11  12
ENDBRANCH   1  11
TORSDOF 1
ENDMDL
MODEL 5
REMARK VINA RESULT:    -4.027      1.933      3.909
REMARK INTER + INTRA:          -6.288
REMARK INTER:                  -6.677
REMARK INTRA:                   0.389
REMARK UNBOUND:                -0.142
REMARK SMILES CC1=CCC[C@H](C)C(=O)C[C@@H](C(C)C)C(=O)C1
REMARK SMILES IDX 8 1 9 2 6 3 7 4 5 5 4 6 3 7 2 8 1 9 10 11 11 12 15 13 16 14
REMARK SMILES IDX 17 15 12 17 13 18 14 19
REMARK H PARENT
REMARK Flexibility Score: 70.00
ROOT
ATOM      1  C   UNL     1      -8.352  29.997  24.520  1.00  0.00     0.136 C 
ATOM      2  O   UNL     1      -9.243  29.158  24.515  1.00  0.00    -0.299 OA
ENDROOT
BRANCH   1   3
ATOM      3  C   UNL     1      -7.635  30.332  23.225  1.00  0.00     0.053 C 
ATOM      4  C   UNL     1      -6.476  29.355  22.987  1.00  0.00     0.016 C 
BRANCH   3   5
ATOM      5  C   UNL     1      -8.626  30.314  22.037  1.00  0.00     0.015 C 
BRANCH   5   6
ATOM      6  C   UNL     1      -9.294  31.687  21.834  1.00  0.00     0.028 C 
BRANCH   6   7
ATOM      7  C   UNL     1      -8.368  32.847  22.098  1.00  0.00    -0.028 C 
ATOM      8  C   UNL     1      -8.343  33.596  23.228  1.00  0.00    -0.070 CG0
ATOM      9  C   UNL     1      -7.271  34.651  23.345  1.00  0.00     0.039 C 
ATOM     10  G   UNL     1      -9.364  33.464  24.352  1.00  0.00     0.000 G0
ENDBRANCH   6   7
ENDBRANCH   5   6
ENDBRANCH   3   5
ENDBRANCH   1   3
BRANCH   1  11
ATOM     11  C   UNL     1      -7.988  30.672  25.825  1.00  0.00     0.087 C 
BRANCH  11  12
ATOM     12  C   UNL     1      -9.065  31.691  26.274  1.00  0.00     0.066 C 
BRANCH  12  13
ATOM     13  C   UNL     1      -8.781  33.076  25.709  1.00  0.00     0.140 C 
ATOM     14  O   UNL     1      -8.106  33.878  26.337  1.00  0.00    -0.299 OA
BRANCH  13  15
ATOM     15  C   UNL     1      -9.364  33.474  24.375  1.00  0.00     0.106 CG0
ATOM     16  G   UNL     1      -8.336  33.591  23.257  1.00  0.00     0.000 G0
ENDBRANCH  13  15
ENDBRANCH  12  13
BRANCH  12  17
ATOM     17  C   UNL     1      -9.302  31.667  27.817  1.00  0.00    -0.006 C 
ATOM     18  C   UNL     1      -7.997  31.898  28.595  1.00  0.00     0.008 C 
ATOM     19  C   UNL     1     -10.021  30.408  28.336  1.00  0.00     0.008 C 
ENDBRANCH  12  17
ENDBRANCH  11  12
ENDBRANCH   1  11
TORSDOF 1
ENDMDL
MODEL 6
REMARK VINA RESULT:    -3.907     17.937     19.384
REMARK INTER + INTRA:          -6.104
REMARK INTER:                  -6.145
REMARK INTRA:                   0.041
REMARK UNBOUND:                -0.142
REMARK SMILES CC1=CCC[C@H](C)C(=O)C[C@@H](C(C)C)C(=O)C1
REMARK SMILES IDX 8 1 9 2 6 3 7 4 5 5 4 6 3 7 2 8 1 9 10 11 11 12 15 13 16 14
REMARK SMILES IDX 17 15 12 17 13 18 14 19
REMARK H PARENT
REMARK Flexibility Score: 70.00
ROOT
ATOM      1  C   UNL     1      -0.874  48.033  17.477  1.00  0.00     0.136 C 
ATOM      2  O   UNL     1      -1.745  47.483  16.817  1.00  0.00    -0.299 OA
ENDROOT
BRANCH   1   3
ATOM      3  C   UNL     1      -1.127  48.331  18.943  1.00  0.00     0.053 C 
ATOM      4  C   UNL     1      -2.632  48.308  19.242  1.00  0.00     0.016 C 
BRANCH   3   5
ATOM      5  C   UNL     1      -0.371  47.323  19.840  1.00  0.00     0.015 C 
BRANCH   5   6
ATOM      6  C   UNL     1       0.463  48.038  20.921  1.00  0.00     0.028 C 
BRANCH   6   7
ATOM      7  C   UNL     1       1.884  47.540  21.006  1.00  0.00    -0.028 C 
ATOM      8  C   UNL     1       2.849  47.745  20.076  1.00  0.00    -0.070 CG0
ATOM      9  C   UNL     1       4.241  47.254  20.393  1.00  0.00     0.039 C 
ATOM     10  G   UNL     1       2.594  48.393  18.722  1.00  0.00     0.000 G0
ENDBRANCH   6   7
ENDBRANCH   5   6
ENDBRANCH   3   5
ENDBRANCH   1   3
BRANCH   1  11
ATOM     11  C   UNL     1       0.430  48.407  16.806  1.00  0.00     0.087 C 
BRANCH  11  12
ATOM     12  C   UNL     1       1.408  47.208  16.725  1.00  0.00     0.066 C 
BRANCH  12  13
ATOM     13  C   UNL     1       2.675  47.478  17.525  1.00  0.00     0.140 C 
ATOM     14  O   UNL     1       3.724  46.921  17.237  1.00  0.00    -0.299 OA
BRANCH  13  15
ATOM     15  C   UNL     1       2.630  48.418  18.705  1.00  0.00     0.106 CG0
ATOM     16  G   UNL     1       2.850  47.738  20.050  1.00  0.00     0.000 G0
ENDBRANCH  13  15
ENDBRANCH  12  13
BRANCH  12  17
ATOM     17  C   UNL     1       1.666  46.746  15.256  1.00  0.00    -0.006 C 
ATOM     18  C   UNL     1       1.453  47.893  14.256  1.00  0.00     0.008 C 
ATOM     19  C   UNL     1       0.866  45.503  14.825  1.00  0.00     0.008 C 
ENDBRANCH  12  17
ENDBRANCH  11  12
ENDBRANCH   1  11
TORSDOF 1
ENDMDL
MODEL 7
REMARK VINA RESULT:    -3.814      2.239      5.390
REMARK INTER + INTRA:          -5.963
REMARK INTER:                  -7.316
REMARK INTRA:                   1.353
REMARK UNBOUND:                -0.142
REMARK SMILES CC1=CCC[C@H](C)C(=O)C[C@@H](C(C)C)C(=O)C1
REMARK SMILES IDX 8 1 9 2 6 3 7 4 5 5 4 6 3 7 2 8 1 9 10 11 11 12 15 13 16 14
REMARK SMILES IDX 17 15 12 17 13 18 14 19
REMARK H PARENT
REMARK Flexibility Score: 70.00
ROOT
ATOM      1  C   UNL     1      -9.154  31.860  22.547  1.00  0.00     0.136 C 
ATOM      2  O   UNL     1      -9.557  32.252  21.460  1.00  0.00    -0.299 OA
ENDROOT
BRANCH   1   3
ATOM      3  C   UNL     1      -8.257  30.638  22.612  1.00  0.00     0.053 C 
ATOM      4  C   UNL     1      -7.028  30.922  23.486  1.00  0.00     0.016 C 
BRANCH   3   5
ATOM      5  C   UNL     1      -9.042  29.416  23.144  1.00  0.00     0.015 C 
BRANCH   5   6
ATOM      6  C   UNL     1      -9.972  29.802  24.310  1.00  0.00     0.028 C 
BRANCH   6   7
ATOM      7  C   UNL     1      -9.374  29.528  25.668  1.00  0.00    -0.028 C 
ATOM      8  C   UNL     1      -9.296  30.416  26.690  1.00  0.00    -0.070 CG0
ATOM      9  C   UNL     1      -8.756  29.919  28.008  1.00  0.00     0.039 C 
ATOM     10  G   UNL     1      -9.674  31.886  26.562  1.00  0.00     0.000 G0
ENDBRANCH   6   7
ENDBRANCH   5   6
ENDBRANCH   3   5
ENDBRANCH   1   3
BRANCH   1  11
ATOM     11  C   UNL     1      -9.572  32.604  23.796  1.00  0.00     0.087 C 
BRANCH  11  12
ATOM     12  C   UNL     1      -8.353  33.076  24.628  1.00  0.00     0.066 C 
BRANCH  12  13
ATOM     13  C   UNL     1      -8.561  32.802  26.111  1.00  0.00     0.140 C 
ATOM     14  O   UNL     1      -7.813  33.289  26.946  1.00  0.00    -0.299 OA
BRANCH  13  15
ATOM     15  C   UNL     1      -9.683  31.894  26.554  1.00  0.00     0.106 CG0
ATOM     16  G   UNL     1      -9.278  30.433  26.700  1.00  0.00     0.000 G0
ENDBRANCH  13  15
ENDBRANCH  12  13
BRANCH  12  17
ATOM     17  C   UNL     1      -7.940  34.546  24.302  1.00  0.00    -0.006 C 
ATOM     18  C   UNL     1      -9.032  35.546  24.712  1.00  0.00     0.008 C 
ATOM     19  C   UNL     1      -7.515  34.783  22.841  1.00  0.00     0.008 C 
ENDBRANCH  12  17
ENDBRANCH  11  12
ENDBRANCH   1  11
TORSDOF 1
ENDMDL
MODEL 8
REMARK VINA RESULT:    -3.795     17.553     19.088
REMARK INTER + INTRA:          -5.934
REMARK INTER:                  -5.919
REMARK INTRA:                  -0.014
REMARK UNBOUND:                -0.142
REMARK SMILES CC1=CCC[C@H](C)C(=O)C[C@@H](C(C)C)C(=O)C1
REMARK SMILES IDX 8 1 9 2 6 3 7 4 5 5 4 6 3 7 2 8 1 9 10 11 11 12 15 13 16 14
REMARK SMILES IDX 17 15 12 17 13 18 14 19
REMARK H PARENT
REMARK Flexibility Score: 70.00
ROOT
ATOM      1  C   UNL     1      -1.471  47.817  17.831  1.00  0.00     0.136 C 
ATOM      2  O   UNL     1      -2.579  47.298  17.860  1.00  0.00    -0.299 OA
ENDROOT
BRANCH   1   3
ATOM      3  C   UNL     1      -0.753  48.113  19.134  1.00  0.00     0.053 C 
ATOM      4  C   UNL     1      -1.615  47.686  20.330  1.00  0.00     0.016 C 
BRANCH   3   5
ATOM      5  C   UNL     1       0.624  47.408  19.167  1.00  0.00     0.015 C 
BRANCH   5   6
ATOM      6  C   UNL     1       1.753  48.346  18.699  1.00  0.00     0.028 C 
BRANCH   6   7
ATOM      7  C   UNL     1       2.869  47.627  17.982  1.00  0.00    -0.028 C 
ATOM      8  C   UNL     1       2.956  47.442  16.642  1.00  0.00    -0.070 CG0
ATOM      9  C   UNL     1       4.204  46.787  16.106  1.00  0.00     0.039 C 
ATOM     10  G   UNL     1       1.847  47.812  15.664  1.00  0.00     0.000 G0
ENDBRANCH   6   7
ENDBRANCH   5   6
ENDBRANCH   3   5
ENDBRANCH   1   3
BRANCH   1  11
ATOM     11  C   UNL     1      -0.854  48.154  16.491  1.00  0.00     0.087 C 
BRANCH  11  12
ATOM     12  C   UNL     1      -0.610  46.891  15.627  1.00  0.00     0.066 C 
BRANCH  12  13
ATOM     13  C   UNL     1       0.876  46.673  15.380  1.00  0.00     0.140 C 
ATOM     14  O   UNL     1       1.290  45.593  14.987  1.00  0.00    -0.299 OA
BRANCH  13  15
ATOM     15  C   UNL     1       1.852  47.792  15.653  1.00  0.00     0.106 CG0
ATOM     16  G   UNL     1       2.950  47.430  16.645  1.00  0.00     0.000 G0
ENDBRANCH  13  15
ENDBRANCH  12  13
BRANCH  12  17
ATOM     17  C   UNL     1      -1.482  46.877  14.332  1.00  0.00    -0.006 C 
ATOM     18  C   UNL     1      -1.711  48.295  13.786  1.00  0.00     0.008 C 
ATOM     19  C   UNL     1      -2.823  46.132  14.470  1.00  0.00     0.008 C 
ENDBRANCH  12  17
ENDBRANCH  11  12
ENDBRANCH   1  11
TORSDOF 1
ENDMDL
MODEL 9
REMARK VINA RESULT:    -3.608      1.758      2.461
REMARK INTER + INTRA:          -5.648
REMARK INTER:                  -6.057
REMARK INTRA:                   0.409
REMARK UNBOUND:                -0.142
REMARK SMILES CC1=CCC[C@H](C)C(=O)C[C@@H](C(C)C)C(=O)C1
REMARK SMILES IDX 8 1 9 2 6 3 7 4 5 5 4 6 3 7 2 8 1 9 10 11 11 12 15 13 16 14
REMARK SMILES IDX 17 15 12 17 13 18 14 19
REMARK H PARENT
REMARK Flexibility Score: 70.00
ROOT
ATOM      1  C   UNL     1      -8.411  31.712  26.969  1.00  0.00     0.136 C 
ATOM      2  O   UNL     1      -7.842  30.854  27.631  1.00  0.00    -0.299 OA
ENDROOT
BRANCH   1   3
ATOM      3  C   UNL     1      -8.472  33.135  27.489  1.00  0.00     0.053 C 
ATOM      4  C   UNL     1      -7.948  33.202  28.930  1.00  0.00     0.016 C 
BRANCH   3   5
ATOM      5  C   UNL     1      -7.673  34.085  26.566  1.00  0.00     0.015 C 
BRANCH   5   6
ATOM      6  C   UNL     1      -8.605  35.017  25.768  1.00  0.00     0.028 C 
BRANCH   6   7
ATOM      7  C   UNL     1      -8.144  35.251  24.350  1.00  0.00    -0.028 C 
ATOM      8  C   UNL     1      -8.386  34.433  23.297  1.00  0.00    -0.070 CG0
ATOM      9  C   UNL     1      -7.929  34.893  21.935  1.00  0.00     0.039 C 
ATOM     10  G   UNL     1      -9.042  33.064  23.423  1.00  0.00     0.000 G0
ENDBRANCH   6   7
ENDBRANCH   5   6
ENDBRANCH   3   5
ENDBRANCH   1   3
BRANCH   1  11
ATOM     11  C   UNL     1      -9.042  31.322  25.650  1.00  0.00     0.087 C 
BRANCH  11  12
ATOM     12  C   UNL     1      -7.980  30.964  24.579  1.00  0.00     0.066 C 
BRANCH  12  13
ATOM     13  C   UNL     1      -8.061  31.909  23.388  1.00  0.00     0.140 C 
ATOM     14  O   UNL     1      -7.319  31.765  22.428  1.00  0.00    -0.299 OA
BRANCH  13  15
ATOM     15  C   UNL     1      -9.044  33.055  23.408  1.00  0.00     0.106 CG0
ATOM     16  G   UNL     1      -8.397  34.429  23.298  1.00  0.00     0.000 G0
ENDBRANCH  13  15
ENDBRANCH  12  13
BRANCH  12  17
ATOM     17  C   UNL     1      -8.006  29.450  24.196  1.00  0.00    -0.006 C 
ATOM     18  C   UNL     1      -6.770  29.052  23.375  1.00  0.00     0.008 C 
ATOM     19  C   UNL     1      -9.293  28.990  23.488  1.00  0.00     0.008 C 
ENDBRANCH  12  17
ENDBRANCH  11  12
ENDBRANCH   1  11
TORSDOF 1
ENDMDL
