MODEL 1
REMARK VINA RESULT:    13.532      0.000      0.000
REMARK INTER + INTRA:          21.021
REMARK INTER:                  19.069
REMARK INTRA:                   1.951
REMARK UNBOUND:                 1.951
REMARK SMILES COc1ccc(-c2cc(=O)c3c(OC)c(OC)c(OC)c(OC)c3o2)cc1OC
REMARK SMILES IDX 7 1 8 2 9 3 10 4 11 5 24 6 25 7 21 8 18 9 15 10 12 11 6 12
REMARK SMILES IDX 3 13 27 14 4 15 26 16 5 17 2 18 1 19 28 20 29 21 22 22 23 23
REMARK SMILES IDX 13 24 14 25 19 26 20 27 16 28 17 29
REMARK H PARENT
REMARK Flexibility Score: inf
ROOT
ATOM      1  C   UNL     1      11.832  22.527   1.292  1.00  0.00     0.138 A 
ATOM      2  C   UNL     1      12.233  23.864   1.235  1.00  0.00     0.100 A 
ATOM      3  C   UNL     1      12.341  24.489  -0.003  1.00  0.00     0.197 A 
ATOM      4  O   UNL     1      12.710  25.693  -0.036  1.00  0.00    -0.289 OA
ATOM      5  C   UNL     1      12.041  23.768  -1.185  1.00  0.00     0.115 A 
ATOM      6  C   UNL     1      11.612  22.428  -1.047  1.00  0.00     0.188 A 
ATOM      7  O   UNL     1      11.529  21.888   0.166  1.00  0.00    -0.452 OA
ATOM      8  C   UNL     1      11.296  21.654  -2.188  1.00  0.00     0.209 A 
ATOM      9  C   UNL     1      11.443  22.223  -3.480  1.00  0.00     0.211 A 
ATOM     10  C   UNL     1      11.859  23.573  -3.616  1.00  0.00     0.208 A 
ATOM     11  C   UNL     1      12.185  24.333  -2.471  1.00  0.00     0.179 A 
ENDROOT
BRANCH   1  12
ATOM     12  C   UNL     1      11.741  21.797   2.579  1.00  0.00     0.021 A 
ATOM     13  C   UNL     1      11.472  20.495   5.067  1.00  0.00     0.160 A 
ATOM     14  C   UNL     1      12.096  21.749   4.998  1.00  0.00     0.161 A 
ATOM     15  C   UNL     1      10.991  19.893   3.889  1.00  0.00     0.051 A 
ATOM     16  C   UNL     1      12.226  22.395   3.754  1.00  0.00     0.062 A 
ATOM     17  C   UNL     1      11.123  20.539   2.659  1.00  0.00     0.016 A 
BRANCH  13  18
ATOM     18  O   UNL     1      11.342  19.882   6.322  1.00  0.00    -0.493 OA
ATOM     19  C   UNL     1      10.159  19.910   7.116  1.00  0.00     0.278 C 
ENDBRANCH  13  18
BRANCH  14  20
ATOM     20  O   UNL     1      12.566  22.327   6.188  1.00  0.00    -0.493 OA
ATOM     21  C   UNL     1      13.617  21.790   6.985  1.00  0.00     0.278 C 
ENDBRANCH  14  20
ENDBRANCH   1  12
BRANCH   8  22
ATOM     22  O   UNL     1      10.847  20.322  -2.088  1.00  0.00    -0.490 OA
ATOM     23  C   UNL     1       9.507  19.876  -1.918  1.00  0.00     0.278 C 
ENDBRANCH   8  22
BRANCH  11  24
ATOM     24  O   UNL     1      12.640  25.662  -2.576  1.00  0.00    -0.492 OA
ATOM     25  C   UNL     1      13.908  26.144  -2.128  1.00  0.00     0.278 C 
ENDBRANCH  11  24
BRANCH   9  26
ATOM     26  O   UNL     1      11.203  21.489  -4.661  1.00  0.00    -0.490 OA
ATOM     27  C   UNL     1      11.892  20.329  -5.124  1.00  0.00     0.279 C 
ENDBRANCH   9  26
BRANCH  10  28
ATOM     28  O   UNL     1      11.940  24.221  -4.865  1.00  0.00    -0.490 OA
ATOM     29  C   UNL     1      12.137  25.610  -5.115  1.00  0.00     0.278 C 
ENDBRANCH  10  28
TORSDOF 7
ENDMDL
MODEL 2
REMARK VINA RESULT:    16.372      1.242      3.535
REMARK INTER + INTRA:          25.023
REMARK INTER:                  24.145
REMARK INTRA:                   0.878
REMARK UNBOUND:                 1.951
REMARK SMILES COc1ccc(-c2cc(=O)c3c(OC)c(OC)c(OC)c(OC)c3o2)cc1OC
REMARK SMILES IDX 7 1 8 2 9 3 10 4 11 5 24 6 25 7 21 8 18 9 15 10 12 11 6 12
REMARK SMILES IDX 3 13 27 14 4 15 26 16 5 17 2 18 1 19 28 20 29 21 22 22 23 23
REMARK SMILES IDX 13 24 14 25 19 26 20 27 16 28 17 29
REMARK H PARENT
REMARK Flexibility Score: inf
ROOT
ATOM      1  C   UNL     1      11.887  21.384   1.534  1.00  0.00     0.138 A 
ATOM      2  C   UNL     1      11.185  20.481   0.731  1.00  0.00     0.100 A 
ATOM      3  C   UNL     1      11.083  20.725  -0.636  1.00  0.00     0.197 A 
ATOM      4  O   UNL     1      10.442  19.903  -1.344  1.00  0.00    -0.289 OA
ATOM      5  C   UNL     1      11.689  21.877  -1.194  1.00  0.00     0.115 A 
ATOM      6  C   UNL     1      12.408  22.729  -0.324  1.00  0.00     0.188 A 
ATOM      7  O   UNL     1      12.470  22.440   0.974  1.00  0.00    -0.452 OA
ATOM      8  C   UNL     1      13.037  23.895  -0.818  1.00  0.00     0.209 A 
ATOM      9  C   UNL     1      12.917  24.223  -2.194  1.00  0.00     0.211 A 
ATOM     10  C   UNL     1      12.208  23.359  -3.068  1.00  0.00     0.208 A 
ATOM     11  C   UNL     1      11.572  22.205  -2.562  1.00  0.00     0.179 A 
ENDROOT
BRANCH   1  12
ATOM     12  C   UNL     1      11.992  21.199   3.000  1.00  0.00     0.021 A 
ATOM     13  C   UNL     1      12.086  20.930   5.807  1.00  0.00     0.160 A 
ATOM     14  C   UNL     1      12.518  22.121   5.203  1.00  0.00     0.161 A 
ATOM     15  C   UNL     1      11.616  19.875   5.003  1.00  0.00     0.051 A 
ATOM     16  C   UNL     1      12.467  22.250   3.802  1.00  0.00     0.062 A 
ATOM     17  C   UNL     1      11.568  20.010   3.615  1.00  0.00     0.016 A 
BRANCH  13  18
ATOM     18  O   UNL     1      12.134  20.836   7.206  1.00  0.00    -0.493 OA
ATOM     19  C   UNL     1      13.307  21.039   7.989  1.00  0.00     0.278 C 
ENDBRANCH  13  18
BRANCH  14  20
ATOM     20  O   UNL     1      12.982  23.158   6.029  1.00  0.00    -0.493 OA
ATOM     21  C   UNL     1      14.063  24.025   5.703  1.00  0.00     0.278 C 
ENDBRANCH  14  20
ENDBRANCH   1  12
BRANCH   8  22
ATOM     22  O   UNL     1      13.777  24.757   0.015  1.00  0.00    -0.490 OA
ATOM     23  C   UNL     1      14.999  24.468   0.684  1.00  0.00     0.278 C 
ENDBRANCH   8  22
BRANCH  11  24
ATOM     24  O   UNL     1      10.827  21.349  -3.398  1.00  0.00    -0.492 OA
ATOM     25  C   UNL     1      11.373  20.476  -4.388  1.00  0.00     0.278 C 
ENDBRANCH  11  24
BRANCH   9  26
ATOM     26  O   UNL     1      13.468  25.401  -2.742  1.00  0.00    -0.490 OA
ATOM     27  C   UNL     1      14.155  26.445  -2.054  1.00  0.00     0.279 C 
ENDBRANCH   9  26
BRANCH  10  28
ATOM     28  O   UNL     1      12.127  23.584  -4.458  1.00  0.00    -0.490 OA
ATOM     29  C   UNL     1      11.690  24.764  -5.125  1.00  0.00     0.278 C 
ENDBRANCH  10  28
TORSDOF 7
ENDMDL
