MODEL 1
REMARK VINA RESULT:    -5.896      0.000      0.000
REMARK INTER + INTRA:          -6.495
REMARK INTER:                  -6.413
REMARK INTRA:                  -0.082
REMARK UNBOUND:                -0.082
REMARK SMILES C=C(C)[C@H]1CC[C@@H](C)C[C@H]1O
REMARK SMILES IDX 8 1 7 2 6 3 5 4 4 5 10 6 9 7 11 8 2 10 1 11 3 12
REMARK H PARENT 11 9
REMARK Flexibility Score: inf
ROOT
ATOM      1  C   UNL     1     137.548 124.132 137.935  1.00  0.00     0.008 C 
ATOM      2  C   UNL     1     136.075 123.693 137.973  1.00  0.00    -0.012 C 
ATOM      3  C   UNL     1     135.141 124.844 138.398  1.00  0.00     0.004 C 
ATOM      4  C   UNL     1     135.176 125.119 139.910  1.00  0.00     0.011 C 
ATOM      5  C   UNL     1     134.862 123.837 140.715  1.00  0.00     0.043 C 
ATOM      6  C   UNL     1     135.875 122.704 140.349  1.00  0.00     0.121 C 
ATOM      7  C   UNL     1     135.848 122.430 138.834  1.00  0.00     0.035 C 
ENDROOT
BRANCH   6   8
ATOM      8  O   UNL     1     137.208 122.945 140.753  1.00  0.00    -0.392 OA
ATOM      9  H   UNL     1     137.810 122.932 139.968  1.00  0.00     0.210 HD
ENDBRANCH   6   8
BRANCH   5  10
ATOM     10  C   UNL     1     134.690 124.131 142.210  1.00  0.00    -0.075 C 
ATOM     11  C   UNL     1     135.557 124.867 142.933  1.00  0.00     0.008 C 
ATOM     12  C   UNL     1     133.546 123.487 142.954  1.00  0.00     0.039 C 
ENDBRANCH   5  10
TORSDOF 2
ENDMDL
MODEL 2
REMARK VINA RESULT:    -5.604      1.088      1.516
REMARK INTER + INTRA:          -6.177
REMARK INTER:                  -6.019
REMARK INTRA:                  -0.158
REMARK UNBOUND:                -0.082
REMARK SMILES C=C(C)[C@H]1CC[C@@H](C)C[C@H]1O
REMARK SMILES IDX 8 1 7 2 6 3 5 4 4 5 10 6 9 7 11 8 2 10 1 11 3 12
REMARK H PARENT 11 9
REMARK Flexibility Score: inf
ROOT
ATOM      1  C   UNL     1     137.650 123.163 137.973  1.00  0.00     0.008 C 
ATOM      2  C   UNL     1     136.449 124.122 137.979  1.00  0.00    -0.012 C 
ATOM      3  C   UNL     1     136.645 125.287 138.971  1.00  0.00     0.004 C 
ATOM      4  C   UNL     1     136.419 124.875 140.433  1.00  0.00     0.011 C 
ATOM      5  C   UNL     1     135.026 124.231 140.620  1.00  0.00     0.043 C 
ATOM      6  C   UNL     1     134.871 122.990 139.681  1.00  0.00     0.121 C 
ATOM      7  C   UNL     1     135.104 123.397 138.214  1.00  0.00     0.035 C 
ENDROOT
BRANCH   6   8
ATOM      8  O   UNL     1     135.708 121.897 139.997  1.00  0.00    -0.392 OA
ATOM      9  H   UNL     1     135.205 121.048 139.922  1.00  0.00     0.210 HD
ENDBRANCH   6   8
BRANCH   5  10
ATOM     10  C   UNL     1     134.699 124.000 142.101  1.00  0.00    -0.075 C 
ATOM     11  C   UNL     1     133.588 123.373 142.533  1.00  0.00     0.008 C 
ATOM     12  C   UNL     1     135.612 124.588 143.149  1.00  0.00     0.039 C 
ENDBRANCH   5  10
TORSDOF 2
ENDMDL
MODEL 3
REMARK VINA RESULT:    -5.514      2.089      3.027
REMARK INTER + INTRA:          -6.080
REMARK INTER:                  -5.917
REMARK INTRA:                  -0.163
REMARK UNBOUND:                -0.082
REMARK SMILES C=C(C)[C@H]1CC[C@@H](C)C[C@H]1O
REMARK SMILES IDX 8 1 7 2 6 3 5 4 4 5 10 6 9 7 11 8 2 10 1 11 3 12
REMARK H PARENT 11 9
REMARK Flexibility Score: inf
ROOT
ATOM      1  C   UNL     1     134.731 124.925 138.103  1.00  0.00     0.008 C 
ATOM      2  C   UNL     1     135.517 123.604 138.069  1.00  0.00    -0.012 C 
ATOM      3  C   UNL     1     135.279 122.758 139.336  1.00  0.00     0.004 C 
ATOM      4  C   UNL     1     136.055 123.275 140.557  1.00  0.00     0.011 C 
ATOM      5  C   UNL     1     137.567 123.382 140.249  1.00  0.00     0.043 C 
ATOM      6  C   UNL     1     137.806 124.320 139.022  1.00  0.00     0.121 C 
ATOM      7  C   UNL     1     137.024 123.810 137.797  1.00  0.00     0.035 C 
ENDROOT
BRANCH   6   8
ATOM      8  O   UNL     1     137.488 125.680 139.241  1.00  0.00    -0.392 OA
ATOM      9  H   UNL     1     137.449 126.165 138.380  1.00  0.00     0.210 HD
ENDBRANCH   6   8
BRANCH   5  10
ATOM     10  C   UNL     1     138.383 123.699 141.509  1.00  0.00    -0.075 C 
ATOM     11  C   UNL     1     139.729 123.762 141.533  1.00  0.00     0.008 C 
ATOM     12  C   UNL     1     137.662 123.853 142.826  1.00  0.00     0.039 C 
ENDBRANCH   5  10
TORSDOF 2
ENDMDL
MODEL 4
REMARK VINA RESULT:    -4.588      1.487      1.916
REMARK INTER + INTRA:          -5.073
REMARK INTER:                  -4.908
REMARK INTRA:                  -0.165
REMARK UNBOUND:                -0.082
REMARK SMILES C=C(C)[C@H]1CC[C@@H](C)C[C@H]1O
REMARK SMILES IDX 8 1 7 2 6 3 5 4 4 5 10 6 9 7 11 8 2 10 1 11 3 12
REMARK H PARENT 11 9
REMARK Flexibility Score: inf
ROOT
ATOM      1  C   UNL     1     136.292 123.788 137.382  1.00  0.00     0.008 C 
ATOM      2  C   UNL     1     136.845 122.879 138.491  1.00  0.00    -0.012 C 
ATOM      3  C   UNL     1     135.721 122.159 139.262  1.00  0.00     0.004 C 
ATOM      4  C   UNL     1     135.002 123.072 140.267  1.00  0.00     0.011 C 
ATOM      5  C   UNL     1     136.007 123.718 141.248  1.00  0.00     0.043 C 
ATOM      6  C   UNL     1     137.088 124.528 140.463  1.00  0.00     0.121 C 
ATOM      7  C   UNL     1     137.807 123.619 139.449  1.00  0.00     0.035 C 
ENDROOT
BRANCH   6   8
ATOM      8  O   UNL     1     136.604 125.675 139.793  1.00  0.00    -0.392 OA
ATOM      9  H   UNL     1     136.069 125.410 139.004  1.00  0.00     0.210 HD
ENDBRANCH   6   8
BRANCH   5  10
ATOM     10  C   UNL     1     135.294 124.468 142.381  1.00  0.00    -0.075 C 
ATOM     11  C   UNL     1     135.871 124.762 143.563  1.00  0.00     0.008 C 
ATOM     12  C   UNL     1     133.834 124.817 142.220  1.00  0.00     0.039 C 
ENDBRANCH   5  10
TORSDOF 2
ENDMDL
MODEL 5
REMARK VINA RESULT:    -4.393      1.219      4.146
REMARK INTER + INTRA:          -4.860
REMARK INTER:                  -4.705
REMARK INTRA:                  -0.155
REMARK UNBOUND:                -0.082
REMARK SMILES C=C(C)[C@H]1CC[C@@H](C)C[C@H]1O
REMARK SMILES IDX 8 1 7 2 6 3 5 4 4 5 10 6 9 7 11 8 2 10 1 11 3 12
REMARK H PARENT 11 9
REMARK Flexibility Score: inf
ROOT
ATOM      1  C   UNL     1     133.366 122.989 143.005  1.00  0.00     0.008 C 
ATOM      2  C   UNL     1     134.401 124.121 142.909  1.00  0.00    -0.012 C 
ATOM      3  C   UNL     1     133.837 125.359 142.182  1.00  0.00     0.004 C 
ATOM      4  C   UNL     1     133.776 125.184 140.657  1.00  0.00     0.011 C 
ATOM      5  C   UNL     1     135.161 124.802 140.086  1.00  0.00     0.043 C 
ATOM      6  C   UNL     1     135.683 123.491 140.758  1.00  0.00     0.121 C 
ATOM      7  C   UNL     1     135.739 123.659 142.288  1.00  0.00     0.035 C 
ENDROOT
BRANCH   6   8
ATOM      8  O   UNL     1     134.943 122.328 140.447  1.00  0.00    -0.392 OA
ATOM      9  H   UNL     1     135.555 121.573 140.259  1.00  0.00     0.210 HD
ENDBRANCH   6   8
BRANCH   5  10
ATOM     10  C   UNL     1     135.170 124.823 138.552  1.00  0.00    -0.075 C 
ATOM     11  C   UNL     1     134.152 125.292 137.804  1.00  0.00     0.008 C 
ATOM     12  C   UNL     1     136.333 124.198 137.821  1.00  0.00     0.039 C 
ENDBRANCH   5  10
TORSDOF 2
ENDMDL
MODEL 6
REMARK VINA RESULT:    -4.099      1.928      2.924
REMARK INTER + INTRA:          -4.541
REMARK INTER:                  -4.466
REMARK INTRA:                  -0.074
REMARK UNBOUND:                -0.082
REMARK SMILES C=C(C)[C@H]1CC[C@@H](C)C[C@H]1O
REMARK SMILES IDX 8 1 7 2 6 3 5 4 4 5 10 6 9 7 11 8 2 10 1 11 3 12
REMARK H PARENT 11 9
REMARK Flexibility Score: inf
ROOT
ATOM      1  C   UNL     1     134.533 122.961 137.868  1.00  0.00     0.008 C 
ATOM      2  C   UNL     1     135.297 124.286 138.021  1.00  0.00    -0.012 C 
ATOM      3  C   UNL     1     136.812 124.108 137.798  1.00  0.00     0.004 C 
ATOM      4  C   UNL     1     137.525 123.472 139.001  1.00  0.00     0.011 C 
ATOM      5  C   UNL     1     137.256 124.275 140.294  1.00  0.00     0.043 C 
ATOM      6  C   UNL     1     135.720 124.368 140.566  1.00  0.00     0.121 C 
ATOM      7  C   UNL     1     135.000 124.999 139.360  1.00  0.00     0.035 C 
ENDROOT
BRANCH   6   8
ATOM      8  O   UNL     1     135.097 123.140 140.888  1.00  0.00    -0.392 OA
ATOM      9  H   UNL     1     134.420 122.911 140.203  1.00  0.00     0.210 HD
ENDBRANCH   6   8
BRANCH   5  10
ATOM     10  C   UNL     1     138.119 123.779 141.462  1.00  0.00    -0.075 C 
ATOM     11  C   UNL     1     139.270 123.097 141.306  1.00  0.00     0.008 C 
ATOM     12  C   UNL     1     137.615 123.969 142.872  1.00  0.00     0.039 C 
ENDBRANCH   5  10
TORSDOF 2
ENDMDL
MODEL 7
REMARK VINA RESULT:    -4.041      1.851      4.141
REMARK INTER + INTRA:          -4.477
REMARK INTER:                  -4.646
REMARK INTRA:                   0.168
REMARK UNBOUND:                -0.082
REMARK SMILES C=C(C)[C@H]1CC[C@@H](C)C[C@H]1O
REMARK SMILES IDX 8 1 7 2 6 3 5 4 4 5 10 6 9 7 11 8 2 10 1 11 3 12
REMARK H PARENT 11 9
REMARK Flexibility Score: inf
ROOT
ATOM      1  C   UNL     1     133.183 125.267 142.207  1.00  0.00     0.008 C 
ATOM      2  C   UNL     1     133.855 123.952 142.636  1.00  0.00    -0.012 C 
ATOM      3  C   UNL     1     135.176 124.198 143.391  1.00  0.00     0.004 C 
ATOM      4  C   UNL     1     136.339 124.575 142.460  1.00  0.00     0.011 C 
ATOM      5  C   UNL     1     136.533 123.510 141.356  1.00  0.00     0.043 C 
ATOM      6  C   UNL     1     135.216 123.336 140.531  1.00  0.00     0.121 C 
ATOM      7  C   UNL     1     134.046 122.966 141.462  1.00  0.00     0.035 C 
ENDROOT
BRANCH   6   8
ATOM      8  O   UNL     1     134.851 124.456 139.751  1.00  0.00    -0.392 OA
ATOM      9  H   UNL     1     133.866 124.516 139.679  1.00  0.00     0.210 HD
ENDBRANCH   6   8
BRANCH   5  10
ATOM     10  C   UNL     1     137.809 123.759 140.542  1.00  0.00    -0.075 C 
ATOM     11  C   UNL     1     137.812 124.147 139.252  1.00  0.00     0.008 C 
ATOM     12  C   UNL     1     139.147 123.462 141.176  1.00  0.00     0.039 C 
ENDBRANCH   5  10
TORSDOF 2
ENDMDL
MODEL 8
REMARK VINA RESULT:    -3.938      1.723      4.412
REMARK INTER + INTRA:          -4.365
REMARK INTER:                  -4.213
REMARK INTRA:                  -0.152
REMARK UNBOUND:                -0.082
REMARK SMILES C=C(C)[C@H]1CC[C@@H](C)C[C@H]1O
REMARK SMILES IDX 8 1 7 2 6 3 5 4 4 5 10 6 9 7 11 8 2 10 1 11 3 12
REMARK H PARENT 11 9
REMARK Flexibility Score: inf
ROOT
ATOM      1  C   UNL     1     135.662 125.769 144.033  1.00  0.00     0.008 C 
ATOM      2  C   UNL     1     135.794 124.257 143.795  1.00  0.00    -0.012 C 
ATOM      3  C   UNL     1     137.053 123.909 142.975  1.00  0.00     0.004 C 
ATOM      4  C   UNL     1     136.894 124.207 141.476  1.00  0.00     0.011 C 
ATOM      5  C   UNL     1     135.652 123.492 140.896  1.00  0.00     0.043 C 
ATOM      6  C   UNL     1     134.365 123.924 141.670  1.00  0.00     0.121 C 
ATOM      7  C   UNL     1     134.522 123.634 143.175  1.00  0.00     0.035 C 
ENDROOT
BRANCH   6   8
ATOM      8  O   UNL     1     133.992 125.276 141.496  1.00  0.00    -0.392 OA
ATOM      9  H   UNL     1     133.158 125.467 141.993  1.00  0.00     0.210 HD
ENDBRANCH   6   8
BRANCH   5  10
ATOM     10  C   UNL     1     135.590 123.608 139.368  1.00  0.00    -0.075 C 
ATOM     11  C   UNL     1     135.168 122.617 138.558  1.00  0.00     0.008 C 
ATOM     12  C   UNL     1     136.121 124.858 138.709  1.00  0.00     0.039 C 
ENDBRANCH   5  10
TORSDOF 2
ENDMDL
MODEL 9
REMARK VINA RESULT:    -3.749      1.109      4.255
REMARK INTER + INTRA:          -4.160
REMARK INTER:                  -3.991
REMARK INTRA:                  -0.169
REMARK UNBOUND:                -0.082
REMARK SMILES C=C(C)[C@H]1CC[C@@H](C)C[C@H]1O
REMARK SMILES IDX 8 1 7 2 6 3 5 4 4 5 10 6 9 7 11 8 2 10 1 11 3 12
REMARK H PARENT 11 9
REMARK Flexibility Score: inf
ROOT
ATOM      1  C   UNL     1     135.580 124.040 144.062  1.00  0.00     0.008 C 
ATOM      2  C   UNL     1     134.466 124.457 143.088  1.00  0.00    -0.012 C 
ATOM      3  C   UNL     1     133.744 123.237 142.481  1.00  0.00     0.004 C 
ATOM      4  C   UNL     1     134.556 122.547 141.375  1.00  0.00     0.011 C 
ATOM      5  C   UNL     1     134.952 123.552 140.268  1.00  0.00     0.043 C 
ATOM      6  C   UNL     1     135.769 124.737 140.876  1.00  0.00     0.121 C 
ATOM      7  C   UNL     1     134.961 125.428 141.991  1.00  0.00     0.035 C 
ENDROOT
BRANCH   6   8
ATOM      8  O   UNL     1     137.043 124.386 141.377  1.00  0.00    -0.392 OA
ATOM      9  H   UNL     1     137.686 125.123 141.224  1.00  0.00     0.210 HD
ENDBRANCH   6   8
BRANCH   5  10
ATOM     10  C   UNL     1     135.583 122.848 139.059  1.00  0.00    -0.075 C 
ATOM     11  C   UNL     1     135.792 121.519 138.992  1.00  0.00     0.008 C 
ATOM     12  C   UNL     1     136.097 123.686 137.914  1.00  0.00     0.039 C 
ENDBRANCH   5  10
TORSDOF 2
ENDMDL
