MODEL 1
REMARK VINA RESULT:    -4.930      0.000      0.000
REMARK INTER + INTRA:          -4.930
REMARK INTER:                  -4.930
REMARK INTRA:                   0.000
REMARK UNBOUND:                 0.000
REMARK SMILES CC(C)=C1CC[C@@H](C)CC1=O
REMARK SMILES IDX 8 1 7 2 6 3 5 4 4 5 2 6 1 7 3 8 10 9 11 10 9 11
REMARK H PARENT
REMARK Flexibility Score: inf
ROOT
ATOM      1  C   UNL     1      85.940  34.429  23.261  1.00  0.00     0.008 C 
ATOM      2  C   UNL     1      86.182  35.686  24.104  1.00  0.00    -0.006 C 
ATOM      3  C   UNL     1      87.632  36.172  23.948  1.00  0.00     0.008 C 
ATOM      4  C   UNL     1      87.865  37.486  24.704  1.00  0.00     0.039 C 
ATOM      5  C   UNL     1      87.427  37.408  26.160  1.00  0.00    -0.006 C 
ATOM      6  C   UNL     1      88.067  38.123  27.133  1.00  0.00    -0.070 C 
ATOM      7  C   UNL     1      87.679  38.010  28.589  1.00  0.00     0.039 C 
ATOM      8  C   UNL     1      89.225  39.036  26.801  1.00  0.00     0.039 C 
ATOM      9  C   UNL     1      86.199  36.603  26.434  1.00  0.00     0.159 C 
ATOM     10  O   UNL     1      85.412  36.908  27.370  1.00  0.00    -0.295 OA
ATOM     11  C   UNL     1      85.878  35.409  25.584  1.00  0.00     0.084 C 
ENDROOT
TORSDOF 0
ENDMDL
MODEL 2
REMARK VINA RESULT:    -4.892      1.412      3.934
REMARK INTER + INTRA:          -4.892
REMARK INTER:                  -4.892
REMARK INTRA:                   0.000
REMARK UNBOUND:                 0.000
REMARK SMILES CC(C)=C1CC[C@@H](C)CC1=O
REMARK SMILES IDX 8 1 7 2 6 3 5 4 4 5 2 6 1 7 3 8 10 9 11 10 9 11
REMARK H PARENT
REMARK Flexibility Score: inf
ROOT
ATOM      1  C   UNL     1      90.116  39.161  26.939  1.00  0.00     0.008 C 
ATOM      2  C   UNL     1      89.025  38.098  26.765  1.00  0.00    -0.006 C 
ATOM      3  C   UNL     1      88.347  38.239  25.392  1.00  0.00     0.008 C 
ATOM      4  C   UNL     1      87.322  37.121  25.160  1.00  0.00     0.039 C 
ATOM      5  C   UNL     1      86.319  37.001  26.299  1.00  0.00    -0.006 C 
ATOM      6  C   UNL     1      85.035  36.595  26.073  1.00  0.00    -0.070 C 
ATOM      7  C   UNL     1      84.015  36.527  27.186  1.00  0.00     0.039 C 
ATOM      8  C   UNL     1      84.561  36.227  24.686  1.00  0.00     0.039 C 
ATOM      9  C   UNL     1      86.854  37.242  27.672  1.00  0.00     0.159 C 
ATOM     10  O   UNL     1      86.384  36.636  28.673  1.00  0.00    -0.295 OA
ATOM     11  C   UNL     1      87.978  38.215  27.882  1.00  0.00     0.084 C 
ENDROOT
TORSDOF 0
ENDMDL
MODEL 3
REMARK VINA RESULT:    -4.853      1.912      4.041
REMARK INTER + INTRA:          -4.853
REMARK INTER:                  -4.853
REMARK INTRA:                   0.000
REMARK UNBOUND:                 0.000
REMARK SMILES CC(C)=C1CC[C@@H](C)CC1=O
REMARK SMILES IDX 8 1 7 2 6 3 5 4 4 5 2 6 1 7 3 8 10 9 11 10 9 11
REMARK H PARENT
REMARK Flexibility Score: inf
ROOT
ATOM      1  C   UNL     1      83.956  37.131  30.418  1.00  0.00     0.008 C 
ATOM      2  C   UNL     1      85.215  36.972  29.559  1.00  0.00    -0.006 C 
ATOM      3  C   UNL     1      86.069  38.249  29.608  1.00  0.00     0.008 C 
ATOM      4  C   UNL     1      87.383  38.071  28.835  1.00  0.00     0.039 C 
ATOM      5  C   UNL     1      87.162  37.569  27.415  1.00  0.00    -0.006 C 
ATOM      6  C   UNL     1      88.000  37.927  26.398  1.00  0.00    -0.070 C 
ATOM      7  C   UNL     1      87.759  37.483  24.974  1.00  0.00     0.039 C 
ATOM      8  C   UNL     1      89.194  38.822  26.644  1.00  0.00     0.039 C 
ATOM      9  C   UNL     1      86.056  36.583  27.232  1.00  0.00     0.159 C 
ATOM     10  O   UNL     1      86.122  35.680  26.355  1.00  0.00    -0.295 OA
ATOM     11  C   UNL     1      84.836  36.650  28.105  1.00  0.00     0.084 C 
ENDROOT
TORSDOF 0
ENDMDL
MODEL 4
REMARK VINA RESULT:    -4.789      1.713      4.211
REMARK INTER + INTRA:          -4.789
REMARK INTER:                  -4.789
REMARK INTRA:                   0.000
REMARK UNBOUND:                 0.000
REMARK SMILES CC(C)=C1CC[C@@H](C)CC1=O
REMARK SMILES IDX 8 1 7 2 6 3 5 4 4 5 2 6 1 7 3 8 10 9 11 10 9 11
REMARK H PARENT
REMARK Flexibility Score: inf
ROOT
ATOM      1  C   UNL     1      89.559  39.741  26.286  1.00  0.00     0.008 C 
ATOM      2  C   UNL     1      88.272  38.943  26.523  1.00  0.00    -0.006 C 
ATOM      3  C   UNL     1      88.286  38.294  27.917  1.00  0.00     0.008 C 
ATOM      4  C   UNL     1      86.963  37.575  28.211  1.00  0.00     0.039 C 
ATOM      5  C   UNL     1      86.574  36.595  27.113  1.00  0.00    -0.006 C 
ATOM      6  C   UNL     1      85.880  35.453  27.395  1.00  0.00    -0.070 C 
ATOM      7  C   UNL     1      85.538  34.444  26.322  1.00  0.00     0.039 C 
ATOM      8  C   UNL     1      85.450  35.125  28.806  1.00  0.00     0.039 C 
ATOM      9  C   UNL     1      86.896  37.013  25.715  1.00  0.00     0.159 C 
ATOM     10  O   UNL     1      86.167  36.671  24.746  1.00  0.00    -0.295 OA
ATOM     11  C   UNL     1      88.102  37.863  25.443  1.00  0.00     0.084 C 
ENDROOT
TORSDOF 0
ENDMDL
MODEL 5
REMARK VINA RESULT:    -4.285      2.068      3.373
REMARK INTER + INTRA:          -4.285
REMARK INTER:                  -4.285
REMARK INTRA:                   0.000
REMARK UNBOUND:                 0.000
REMARK SMILES CC(C)=C1CC[C@@H](C)CC1=O
REMARK SMILES IDX 8 1 7 2 6 3 5 4 4 5 2 6 1 7 3 8 10 9 11 10 9 11
REMARK H PARENT
REMARK Flexibility Score: inf
ROOT
ATOM      1  C   UNL     1      83.966  34.412  29.194  1.00  0.00     0.008 C 
ATOM      2  C   UNL     1      84.620  35.590  28.462  1.00  0.00    -0.006 C 
ATOM      3  C   UNL     1      85.127  35.153  27.078  1.00  0.00     0.008 C 
ATOM      4  C   UNL     1      85.693  36.343  26.291  1.00  0.00     0.039 C 
ATOM      5  C   UNL     1      86.738  37.120  27.079  1.00  0.00    -0.006 C 
ATOM      6  C   UNL     1      87.780  37.743  26.453  1.00  0.00    -0.070 C 
ATOM      7  C   UNL     1      88.856  38.469  27.228  1.00  0.00     0.039 C 
ATOM      8  C   UNL     1      87.928  37.702  24.949  1.00  0.00     0.039 C 
ATOM      9  C   UNL     1      86.490  37.253  28.546  1.00  0.00     0.159 C 
ATOM     10  O   UNL     1      86.860  38.276  29.182  1.00  0.00    -0.295 OA
ATOM     11  C   UNL     1      85.781  36.160  29.291  1.00  0.00     0.084 C 
ENDROOT
TORSDOF 0
ENDMDL
MODEL 6
REMARK VINA RESULT:    -4.279      1.696      2.580
REMARK INTER + INTRA:          -4.279
REMARK INTER:                  -4.279
REMARK INTRA:                   0.000
REMARK UNBOUND:                 0.000
REMARK SMILES CC(C)=C1CC[C@@H](C)CC1=O
REMARK SMILES IDX 8 1 7 2 6 3 5 4 4 5 2 6 1 7 3 8 10 9 11 10 9 11
REMARK H PARENT
REMARK Flexibility Score: inf
ROOT
ATOM      1  C   UNL     1      83.649  34.588  24.208  1.00  0.00     0.008 C 
ATOM      2  C   UNL     1      84.921  35.057  24.924  1.00  0.00    -0.006 C 
ATOM      3  C   UNL     1      84.577  35.678  26.288  1.00  0.00     0.008 C 
ATOM      4  C   UNL     1      85.846  36.060  27.061  1.00  0.00     0.039 C 
ATOM      5  C   UNL     1      86.790  36.930  26.243  1.00  0.00    -0.006 C 
ATOM      6  C   UNL     1      87.581  37.872  26.837  1.00  0.00    -0.070 C 
ATOM      7  C   UNL     1      88.479  38.781  26.030  1.00  0.00     0.039 C 
ATOM      8  C   UNL     1      87.566  38.077  28.334  1.00  0.00     0.039 C 
ATOM      9  C   UNL     1      86.878  36.613  24.786  1.00  0.00     0.159 C 
ATOM     10  O   UNL     1      87.949  36.781  24.143  1.00  0.00    -0.295 OA
ATOM     11  C   UNL     1      85.680  36.075  24.059  1.00  0.00     0.084 C 
ENDROOT
TORSDOF 0
ENDMDL
MODEL 7
REMARK VINA RESULT:    -4.059     13.233     13.611
REMARK INTER + INTRA:          -4.059
REMARK INTER:                  -4.059
REMARK INTRA:                   0.000
REMARK UNBOUND:                 0.000
REMARK SMILES CC(C)=C1CC[C@@H](C)CC1=O
REMARK SMILES IDX 8 1 7 2 6 3 5 4 4 5 2 6 1 7 3 8 10 9 11 10 9 11
REMARK H PARENT
REMARK Flexibility Score: inf
ROOT
ATOM      1  C   UNL     1      81.341  47.297  18.756  1.00  0.00     0.008 C 
ATOM      2  C   UNL     1      80.300  47.275  19.880  1.00  0.00    -0.006 C 
ATOM      3  C   UNL     1      80.186  48.659  20.540  1.00  0.00     0.008 C 
ATOM      4  C   UNL     1      79.076  48.682  21.600  1.00  0.00     0.039 C 
ATOM      5  C   UNL     1      79.217  47.558  22.617  1.00  0.00    -0.006 C 
ATOM      6  C   UNL     1      78.814  47.719  23.913  1.00  0.00    -0.070 C 
ATOM      7  C   UNL     1      79.001  46.632  24.945  1.00  0.00     0.039 C 
ATOM      8  C   UNL     1      78.193  49.014  24.385  1.00  0.00     0.039 C 
ATOM      9  C   UNL     1      79.709  46.251  22.088  1.00  0.00     0.159 C 
ATOM     10  O   UNL     1      79.330  45.158  22.588  1.00  0.00    -0.295 OA
ATOM     11  C   UNL     1      80.669  46.220  20.934  1.00  0.00     0.084 C 
ENDROOT
TORSDOF 0
ENDMDL
MODEL 8
REMARK VINA RESULT:    -3.892      1.571      2.042
REMARK INTER + INTRA:          -3.892
REMARK INTER:                  -3.892
REMARK INTRA:                   0.000
REMARK UNBOUND:                 0.000
REMARK SMILES CC(C)=C1CC[C@@H](C)CC1=O
REMARK SMILES IDX 8 1 7 2 6 3 5 4 4 5 2 6 1 7 3 8 10 9 11 10 9 11
REMARK H PARENT
REMARK Flexibility Score: inf
ROOT
ATOM      1  C   UNL     1      86.689  34.667  22.897  1.00  0.00     0.008 C 
ATOM      2  C   UNL     1      86.188  35.372  24.162  1.00  0.00    -0.006 C 
ATOM      3  C   UNL     1      87.238  36.368  24.680  1.00  0.00     0.008 C 
ATOM      4  C   UNL     1      86.713  37.155  25.888  1.00  0.00     0.039 C 
ATOM      5  C   UNL     1      86.173  36.250  26.986  1.00  0.00    -0.006 C 
ATOM      6  C   UNL     1      86.258  36.603  28.303  1.00  0.00    -0.070 C 
ATOM      7  C   UNL     1      85.777  35.688  29.405  1.00  0.00     0.039 C 
ATOM      8  C   UNL     1      86.874  37.918  28.723  1.00  0.00     0.039 C 
ATOM      9  C   UNL     1      85.452  35.024  26.530  1.00  0.00     0.159 C 
ATOM     10  O   UNL     1      84.496  34.541  27.196  1.00  0.00    -0.295 OA
ATOM     11  C   UNL     1      85.855  34.344  25.254  1.00  0.00     0.084 C 
ENDROOT
TORSDOF 0
ENDMDL
MODEL 9
REMARK VINA RESULT:    -3.799      9.868     10.490
REMARK INTER + INTRA:          -3.799
REMARK INTER:                  -3.799
REMARK INTRA:                   0.000
REMARK UNBOUND:                 0.000
REMARK SMILES CC(C)=C1CC[C@@H](C)CC1=O
REMARK SMILES IDX 8 1 7 2 6 3 5 4 4 5 2 6 1 7 3 8 10 9 11 10 9 11
REMARK H PARENT
REMARK Flexibility Score: inf
ROOT
ATOM      1  C   UNL     1      81.312  40.805  26.365  1.00  0.00     0.008 C 
ATOM      2  C   UNL     1      81.256  42.332  26.496  1.00  0.00    -0.006 C 
ATOM      3  C   UNL     1      81.120  42.744  27.970  1.00  0.00     0.008 C 
ATOM      4  C   UNL     1      81.165  44.270  28.129  1.00  0.00     0.039 C 
ATOM      5  C   UNL     1      80.165  44.981  27.227  1.00  0.00    -0.006 C 
ATOM      6  C   UNL     1      79.577  46.154  27.606  1.00  0.00    -0.070 C 
ATOM      7  C   UNL     1      78.541  46.839  26.746  1.00  0.00     0.039 C 
ATOM      8  C   UNL     1      79.909  46.805  28.929  1.00  0.00     0.039 C 
ATOM      9  C   UNL     1      79.960  44.382  25.874  1.00  0.00     0.159 C 
ATOM     10  O   UNL     1      79.688  45.101  24.875  1.00  0.00    -0.295 OA
ATOM     11  C   UNL     1      80.084  42.899  25.681  1.00  0.00     0.084 C 
ENDROOT
TORSDOF 0
ENDMDL
