MODEL 1
REMARK VINA RESULT:    -2.051      0.000      0.000
REMARK INTER + INTRA:          -2.051
REMARK INTER:                  -2.051
REMARK INTRA:                   0.000
REMARK UNBOUND:                 0.000
REMARK SMILES CC(=O)[O-]
REMARK SMILES IDX 1 1 2 2 3 3 4 4
REMARK H PARENT
REMARK Flexibility Score: inf
ROOT
ATOM      1  C   UNL     1      31.965  11.142  23.236  1.00  0.00     0.063 C 
ATOM      2  C   UNL     1      31.868   9.787  22.622  1.00  0.00     0.038 C 
ATOM      3  O   UNL     1      30.895   9.037  22.896  1.00  0.00    -0.550 OA
ATOM      4  O   UNL     1      32.823   9.368  21.704  1.00  0.00    -0.550 OA
ENDROOT
TORSDOF 0
ENDMDL
MODEL 2
REMARK VINA RESULT:    -2.035      1.336      1.750
REMARK INTER + INTRA:          -2.035
REMARK INTER:                  -2.035
REMARK INTRA:                   0.000
REMARK UNBOUND:                 0.000
REMARK SMILES CC(=O)[O-]
REMARK SMILES IDX 1 1 2 2 3 3 4 4
REMARK H PARENT
REMARK Flexibility Score: inf
ROOT
ATOM      1  C   UNL     1      32.913   9.717  21.715  1.00  0.00     0.063 C 
ATOM      2  C   UNL     1      31.899   9.824  22.803  1.00  0.00     0.038 C 
ATOM      3  O   UNL     1      30.908   9.050  22.822  1.00  0.00    -0.550 OA
ATOM      4  O   UNL     1      32.075  10.745  23.829  1.00  0.00    -0.550 OA
ENDROOT
TORSDOF 0
ENDMDL
MODEL 3
REMARK VINA RESULT:    -2.030      1.345      1.945
REMARK INTER + INTRA:          -2.030
REMARK INTER:                  -2.030
REMARK INTRA:                   0.000
REMARK UNBOUND:                 0.000
REMARK SMILES CC(=O)[O-]
REMARK SMILES IDX 1 1 2 2 3 3 4 4
REMARK H PARENT
REMARK Flexibility Score: inf
ROOT
ATOM      1  C   UNL     1      33.003   9.863  21.762  1.00  0.00     0.063 C 
ATOM      2  C   UNL     1      31.993   9.891  22.858  1.00  0.00     0.038 C 
ATOM      3  O   UNL     1      32.103  10.721  23.797  1.00  0.00    -0.550 OA
ATOM      4  O   UNL     1      30.898   9.038  22.818  1.00  0.00    -0.550 OA
ENDROOT
TORSDOF 0
ENDMDL
MODEL 4
REMARK VINA RESULT:    -2.026      1.594      1.867
REMARK INTER + INTRA:          -2.026
REMARK INTER:                  -2.026
REMARK INTRA:                   0.000
REMARK UNBOUND:                 0.000
REMARK SMILES CC(=O)[O-]
REMARK SMILES IDX 1 1 2 2 3 3 4 4
REMARK H PARENT
REMARK Flexibility Score: inf
ROOT
ATOM      1  C   UNL     1      31.157   9.216  22.725  1.00  0.00     0.063 C 
ATOM      2  C   UNL     1      32.092  10.360  22.927  1.00  0.00     0.038 C 
ATOM      3  O   UNL     1      31.653  11.477  23.305  1.00  0.00    -0.550 OA
ATOM      4  O   UNL     1      33.459  10.181  22.751  1.00  0.00    -0.550 OA
ENDROOT
TORSDOF 0
ENDMDL
MODEL 5
REMARK VINA RESULT:    -1.872      2.087      2.206
REMARK INTER + INTRA:          -1.872
REMARK INTER:                  -1.872
REMARK INTRA:                   0.000
REMARK UNBOUND:                 0.000
REMARK SMILES CC(=O)[O-]
REMARK SMILES IDX 1 1 2 2 3 3 4 4
REMARK H PARENT
REMARK Flexibility Score: inf
ROOT
ATOM      1  C   UNL     1      34.405  11.140  23.316  1.00  0.00     0.063 C 
ATOM      2  C   UNL     1      32.950  11.117  22.992  1.00  0.00     0.038 C 
ATOM      3  O   UNL     1      32.134  10.585  23.788  1.00  0.00    -0.550 OA
ATOM      4  O   UNL     1      32.484  11.730  21.835  1.00  0.00    -0.550 OA
ENDROOT
TORSDOF 0
ENDMDL
MODEL 6
REMARK VINA RESULT:    -1.811      1.847      2.382
REMARK INTER + INTRA:          -1.811
REMARK INTER:                  -1.811
REMARK INTRA:                   0.000
REMARK UNBOUND:                 0.000
REMARK SMILES CC(=O)[O-]
REMARK SMILES IDX 1 1 2 2 3 3 4 4
REMARK H PARENT
REMARK Flexibility Score: inf
ROOT
ATOM      1  C   UNL     1      32.062  10.849  23.336  1.00  0.00     0.063 C 
ATOM      2  C   UNL     1      33.471  10.580  22.924  1.00  0.00     0.038 C 
ATOM      3  O   UNL     1      33.709   9.850  21.928  1.00  0.00    -0.550 OA
ATOM      4  O   UNL     1      34.522  11.179  23.608  1.00  0.00    -0.550 OA
ENDROOT
TORSDOF 0
ENDMDL
MODEL 7
REMARK VINA RESULT:    -1.333      3.571      3.873
REMARK INTER + INTRA:          -1.333
REMARK INTER:                  -1.333
REMARK INTRA:                   0.000
REMARK UNBOUND:                 0.000
REMARK SMILES CC(=O)[O-]
REMARK SMILES IDX 1 1 2 2 3 3 4 4
REMARK H PARENT
REMARK Flexibility Score: inf
ROOT
ATOM      1  C   UNL     1      34.603  10.203  21.593  1.00  0.00     0.063 C 
ATOM      2  C   UNL     1      35.272  10.652  22.848  1.00  0.00     0.038 C 
ATOM      3  O   UNL     1      34.667  11.407  23.652  1.00  0.00    -0.550 OA
ATOM      4  O   UNL     1      36.546  10.193  23.160  1.00  0.00    -0.550 OA
ENDROOT
TORSDOF 0
ENDMDL
MODEL 8
REMARK VINA RESULT:    -1.189     16.305     16.772
REMARK INTER + INTRA:          -1.189
REMARK INTER:                  -1.189
REMARK INTRA:                   0.000
REMARK UNBOUND:                 0.000
REMARK SMILES CC(=O)[O-]
REMARK SMILES IDX 1 1 2 2 3 3 4 4
REMARK H PARENT
REMARK Flexibility Score: inf
ROOT
ATOM      1  C   UNL     1      33.490  -7.349  24.712  1.00  0.00     0.063 C 
ATOM      2  C   UNL     1      32.141  -6.714  24.687  1.00  0.00     0.038 C 
ATOM      3  O   UNL     1      31.138  -7.376  24.315  1.00  0.00    -0.550 OA
ATOM      4  O   UNL     1      31.979  -5.405  25.125  1.00  0.00    -0.550 OA
ENDROOT
TORSDOF 0
ENDMDL
MODEL 9
REMARK VINA RESULT:    -0.592     17.067     17.405
REMARK INTER + INTRA:          -0.592
REMARK INTER:                  -0.592
REMARK INTRA:                   0.000
REMARK UNBOUND:                 0.000
REMARK SMILES CC(=O)[O-]
REMARK SMILES IDX 1 1 2 2 3 3 4 4
REMARK H PARENT
REMARK Flexibility Score: inf
ROOT
ATOM      1  C   UNL     1      31.599  -6.160  24.991  1.00  0.00     0.063 C 
ATOM      2  C   UNL     1      31.894  -7.451  24.306  1.00  0.00     0.038 C 
ATOM      3  O   UNL     1      33.043  -7.958  24.382  1.00  0.00    -0.550 OA
ATOM      4  O   UNL     1      30.887  -8.125  23.626  1.00  0.00    -0.550 OA
ENDROOT
TORSDOF 0
ENDMDL
