MODEL 1
REMARK VINA RESULT:    -4.425      0.000      0.000
REMARK INTER + INTRA:          -8.760
REMARK INTER:                  -7.658
REMARK INTRA:                  -1.102
REMARK UNBOUND:                -1.102
REMARK SMILES CCCCCCCCCCCCCCO
REMARK SMILES IDX 8 1 7 2 6 3 5 4 4 5 3 6 2 7 1 8 9 9 10 10 11 11 12 12 13 13
REMARK SMILES IDX 14 14 15 15
REMARK H PARENT 15 16
REMARK Flexibility Score: inf
ROOT
ATOM      1  C   UNL     1     114.975 115.563 117.314  1.00  0.00     0.000 C 
ENDROOT
BRANCH   1   2
ATOM      2  C   UNL     1     115.762 116.802 117.758  1.00  0.00    -0.000 C 
BRANCH   2   3
ATOM      3  C   UNL     1     116.716 117.274 116.654  1.00  0.00    -0.000 C 
BRANCH   3   4
ATOM      4  C   UNL     1     116.755 116.270 115.494  1.00  0.00    -0.000 C 
BRANCH   4   5
ATOM      5  C   UNL     1     116.433 116.959 114.160  1.00  0.00    -0.000 C 
BRANCH   5   6
ATOM      6  C   UNL     1     116.345 115.973 112.982  1.00  0.00    -0.000 C 
BRANCH   6   7
ATOM      7  C   UNL     1     117.108 116.406 111.717  1.00  0.00    -0.003 C 
ATOM      8  C   UNL     1     117.592 117.855 111.778  1.00  0.00     0.004 C 
ENDBRANCH   6   7
ENDBRANCH   5   6
ENDBRANCH   4   5
ENDBRANCH   3   4
ENDBRANCH   2   3
ENDBRANCH   1   2
BRANCH   1   9
ATOM      9  C   UNL     1     114.917 114.517 118.437  1.00  0.00     0.000 C 
BRANCH   9  10
ATOM     10  C   UNL     1     116.226 114.435 119.239  1.00  0.00     0.000 C 
BRANCH  10  11
ATOM     11  C   UNL     1     117.194 113.378 118.686  1.00  0.00     0.000 C 
BRANCH  11  12
ATOM     12  C   UNL     1     118.377 114.041 117.967  1.00  0.00     0.002 C 
BRANCH  12  13
ATOM     13  C   UNL     1     119.374 113.025 117.386  1.00  0.00     0.028 C 
BRANCH  13  14
ATOM     14  C   UNL     1     120.560 112.729 118.317  1.00  0.00     0.156 C 
BRANCH  14  15
ATOM     15  O   UNL     1     120.459 111.446 118.874  1.00  0.00    -0.396 OA
ATOM     16  H   UNL     1     119.492 111.226 118.912  1.00  0.00     0.210 HD
ENDBRANCH  14  15
ENDBRANCH  13  14
ENDBRANCH  12  13
ENDBRANCH  11  12
ENDBRANCH  10  11
ENDBRANCH   9  10
ENDBRANCH   1   9
TORSDOF 13
ENDMDL
MODEL 2
REMARK VINA RESULT:    -4.247      2.826      5.626
REMARK INTER + INTRA:          -8.451
REMARK INTER:                  -6.983
REMARK INTRA:                  -1.468
REMARK UNBOUND:                -1.102
REMARK SMILES CCCCCCCCCCCCCCO
REMARK SMILES IDX 8 1 7 2 6 3 5 4 4 5 3 6 2 7 1 8 9 9 10 10 11 11 12 12 13 13
REMARK SMILES IDX 14 14 15 15
REMARK H PARENT 15 16
REMARK Flexibility Score: inf
ROOT
ATOM      1  C   UNL     1     116.705 114.989 117.644  1.00  0.00     0.000 C 
ENDROOT
BRANCH   1   2
ATOM      2  C   UNL     1     115.511 114.969 118.606  1.00  0.00    -0.000 C 
BRANCH   2   3
ATOM      3  C   UNL     1     114.187 115.103 117.844  1.00  0.00    -0.000 C 
BRANCH   3   4
ATOM      4  C   UNL     1     113.285 116.164 118.489  1.00  0.00    -0.000 C 
BRANCH   4   5
ATOM      5  C   UNL     1     114.112 117.157 119.319  1.00  0.00    -0.000 C 
BRANCH   5   6
ATOM      6  C   UNL     1     113.888 118.621 118.900  1.00  0.00    -0.000 C 
BRANCH   6   7
ATOM      7  C   UNL     1     114.876 119.150 117.844  1.00  0.00    -0.003 C 
ATOM      8  C   UNL     1     116.121 119.789 118.458  1.00  0.00     0.004 C 
ENDBRANCH   6   7
ENDBRANCH   5   6
ENDBRANCH   4   5
ENDBRANCH   3   4
ENDBRANCH   2   3
ENDBRANCH   1   2
BRANCH   1   9
ATOM      9  C   UNL     1     117.415 116.351 117.678  1.00  0.00     0.000 C 
BRANCH   9  10
ATOM     10  C   UNL     1     117.480 117.021 116.296  1.00  0.00     0.000 C 
BRANCH  10  11
ATOM     11  C   UNL     1     116.371 116.535 115.349  1.00  0.00     0.000 C 
BRANCH  11  12
ATOM     12  C   UNL     1     116.639 116.998 113.910  1.00  0.00     0.002 C 
BRANCH  12  13
ATOM     13  C   UNL     1     116.263 115.940 112.859  1.00  0.00     0.028 C 
BRANCH  13  14
ATOM     14  C   UNL     1     117.141 115.988 111.599  1.00  0.00     0.156 C 
BRANCH  14  15
ATOM     15  O   UNL     1     118.252 115.144 111.723  1.00  0.00    -0.396 OA
ATOM     16  H   UNL     1     117.911 114.266 112.037  1.00  0.00     0.210 HD
ENDBRANCH  14  15
ENDBRANCH  13  14
ENDBRANCH  12  13
ENDBRANCH  11  12
ENDBRANCH  10  11
ENDBRANCH   9  10
ENDBRANCH   1   9
TORSDOF 13
ENDMDL
MODEL 3
REMARK VINA RESULT:    -4.244      3.772      4.924
REMARK INTER + INTRA:          -8.446
REMARK INTER:                  -7.558
REMARK INTRA:                  -0.889
REMARK UNBOUND:                -1.102
REMARK SMILES CCCCCCCCCCCCCCO
REMARK SMILES IDX 8 1 7 2 6 3 5 4 4 5 3 6 2 7 1 8 9 9 10 10 11 11 12 12 13 13
REMARK SMILES IDX 14 14 15 15
REMARK H PARENT 15 16
REMARK Flexibility Score: inf
ROOT
ATOM      1  C   UNL     1     116.404 117.846 117.546  1.00  0.00     0.000 C 
ENDROOT
BRANCH   1   2
ATOM      2  C   UNL     1     116.238 116.327 117.421  1.00  0.00    -0.000 C 
BRANCH   2   3
ATOM      3  C   UNL     1     116.461 115.866 115.975  1.00  0.00    -0.000 C 
BRANCH   3   4
ATOM      4  C   UNL     1     116.933 117.030 115.093  1.00  0.00    -0.000 C 
BRANCH   4   5
ATOM      5  C   UNL     1     116.286 116.962 113.702  1.00  0.00    -0.000 C 
BRANCH   5   6
ATOM      6  C   UNL     1     117.307 116.703 112.579  1.00  0.00    -0.000 C 
BRANCH   6   7
ATOM      7  C   UNL     1     116.895 115.618 111.567  1.00  0.00    -0.003 C 
ATOM      8  C   UNL     1     115.458 115.135 111.761  1.00  0.00     0.004 C 
ENDBRANCH   6   7
ENDBRANCH   5   6
ENDBRANCH   4   5
ENDBRANCH   3   4
ENDBRANCH   2   3
ENDBRANCH   1   2
BRANCH   1   9
ATOM      9  C   UNL     1     117.472 118.197 118.593  1.00  0.00     0.000 C 
BRANCH   9  10
ATOM     10  C   UNL     1     118.842 117.576 118.273  1.00  0.00     0.000 C 
BRANCH  10  11
ATOM     11  C   UNL     1     119.852 118.607 117.745  1.00  0.00     0.000 C 
BRANCH  11  12
ATOM     12  C   UNL     1     119.446 120.031 118.153  1.00  0.00     0.002 C 
BRANCH  12  13
ATOM     13  C   UNL     1     120.618 121.025 118.110  1.00  0.00     0.028 C 
BRANCH  13  14
ATOM     14  C   UNL     1     121.265 121.272 119.481  1.00  0.00     0.156 C 
BRANCH  14  15
ATOM     15  O   UNL     1     122.444 120.528 119.627  1.00  0.00    -0.396 OA
ATOM     16  H   UNL     1     122.488 120.246 120.578  1.00  0.00     0.210 HD
ENDBRANCH  14  15
ENDBRANCH  13  14
ENDBRANCH  12  13
ENDBRANCH  11  12
ENDBRANCH  10  11
ENDBRANCH   9  10
ENDBRANCH   1   9
TORSDOF 13
ENDMDL
MODEL 4
REMARK VINA RESULT:    -4.207      3.056      4.288
REMARK INTER + INTRA:          -8.384
REMARK INTER:                  -7.633
REMARK INTRA:                  -0.751
REMARK UNBOUND:                -1.102
REMARK SMILES CCCCCCCCCCCCCCO
REMARK SMILES IDX 8 1 7 2 6 3 5 4 4 5 3 6 2 7 1 8 9 9 10 10 11 11 12 12 13 13
REMARK SMILES IDX 14 14 15 15
REMARK H PARENT 15 16
REMARK Flexibility Score: inf
ROOT
ATOM      1  C   UNL     1     116.999 115.193 117.916  1.00  0.00     0.000 C 
ENDROOT
BRANCH   1   2
ATOM      2  C   UNL     1     116.824 116.600 117.333  1.00  0.00    -0.000 C 
BRANCH   2   3
ATOM      3  C   UNL     1     117.361 116.673 115.898  1.00  0.00    -0.000 C 
BRANCH   3   4
ATOM      4  C   UNL     1     116.247 117.042 114.911  1.00  0.00    -0.000 C 
BRANCH   4   5
ATOM      5  C   UNL     1     116.280 116.127 113.678  1.00  0.00    -0.000 C 
BRANCH   5   6
ATOM      6  C   UNL     1     117.198 116.658 112.562  1.00  0.00    -0.000 C 
BRANCH   6   7
ATOM      7  C   UNL     1     116.510 117.588 111.546  1.00  0.00    -0.003 C 
ATOM      8  C   UNL     1     115.006 117.340 111.432  1.00  0.00     0.004 C 
ENDBRANCH   6   7
ENDBRANCH   5   6
ENDBRANCH   4   5
ENDBRANCH   3   4
ENDBRANCH   2   3
ENDBRANCH   1   2
BRANCH   1   9
ATOM      9  C   UNL     1     115.655 114.627 118.399  1.00  0.00     0.000 C 
BRANCH   9  10
ATOM     10  C   UNL     1     114.449 115.353 117.780  1.00  0.00     0.000 C 
BRANCH  10  11
ATOM     11  C   UNL     1     113.190 114.473 117.726  1.00  0.00     0.000 C 
BRANCH  11  12
ATOM     12  C   UNL     1     113.474 113.076 118.295  1.00  0.00     0.002 C 
BRANCH  12  13
ATOM     13  C   UNL     1     112.612 111.978 117.650  1.00  0.00     0.028 C 
BRANCH  13  14
ATOM     14  C   UNL     1     112.144 110.903 118.643  1.00  0.00     0.156 C 
BRANCH  14  15
ATOM     15  O   UNL     1     111.409 109.900 117.996  1.00  0.00    -0.396 OA
ATOM     16  H   UNL     1     112.049 109.174 117.776  1.00  0.00     0.210 HD
ENDBRANCH  14  15
ENDBRANCH  13  14
ENDBRANCH  12  13
ENDBRANCH  11  12
ENDBRANCH  10  11
ENDBRANCH   9  10
ENDBRANCH   1   9
TORSDOF 13
ENDMDL
MODEL 5
REMARK VINA RESULT:    -4.186      3.052      4.587
REMARK INTER + INTRA:          -8.347
REMARK INTER:                  -6.916
REMARK INTRA:                  -1.431
REMARK UNBOUND:                -1.102
REMARK SMILES CCCCCCCCCCCCCCO
REMARK SMILES IDX 8 1 7 2 6 3 5 4 4 5 3 6 2 7 1 8 9 9 10 10 11 11 12 12 13 13
REMARK SMILES IDX 14 14 15 15
REMARK H PARENT 15 16
REMARK Flexibility Score: inf
ROOT
ATOM      1  C   UNL     1     117.204 114.264 118.570  1.00  0.00     0.000 C 
ENDROOT
BRANCH   1   2
ATOM      2  C   UNL     1     117.544 115.058 117.303  1.00  0.00    -0.000 C 
BRANCH   2   3
ATOM      3  C   UNL     1     117.358 116.564 117.530  1.00  0.00    -0.000 C 
BRANCH   3   4
ATOM      4  C   UNL     1     116.638 117.215 116.342  1.00  0.00    -0.000 C 
BRANCH   4   5
ATOM      5  C   UNL     1     116.598 116.265 115.136  1.00  0.00    -0.000 C 
BRANCH   5   6
ATOM      6  C   UNL     1     116.732 116.999 113.790  1.00  0.00    -0.000 C 
BRANCH   6   7
ATOM      7  C   UNL     1     116.473 116.127 112.548  1.00  0.00    -0.003 C 
ATOM      8  C   UNL     1     117.756 115.713 111.829  1.00  0.00     0.004 C 
ENDBRANCH   6   7
ENDBRANCH   5   6
ENDBRANCH   4   5
ENDBRANCH   3   4
ENDBRANCH   2   3
ENDBRANCH   1   2
BRANCH   1   9
ATOM      9  C   UNL     1     115.915 114.791 119.219  1.00  0.00     0.000 C 
BRANCH   9  10
ATOM     10  C   UNL     1     114.652 114.380 118.445  1.00  0.00     0.000 C 
BRANCH  10  11
ATOM     11  C   UNL     1     113.744 115.576 118.114  1.00  0.00     0.000 C 
BRANCH  11  12
ATOM     12  C   UNL     1     113.908 116.692 119.156  1.00  0.00     0.002 C 
BRANCH  12  13
ATOM     13  C   UNL     1     113.765 118.101 118.556  1.00  0.00     0.028 C 
BRANCH  13  14
ATOM     14  C   UNL     1     114.765 119.116 119.128  1.00  0.00     0.156 C 
BRANCH  14  15
ATOM     15  O   UNL     1     115.070 120.111 118.189  1.00  0.00    -0.396 OA
ATOM     16  H   UNL     1     115.288 120.932 118.703  1.00  0.00     0.210 HD
ENDBRANCH  14  15
ENDBRANCH  13  14
ENDBRANCH  12  13
ENDBRANCH  11  12
ENDBRANCH  10  11
ENDBRANCH   9  10
ENDBRANCH   1   9
TORSDOF 13
ENDMDL
MODEL 6
REMARK VINA RESULT:    -4.174      3.606      6.168
REMARK INTER + INTRA:          -8.326
REMARK INTER:                  -7.283
REMARK INTRA:                  -1.043
REMARK UNBOUND:                -1.102
REMARK SMILES CCCCCCCCCCCCCCO
REMARK SMILES IDX 8 1 7 2 6 3 5 4 4 5 3 6 2 7 1 8 9 9 10 10 11 11 12 12 13 13
REMARK SMILES IDX 14 14 15 15
REMARK H PARENT 15 16
REMARK Flexibility Score: inf
ROOT
ATOM      1  C   UNL     1     117.843 117.757 117.687  1.00  0.00     0.000 C 
ENDROOT
BRANCH   1   2
ATOM      2  C   UNL     1     117.008 118.251 118.875  1.00  0.00    -0.000 C 
BRANCH   2   3
ATOM      3  C   UNL     1     116.473 119.666 118.621  1.00  0.00    -0.000 C 
BRANCH   3   4
ATOM      4  C   UNL     1     115.207 119.628 117.755  1.00  0.00    -0.000 C 
BRANCH   4   5
ATOM      5  C   UNL     1     114.120 118.760 118.407  1.00  0.00    -0.000 C 
BRANCH   5   6
ATOM      6  C   UNL     1     113.233 119.548 119.387  1.00  0.00    -0.000 C 
BRANCH   6   7
ATOM      7  C   UNL     1     112.564 120.801 118.791  1.00  0.00    -0.003 C 
ATOM      8  C   UNL     1     111.747 120.501 117.535  1.00  0.00     0.004 C 
ENDBRANCH   6   7
ENDBRANCH   5   6
ENDBRANCH   4   5
ENDBRANCH   3   4
ENDBRANCH   2   3
ENDBRANCH   1   2
BRANCH   1   9
ATOM      9  C   UNL     1     117.508 116.297 117.350  1.00  0.00     0.000 C 
BRANCH   9  10
ATOM     10  C   UNL     1     116.284 116.167 116.429  1.00  0.00     0.000 C 
BRANCH  10  11
ATOM     11  C   UNL     1     116.375 117.070 115.190  1.00  0.00     0.000 C 
BRANCH  11  12
ATOM     12  C   UNL     1     116.888 116.284 113.975  1.00  0.00     0.002 C 
BRANCH  12  13
ATOM     13  C   UNL     1     116.972 117.137 112.698  1.00  0.00     0.028 C 
BRANCH  13  14
ATOM     14  C   UNL     1     117.347 116.331 111.446  1.00  0.00     0.156 C 
BRANCH  14  15
ATOM     15  O   UNL     1     116.702 115.088 111.430  1.00  0.00    -0.396 OA
ATOM     16  H   UNL     1     116.121 115.056 112.235  1.00  0.00     0.210 HD
ENDBRANCH  14  15
ENDBRANCH  13  14
ENDBRANCH  12  13
ENDBRANCH  11  12
ENDBRANCH  10  11
ENDBRANCH   9  10
ENDBRANCH   1   9
TORSDOF 13
ENDMDL
MODEL 7
REMARK VINA RESULT:    -4.173      3.787      6.222
REMARK INTER + INTRA:          -8.325
REMARK INTER:                  -6.968
REMARK INTRA:                  -1.357
REMARK UNBOUND:                -1.102
REMARK SMILES CCCCCCCCCCCCCCO
REMARK SMILES IDX 8 1 7 2 6 3 5 4 4 5 3 6 2 7 1 8 9 9 10 10 11 11 12 12 13 13
REMARK SMILES IDX 14 14 15 15
REMARK H PARENT 15 16
REMARK Flexibility Score: inf
ROOT
ATOM      1  C   UNL     1     115.456 117.104 118.002  1.00  0.00     0.000 C 
ENDROOT
BRANCH   1   2
ATOM      2  C   UNL     1     115.561 118.173 119.097  1.00  0.00    -0.000 C 
BRANCH   2   3
ATOM      3  C   UNL     1     116.244 119.439 118.566  1.00  0.00    -0.000 C 
BRANCH   3   4
ATOM      4  C   UNL     1     117.147 120.068 119.636  1.00  0.00    -0.000 C 
BRANCH   4   5
ATOM      5  C   UNL     1     118.511 119.364 119.685  1.00  0.00    -0.000 C 
BRANCH   5   6
ATOM      6  C   UNL     1     119.341 119.576 118.406  1.00  0.00    -0.000 C 
BRANCH   6   7
ATOM      7  C   UNL     1     119.662 118.290 117.623  1.00  0.00    -0.003 C 
ATOM      8  C   UNL     1     119.481 117.022 118.456  1.00  0.00     0.004 C 
ENDBRANCH   6   7
ENDBRANCH   5   6
ENDBRANCH   4   5
ENDBRANCH   3   4
ENDBRANCH   2   3
ENDBRANCH   1   2
BRANCH   1   9
ATOM      9  C   UNL     1     116.098 117.592 116.695  1.00  0.00     0.000 C 
BRANCH   9  10
ATOM     10  C   UNL     1     116.796 116.463 115.920  1.00  0.00     0.000 C 
BRANCH  10  11
ATOM     11  C   UNL     1     116.239 116.287 114.498  1.00  0.00     0.000 C 
BRANCH  11  12
ATOM     12  C   UNL     1     117.117 117.020 113.472  1.00  0.00     0.002 C 
BRANCH  12  13
ATOM     13  C   UNL     1     116.852 116.570 112.025  1.00  0.00     0.028 C 
BRANCH  13  14
ATOM     14  C   UNL     1     115.378 116.679 111.609  1.00  0.00     0.156 C 
BRANCH  14  15
ATOM     15  O   UNL     1     114.936 118.009 111.652  1.00  0.00    -0.396 OA
ATOM     16  H   UNL     1     115.330 118.466 110.863  1.00  0.00     0.210 HD
ENDBRANCH  14  15
ENDBRANCH  13  14
ENDBRANCH  12  13
ENDBRANCH  11  12
ENDBRANCH  10  11
ENDBRANCH   9  10
ENDBRANCH   1   9
TORSDOF 13
ENDMDL
MODEL 8
REMARK VINA RESULT:    -4.157      2.949      4.162
REMARK INTER + INTRA:          -8.297
REMARK INTER:                  -6.904
REMARK INTRA:                  -1.393
REMARK UNBOUND:                -1.102
REMARK SMILES CCCCCCCCCCCCCCO
REMARK SMILES IDX 8 1 7 2 6 3 5 4 4 5 3 6 2 7 1 8 9 9 10 10 11 11 12 12 13 13
REMARK SMILES IDX 14 14 15 15
REMARK H PARENT 15 16
REMARK Flexibility Score: inf
ROOT
ATOM      1  C   UNL     1     114.961 117.165 118.863  1.00  0.00     0.000 C 
ENDROOT
BRANCH   1   2
ATOM      2  C   UNL     1     115.048 116.140 117.726  1.00  0.00    -0.000 C 
BRANCH   2   3
ATOM      3  C   UNL     1     116.505 115.752 117.444  1.00  0.00    -0.000 C 
BRANCH   3   4
ATOM      4  C   UNL     1     117.162 116.745 116.477  1.00  0.00    -0.000 C 
BRANCH   4   5
ATOM      5  C   UNL     1     116.294 116.950 115.226  1.00  0.00    -0.000 C 
BRANCH   5   6
ATOM      6  C   UNL     1     116.955 116.413 113.944  1.00  0.00    -0.000 C 
BRANCH   6   7
ATOM      7  C   UNL     1     116.191 116.722 112.644  1.00  0.00    -0.003 C 
ATOM      8  C   UNL     1     116.936 117.692 111.728  1.00  0.00     0.004 C 
ENDBRANCH   6   7
ENDBRANCH   5   6
ENDBRANCH   4   5
ENDBRANCH   3   4
ENDBRANCH   2   3
ENDBRANCH   1   2
BRANCH   1   9
ATOM      9  C   UNL     1     114.249 118.443 118.397  1.00  0.00     0.000 C 
BRANCH   9  10
ATOM     10  C   UNL     1     115.227 119.588 118.090  1.00  0.00     0.000 C 
BRANCH  10  11
ATOM     11  C   UNL     1     116.236 119.827 119.225  1.00  0.00     0.000 C 
BRANCH  11  12
ATOM     12  C   UNL     1     117.675 119.628 118.729  1.00  0.00     0.002 C 
BRANCH  12  13
ATOM     13  C   UNL     1     118.432 118.537 119.504  1.00  0.00     0.028 C 
BRANCH  13  14
ATOM     14  C   UNL     1     119.716 118.066 118.805  1.00  0.00     0.156 C 
BRANCH  14  15
ATOM     15  O   UNL     1     120.477 119.155 118.355  1.00  0.00    -0.396 OA
ATOM     16  H   UNL     1     120.959 119.513 119.146  1.00  0.00     0.210 HD
ENDBRANCH  14  15
ENDBRANCH  13  14
ENDBRANCH  12  13
ENDBRANCH  11  12
ENDBRANCH  10  11
ENDBRANCH   9  10
ENDBRANCH   1   9
TORSDOF 13
ENDMDL
MODEL 9
REMARK VINA RESULT:    -4.121      3.434      6.034
REMARK INTER + INTRA:          -8.235
REMARK INTER:                  -6.818
REMARK INTRA:                  -1.417
REMARK UNBOUND:                -1.102
REMARK SMILES CCCCCCCCCCCCCCO
REMARK SMILES IDX 8 1 7 2 6 3 5 4 4 5 3 6 2 7 1 8 9 9 10 10 11 11 12 12 13 13
REMARK SMILES IDX 14 14 15 15
REMARK H PARENT 15 16
REMARK Flexibility Score: inf
ROOT
ATOM      1  C   UNL     1     117.112 117.805 118.600  1.00  0.00     0.000 C 
ENDROOT
BRANCH   1   2
ATOM      2  C   UNL     1     116.567 119.237 118.532  1.00  0.00    -0.000 C 
BRANCH   2   3
ATOM      3  C   UNL     1     115.201 119.274 117.837  1.00  0.00    -0.000 C 
BRANCH   3   4
ATOM      4  C   UNL     1     114.061 119.180 118.860  1.00  0.00    -0.000 C 
BRANCH   4   5
ATOM      5  C   UNL     1     113.297 117.855 118.711  1.00  0.00    -0.000 C 
BRANCH   5   6
ATOM      6  C   UNL     1     113.770 116.777 119.702  1.00  0.00    -0.000 C 
BRANCH   6   7
ATOM      7  C   UNL     1     114.330 115.499 119.049  1.00  0.00    -0.003 C 
ATOM      8  C   UNL     1     113.618 115.132 117.748  1.00  0.00     0.004 C 
ENDBRANCH   6   7
ENDBRANCH   5   6
ENDBRANCH   4   5
ENDBRANCH   3   4
ENDBRANCH   2   3
ENDBRANCH   1   2
BRANCH   1   9
ATOM      9  C   UNL     1     117.781 117.408 117.276  1.00  0.00     0.000 C 
BRANCH   9  10
ATOM     10  C   UNL     1     117.031 116.281 116.547  1.00  0.00     0.000 C 
BRANCH  10  11
ATOM     11  C   UNL     1     116.233 116.788 115.335  1.00  0.00     0.000 C 
BRANCH  11  12
ATOM     12  C   UNL     1     116.878 116.323 114.021  1.00  0.00     0.002 C 
BRANCH  12  13
ATOM     13  C   UNL     1     116.218 116.940 112.777  1.00  0.00     0.028 C 
BRANCH  13  14
ATOM     14  C   UNL     1     116.197 115.998 111.564  1.00  0.00     0.156 C 
BRANCH  14  15
ATOM     15  O   UNL     1     115.268 114.963 111.742  1.00  0.00    -0.396 OA
ATOM     16  H   UNL     1     114.800 114.847 110.874  1.00  0.00     0.210 HD
ENDBRANCH  14  15
ENDBRANCH  13  14
ENDBRANCH  12  13
ENDBRANCH  11  12
ENDBRANCH  10  11
ENDBRANCH   9  10
ENDBRANCH   1   9
TORSDOF 13
ENDMDL
