MODEL 1
REMARK VINA RESULT:    -4.271      0.000      0.000
REMARK INTER + INTRA:          -6.506
REMARK INTER:                  -6.268
REMARK INTRA:                  -0.238
REMARK UNBOUND:                -0.238
REMARK SMILES O=C([O-])CCCCCCCC(=O)[O-]
REMARK SMILES IDX 7 1 6 2 5 3 4 4 2 5 1 6 3 7 8 8 9 9 10 10 11 11 12 12 13 13
REMARK H PARENT
REMARK Flexibility Score: inf
ROOT
ATOM      1  C   UNL     1      -7.425  -2.044 -11.299  1.00  0.00     0.000 C 
ENDROOT
BRANCH   1   2
ATOM      2  C   UNL     1      -8.329  -1.966 -12.534  1.00  0.00     0.000 C 
BRANCH   2   3
ATOM      3  C   UNL     1      -7.699  -2.695 -13.726  1.00  0.00     0.006 C 
BRANCH   3   4
ATOM      4  C   UNL     1      -8.353  -4.063 -13.942  1.00  0.00     0.053 C 
BRANCH   4   5
ATOM      5  C   UNL     1      -9.508  -3.949 -14.885  1.00  0.00     0.041 C 
ATOM      6  O   UNL     1      -9.332  -3.515 -16.053  1.00  0.00    -0.550 OA
ATOM      7  O   UNL     1     -10.772  -4.367 -14.490  1.00  0.00    -0.550 OA
ENDBRANCH   4   5
ENDBRANCH   3   4
ENDBRANCH   2   3
ENDBRANCH   1   2
BRANCH   1   8
ATOM      8  C   UNL     1      -6.867  -0.659 -10.937  1.00  0.00     0.000 C 
BRANCH   8   9
ATOM      9  C   UNL     1      -6.502  -0.538  -9.449  1.00  0.00     0.006 C 
BRANCH   9  10
ATOM     10  C   UNL     1      -7.306   0.555  -8.732  1.00  0.00     0.053 C 
BRANCH  10  11
ATOM     11  C   UNL     1      -6.536   1.838  -8.709  1.00  0.00     0.041 C 
ATOM     12  O   UNL     1      -5.601   2.002  -7.881  1.00  0.00    -0.550 OA
ATOM     13  O   UNL     1      -6.883   2.872  -9.569  1.00  0.00    -0.550 OA
ENDBRANCH  10  11
ENDBRANCH   9  10
ENDBRANCH   8   9
ENDBRANCH   1   8
TORSDOF 8
ENDMDL
MODEL 2
REMARK VINA RESULT:    -4.265      2.277      7.505
REMARK INTER + INTRA:          -6.498
REMARK INTER:                  -6.214
REMARK INTRA:                  -0.284
REMARK UNBOUND:                -0.238
REMARK SMILES O=C([O-])CCCCCCCC(=O)[O-]
REMARK SMILES IDX 7 1 6 2 5 3 4 4 2 5 1 6 3 7 8 8 9 9 10 10 11 11 12 12 13 13
REMARK H PARENT
REMARK Flexibility Score: inf
ROOT
ATOM      1  C   UNL     1      -8.766  -3.536 -14.216  1.00  0.00     0.000 C 
ENDROOT
BRANCH   1   2
ATOM      2  C   UNL     1      -7.374  -2.898 -14.125  1.00  0.00     0.000 C 
BRANCH   2   3
ATOM      3  C   UNL     1      -6.891  -2.837 -12.672  1.00  0.00     0.006 C 
BRANCH   3   4
ATOM      4  C   UNL     1      -7.758  -1.884 -11.843  1.00  0.00     0.053 C 
BRANCH   4   5
ATOM      5  C   UNL     1      -6.921  -1.142 -10.850  1.00  0.00     0.041 C 
ATOM      6  O   UNL     1      -6.956   0.115 -10.806  1.00  0.00    -0.550 OA
ATOM      7  O   UNL     1      -6.139  -1.842  -9.940  1.00  0.00    -0.550 OA
ENDBRANCH   4   5
ENDBRANCH   3   4
ENDBRANCH   2   3
ENDBRANCH   1   2
BRANCH   1   8
ATOM      8  C   UNL     1      -8.994  -4.162 -15.600  1.00  0.00     0.000 C 
BRANCH   8   9
ATOM      9  C   UNL     1     -10.306  -3.696 -16.252  1.00  0.00     0.006 C 
BRANCH   9  10
ATOM     10  C   UNL     1     -11.398  -4.772 -16.213  1.00  0.00     0.053 C 
BRANCH  10  11
ATOM     11  C   UNL     1     -12.418  -4.442 -15.169  1.00  0.00     0.041 C 
ATOM     12  O   UNL     1     -12.279  -4.864 -13.991  1.00  0.00    -0.550 OA
ATOM     13  O   UNL     1     -13.548  -3.710 -15.509  1.00  0.00    -0.550 OA
ENDBRANCH  10  11
ENDBRANCH   9  10
ENDBRANCH   8   9
ENDBRANCH   1   8
TORSDOF 8
ENDMDL
MODEL 3
REMARK VINA RESULT:    -4.246      5.317      8.049
REMARK INTER + INTRA:          -6.471
REMARK INTER:                  -6.255
REMARK INTRA:                  -0.216
REMARK UNBOUND:                -0.238
REMARK SMILES O=C([O-])CCCCCCCC(=O)[O-]
REMARK SMILES IDX 7 1 6 2 5 3 4 4 2 5 1 6 3 7 8 8 9 9 10 10 11 11 12 12 13 13
REMARK H PARENT
REMARK Flexibility Score: inf
ROOT
ATOM      1  C   UNL     1      -4.691  -2.338 -15.180  1.00  0.00     0.000 C 
ENDROOT
BRANCH   1   2
ATOM      2  C   UNL     1      -3.987  -2.759 -16.476  1.00  0.00     0.000 C 
BRANCH   2   3
ATOM      3  C   UNL     1      -3.523  -1.536 -17.274  1.00  0.00     0.006 C 
BRANCH   3   4
ATOM      4  C   UNL     1      -3.051  -1.939 -18.674  1.00  0.00     0.053 C 
BRANCH   4   5
ATOM      5  C   UNL     1      -1.629  -1.526 -18.886  1.00  0.00     0.041 C 
ATOM      6  O   UNL     1      -1.012  -1.889 -19.921  1.00  0.00    -0.550 OA
ATOM      7  O   UNL     1      -1.000  -0.699 -17.964  1.00  0.00    -0.550 OA
ENDBRANCH   4   5
ENDBRANCH   3   4
ENDBRANCH   2   3
ENDBRANCH   1   2
BRANCH   1   8
ATOM      8  C   UNL     1      -5.560  -3.479 -14.630  1.00  0.00     0.000 C 
BRANCH   8   9
ATOM      9  C   UNL     1      -7.061  -3.148 -14.659  1.00  0.00     0.006 C 
BRANCH   9  10
ATOM     10  C   UNL     1      -7.887  -4.220 -15.381  1.00  0.00     0.053 C 
BRANCH  10  11
ATOM     11  C   UNL     1      -9.320  -3.801 -15.471  1.00  0.00     0.041 C 
ATOM     12  O   UNL     1     -10.072  -3.890 -14.465  1.00  0.00    -0.550 OA
ATOM     13  O   UNL     1      -9.840  -3.357 -16.681  1.00  0.00    -0.550 OA
ENDBRANCH  10  11
ENDBRANCH   9  10
ENDBRANCH   8   9
ENDBRANCH   1   8
TORSDOF 8
ENDMDL
MODEL 4
REMARK VINA RESULT:    -4.193      2.494      3.933
REMARK INTER + INTRA:          -6.392
REMARK INTER:                  -6.083
REMARK INTRA:                  -0.310
REMARK UNBOUND:                -0.238
REMARK SMILES O=C([O-])CCCCCCCC(=O)[O-]
REMARK SMILES IDX 7 1 6 2 5 3 4 4 2 5 1 6 3 7 8 8 9 9 10 10 11 11 12 12 13 13
REMARK H PARENT
REMARK Flexibility Score: inf
ROOT
ATOM      1  C   UNL     1      -8.024  -3.937 -15.108  1.00  0.00     0.000 C 
ENDROOT
BRANCH   1   2
ATOM      2  C   UNL     1      -9.518  -3.763 -14.809  1.00  0.00     0.000 C 
BRANCH   2   3
ATOM      3  C   UNL     1     -10.347  -3.806 -16.098  1.00  0.00     0.006 C 
BRANCH   3   4
ATOM      4  C   UNL     1     -11.441  -4.874 -16.012  1.00  0.00     0.053 C 
BRANCH   4   5
ATOM      5  C   UNL     1     -12.589  -4.384 -15.188  1.00  0.00     0.041 C 
ATOM      6  O   UNL     1     -12.687  -4.714 -13.978  1.00  0.00    -0.550 OA
ATOM      7  O   UNL     1     -13.526  -3.522 -15.744  1.00  0.00    -0.550 OA
ENDBRANCH   4   5
ENDBRANCH   3   4
ENDBRANCH   2   3
ENDBRANCH   1   2
BRANCH   1   8
ATOM      8  C   UNL     1      -7.165  -3.368 -13.969  1.00  0.00     0.000 C 
BRANCH   8   9
ATOM      9  C   UNL     1      -7.914  -2.324 -13.126  1.00  0.00     0.006 C 
BRANCH   9  10
ATOM     10  C   UNL     1      -7.540  -2.389 -11.640  1.00  0.00     0.053 C 
BRANCH  10  11
ATOM     11  C   UNL     1      -6.642  -1.248 -11.278  1.00  0.00     0.041 C 
ATOM     12  O   UNL     1      -7.107  -0.237 -10.688  1.00  0.00    -0.550 OA
ATOM     13  O   UNL     1      -5.300  -1.278 -11.638  1.00  0.00    -0.550 OA
ENDBRANCH  10  11
ENDBRANCH   9  10
ENDBRANCH   8   9
ENDBRANCH   1   8
TORSDOF 8
ENDMDL
MODEL 5
REMARK VINA RESULT:    -4.159      0.574      7.469
REMARK INTER + INTRA:          -6.343
REMARK INTER:                  -6.098
REMARK INTRA:                  -0.245
REMARK UNBOUND:                -0.238
REMARK SMILES O=C([O-])CCCCCCCC(=O)[O-]
REMARK SMILES IDX 7 1 6 2 5 3 4 4 2 5 1 6 3 7 8 8 9 9 10 10 11 11 12 12 13 13
REMARK H PARENT
REMARK Flexibility Score: inf
ROOT
ATOM      1  C   UNL     1      -7.300  -1.949 -11.326  1.00  0.00     0.000 C 
ENDROOT
BRANCH   1   2
ATOM      2  C   UNL     1      -6.992  -0.516 -10.876  1.00  0.00     0.000 C 
BRANCH   2   3
ATOM      3  C   UNL     1      -6.597  -0.476  -9.395  1.00  0.00     0.006 C 
BRANCH   3   4
ATOM      4  C   UNL     1      -7.305   0.671  -8.668  1.00  0.00     0.053 C 
BRANCH   4   5
ATOM      5  C   UNL     1      -6.692   1.984  -9.038  1.00  0.00     0.041 C 
ATOM      6  O   UNL     1      -7.418   2.931  -9.438  1.00  0.00    -0.550 OA
ATOM      7  O   UNL     1      -5.324   2.178  -8.894  1.00  0.00    -0.550 OA
ENDBRANCH   4   5
ENDBRANCH   3   4
ENDBRANCH   2   3
ENDBRANCH   1   2
BRANCH   1   8
ATOM      8  C   UNL     1      -8.255  -1.955 -12.528  1.00  0.00     0.000 C 
BRANCH   8   9
ATOM      9  C   UNL     1      -7.658  -2.660 -13.756  1.00  0.00     0.006 C 
BRANCH   9  10
ATOM     10  C   UNL     1      -8.151  -4.106 -13.904  1.00  0.00     0.053 C 
BRANCH  10  11
ATOM     11  C   UNL     1      -9.072  -4.225 -15.077  1.00  0.00     0.041 C 
ATOM     12  O   UNL     1      -8.627  -4.589 -16.198  1.00  0.00    -0.550 OA
ATOM     13  O   UNL     1     -10.413  -3.887 -14.946  1.00  0.00    -0.550 OA
ENDBRANCH  10  11
ENDBRANCH   9  10
ENDBRANCH   8   9
ENDBRANCH   1   8
TORSDOF 8
ENDMDL
MODEL 6
REMARK VINA RESULT:    -4.149      1.072      7.563
REMARK INTER + INTRA:          -6.327
REMARK INTER:                  -6.143
REMARK INTRA:                  -0.184
REMARK UNBOUND:                -0.238
REMARK SMILES O=C([O-])CCCCCCCC(=O)[O-]
REMARK SMILES IDX 7 1 6 2 5 3 4 4 2 5 1 6 3 7 8 8 9 9 10 10 11 11 12 12 13 13
REMARK H PARENT
REMARK Flexibility Score: inf
ROOT
ATOM      1  C   UNL     1      -8.161  -1.972 -12.373  1.00  0.00     0.000 C 
ENDROOT
BRANCH   1   2
ATOM      2  C   UNL     1      -7.148  -1.927 -11.223  1.00  0.00     0.000 C 
BRANCH   2   3
ATOM      3  C   UNL     1      -6.768  -0.482 -10.880  1.00  0.00     0.006 C 
BRANCH   3   4
ATOM      4  C   UNL     1      -6.055  -0.407  -9.526  1.00  0.00     0.053 C 
BRANCH   4   5
ATOM      5  C   UNL     1      -6.755   0.552  -8.618  1.00  0.00     0.041 C 
ATOM      6  O   UNL     1      -7.962   0.369  -8.312  1.00  0.00    -0.550 OA
ATOM      7  O   UNL     1      -6.061   1.622  -8.068  1.00  0.00    -0.550 OA
ENDBRANCH   4   5
ENDBRANCH   3   4
ENDBRANCH   2   3
ENDBRANCH   1   2
BRANCH   1   8
ATOM      8  C   UNL     1      -7.597  -2.748 -13.573  1.00  0.00     0.000 C 
BRANCH   8   9
ATOM      9  C   UNL     1      -8.497  -3.918 -13.999  1.00  0.00     0.006 C 
BRANCH   9  10
ATOM     10  C   UNL     1      -8.596  -4.062 -15.523  1.00  0.00     0.053 C 
BRANCH  10  11
ATOM     11  C   UNL     1      -9.988  -3.762 -15.985  1.00  0.00     0.041 C 
ATOM     12  O   UNL     1     -10.179  -2.998 -16.967  1.00  0.00    -0.550 OA
ATOM     13  O   UNL     1     -11.076  -4.288 -15.300  1.00  0.00    -0.550 OA
ENDBRANCH  10  11
ENDBRANCH   9  10
ENDBRANCH   8   9
ENDBRANCH   1   8
TORSDOF 8
ENDMDL
MODEL 7
REMARK VINA RESULT:    -4.144      5.307      7.531
REMARK INTER + INTRA:          -6.321
REMARK INTER:                  -6.024
REMARK INTRA:                  -0.297
REMARK UNBOUND:                -0.238
REMARK SMILES O=C([O-])CCCCCCCC(=O)[O-]
REMARK SMILES IDX 7 1 6 2 5 3 4 4 2 5 1 6 3 7 8 8 9 9 10 10 11 11 12 12 13 13
REMARK H PARENT
REMARK Flexibility Score: inf
ROOT
ATOM      1  C   UNL     1      -4.687  -3.237 -15.741  1.00  0.00     0.000 C 
ENDROOT
BRANCH   1   2
ATOM      2  C   UNL     1      -5.182  -2.367 -14.580  1.00  0.00     0.000 C 
BRANCH   2   3
ATOM      3  C   UNL     1      -6.586  -2.790 -14.135  1.00  0.00     0.006 C 
BRANCH   3   4
ATOM      4  C   UNL     1      -7.077  -3.998 -14.939  1.00  0.00     0.053 C 
BRANCH   4   5
ATOM      5  C   UNL     1      -8.559  -3.934 -15.128  1.00  0.00     0.041 C 
ATOM      6  O   UNL     1      -9.296  -3.481 -14.214  1.00  0.00    -0.550 OA
ATOM      7  O   UNL     1      -9.124  -4.330 -16.335  1.00  0.00    -0.550 OA
ENDBRANCH   4   5
ENDBRANCH   3   4
ENDBRANCH   2   3
ENDBRANCH   1   2
BRANCH   1   8
ATOM      8  C   UNL     1      -3.352  -2.713 -16.292  1.00  0.00     0.000 C 
BRANCH   8   9
ATOM      9  C   UNL     1      -3.535  -1.559 -17.290  1.00  0.00     0.006 C 
BRANCH   9  10
ATOM     10  C   UNL     1      -3.072  -1.924 -18.706  1.00  0.00     0.053 C 
BRANCH  10  11
ATOM     11  C   UNL     1      -1.637  -1.547 -18.898  1.00  0.00     0.041 C 
ATOM     12  O   UNL     1      -1.072  -0.764 -18.089  1.00  0.00    -0.550 OA
ATOM     13  O   UNL     1      -0.935  -2.021 -20.000  1.00  0.00    -0.550 OA
ENDBRANCH  10  11
ENDBRANCH   9  10
ENDBRANCH   8   9
ENDBRANCH   1   8
TORSDOF 8
ENDMDL
MODEL 8
REMARK VINA RESULT:    -4.143      1.399      1.909
REMARK INTER + INTRA:          -6.318
REMARK INTER:                  -6.059
REMARK INTRA:                  -0.259
REMARK UNBOUND:                -0.238
REMARK SMILES O=C([O-])CCCCCCCC(=O)[O-]
REMARK SMILES IDX 7 1 6 2 5 3 4 4 2 5 1 6 3 7 8 8 9 9 10 10 11 11 12 12 13 13
REMARK H PARENT
REMARK Flexibility Score: inf
ROOT
ATOM      1  C   UNL     1      -7.760  -3.041 -12.779  1.00  0.00     0.000 C 
ENDROOT
BRANCH   1   2
ATOM      2  C   UNL     1      -7.443  -2.847 -14.266  1.00  0.00     0.000 C 
BRANCH   2   3
ATOM      3  C   UNL     1      -8.178  -3.882 -15.126  1.00  0.00     0.006 C 
BRANCH   3   4
ATOM      4  C   UNL     1      -9.656  -3.973 -14.734  1.00  0.00     0.053 C 
BRANCH   4   5
ATOM      5  C   UNL     1     -10.527  -3.864 -15.945  1.00  0.00     0.041 C 
ATOM      6  O   UNL     1     -10.193  -3.116 -16.900  1.00  0.00    -0.550 OA
ATOM      7  O   UNL     1     -11.684  -4.627 -16.040  1.00  0.00    -0.550 OA
ENDBRANCH   4   5
ENDBRANCH   3   4
ENDBRANCH   2   3
ENDBRANCH   1   2
BRANCH   1   8
ATOM      8  C   UNL     1      -7.898  -1.689 -12.065  1.00  0.00     0.000 C 
BRANCH   8   9
ATOM      9  C   UNL     1      -7.023  -1.591 -10.805  1.00  0.00     0.006 C 
BRANCH   9  10
ATOM     10  C   UNL     1      -6.545  -0.160 -10.528  1.00  0.00     0.053 C 
BRANCH  10  11
ATOM     11  C   UNL     1      -6.552   0.117  -9.058  1.00  0.00     0.041 C 
ATOM     12  O   UNL     1      -5.473   0.131  -8.410  1.00  0.00    -0.550 OA
ATOM     13  O   UNL     1      -7.757   0.311  -8.393  1.00  0.00    -0.550 OA
ENDBRANCH  10  11
ENDBRANCH   9  10
ENDBRANCH   8   9
ENDBRANCH   1   8
TORSDOF 8
ENDMDL
MODEL 9
REMARK VINA RESULT:    -4.110      1.352      6.817
REMARK INTER + INTRA:          -6.270
REMARK INTER:                  -5.833
REMARK INTRA:                  -0.437
REMARK UNBOUND:                -0.238
REMARK SMILES O=C([O-])CCCCCCCC(=O)[O-]
REMARK SMILES IDX 7 1 6 2 5 3 4 4 2 5 1 6 3 7 8 8 9 9 10 10 11 11 12 12 13 13
REMARK H PARENT
REMARK Flexibility Score: inf
ROOT
ATOM      1  C   UNL     1      -5.625  -1.363 -10.046  1.00  0.00     0.000 C 
ENDROOT
BRANCH   1   2
ATOM      2  C   UNL     1      -5.526  -0.512  -8.774  1.00  0.00     0.000 C 
BRANCH   2   3
ATOM      3  C   UNL     1      -6.719   0.444  -8.657  1.00  0.00     0.006 C 
BRANCH   3   4
ATOM      4  C   UNL     1      -6.253   1.902  -8.601  1.00  0.00     0.053 C 
BRANCH   4   5
ATOM      5  C   UNL     1      -6.411   2.555  -9.937  1.00  0.00     0.041 C 
ATOM      6  O   UNL     1      -5.677   2.211 -10.900  1.00  0.00    -0.550 OA
ATOM      7  O   UNL     1      -7.401   3.509 -10.132  1.00  0.00    -0.550 OA
ENDBRANCH   4   5
ENDBRANCH   3   4
ENDBRANCH   2   3
ENDBRANCH   1   2
BRANCH   1   8
ATOM      8  C   UNL     1      -6.971  -1.144 -10.752  1.00  0.00     0.000 C 
BRANCH   8   9
ATOM      9  C   UNL     1      -7.437  -2.380 -11.537  1.00  0.00     0.006 C 
BRANCH   9  10
ATOM     10  C   UNL     1      -8.333  -2.019 -12.728  1.00  0.00     0.053 C 
BRANCH  10  11
ATOM     11  C   UNL     1      -8.180  -3.029 -13.821  1.00  0.00     0.041 C 
ATOM     12  O   UNL     1      -7.072  -3.172 -14.403  1.00  0.00    -0.550 OA
ATOM     13  O   UNL     1      -9.274  -3.780 -14.232  1.00  0.00    -0.550 OA
ENDBRANCH  10  11
ENDBRANCH   9  10
ENDBRANCH   8   9
ENDBRANCH   1   8
TORSDOF 8
ENDMDL
