MODEL 1
REMARK VINA RESULT:    -7.288      0.000      0.000
REMARK INTER + INTRA:          -8.841
REMARK INTER:                  -8.566
REMARK INTRA:                  -0.275
REMARK UNBOUND:                -0.275
REMARK SMILES O=c1c(O)c(-c2ccc(O)cc2)oc2cc(O)cc(O)c12
REMARK SMILES IDX 5 1 3 2 2 3 1 4 21 5 19 6 18 7 16 8 15 9 14 10 13 11 6 12
REMARK SMILES IDX 7 13 8 14 9 15 12 16 11 17 10 18 4 20 20 22 17 24
REMARK H PARENT 10 19 4 21 20 23 17 25
REMARK Flexibility Score: inf
ROOT
ATOM      1  C   UNL     1      19.420  24.512  41.213  1.00  0.00     0.180 A 
ATOM      2  C   UNL     1      20.170  25.694  41.373  1.00  0.00     0.208 A 
ATOM      3  C   UNL     1      19.826  26.579  42.407  1.00  0.00     0.238 A 
ATOM      4  O   UNL     1      20.496  27.635  42.567  1.00  0.00    -0.285 OA
ATOM      5  C   UNL     1      18.734  26.281  43.247  1.00  0.00     0.111 A 
ATOM      6  C   UNL     1      18.321  27.120  44.309  1.00  0.00     0.134 A 
ATOM      7  C   UNL     1      17.217  26.757  45.094  1.00  0.00     0.093 A 
ATOM      8  C   UNL     1      16.520  25.574  44.840  1.00  0.00     0.123 A 
ATOM      9  C   UNL     1      16.924  24.740  43.793  1.00  0.00     0.094 A 
ATOM     10  C   UNL     1      18.022  25.083  42.999  1.00  0.00     0.146 A 
ATOM     11  O   UNL     1      18.387  24.271  42.014  1.00  0.00    -0.452 OA
ENDROOT
BRANCH   1  12
ATOM     12  C   UNL     1      19.731  23.520  40.158  1.00  0.00     0.021 A 
ATOM     13  C   UNL     1      20.550  22.420  40.465  1.00  0.00     0.016 A 
ATOM     14  C   UNL     1      20.876  21.483  39.479  1.00  0.00     0.047 A 
ATOM     15  C   UNL     1      20.398  21.642  38.172  1.00  0.00     0.115 A 
ATOM     16  C   UNL     1      19.273  23.683  38.839  1.00  0.00     0.016 A 
ATOM     17  C   UNL     1      19.600  22.745  37.855  1.00  0.00     0.047 A 
BRANCH  15  18
ATOM     18  O   UNL     1      20.716  20.715  37.182  1.00  0.00    -0.508 OA
ATOM     19  H   UNL     1      20.112  20.567  36.382  1.00  0.00     0.293 HD
ENDBRANCH  15  18
ENDBRANCH   1  12
BRANCH   2  20
ATOM     20  O   UNL     1      21.216  25.991  40.496  1.00  0.00    -0.502 OA
ATOM     21  H   UNL     1      21.220  25.680  39.532  1.00  0.00     0.293 HD
ENDBRANCH   2  20
BRANCH   6  22
ATOM     22  O   UNL     1      18.997  28.309  44.588  1.00  0.00    -0.507 OA
ATOM     23  H   UNL     1      19.125  29.027  43.883  1.00  0.00     0.293 HD
ENDBRANCH   6  22
BRANCH   8  24
ATOM     24  O   UNL     1      15.427  25.237  45.635  1.00  0.00    -0.508 OA
ATOM     25  H   UNL     1      14.478  25.296  45.283  1.00  0.00     0.293 HD
ENDBRANCH   8  24
TORSDOF 5
ENDMDL
MODEL 2
REMARK VINA RESULT:    -7.068      1.269      2.922
REMARK INTER + INTRA:          -8.583
REMARK INTER:                  -8.299
REMARK INTRA:                  -0.284
REMARK UNBOUND:                -0.275
REMARK SMILES O=c1c(O)c(-c2ccc(O)cc2)oc2cc(O)cc(O)c12
REMARK SMILES IDX 5 1 3 2 2 3 1 4 21 5 19 6 18 7 16 8 15 9 14 10 13 11 6 12
REMARK SMILES IDX 7 13 8 14 9 15 12 16 11 17 10 18 4 20 20 22 17 24
REMARK H PARENT 10 19 4 21 20 23 17 25
REMARK Flexibility Score: inf
ROOT
ATOM      1  C   UNL     1      18.692  24.359  41.639  1.00  0.00     0.180 A 
ATOM      2  C   UNL     1      17.478  24.034  42.276  1.00  0.00     0.208 A 
ATOM      3  C   UNL     1      17.060  24.805  43.372  1.00  0.00     0.238 A 
ATOM      4  O   UNL     1      15.970  24.529  43.944  1.00  0.00    -0.285 OA
ATOM      5  C   UNL     1      17.866  25.870  43.824  1.00  0.00     0.111 A 
ATOM      6  C   UNL     1      17.519  26.692  44.922  1.00  0.00     0.134 A 
ATOM      7  C   UNL     1      18.380  27.727  45.316  1.00  0.00     0.093 A 
ATOM      8  C   UNL     1      19.578  27.956  44.635  1.00  0.00     0.123 A 
ATOM      9  C   UNL     1      19.926  27.147  43.549  1.00  0.00     0.094 A 
ATOM     10  C   UNL     1      19.081  26.111  43.139  1.00  0.00     0.146 A 
ATOM     11  O   UNL     1      19.433  25.361  42.102  1.00  0.00    -0.452 OA
ENDROOT
BRANCH   1  12
ATOM     12  C   UNL     1      19.191  23.606  40.466  1.00  0.00     0.021 A 
ATOM     13  C   UNL     1      20.198  22.643  40.641  1.00  0.00     0.016 A 
ATOM     14  C   UNL     1      20.701  21.936  39.544  1.00  0.00     0.047 A 
ATOM     15  C   UNL     1      20.211  22.193  38.257  1.00  0.00     0.115 A 
ATOM     16  C   UNL     1      18.719  23.873  39.168  1.00  0.00     0.016 A 
ATOM     17  C   UNL     1      19.223  23.164  38.073  1.00  0.00     0.047 A 
BRANCH  15  18
ATOM     18  O   UNL     1      20.703  21.495  37.157  1.00  0.00    -0.508 OA
ATOM     19  H   UNL     1      21.694  21.307  37.048  1.00  0.00     0.293 HD
ENDBRANCH  15  18
ENDBRANCH   1  12
BRANCH   2  20
ATOM     20  O   UNL     1      16.722  22.942  41.841  1.00  0.00    -0.502 OA
ATOM     21  H   UNL     1      15.712  22.974  41.772  1.00  0.00     0.293 HD
ENDBRANCH   2  20
BRANCH   6  22
ATOM     22  O   UNL     1      16.329  26.489  45.623  1.00  0.00    -0.507 OA
ATOM     23  H   UNL     1      15.443  26.366  45.144  1.00  0.00     0.293 HD
ENDBRANCH   6  22
BRANCH   8  24
ATOM     24  O   UNL     1      20.415  28.990  45.047  1.00  0.00    -0.508 OA
ATOM     25  H   UNL     1      20.369  29.365  45.988  1.00  0.00     0.293 HD
ENDBRANCH   8  24
TORSDOF 5
ENDMDL
MODEL 3
REMARK VINA RESULT:    -6.228      1.607      3.133
REMARK INTER + INTRA:          -7.595
REMARK INTER:                  -7.364
REMARK INTRA:                  -0.232
REMARK UNBOUND:                -0.275
REMARK SMILES O=c1c(O)c(-c2ccc(O)cc2)oc2cc(O)cc(O)c12
REMARK SMILES IDX 5 1 3 2 2 3 1 4 21 5 19 6 18 7 16 8 15 9 14 10 13 11 6 12
REMARK SMILES IDX 7 13 8 14 9 15 12 16 11 17 10 18 4 20 20 22 17 24
REMARK H PARENT 10 19 4 21 20 23 17 25
REMARK Flexibility Score: inf
ROOT
ATOM      1  C   UNL     1      18.464  25.116  40.839  1.00  0.00     0.180 A 
ATOM      2  C   UNL     1      17.268  24.655  41.426  1.00  0.00     0.208 A 
ATOM      3  C   UNL     1      16.906  25.138  42.692  1.00  0.00     0.238 A 
ATOM      4  O   UNL     1      15.832  24.741  43.223  1.00  0.00    -0.285 OA
ATOM      5  C   UNL     1      17.747  26.052  43.358  1.00  0.00     0.111 A 
ATOM      6  C   UNL     1      17.456  26.583  44.638  1.00  0.00     0.134 A 
ATOM      7  C   UNL     1      18.351  27.482  45.238  1.00  0.00     0.093 A 
ATOM      8  C   UNL     1      19.527  27.859  44.587  1.00  0.00     0.123 A 
ATOM      9  C   UNL     1      19.820  27.338  43.322  1.00  0.00     0.094 A 
ATOM     10  C   UNL     1      18.941  26.442  42.706  1.00  0.00     0.146 A 
ATOM     11  O   UNL     1      19.241  25.966  41.503  1.00  0.00    -0.452 OA
ENDROOT
BRANCH   1  12
ATOM     12  C   UNL     1      18.906  24.668  39.498  1.00  0.00     0.021 A 
ATOM     13  C   UNL     1      19.473  23.392  39.348  1.00  0.00     0.016 A 
ATOM     14  C   UNL     1      19.918  22.958  38.096  1.00  0.00     0.047 A 
ATOM     15  C   UNL     1      19.813  23.800  36.981  1.00  0.00     0.115 A 
ATOM     16  C   UNL     1      18.822  25.515  38.378  1.00  0.00     0.016 A 
ATOM     17  C   UNL     1      19.268  25.078  37.127  1.00  0.00     0.047 A 
BRANCH  15  18
ATOM     18  O   UNL     1      20.252  23.378  35.728  1.00  0.00    -0.508 OA
ATOM     19  H   UNL     1      21.026  23.833  35.257  1.00  0.00     0.293 HD
ENDBRANCH  15  18
ENDBRANCH   1  12
BRANCH   2  20
ATOM     20  O   UNL     1      16.477  23.711  40.767  1.00  0.00    -0.502 OA
ATOM     21  H   UNL     1      15.491  23.595  40.968  1.00  0.00     0.293 HD
ENDBRANCH   2  20
BRANCH   6  22
ATOM     22  O   UNL     1      16.289  26.226  45.314  1.00  0.00    -0.507 OA
ATOM     23  H   UNL     1      16.249  26.195  46.328  1.00  0.00     0.293 HD
ENDBRANCH   6  22
BRANCH   8  24
ATOM     24  O   UNL     1      20.398  28.752  45.206  1.00  0.00    -0.508 OA
ATOM     25  H   UNL     1      20.135  29.717  45.376  1.00  0.00     0.293 HD
ENDBRANCH   8  24
TORSDOF 5
ENDMDL
MODEL 4
REMARK VINA RESULT:    -6.060      2.992      5.469
REMARK INTER + INTRA:          -7.399
REMARK INTER:                  -7.111
REMARK INTRA:                  -0.288
REMARK UNBOUND:                -0.275
REMARK SMILES O=c1c(O)c(-c2ccc(O)cc2)oc2cc(O)cc(O)c12
REMARK SMILES IDX 5 1 3 2 2 3 1 4 21 5 19 6 18 7 16 8 15 9 14 10 13 11 6 12
REMARK SMILES IDX 7 13 8 14 9 15 12 16 11 17 10 18 4 20 20 22 17 24
REMARK H PARENT 10 19 4 21 20 23 17 25
REMARK Flexibility Score: inf
ROOT
ATOM      1  C   UNL     1      17.439  23.392  42.515  1.00  0.00     0.180 A 
ATOM      2  C   UNL     1      17.839  24.483  43.313  1.00  0.00     0.208 A 
ATOM      3  C   UNL     1      18.483  25.569  42.701  1.00  0.00     0.238 A 
ATOM      4  O   UNL     1      18.837  26.555  43.403  1.00  0.00    -0.285 OA
ATOM      5  C   UNL     1      18.735  25.540  41.314  1.00  0.00     0.111 A 
ATOM      6  C   UNL     1      19.382  26.592  40.622  1.00  0.00     0.134 A 
ATOM      7  C   UNL     1      19.604  26.483  39.241  1.00  0.00     0.093 A 
ATOM      8  C   UNL     1      19.192  25.347  38.540  1.00  0.00     0.123 A 
ATOM      9  C   UNL     1      18.552  24.305  39.218  1.00  0.00     0.094 A 
ATOM     10  C   UNL     1      18.320  24.394  40.594  1.00  0.00     0.146 A 
ATOM     11  O   UNL     1      17.706  23.393  41.213  1.00  0.00    -0.452 OA
ENDROOT
BRANCH   1  12
ATOM     12  C   UNL     1      16.737  22.218  43.083  1.00  0.00     0.021 A 
ATOM     13  C   UNL     1      17.487  21.148  43.598  1.00  0.00     0.016 A 
ATOM     14  C   UNL     1      16.846  20.019  44.119  1.00  0.00     0.047 A 
ATOM     15  C   UNL     1      15.447  19.942  44.117  1.00  0.00     0.115 A 
ATOM     16  C   UNL     1      15.334  22.124  43.066  1.00  0.00     0.016 A 
ATOM     17  C   UNL     1      14.695  20.994  43.586  1.00  0.00     0.047 A 
BRANCH  15  18
ATOM     18  O   UNL     1      14.797  18.823  44.633  1.00  0.00    -0.508 OA
ATOM     19  H   UNL     1      13.958  18.910  45.194  1.00  0.00     0.293 HD
ENDBRANCH  15  18
ENDBRANCH   1  12
BRANCH   2  20
ATOM     20  O   UNL     1      17.624  24.465  44.693  1.00  0.00    -0.502 OA
ATOM     21  H   UNL     1      18.308  24.100  45.344  1.00  0.00     0.293 HD
ENDBRANCH   2  20
BRANCH   6  22
ATOM     22  O   UNL     1      19.805  27.740  41.294  1.00  0.00    -0.507 OA
ATOM     23  H   UNL     1      19.276  28.604  41.256  1.00  0.00     0.293 HD
ENDBRANCH   6  22
BRANCH   8  24
ATOM     24  O   UNL     1      19.425  25.265  37.169  1.00  0.00    -0.508 OA
ATOM     25  H   UNL     1      19.336  24.388  36.668  1.00  0.00     0.293 HD
ENDBRANCH   8  24
TORSDOF 5
ENDMDL
MODEL 5
REMARK VINA RESULT:    -6.035      2.000      6.908
REMARK INTER + INTRA:          -7.369
REMARK INTER:                  -7.073
REMARK INTRA:                  -0.296
REMARK UNBOUND:                -0.275
REMARK SMILES O=c1c(O)c(-c2ccc(O)cc2)oc2cc(O)cc(O)c12
REMARK SMILES IDX 5 1 3 2 2 3 1 4 21 5 19 6 18 7 16 8 15 9 14 10 13 11 6 12
REMARK SMILES IDX 7 13 8 14 9 15 12 16 11 17 10 18 4 20 20 22 17 24
REMARK H PARENT 10 19 4 21 20 23 17 25
REMARK Flexibility Score: inf
ROOT
ATOM      1  C   UNL     1      17.504  25.125  42.284  1.00  0.00     0.180 A 
ATOM      2  C   UNL     1      16.781  25.516  41.140  1.00  0.00     0.208 A 
ATOM      3  C   UNL     1      17.141  24.978  39.895  1.00  0.00     0.238 A 
ATOM      4  O   UNL     1      16.495  25.313  38.865  1.00  0.00    -0.285 OA
ATOM      5  C   UNL     1      18.224  24.080  39.809  1.00  0.00     0.111 A 
ATOM      6  C   UNL     1      18.653  23.496  38.593  1.00  0.00     0.134 A 
ATOM      7  C   UNL     1      19.747  22.618  38.591  1.00  0.00     0.093 A 
ATOM      8  C   UNL     1      20.418  22.311  39.777  1.00  0.00     0.123 A 
ATOM      9  C   UNL     1      19.998  22.884  40.982  1.00  0.00     0.094 A 
ATOM     10  C   UNL     1      18.910  23.761  41.006  1.00  0.00     0.146 A 
ATOM     11  O   UNL     1      18.529  24.287  42.164  1.00  0.00    -0.452 OA
ENDROOT
BRANCH   1  12
ATOM     12  C   UNL     1      17.172  25.633  43.636  1.00  0.00     0.021 A 
ATOM     13  C   UNL     1      17.866  26.742  44.146  1.00  0.00     0.016 A 
ATOM     14  C   UNL     1      17.586  27.225  45.428  1.00  0.00     0.047 A 
ATOM     15  C   UNL     1      16.618  26.595  46.220  1.00  0.00     0.115 A 
ATOM     16  C   UNL     1      16.216  24.993  44.445  1.00  0.00     0.016 A 
ATOM     17  C   UNL     1      15.938  25.478  45.727  1.00  0.00     0.047 A 
BRANCH  15  18
ATOM     18  O   UNL     1      16.329  27.067  47.499  1.00  0.00    -0.508 OA
ATOM     19  H   UNL     1      16.468  28.039  47.749  1.00  0.00     0.293 HD
ENDBRANCH  15  18
ENDBRANCH   1  12
BRANCH   2  20
ATOM     20  O   UNL     1      15.744  26.446  41.243  1.00  0.00    -0.502 OA
ATOM     21  H   UNL     1      15.428  26.996  40.454  1.00  0.00     0.293 HD
ENDBRANCH   2  20
BRANCH   6  22
ATOM     22  O   UNL     1      18.004  23.783  37.392  1.00  0.00    -0.507 OA
ATOM     23  H   UNL     1      17.792  23.058  36.715  1.00  0.00     0.293 HD
ENDBRANCH   6  22
BRANCH   8  24
ATOM     24  O   UNL     1      21.501  21.436  39.746  1.00  0.00    -0.508 OA
ATOM     25  H   UNL     1      22.028  21.275  38.894  1.00  0.00     0.293 HD
ENDBRANCH   8  24
TORSDOF 5
ENDMDL
MODEL 6
REMARK VINA RESULT:    -6.024      1.443      2.443
REMARK INTER + INTRA:          -7.356
REMARK INTER:                  -7.138
REMARK INTRA:                  -0.218
REMARK UNBOUND:                -0.275
REMARK SMILES O=c1c(O)c(-c2ccc(O)cc2)oc2cc(O)cc(O)c12
REMARK SMILES IDX 5 1 3 2 2 3 1 4 21 5 19 6 18 7 16 8 15 9 14 10 13 11 6 12
REMARK SMILES IDX 7 13 8 14 9 15 12 16 11 17 10 18 4 20 20 22 17 24
REMARK H PARENT 10 19 4 21 20 23 17 25
REMARK Flexibility Score: inf
ROOT
ATOM      1  C   UNL     1      18.442  25.667  42.336  1.00  0.00     0.180 A 
ATOM      2  C   UNL     1      19.091  26.733  42.990  1.00  0.00     0.208 A 
ATOM      3  C   UNL     1      18.612  27.151  44.241  1.00  0.00     0.238 A 
ATOM      4  O   UNL     1      19.190  28.098  44.841  1.00  0.00    -0.285 OA
ATOM      5  C   UNL     1      17.488  26.516  44.807  1.00  0.00     0.111 A 
ATOM      6  C   UNL     1      16.942  26.879  46.061  1.00  0.00     0.134 A 
ATOM      7  C   UNL     1      15.814  26.203  46.551  1.00  0.00     0.093 A 
ATOM      8  C   UNL     1      15.225  25.173  45.815  1.00  0.00     0.123 A 
ATOM      9  C   UNL     1      15.761  24.808  44.575  1.00  0.00     0.094 A 
ATOM     10  C   UNL     1      16.884  25.469  44.069  1.00  0.00     0.146 A 
ATOM     11  O   UNL     1      17.376  25.100  42.893  1.00  0.00    -0.452 OA
ENDROOT
BRANCH   1  12
ATOM     12  C   UNL     1      18.899  25.155  41.023  1.00  0.00     0.021 A 
ATOM     13  C   UNL     1      18.621  25.892  39.860  1.00  0.00     0.016 A 
ATOM     14  C   UNL     1      19.022  25.417  38.608  1.00  0.00     0.047 A 
ATOM     15  C   UNL     1      19.695  24.193  38.502  1.00  0.00     0.115 A 
ATOM     16  C   UNL     1      19.556  23.917  40.907  1.00  0.00     0.016 A 
ATOM     17  C   UNL     1      19.956  23.444  39.653  1.00  0.00     0.047 A 
BRANCH  15  18
ATOM     18  O   UNL     1      20.100  23.709  37.260  1.00  0.00    -0.508 OA
ATOM     19  H   UNL     1      21.025  23.320  37.119  1.00  0.00     0.293 HD
ENDBRANCH  15  18
ENDBRANCH   1  12
BRANCH   2  20
ATOM     20  O   UNL     1      20.171  27.380  42.385  1.00  0.00    -0.502 OA
ATOM     21  H   UNL     1      21.061  27.502  42.853  1.00  0.00     0.293 HD
ENDBRANCH   2  20
BRANCH   6  22
ATOM     22  O   UNL     1      17.508  27.904  46.820  1.00  0.00    -0.507 OA
ATOM     23  H   UNL     1      17.066  28.246  47.667  1.00  0.00     0.293 HD
ENDBRANCH   6  22
BRANCH   8  24
ATOM     24  O   UNL     1      14.107  24.518  46.325  1.00  0.00    -0.508 OA
ATOM     25  H   UNL     1      13.227  24.501  45.820  1.00  0.00     0.293 HD
ENDBRANCH   8  24
TORSDOF 5
ENDMDL
MODEL 7
REMARK VINA RESULT:    -6.015      2.423      7.155
REMARK INTER + INTRA:          -7.346
REMARK INTER:                  -7.049
REMARK INTRA:                  -0.296
REMARK UNBOUND:                -0.275
REMARK SMILES O=c1c(O)c(-c2ccc(O)cc2)oc2cc(O)cc(O)c12
REMARK SMILES IDX 5 1 3 2 2 3 1 4 21 5 19 6 18 7 16 8 15 9 14 10 13 11 6 12
REMARK SMILES IDX 7 13 8 14 9 15 12 16 11 17 10 18 4 20 20 22 17 24
REMARK H PARENT 10 19 4 21 20 23 17 25
REMARK Flexibility Score: inf
ROOT
ATOM      1  C   UNL     1      19.157  25.710  40.623  1.00  0.00     0.180 A 
ATOM      2  C   UNL     1      19.333  24.326  40.424  1.00  0.00     0.208 A 
ATOM      3  C   UNL     1      19.540  23.850  39.120  1.00  0.00     0.238 A 
ATOM      4  O   UNL     1      19.709  22.615  38.931  1.00  0.00    -0.285 OA
ATOM      5  C   UNL     1      19.547  24.756  38.039  1.00  0.00     0.111 A 
ATOM      6  C   UNL     1      19.746  24.357  36.696  1.00  0.00     0.134 A 
ATOM      7  C   UNL     1      19.730  25.319  35.675  1.00  0.00     0.093 A 
ATOM      8  C   UNL     1      19.521  26.669  35.970  1.00  0.00     0.123 A 
ATOM      9  C   UNL     1      19.326  27.069  37.296  1.00  0.00     0.094 A 
ATOM     10  C   UNL     1      19.339  26.126  38.328  1.00  0.00     0.146 A 
ATOM     11  O   UNL     1      19.155  26.533  39.578  1.00  0.00    -0.452 OA
ENDROOT
BRANCH   1  12
ATOM     12  C   UNL     1      18.953  26.291  41.969  1.00  0.00     0.021 A 
ATOM     13  C   UNL     1      17.647  26.454  42.461  1.00  0.00     0.016 A 
ATOM     14  C   UNL     1      17.429  27.022  43.720  1.00  0.00     0.047 A 
ATOM     15  C   UNL     1      18.515  27.446  44.497  1.00  0.00     0.115 A 
ATOM     16  C   UNL     1      20.036  26.739  42.747  1.00  0.00     0.016 A 
ATOM     17  C   UNL     1      19.816  27.306  44.006  1.00  0.00     0.047 A 
BRANCH  15  18
ATOM     18  O   UNL     1      18.311  28.012  45.753  1.00  0.00    -0.508 OA
ATOM     19  H   UNL     1      18.637  28.947  45.973  1.00  0.00     0.293 HD
ENDBRANCH  15  18
ENDBRANCH   1  12
BRANCH   2  20
ATOM     20  O   UNL     1      19.271  23.444  41.505  1.00  0.00    -0.502 OA
ATOM     21  H   UNL     1      20.036  23.333  42.160  1.00  0.00     0.293 HD
ENDBRANCH   2  20
BRANCH   6  22
ATOM     22  O   UNL     1      19.957  23.017  36.368  1.00  0.00    -0.507 OA
ATOM     23  H   UNL     1      19.771  22.660  35.437  1.00  0.00     0.293 HD
ENDBRANCH   6  22
BRANCH   8  24
ATOM     24  O   UNL     1      19.510  27.603  34.938  1.00  0.00    -0.508 OA
ATOM     25  H   UNL     1      18.918  28.425  34.974  1.00  0.00     0.293 HD
ENDBRANCH   8  24
TORSDOF 5
ENDMDL
MODEL 8
REMARK VINA RESULT:    -5.984      3.318      6.082
REMARK INTER + INTRA:          -7.309
REMARK INTER:                  -7.016
REMARK INTRA:                  -0.294
REMARK UNBOUND:                -0.275
REMARK SMILES O=c1c(O)c(-c2ccc(O)cc2)oc2cc(O)cc(O)c12
REMARK SMILES IDX 5 1 3 2 2 3 1 4 21 5 19 6 18 7 16 8 15 9 14 10 13 11 6 12
REMARK SMILES IDX 7 13 8 14 9 15 12 16 11 17 10 18 4 20 20 22 17 24
REMARK H PARENT 10 19 4 21 20 23 17 25
REMARK Flexibility Score: inf
ROOT
ATOM      1  C   UNL     1      17.312  24.055  42.965  1.00  0.00     0.180 A 
ATOM      2  C   UNL     1      15.957  24.254  42.632  1.00  0.00     0.208 A 
ATOM      3  C   UNL     1      15.053  23.195  42.809  1.00  0.00     0.238 A 
ATOM      4  O   UNL     1      13.836  23.365  42.524  1.00  0.00    -0.285 OA
ATOM      5  C   UNL     1      15.517  21.955  43.294  1.00  0.00     0.111 A 
ATOM      6  C   UNL     1      14.672  20.838  43.498  1.00  0.00     0.134 A 
ATOM      7  C   UNL     1      15.213  19.634  43.975  1.00  0.00     0.093 A 
ATOM      8  C   UNL     1      16.578  19.526  44.252  1.00  0.00     0.123 A 
ATOM      9  C   UNL     1      17.417  20.628  44.054  1.00  0.00     0.094 A 
ATOM     10  C   UNL     1      16.898  21.836  43.581  1.00  0.00     0.146 A 
ATOM     11  O   UNL     1      17.716  22.867  43.406  1.00  0.00    -0.452 OA
ENDROOT
BRANCH   1  12
ATOM     12  C   UNL     1      18.322  25.128  42.825  1.00  0.00     0.021 A 
ATOM     13  C   UNL     1      19.020  25.265  41.614  1.00  0.00     0.016 A 
ATOM     14  C   UNL     1      19.995  26.257  41.466  1.00  0.00     0.047 A 
ATOM     15  C   UNL     1      20.293  27.115  42.533  1.00  0.00     0.115 A 
ATOM     16  C   UNL     1      18.641  25.980  43.898  1.00  0.00     0.016 A 
ATOM     17  C   UNL     1      19.617  26.970  43.748  1.00  0.00     0.047 A 
BRANCH  15  18
ATOM     18  O   UNL     1      21.261  28.107  42.398  1.00  0.00    -0.508 OA
ATOM     19  H   UNL     1      22.219  27.882  42.152  1.00  0.00     0.293 HD
ENDBRANCH  15  18
ENDBRANCH   1  12
BRANCH   2  20
ATOM     20  O   UNL     1      15.532  25.476  42.106  1.00  0.00    -0.502 OA
ATOM     21  H   UNL     1      15.264  26.256  42.694  1.00  0.00     0.293 HD
ENDBRANCH   2  20
BRANCH   6  22
ATOM     22  O   UNL     1      13.305  20.913  43.229  1.00  0.00    -0.507 OA
ATOM     23  H   UNL     1      12.955  21.192  42.318  1.00  0.00     0.293 HD
ENDBRANCH   6  22
BRANCH   8  24
ATOM     24  O   UNL     1      17.088  18.320  44.725  1.00  0.00    -0.508 OA
ATOM     25  H   UNL     1      16.918  17.446  44.239  1.00  0.00     0.293 HD
ENDBRANCH   8  24
TORSDOF 5
ENDMDL
MODEL 9
REMARK VINA RESULT:    -5.965      2.285      6.709
REMARK INTER + INTRA:          -7.287
REMARK INTER:                  -7.254
REMARK INTRA:                  -0.032
REMARK UNBOUND:                -0.275
REMARK SMILES O=c1c(O)c(-c2ccc(O)cc2)oc2cc(O)cc(O)c12
REMARK SMILES IDX 5 1 3 2 2 3 1 4 21 5 19 6 18 7 16 8 15 9 14 10 13 11 6 12
REMARK SMILES IDX 7 13 8 14 9 15 12 16 11 17 10 18 4 20 20 22 17 24
REMARK H PARENT 10 19 4 21 20 23 17 25
REMARK Flexibility Score: inf
ROOT
ATOM      1  C   UNL     1      17.954  26.037  44.214  1.00  0.00     0.180 A 
ATOM      2  C   UNL     1      19.142  26.763  43.998  1.00  0.00     0.208 A 
ATOM      3  C   UNL     1      19.723  26.748  42.721  1.00  0.00     0.238 A 
ATOM      4  O   UNL     1      20.781  27.402  42.513  1.00  0.00    -0.285 OA
ATOM      5  C   UNL     1      19.123  25.997  41.690  1.00  0.00     0.111 A 
ATOM      6  C   UNL     1      19.646  25.926  40.377  1.00  0.00     0.134 A 
ATOM      7  C   UNL     1      18.994  25.148  39.408  1.00  0.00     0.093 A 
ATOM      8  C   UNL     1      17.831  24.442  39.726  1.00  0.00     0.123 A 
ATOM      9  C   UNL     1      17.309  24.508  41.022  1.00  0.00     0.094 A 
ATOM     10  C   UNL     1      17.943  25.278  42.001  1.00  0.00     0.146 A 
ATOM     11  O   UNL     1      17.424  25.328  43.222  1.00  0.00    -0.452 OA
ENDROOT
BRANCH   1  12
ATOM     12  C   UNL     1      17.270  26.019  45.527  1.00  0.00     0.021 A 
ATOM     13  C   UNL     1      16.907  24.789  46.100  1.00  0.00     0.016 A 
ATOM     14  C   UNL     1      16.240  24.749  47.328  1.00  0.00     0.047 A 
ATOM     15  C   UNL     1      15.918  25.939  47.993  1.00  0.00     0.115 A 
ATOM     16  C   UNL     1      16.924  27.210  46.190  1.00  0.00     0.016 A 
ATOM     17  C   UNL     1      16.258  27.167  47.419  1.00  0.00     0.047 A 
BRANCH  15  18
ATOM     18  O   UNL     1      15.254  25.911  49.217  1.00  0.00    -0.508 OA
ATOM     19  H   UNL     1      14.276  25.656  49.284  1.00  0.00     0.293 HD
ENDBRANCH  15  18
ENDBRANCH   1  12
BRANCH   2  20
ATOM     20  O   UNL     1      19.745  27.458  45.049  1.00  0.00    -0.502 OA
ATOM     21  H   UNL     1      19.600  28.450  45.197  1.00  0.00     0.293 HD
ENDBRANCH   2  20
BRANCH   6  22
ATOM     22  O   UNL     1      20.805  26.620  40.028  1.00  0.00    -0.507 OA
ATOM     23  H   UNL     1      21.667  26.137  39.799  1.00  0.00     0.293 HD
ENDBRANCH   6  22
BRANCH   8  24
ATOM     24  O   UNL     1      17.204  23.677  38.746  1.00  0.00    -0.508 OA
ATOM     25  H   UNL     1      16.198  23.547  38.738  1.00  0.00     0.293 HD
ENDBRANCH   8  24
TORSDOF 5
ENDMDL
