MODEL 1
REMARK VINA RESULT:    -3.983      0.000      0.000
REMARK INTER + INTRA:          -4.792
REMARK INTER:                  -4.682
REMARK INTRA:                  -0.110
REMARK UNBOUND:                -0.110
REMARK SMILES O=C([O-])CCC(=O)[O-]
REMARK SMILES IDX 4 1 2 2 1 3 3 4 5 5 6 6 7 7 8 8
REMARK H PARENT
REMARK Flexibility Score: inf
ROOT
ATOM      1  C   UNL     1    -143.616 102.147  33.936  1.00  0.00     0.059 C 
ENDROOT
BRANCH   1   2
ATOM      2  C   UNL     1    -143.201 101.039  33.017  1.00  0.00     0.042 C 
ATOM      3  O   UNL     1    -142.740  99.965  33.487  1.00  0.00    -0.550 OA
ATOM      4  O   UNL     1    -143.285 101.208  31.641  1.00  0.00    -0.550 OA
ENDBRANCH   1   2
BRANCH   1   5
ATOM      5  C   UNL     1    -142.452 103.097  34.234  1.00  0.00     0.059 C 
BRANCH   5   6
ATOM      6  C   UNL     1    -142.641 104.428  33.571  1.00  0.00     0.042 C 
ATOM      7  O   UNL     1    -143.152 104.496  32.423  1.00  0.00    -0.550 OA
ATOM      8  O   UNL     1    -142.292 105.594  34.240  1.00  0.00    -0.550 OA
ENDBRANCH   5   6
ENDBRANCH   1   5
TORSDOF 3
ENDMDL
MODEL 2
REMARK VINA RESULT:    -3.977      0.096      3.981
REMARK INTER + INTRA:          -4.784
REMARK INTER:                  -4.670
REMARK INTRA:                  -0.115
REMARK UNBOUND:                -0.110
REMARK SMILES O=C([O-])CCC(=O)[O-]
REMARK SMILES IDX 4 1 2 2 1 3 3 4 5 5 6 6 7 7 8 8
REMARK H PARENT
REMARK Flexibility Score: inf
ROOT
ATOM      1  C   UNL     1    -142.414 103.080  34.201  1.00  0.00     0.059 C 
ENDROOT
BRANCH   1   2
ATOM      2  C   UNL     1    -142.645 104.429  33.592  1.00  0.00     0.042 C 
ATOM      3  O   UNL     1    -143.143 104.528  32.440  1.00  0.00    -0.550 OA
ATOM      4  O   UNL     1    -142.270 105.575  34.281  1.00  0.00    -0.550 OA
ENDBRANCH   1   2
BRANCH   1   5
ATOM      5  C   UNL     1    -143.600 102.141  33.956  1.00  0.00     0.059 C 
BRANCH   5   6
ATOM      6  C   UNL     1    -143.247 101.042  33.002  1.00  0.00     0.042 C 
ATOM      7  O   UNL     1    -142.968  99.893  33.435  1.00  0.00    -0.550 OA
ATOM      8  O   UNL     1    -143.269 101.274  31.633  1.00  0.00    -0.550 OA
ENDBRANCH   5   6
ENDBRANCH   1   5
TORSDOF 3
ENDMDL
MODEL 3
REMARK VINA RESULT:    -3.975      0.104      3.924
REMARK INTER + INTRA:          -4.782
REMARK INTER:                  -4.674
REMARK INTRA:                  -0.108
REMARK UNBOUND:                -0.110
REMARK SMILES O=C([O-])CCC(=O)[O-]
REMARK SMILES IDX 4 1 2 2 1 3 3 4 5 5 6 6 7 7 8 8
REMARK H PARENT
REMARK Flexibility Score: inf
ROOT
ATOM      1  C   UNL     1    -142.400 103.122  34.220  1.00  0.00     0.059 C 
ENDROOT
BRANCH   1   2
ATOM      2  C   UNL     1    -142.630 104.472  33.614  1.00  0.00     0.042 C 
ATOM      3  O   UNL     1    -143.110 104.574  32.455  1.00  0.00    -0.550 OA
ATOM      4  O   UNL     1    -142.275 105.619  34.314  1.00  0.00    -0.550 OA
ENDBRANCH   1   2
BRANCH   1   5
ATOM      5  C   UNL     1    -143.589 102.187  33.982  1.00  0.00     0.059 C 
BRANCH   5   6
ATOM      6  C   UNL     1    -143.255 101.107  32.998  1.00  0.00     0.042 C 
ATOM      7  O   UNL     1    -143.325 101.334  31.762  1.00  0.00    -0.550 OA
ATOM      8  O   UNL     1    -142.827  99.865  33.447  1.00  0.00    -0.550 OA
ENDBRANCH   5   6
ENDBRANCH   1   5
TORSDOF 3
ENDMDL
MODEL 4
REMARK VINA RESULT:    -3.970      0.105      3.879
REMARK INTER + INTRA:          -4.777
REMARK INTER:                  -4.662
REMARK INTRA:                  -0.115
REMARK UNBOUND:                -0.110
REMARK SMILES O=C([O-])CCC(=O)[O-]
REMARK SMILES IDX 4 1 2 2 1 3 3 4 5 5 6 6 7 7 8 8
REMARK H PARENT
REMARK Flexibility Score: inf
ROOT
ATOM      1  C   UNL     1    -142.453 103.052  34.245  1.00  0.00     0.059 C 
ENDROOT
BRANCH   1   2
ATOM      2  C   UNL     1    -142.670 104.397  33.621  1.00  0.00     0.042 C 
ATOM      3  O   UNL     1    -142.380 105.445  34.256  1.00  0.00    -0.550 OA
ATOM      4  O   UNL     1    -143.231 104.493  32.354  1.00  0.00    -0.550 OA
ENDBRANCH   1   2
BRANCH   1   5
ATOM      5  C   UNL     1    -143.620 102.102  33.956  1.00  0.00     0.059 C 
BRANCH   5   6
ATOM      6  C   UNL     1    -143.221 101.004  33.019  1.00  0.00     0.042 C 
ATOM      7  O   UNL     1    -142.903  99.872  33.469  1.00  0.00    -0.550 OA
ATOM      8  O   UNL     1    -143.240 101.218  31.647  1.00  0.00    -0.550 OA
ENDBRANCH   5   6
ENDBRANCH   1   5
TORSDOF 3
ENDMDL
MODEL 5
REMARK VINA RESULT:    -3.860      0.812      1.343
REMARK INTER + INTRA:          -4.648
REMARK INTER:                  -4.609
REMARK INTRA:                  -0.039
REMARK UNBOUND:                -0.110
REMARK SMILES O=C([O-])CCC(=O)[O-]
REMARK SMILES IDX 4 1 2 2 1 3 3 4 5 5 6 6 7 7 8 8
REMARK H PARENT
REMARK Flexibility Score: inf
ROOT
ATOM      1  C   UNL     1    -143.388 102.214  33.148  1.00  0.00     0.059 C 
ENDROOT
BRANCH   1   2
ATOM      2  C   UNL     1    -142.995 100.797  32.863  1.00  0.00     0.042 C 
ATOM      3  O   UNL     1    -143.313 100.257  31.771  1.00  0.00    -0.550 OA
ATOM      4  O   UNL     1    -142.312 100.058  33.821  1.00  0.00    -0.550 OA
ENDBRANCH   1   2
BRANCH   1   5
ATOM      5  C   UNL     1    -142.550 102.813  34.282  1.00  0.00     0.059 C 
BRANCH   5   6
ATOM      6  C   UNL     1    -142.550 104.311  34.238  1.00  0.00     0.042 C 
ATOM      7  O   UNL     1    -142.628 104.911  33.134  1.00  0.00    -0.550 OA
ATOM      8  O   UNL     1    -142.508 105.043  35.417  1.00  0.00    -0.550 OA
ENDBRANCH   5   6
ENDBRANCH   1   5
TORSDOF 3
ENDMDL
MODEL 6
REMARK VINA RESULT:    -3.824     20.482     22.340
REMARK INTER + INTRA:          -4.605
REMARK INTER:                  -4.564
REMARK INTRA:                  -0.042
REMARK UNBOUND:                -0.110
REMARK SMILES O=C([O-])CCC(=O)[O-]
REMARK SMILES IDX 4 1 2 2 1 3 3 4 5 5 6 6 7 7 8 8
REMARK H PARENT
REMARK Flexibility Score: inf
ROOT
ATOM      1  C   UNL     1    -129.977 117.347  45.162  1.00  0.00     0.059 C 
ENDROOT
BRANCH   1   2
ATOM      2  C   UNL     1    -130.683 117.412  46.481  1.00  0.00     0.042 C 
ATOM      3  O   UNL     1    -130.877 118.523  47.042  1.00  0.00    -0.550 OA
ATOM      4  O   UNL     1    -131.092 116.243  47.110  1.00  0.00    -0.550 OA
ENDBRANCH   1   2
BRANCH   1   5
ATOM      5  C   UNL     1    -129.681 115.900  44.752  1.00  0.00     0.059 C 
BRANCH   5   6
ATOM      6  C   UNL     1    -129.770 115.717  43.268  1.00  0.00     0.042 C 
ATOM      7  O   UNL     1    -129.488 116.669  42.494  1.00  0.00    -0.550 OA
ATOM      8  O   UNL     1    -130.124 114.482  42.739  1.00  0.00    -0.550 OA
ENDBRANCH   5   6
ENDBRANCH   1   5
TORSDOF 3
ENDMDL
MODEL 7
REMARK VINA RESULT:    -3.811     20.438     22.164
REMARK INTER + INTRA:          -4.589
REMARK INTER:                  -4.546
REMARK INTRA:                  -0.044
REMARK UNBOUND:                -0.110
REMARK SMILES O=C([O-])CCC(=O)[O-]
REMARK SMILES IDX 4 1 2 2 1 3 3 4 5 5 6 6 7 7 8 8
REMARK H PARENT
REMARK Flexibility Score: inf
ROOT
ATOM      1  C   UNL     1    -129.703 115.855  44.770  1.00  0.00     0.059 C 
ENDROOT
BRANCH   1   2
ATOM      2  C   UNL     1    -129.794 115.668  43.287  1.00  0.00     0.042 C 
ATOM      3  O   UNL     1    -129.554 116.630  42.510  1.00  0.00    -0.550 OA
ATOM      4  O   UNL     1    -130.185 114.442  42.763  1.00  0.00    -0.550 OA
ENDBRANCH   1   2
BRANCH   1   5
ATOM      5  C   UNL     1    -130.006 117.301  45.176  1.00  0.00     0.059 C 
BRANCH   5   6
ATOM      6  C   UNL     1    -130.636 117.374  46.533  1.00  0.00     0.042 C 
ATOM      7  O   UNL     1    -131.032 116.325  47.104  1.00  0.00    -0.550 OA
ATOM      8  O   UNL     1    -130.747 118.596  47.184  1.00  0.00    -0.550 OA
ENDBRANCH   5   6
ENDBRANCH   1   5
TORSDOF 3
ENDMDL
MODEL 8
REMARK VINA RESULT:    -3.699     19.532     21.666
REMARK INTER + INTRA:          -4.458
REMARK INTER:                  -4.426
REMARK INTRA:                  -0.031
REMARK UNBOUND:                -0.110
REMARK SMILES O=C([O-])CCC(=O)[O-]
REMARK SMILES IDX 4 1 2 2 1 3 3 4 5 5 6 6 7 7 8 8
REMARK H PARENT
REMARK Flexibility Score: inf
ROOT
ATOM      1  C   UNL     1    -129.750 115.719  44.848  1.00  0.00     0.059 C 
ENDROOT
BRANCH   1   2
ATOM      2  C   UNL     1    -129.867 117.184  45.136  1.00  0.00     0.042 C 
ATOM      3  O   UNL     1    -129.319 118.026  44.377  1.00  0.00    -0.550 OA
ATOM      4  O   UNL     1    -130.546 117.618  46.267  1.00  0.00    -0.550 OA
ENDBRANCH   1   2
BRANCH   1   5
ATOM      5  C   UNL     1    -129.754 115.438  43.342  1.00  0.00     0.059 C 
BRANCH   5   6
ATOM      6  C   UNL     1    -129.771 113.969  43.054  1.00  0.00     0.042 C 
ATOM      7  O   UNL     1    -130.472 113.516  42.111  1.00  0.00    -0.550 OA
ATOM      8  O   UNL     1    -128.978 113.104  43.797  1.00  0.00    -0.550 OA
ENDBRANCH   5   6
ENDBRANCH   1   5
TORSDOF 3
ENDMDL
MODEL 9
REMARK VINA RESULT:    -3.694     19.524     21.339
REMARK INTER + INTRA:          -4.453
REMARK INTER:                  -4.420
REMARK INTRA:                  -0.032
REMARK UNBOUND:                -0.110
REMARK SMILES O=C([O-])CCC(=O)[O-]
REMARK SMILES IDX 4 1 2 2 1 3 3 4 5 5 6 6 7 7 8 8
REMARK H PARENT
REMARK Flexibility Score: inf
ROOT
ATOM      1  C   UNL     1    -129.742 115.434  43.307  1.00  0.00     0.059 C 
ENDROOT
BRANCH   1   2
ATOM      2  C   UNL     1    -129.735 113.967  43.008  1.00  0.00     0.042 C 
ATOM      3  O   UNL     1    -130.436 113.508  42.068  1.00  0.00    -0.550 OA
ATOM      4  O   UNL     1    -128.986 113.100  43.794  1.00  0.00    -0.550 OA
ENDBRANCH   1   2
BRANCH   1   5
ATOM      5  C   UNL     1    -129.741 115.703  44.816  1.00  0.00     0.059 C 
BRANCH   5   6
ATOM      6  C   UNL     1    -129.824 117.168  45.117  1.00  0.00     0.042 C 
ATOM      7  O   UNL     1    -129.292 118.005  44.342  1.00  0.00    -0.550 OA
ATOM      8  O   UNL     1    -130.526 117.611  46.231  1.00  0.00    -0.550 OA
ENDBRANCH   5   6
ENDBRANCH   1   5
TORSDOF 3
ENDMDL
