MODEL 1
REMARK VINA RESULT:    20.788      0.000      0.000
REMARK INTER + INTRA:          53.554
REMARK INTER:                  54.816
REMARK INTRA:                  -1.263
REMARK UNBOUND:                -1.263
REMARK SMILES CCCCCCCCCCCCCCCCCCCCCCCCCCCCCC(=O)[O-]
REMARK SMILES IDX 16 1 17 2 18 3 19 4 20 5 21 6 22 7 23 8 24 9 25 10 26 11
REMARK SMILES IDX 27 12 28 13 29 14 30 15 31 16 32 17 15 18 14 19 13 20 12 21
REMARK SMILES IDX 11 22 10 23 9 24 8 25 7 26 6 27 5 28 4 29 3 30 2 31 1 32
REMARK H PARENT
REMARK Flexibility Score: inf
ROOT
ATOM      1  C   UNL     1     -32.408  18.548 -10.324  1.00  0.00     0.000 C 
ENDROOT
BRANCH   1   2
ATOM      2  C   UNL     1     -31.485  17.318 -10.308  1.00  0.00     0.000 C 
BRANCH   2   3
ATOM      3  C   UNL     1     -29.999  17.689 -10.439  1.00  0.00     0.000 C 
BRANCH   3   4
ATOM      4  C   UNL     1     -29.275  16.726 -11.393  1.00  0.00     0.000 C 
BRANCH   4   5
ATOM      5  C   UNL     1     -28.795  17.423 -12.682  1.00  0.00     0.000 C 
BRANCH   5   6
ATOM      6  C   UNL     1     -29.180  16.683 -13.980  1.00  0.00     0.000 C 
BRANCH   6   7
ATOM      7  C   UNL     1     -28.720  15.212 -14.027  1.00  0.00     0.000 C 
BRANCH   7   8
ATOM      8  C   UNL     1     -27.803  14.925 -15.229  1.00  0.00     0.000 C 
BRANCH   8   9
ATOM      9  C   UNL     1     -27.191  13.514 -15.191  1.00  0.00     0.000 C 
BRANCH   9  10
ATOM     10  C   UNL     1     -25.654  13.467 -15.313  1.00  0.00     0.000 C 
BRANCH  10  11
ATOM     11  C   UNL     1     -24.998  12.190 -14.761  1.00  0.00     0.000 C 
BRANCH  11  12
ATOM     12  C   UNL     1     -23.892  11.641 -15.678  1.00  0.00     0.000 C 
BRANCH  12  13
ATOM     13  C   UNL     1     -23.919  10.110 -15.790  1.00  0.00     0.006 C 
BRANCH  13  14
ATOM     14  C   UNL     1     -22.806   9.561 -16.690  1.00  0.00     0.053 C 
BRANCH  14  15
ATOM     15  C   UNL     1     -21.500   9.552 -15.959  1.00  0.00     0.041 C 
ATOM     16  O   UNL     1     -21.246   8.646 -15.122  1.00  0.00    -0.550 OA
ATOM     17  O   UNL     1     -20.541  10.519 -16.238  1.00  0.00    -0.550 OA
ENDBRANCH  14  15
ENDBRANCH  13  14
ENDBRANCH  12  13
ENDBRANCH  11  12
ENDBRANCH  10  11
ENDBRANCH   9  10
ENDBRANCH   8   9
ENDBRANCH   7   8
ENDBRANCH   6   7
ENDBRANCH   5   6
ENDBRANCH   4   5
ENDBRANCH   3   4
ENDBRANCH   2   3
ENDBRANCH   1   2
BRANCH   1  18
ATOM     18  C   UNL     1     -31.631  19.870 -10.434  1.00  0.00     0.000 C 
BRANCH  18  19
ATOM     19  C   UNL     1     -32.428  21.078  -9.911  1.00  0.00     0.000 C 
BRANCH  19  20
ATOM     20  C   UNL     1     -31.874  22.453 -10.328  1.00  0.00     0.000 C 
BRANCH  20  21
ATOM     21  C   UNL     1     -30.629  22.349 -11.225  1.00  0.00     0.000 C 
BRANCH  21  22
ATOM     22  C   UNL     1     -29.430  21.726 -10.495  1.00  0.00     0.000 C 
BRANCH  22  23
ATOM     23  C   UNL     1     -28.334  21.248 -11.462  1.00  0.00     0.000 C 
BRANCH  23  24
ATOM     24  C   UNL     1     -27.486  22.403 -12.020  1.00  0.00    -0.000 C 
BRANCH  24  25
ATOM     25  C   UNL     1     -25.972  22.235 -11.770  1.00  0.00    -0.000 C 
BRANCH  25  26
ATOM     26  C   UNL     1     -25.287  23.569 -11.425  1.00  0.00    -0.000 C 
BRANCH  26  27
ATOM     27  C   UNL     1     -24.855  23.648  -9.952  1.00  0.00    -0.000 C 
BRANCH  27  28
ATOM     28  C   UNL     1     -25.634  22.674  -9.052  1.00  0.00    -0.000 C 
BRANCH  28  29
ATOM     29  C   UNL     1     -24.798  21.427  -8.692  1.00  0.00    -0.000 C 
BRANCH  29  30
ATOM     30  C   UNL     1     -24.220  21.464  -7.267  1.00  0.00    -0.000 C 
BRANCH  30  31
ATOM     31  C   UNL     1     -22.776  21.984  -7.224  1.00  0.00    -0.003 C 
ATOM     32  C   UNL     1     -22.630  23.113  -6.208  1.00  0.00     0.004 C 
ENDBRANCH  30  31
ENDBRANCH  29  30
ENDBRANCH  28  29
ENDBRANCH  27  28
ENDBRANCH  26  27
ENDBRANCH  25  26
ENDBRANCH  24  25
ENDBRANCH  23  24
ENDBRANCH  22  23
ENDBRANCH  21  22
ENDBRANCH  20  21
ENDBRANCH  19  20
ENDBRANCH  18  19
ENDBRANCH   1  18
TORSDOF 28
ENDMDL
MODEL 2
REMARK VINA RESULT:    21.516      5.216      9.861
REMARK INTER + INTRA:          55.473
REMARK INTER:                  55.997
REMARK INTRA:                  -0.524
REMARK UNBOUND:                -1.263
REMARK SMILES CCCCCCCCCCCCCCCCCCCCCCCCCCCCCC(=O)[O-]
REMARK SMILES IDX 16 1 17 2 18 3 19 4 20 5 21 6 22 7 23 8 24 9 25 10 26 11
REMARK SMILES IDX 27 12 28 13 29 14 30 15 31 16 32 17 15 18 14 19 13 20 12 21
REMARK SMILES IDX 11 22 10 23 9 24 8 25 7 26 6 27 5 28 4 29 3 30 2 31 1 32
REMARK H PARENT
REMARK Flexibility Score: inf
ROOT
ATOM      1  C   UNL     1     -32.224  21.218  -9.662  1.00  0.00     0.000 C 
ENDROOT
BRANCH   1   2
ATOM      2  C   UNL     1     -33.136  22.421  -9.955  1.00  0.00     0.000 C 
BRANCH   2   3
ATOM      3  C   UNL     1     -32.358  23.741 -10.077  1.00  0.00     0.000 C 
BRANCH   3   4
ATOM      4  C   UNL     1     -30.843  23.487 -10.068  1.00  0.00     0.000 C 
BRANCH   4   5
ATOM      5  C   UNL     1     -30.302  23.098 -11.459  1.00  0.00     0.000 C 
BRANCH   5   6
ATOM      6  C   UNL     1     -29.423  21.831 -11.463  1.00  0.00     0.000 C 
BRANCH   6   7
ATOM      7  C   UNL     1     -28.275  21.862 -12.490  1.00  0.00     0.000 C 
BRANCH   7   8
ATOM      8  C   UNL     1     -26.940  22.302 -11.862  1.00  0.00     0.000 C 
BRANCH   8   9
ATOM      9  C   UNL     1     -26.427  23.640 -12.421  1.00  0.00     0.000 C 
BRANCH   9  10
ATOM     10  C   UNL     1     -25.090  24.124 -11.826  1.00  0.00     0.000 C 
BRANCH  10  11
ATOM     11  C   UNL     1     -24.894  23.812 -10.332  1.00  0.00     0.000 C 
BRANCH  11  12
ATOM     12  C   UNL     1     -25.226  22.352  -9.978  1.00  0.00     0.000 C 
BRANCH  12  13
ATOM     13  C   UNL     1     -25.452  22.142  -8.474  1.00  0.00     0.006 C 
BRANCH  13  14
ATOM     14  C   UNL     1     -24.497  21.107  -7.868  1.00  0.00     0.053 C 
BRANCH  14  15
ATOM     15  C   UNL     1     -23.573  21.760  -6.889  1.00  0.00     0.041 C 
ATOM     16  O   UNL     1     -23.551  21.385  -5.687  1.00  0.00    -0.550 OA
ATOM     17  O   UNL     1     -22.697  22.752  -7.317  1.00  0.00    -0.550 OA
ENDBRANCH  14  15
ENDBRANCH  13  14
ENDBRANCH  12  13
ENDBRANCH  11  12
ENDBRANCH  10  11
ENDBRANCH   9  10
ENDBRANCH   8   9
ENDBRANCH   7   8
ENDBRANCH   6   7
ENDBRANCH   5   6
ENDBRANCH   4   5
ENDBRANCH   3   4
ENDBRANCH   2   3
ENDBRANCH   1   2
BRANCH   1  18
ATOM     18  C   UNL     1     -32.207  20.195 -10.810  1.00  0.00     0.000 C 
BRANCH  18  19
ATOM     19  C   UNL     1     -32.683  18.797 -10.374  1.00  0.00     0.000 C 
BRANCH  19  20
ATOM     20  C   UNL     1     -31.591  17.713 -10.364  1.00  0.00     0.000 C 
BRANCH  20  21
ATOM     21  C   UNL     1     -30.189  18.271 -10.664  1.00  0.00     0.000 C 
BRANCH  21  22
ATOM     22  C   UNL     1     -29.203  17.177 -11.099  1.00  0.00     0.000 C 
BRANCH  22  23
ATOM     23  C   UNL     1     -28.771  17.324 -12.568  1.00  0.00     0.000 C 
BRANCH  23  24
ATOM     24  C   UNL     1     -29.228  16.146 -13.445  1.00  0.00    -0.000 C 
BRANCH  24  25
ATOM     25  C   UNL     1     -28.887  16.321 -14.940  1.00  0.00    -0.000 C 
BRANCH  25  26
ATOM     26  C   UNL     1     -29.593  17.540 -15.560  1.00  0.00    -0.000 C 
BRANCH  26  27
ATOM     27  C   UNL     1     -30.274  17.211 -16.899  1.00  0.00    -0.000 C 
BRANCH  27  28
ATOM     28  C   UNL     1     -30.768  18.467 -17.637  1.00  0.00    -0.000 C 
BRANCH  28  29
ATOM     29  C   UNL     1     -30.139  19.757 -17.066  1.00  0.00    -0.000 C 
BRANCH  29  30
ATOM     30  C   UNL     1     -29.973  20.875 -18.109  1.00  0.00    -0.000 C 
BRANCH  30  31
ATOM     31  C   UNL     1     -28.524  21.032 -18.588  1.00  0.00    -0.003 C 
ATOM     32  C   UNL     1     -28.402  22.164 -19.605  1.00  0.00     0.004 C 
ENDBRANCH  30  31
ENDBRANCH  29  30
ENDBRANCH  28  29
ENDBRANCH  27  28
ENDBRANCH  26  27
ENDBRANCH  25  26
ENDBRANCH  24  25
ENDBRANCH  23  24
ENDBRANCH  22  23
ENDBRANCH  21  22
ENDBRANCH  20  21
ENDBRANCH  19  20
ENDBRANCH  18  19
ENDBRANCH   1  18
TORSDOF 28
ENDMDL
MODEL 3
REMARK VINA RESULT:    21.963      4.080     11.224
REMARK INTER + INTRA:          56.652
REMARK INTER:                  58.226
REMARK INTRA:                  -1.574
REMARK UNBOUND:                -1.263
REMARK SMILES CCCCCCCCCCCCCCCCCCCCCCCCCCCCCC(=O)[O-]
REMARK SMILES IDX 16 1 17 2 18 3 19 4 20 5 21 6 22 7 23 8 24 9 25 10 26 11
REMARK SMILES IDX 27 12 28 13 29 14 30 15 31 16 32 17 15 18 14 19 13 20 12 21
REMARK SMILES IDX 11 22 10 23 9 24 8 25 7 26 6 27 5 28 4 29 3 30 2 31 1 32
REMARK H PARENT
REMARK Flexibility Score: inf
ROOT
ATOM      1  C   UNL     1     -30.166  17.648 -10.331  1.00  0.00     0.000 C 
ENDROOT
BRANCH   1   2
ATOM      2  C   UNL     1     -31.610  17.123 -10.385  1.00  0.00     0.000 C 
BRANCH   2   3
ATOM      3  C   UNL     1     -32.653  18.228 -10.157  1.00  0.00     0.000 C 
BRANCH   3   4
ATOM      4  C   UNL     1     -32.180  19.561 -10.757  1.00  0.00     0.000 C 
BRANCH   4   5
ATOM      5  C   UNL     1     -32.630  20.777  -9.922  1.00  0.00     0.000 C 
BRANCH   5   6
ATOM      6  C   UNL     1     -32.077  22.127 -10.423  1.00  0.00     0.000 C 
BRANCH   6   7
ATOM      7  C   UNL     1     -30.554  22.287 -10.250  1.00  0.00     0.000 C 
BRANCH   7   8
ATOM      8  C   UNL     1     -29.766  21.151 -10.928  1.00  0.00     0.000 C 
BRANCH   8   9
ATOM      9  C   UNL     1     -28.390  20.910 -10.283  1.00  0.00     0.000 C 
BRANCH   9  10
ATOM     10  C   UNL     1     -27.603  22.188  -9.932  1.00  0.00     0.000 C 
BRANCH  10  11
ATOM     11  C   UNL     1     -26.145  22.207 -10.425  1.00  0.00     0.000 C 
BRANCH  11  12
ATOM     12  C   UNL     1     -25.161  22.726  -9.362  1.00  0.00     0.000 C 
BRANCH  12  13
ATOM     13  C   UNL     1     -24.919  21.713  -8.234  1.00  0.00     0.006 C 
BRANCH  13  14
ATOM     14  C   UNL     1     -23.430  21.490  -7.946  1.00  0.00     0.053 C 
BRANCH  14  15
ATOM     15  C   UNL     1     -23.099  21.911  -6.549  1.00  0.00     0.041 C 
ATOM     16  O   UNL     1     -22.300  22.863  -6.344  1.00  0.00    -0.550 OA
ATOM     17  O   UNL     1     -23.713  21.284  -5.471  1.00  0.00    -0.550 OA
ENDBRANCH  14  15
ENDBRANCH  13  14
ENDBRANCH  12  13
ENDBRANCH  11  12
ENDBRANCH  10  11
ENDBRANCH   9  10
ENDBRANCH   8   9
ENDBRANCH   7   8
ENDBRANCH   6   7
ENDBRANCH   5   6
ENDBRANCH   4   5
ENDBRANCH   3   4
ENDBRANCH   2   3
ENDBRANCH   1   2
BRANCH   1  18
ATOM     18  C   UNL     1     -29.245  16.949 -11.345  1.00  0.00     0.000 C 
BRANCH  18  19
ATOM     19  C   UNL     1     -28.897  17.841 -12.551  1.00  0.00     0.000 C 
BRANCH  19  20
ATOM     20  C   UNL     1     -28.628  17.084 -13.864  1.00  0.00     0.000 C 
BRANCH  20  21
ATOM     21  C   UNL     1     -28.839  15.565 -13.733  1.00  0.00     0.000 C 
BRANCH  21  22
ATOM     22  C   UNL     1     -28.424  14.804 -15.001  1.00  0.00     0.000 C 
BRANCH  22  23
ATOM     23  C   UNL     1     -27.564  13.568 -14.692  1.00  0.00     0.000 C 
BRANCH  23  24
ATOM     24  C   UNL     1     -26.062  13.815 -14.914  1.00  0.00    -0.000 C 
BRANCH  24  25
ATOM     25  C   UNL     1     -25.388  12.758 -15.813  1.00  0.00    -0.000 C 
BRANCH  25  26
ATOM     26  C   UNL     1     -24.149  12.132 -15.149  1.00  0.00    -0.000 C 
BRANCH  26  27
ATOM     27  C   UNL     1     -23.848  10.718 -15.672  1.00  0.00    -0.000 C 
BRANCH  27  28
ATOM     28  C   UNL     1     -22.343  10.463 -15.862  1.00  0.00    -0.000 C 
BRANCH  28  29
ATOM     29  C   UNL     1     -22.061   9.538 -17.066  1.00  0.00    -0.000 C 
BRANCH  29  30
ATOM     30  C   UNL     1     -23.325   9.144 -17.848  1.00  0.00    -0.000 C 
BRANCH  30  31
ATOM     31  C   UNL     1     -23.293   9.618 -19.308  1.00  0.00    -0.003 C 
ATOM     32  C   UNL     1     -23.428  11.136 -19.395  1.00  0.00     0.004 C 
ENDBRANCH  30  31
ENDBRANCH  29  30
ENDBRANCH  28  29
ENDBRANCH  27  28
ENDBRANCH  26  27
ENDBRANCH  25  26
ENDBRANCH  24  25
ENDBRANCH  23  24
ENDBRANCH  22  23
ENDBRANCH  21  22
ENDBRANCH  20  21
ENDBRANCH  19  20
ENDBRANCH  18  19
ENDBRANCH   1  18
TORSDOF 28
ENDMDL
MODEL 4
REMARK VINA RESULT:    22.050      1.641      2.587
REMARK INTER + INTRA:          56.881
REMARK INTER:                  57.927
REMARK INTRA:                  -1.046
REMARK UNBOUND:                -1.263
REMARK SMILES CCCCCCCCCCCCCCCCCCCCCCCCCCCCCC(=O)[O-]
REMARK SMILES IDX 16 1 17 2 18 3 19 4 20 5 21 6 22 7 23 8 24 9 25 10 26 11
REMARK SMILES IDX 27 12 28 13 29 14 30 15 31 16 32 17 15 18 14 19 13 20 12 21
REMARK SMILES IDX 11 22 10 23 9 24 8 25 7 26 6 27 5 28 4 29 3 30 2 31 1 32
REMARK H PARENT
REMARK Flexibility Score: inf
ROOT
ATOM      1  C   UNL     1     -31.255  17.390 -10.526  1.00  0.00     0.000 C 
ENDROOT
BRANCH   1   2
ATOM      2  C   UNL     1     -29.954  18.057 -11.002  1.00  0.00     0.000 C 
BRANCH   2   3
ATOM      3  C   UNL     1     -28.918  17.042 -11.511  1.00  0.00     0.000 C 
BRANCH   3   4
ATOM      4  C   UNL     1     -28.895  17.005 -13.047  1.00  0.00     0.000 C 
BRANCH   4   5
ATOM      5  C   UNL     1     -29.225  15.606 -13.607  1.00  0.00     0.000 C 
BRANCH   5   6
ATOM      6  C   UNL     1     -28.262  15.126 -14.713  1.00  0.00     0.000 C 
BRANCH   6   7
ATOM      7  C   UNL     1     -27.773  13.676 -14.536  1.00  0.00     0.000 C 
BRANCH   7   8
ATOM      8  C   UNL     1     -26.931  13.194 -15.732  1.00  0.00     0.000 C 
BRANCH   8   9
ATOM      9  C   UNL     1     -25.431  13.491 -15.566  1.00  0.00     0.000 C 
BRANCH   9  10
ATOM     10  C   UNL     1     -24.624  12.388 -14.853  1.00  0.00     0.000 C 
BRANCH  10  11
ATOM     11  C   UNL     1     -23.603  11.654 -15.740  1.00  0.00     0.000 C 
BRANCH  11  12
ATOM     12  C   UNL     1     -23.213  10.273 -15.186  1.00  0.00     0.000 C 
BRANCH  12  13
ATOM     13  C   UNL     1     -22.497   9.397 -16.224  1.00  0.00     0.006 C 
BRANCH  13  14
ATOM     14  C   UNL     1     -22.254  10.127 -17.550  1.00  0.00     0.053 C 
BRANCH  14  15
ATOM     15  C   UNL     1     -23.264   9.706 -18.571  1.00  0.00     0.041 C 
ATOM     16  O   UNL     1     -23.356  10.319 -19.666  1.00  0.00    -0.550 OA
ATOM     17  O   UNL     1     -24.073   8.601 -18.331  1.00  0.00    -0.550 OA
ENDBRANCH  14  15
ENDBRANCH  13  14
ENDBRANCH  12  13
ENDBRANCH  11  12
ENDBRANCH  10  11
ENDBRANCH   9  10
ENDBRANCH   8   9
ENDBRANCH   7   8
ENDBRANCH   6   7
ENDBRANCH   5   6
ENDBRANCH   4   5
ENDBRANCH   3   4
ENDBRANCH   2   3
ENDBRANCH   1   2
BRANCH   1  18
ATOM     18  C   UNL     1     -32.423  18.384 -10.412  1.00  0.00     0.000 C 
BRANCH  18  19
ATOM     19  C   UNL     1     -32.026  19.820 -10.800  1.00  0.00     0.000 C 
BRANCH  19  20
ATOM     20  C   UNL     1     -32.579  20.920  -9.876  1.00  0.00     0.000 C 
BRANCH  20  21
ATOM     21  C   UNL     1     -33.123  22.134 -10.649  1.00  0.00     0.000 C 
BRANCH  21  22
ATOM     22  C   UNL     1     -32.892  23.456  -9.902  1.00  0.00     0.000 C 
BRANCH  22  23
ATOM     23  C   UNL     1     -31.432  23.932  -9.985  1.00  0.00     0.000 C 
BRANCH  23  24
ATOM     24  C   UNL     1     -30.434  22.898  -9.437  1.00  0.00    -0.000 C 
BRANCH  24  25
ATOM     25  C   UNL     1     -29.465  22.348 -10.505  1.00  0.00    -0.000 C 
BRANCH  25  26
ATOM     26  C   UNL     1     -28.434  21.372  -9.909  1.00  0.00    -0.000 C 
BRANCH  26  27
ATOM     27  C   UNL     1     -27.725  21.945  -8.670  1.00  0.00    -0.000 C 
BRANCH  27  28
ATOM     28  C   UNL     1     -26.197  21.995  -8.831  1.00  0.00    -0.000 C 
BRANCH  28  29
ATOM     29  C   UNL     1     -25.484  21.007  -7.883  1.00  0.00    -0.000 C 
BRANCH  29  30
ATOM     30  C   UNL     1     -23.974  21.263  -7.748  1.00  0.00    -0.000 C 
BRANCH  30  31
ATOM     31  C   UNL     1     -23.576  21.757  -6.350  1.00  0.00    -0.003 C 
ATOM     32  C   UNL     1     -22.322  22.625  -6.412  1.00  0.00     0.004 C 
ENDBRANCH  30  31
ENDBRANCH  29  30
ENDBRANCH  28  29
ENDBRANCH  27  28
ENDBRANCH  26  27
ENDBRANCH  25  26
ENDBRANCH  24  25
ENDBRANCH  23  24
ENDBRANCH  22  23
ENDBRANCH  21  22
ENDBRANCH  20  21
ENDBRANCH  19  20
ENDBRANCH  18  19
ENDBRANCH   1  18
TORSDOF 28
ENDMDL
MODEL 5
REMARK VINA RESULT:    22.200      6.326      8.500
REMARK INTER + INTRA:          57.275
REMARK INTER:                  56.561
REMARK INTRA:                   0.714
REMARK UNBOUND:                -1.263
REMARK SMILES CCCCCCCCCCCCCCCCCCCCCCCCCCCCCC(=O)[O-]
REMARK SMILES IDX 16 1 17 2 18 3 19 4 20 5 21 6 22 7 23 8 24 9 25 10 26 11
REMARK SMILES IDX 27 12 28 13 29 14 30 15 31 16 32 17 15 18 14 19 13 20 12 21
REMARK SMILES IDX 11 22 10 23 9 24 8 25 7 26 6 27 5 28 4 29 3 30 2 31 1 32
REMARK H PARENT
REMARK Flexibility Score: inf
ROOT
ATOM      1  C   UNL     1     -32.577  16.271  -9.262  1.00  0.00     0.000 C 
ENDROOT
BRANCH   1   2
ATOM      2  C   UNL     1     -33.567  16.575  -8.126  1.00  0.00     0.000 C 
BRANCH   2   3
ATOM      3  C   UNL     1     -33.276  15.766  -6.852  1.00  0.00     0.000 C 
BRANCH   3   4
ATOM      4  C   UNL     1     -33.971  14.397  -6.901  1.00  0.00     0.000 C 
BRANCH   4   5
ATOM      5  C   UNL     1     -33.806  13.605  -5.588  1.00  0.00     0.000 C 
BRANCH   5   6
ATOM      6  C   UNL     1     -33.190  12.202  -5.770  1.00  0.00     0.000 C 
BRANCH   6   7
ATOM      7  C   UNL     1     -32.548  11.970  -7.152  1.00  0.00     0.000 C 
BRANCH   7   8
ATOM      8  C   UNL     1     -32.722  10.521  -7.641  1.00  0.00     0.000 C 
BRANCH   8   9
ATOM      9  C   UNL     1     -31.593  10.068  -8.583  1.00  0.00     0.000 C 
BRANCH   9  10
ATOM     10  C   UNL     1     -31.104   8.622  -8.364  1.00  0.00     0.000 C 
BRANCH  10  11
ATOM     11  C   UNL     1     -32.128   7.530  -8.721  1.00  0.00     0.000 C 
BRANCH  11  12
ATOM     12  C   UNL     1     -31.546   6.443  -9.641  1.00  0.00     0.000 C 
BRANCH  12  13
ATOM     13  C   UNL     1     -30.654   5.445  -8.889  1.00  0.00     0.006 C 
BRANCH  13  14
ATOM     14  C   UNL     1     -31.015   5.326  -7.404  1.00  0.00     0.053 C 
BRANCH  14  15
ATOM     15  C   UNL     1     -29.883   5.806  -6.552  1.00  0.00     0.041 C 
ATOM     16  O   UNL     1     -28.737   5.970  -7.049  1.00  0.00    -0.550 OA
ATOM     17  O   UNL     1     -30.104   6.121  -5.216  1.00  0.00    -0.550 OA
ENDBRANCH  14  15
ENDBRANCH  13  14
ENDBRANCH  12  13
ENDBRANCH  11  12
ENDBRANCH  10  11
ENDBRANCH   9  10
ENDBRANCH   8   9
ENDBRANCH   7   8
ENDBRANCH   6   7
ENDBRANCH   5   6
ENDBRANCH   4   5
ENDBRANCH   3   4
ENDBRANCH   2   3
ENDBRANCH   1   2
BRANCH   1  18
ATOM     18  C   UNL     1     -32.266  17.507 -10.123  1.00  0.00     0.000 C 
BRANCH  18  19
ATOM     19  C   UNL     1     -33.040  18.759  -9.674  1.00  0.00     0.000 C 
BRANCH  19  20
ATOM     20  C   UNL     1     -32.734  20.036 -10.477  1.00  0.00     0.000 C 
BRANCH  20  21
ATOM     21  C   UNL     1     -32.760  21.308  -9.611  1.00  0.00     0.000 C 
BRANCH  21  22
ATOM     22  C   UNL     1     -31.536  22.205  -9.852  1.00  0.00     0.000 C 
BRANCH  22  23
ATOM     23  C   UNL     1     -31.121  22.251 -11.331  1.00  0.00     0.000 C 
BRANCH  23  24
ATOM     24  C   UNL     1     -29.603  22.100 -11.531  1.00  0.00    -0.000 C 
BRANCH  24  25
ATOM     25  C   UNL     1     -28.960  21.043 -10.608  1.00  0.00    -0.000 C 
BRANCH  25  26
ATOM     26  C   UNL     1     -29.830  19.780 -10.474  1.00  0.00    -0.000 C 
BRANCH  26  27
ATOM     27  C   UNL     1     -29.019  18.484 -10.634  1.00  0.00    -0.000 C 
BRANCH  27  28
ATOM     28  C   UNL     1     -29.893  17.282 -11.031  1.00  0.00    -0.000 C 
BRANCH  28  29
ATOM     29  C   UNL     1     -29.099  16.233 -11.838  1.00  0.00    -0.000 C 
BRANCH  29  30
ATOM     30  C   UNL     1     -28.784  16.672 -13.278  1.00  0.00    -0.000 C 
BRANCH  30  31
ATOM     31  C   UNL     1     -29.177  15.618 -14.322  1.00  0.00    -0.003 C 
ATOM     32  C   UNL     1     -27.951  14.859 -14.822  1.00  0.00     0.004 C 
ENDBRANCH  30  31
ENDBRANCH  29  30
ENDBRANCH  28  29
ENDBRANCH  27  28
ENDBRANCH  26  27
ENDBRANCH  25  26
ENDBRANCH  24  25
ENDBRANCH  23  24
ENDBRANCH  22  23
ENDBRANCH  21  22
ENDBRANCH  20  21
ENDBRANCH  19  20
ENDBRANCH  18  19
ENDBRANCH   1  18
TORSDOF 28
ENDMDL
MODEL 6
REMARK VINA RESULT:    22.284      4.091     10.661
REMARK INTER + INTRA:          57.499
REMARK INTER:                  58.433
REMARK INTRA:                  -0.934
REMARK UNBOUND:                -1.263
REMARK SMILES CCCCCCCCCCCCCCCCCCCCCCCCCCCCCC(=O)[O-]
REMARK SMILES IDX 16 1 17 2 18 3 19 4 20 5 21 6 22 7 23 8 24 9 25 10 26 11
REMARK SMILES IDX 27 12 28 13 29 14 30 15 31 16 32 17 15 18 14 19 13 20 12 21
REMARK SMILES IDX 11 22 10 23 9 24 8 25 7 26 6 27 5 28 4 29 3 30 2 31 1 32
REMARK H PARENT
REMARK Flexibility Score: inf
ROOT
ATOM      1  C   UNL     1     -32.551  18.052 -10.154  1.00  0.00     0.000 C 
ENDROOT
BRANCH   1   2
ATOM      2  C   UNL     1     -32.234  19.370 -10.880  1.00  0.00     0.000 C 
BRANCH   2   3
ATOM      3  C   UNL     1     -31.532  20.393  -9.973  1.00  0.00     0.000 C 
BRANCH   3   4
ATOM      4  C   UNL     1     -32.250  21.750 -10.018  1.00  0.00     0.000 C 
BRANCH   4   5
ATOM      5  C   UNL     1     -31.292  22.913 -10.347  1.00  0.00     0.000 C 
BRANCH   5   6
ATOM      6  C   UNL     1     -30.225  22.571 -11.407  1.00  0.00     0.000 C 
BRANCH   6   7
ATOM      7  C   UNL     1     -29.207  21.506 -10.956  1.00  0.00     0.000 C 
BRANCH   7   8
ATOM      8  C   UNL     1     -28.407  20.926 -12.137  1.00  0.00     0.000 C 
BRANCH   8   9
ATOM      9  C   UNL     1     -27.117  21.713 -12.430  1.00  0.00     0.000 C 
BRANCH   9  10
ATOM     10  C   UNL     1     -26.719  22.735 -11.346  1.00  0.00     0.000 C 
BRANCH  10  11
ATOM     11  C   UNL     1     -25.451  22.377 -10.551  1.00  0.00     0.000 C 
BRANCH  11  12
ATOM     12  C   UNL     1     -25.625  22.559  -9.034  1.00  0.00     0.000 C 
BRANCH  12  13
ATOM     13  C   UNL     1     -25.010  21.409  -8.224  1.00  0.00     0.006 C 
BRANCH  13  14
ATOM     14  C   UNL     1     -23.491  21.542  -8.063  1.00  0.00     0.053 C 
BRANCH  14  15
ATOM     15  C   UNL     1     -23.151  22.015  -6.685  1.00  0.00     0.041 C 
ATOM     16  O   UNL     1     -22.118  22.707  -6.486  1.00  0.00    -0.550 OA
ATOM     17  O   UNL     1     -24.005  21.734  -5.624  1.00  0.00    -0.550 OA
ENDBRANCH  14  15
ENDBRANCH  13  14
ENDBRANCH  12  13
ENDBRANCH  11  12
ENDBRANCH  10  11
ENDBRANCH   9  10
ENDBRANCH   8   9
ENDBRANCH   7   8
ENDBRANCH   6   7
ENDBRANCH   5   6
ENDBRANCH   4   5
ENDBRANCH   3   4
ENDBRANCH   2   3
ENDBRANCH   1   2
BRANCH   1  18
ATOM     18  C   UNL     1     -31.470  16.980 -10.374  1.00  0.00     0.000 C 
BRANCH  18  19
ATOM     19  C   UNL     1     -30.096  17.579 -10.726  1.00  0.00     0.000 C 
BRANCH  19  20
ATOM     20  C   UNL     1     -29.159  16.641 -11.508  1.00  0.00     0.000 C 
BRANCH  20  21
ATOM     21  C   UNL     1     -28.757  17.206 -12.882  1.00  0.00     0.000 C 
BRANCH  21  22
ATOM     22  C   UNL     1     -29.087  16.243 -14.031  1.00  0.00     0.000 C 
BRANCH  22  23
ATOM     23  C   UNL     1     -28.364  14.892 -13.894  1.00  0.00     0.000 C 
BRANCH  23  24
ATOM     24  C   UNL     1     -28.038  14.249 -15.252  1.00  0.00    -0.000 C 
BRANCH  24  25
ATOM     25  C   UNL     1     -26.947  13.160 -15.174  1.00  0.00    -0.000 C 
BRANCH  25  26
ATOM     26  C   UNL     1     -25.527  13.754 -15.201  1.00  0.00    -0.000 C 
BRANCH  26  27
ATOM     27  C   UNL     1     -24.482  12.818 -14.572  1.00  0.00    -0.000 C 
BRANCH  27  28
ATOM     28  C   UNL     1     -24.343  11.488 -15.331  1.00  0.00    -0.000 C 
BRANCH  28  29
ATOM     29  C   UNL     1     -22.879  10.998 -15.375  1.00  0.00    -0.000 C 
BRANCH  29  30
ATOM     30  C   UNL     1     -22.510  10.277 -16.682  1.00  0.00    -0.000 C 
BRANCH  30  31
ATOM     31  C   UNL     1     -23.668   9.443 -17.249  1.00  0.00    -0.003 C 
ATOM     32  C   UNL     1     -23.309   8.865 -18.615  1.00  0.00     0.004 C 
ENDBRANCH  30  31
ENDBRANCH  29  30
ENDBRANCH  28  29
ENDBRANCH  27  28
ENDBRANCH  26  27
ENDBRANCH  25  26
ENDBRANCH  24  25
ENDBRANCH  23  24
ENDBRANCH  22  23
ENDBRANCH  21  22
ENDBRANCH  20  21
ENDBRANCH  19  20
ENDBRANCH  18  19
ENDBRANCH   1  18
TORSDOF 28
ENDMDL
MODEL 7
REMARK VINA RESULT:    22.302      5.859     11.138
REMARK INTER + INTRA:          57.546
REMARK INTER:                  55.174
REMARK INTRA:                   2.372
REMARK UNBOUND:                -1.263
REMARK SMILES CCCCCCCCCCCCCCCCCCCCCCCCCCCCCC(=O)[O-]
REMARK SMILES IDX 16 1 17 2 18 3 19 4 20 5 21 6 22 7 23 8 24 9 25 10 26 11
REMARK SMILES IDX 27 12 28 13 29 14 30 15 31 16 32 17 15 18 14 19 13 20 12 21
REMARK SMILES IDX 11 22 10 23 9 24 8 25 7 26 6 27 5 28 4 29 3 30 2 31 1 32
REMARK H PARENT
REMARK Flexibility Score: inf
ROOT
ATOM      1  C   UNL     1     -31.869  17.693 -10.363  1.00  0.00     0.000 C 
ENDROOT
BRANCH   1   2
ATOM      2  C   UNL     1     -32.880  18.847 -10.477  1.00  0.00     0.000 C 
BRANCH   2   3
ATOM      3  C   UNL     1     -32.533  20.033  -9.564  1.00  0.00     0.000 C 
BRANCH   3   4
ATOM      4  C   UNL     1     -32.444  21.338 -10.369  1.00  0.00     0.000 C 
BRANCH   4   5
ATOM      5  C   UNL     1     -33.219  22.495  -9.705  1.00  0.00     0.000 C 
BRANCH   5   6
ATOM      6  C   UNL     1     -32.381  23.771  -9.484  1.00  0.00     0.000 C 
BRANCH   6   7
ATOM      7  C   UNL     1     -31.037  23.781 -10.237  1.00  0.00     0.000 C 
BRANCH   7   8
ATOM      8  C   UNL     1     -30.911  22.605 -11.223  1.00  0.00     0.000 C 
BRANCH   8   9
ATOM      9  C   UNL     1     -29.462  22.113 -11.387  1.00  0.00     0.000 C 
BRANCH   9  10
ATOM     10  C   UNL     1     -29.067  20.937 -10.471  1.00  0.00     0.000 C 
BRANCH  10  11
ATOM     11  C   UNL     1     -29.241  19.542 -11.096  1.00  0.00     0.000 C 
BRANCH  11  12
ATOM     12  C   UNL     1     -29.062  18.404 -10.076  1.00  0.00     0.000 C 
BRANCH  12  13
ATOM     13  C   UNL     1     -28.634  17.082 -10.730  1.00  0.00     0.006 C 
BRANCH  13  14
ATOM     14  C   UNL     1     -29.540  16.677 -11.899  1.00  0.00     0.053 C 
BRANCH  14  15
ATOM     15  C   UNL     1     -28.874  16.980 -13.204  1.00  0.00     0.041 C 
ATOM     16  O   UNL     1     -28.915  16.146 -14.147  1.00  0.00    -0.550 OA
ATOM     17  O   UNL     1     -28.250  18.207 -13.397  1.00  0.00    -0.550 OA
ENDBRANCH  14  15
ENDBRANCH  13  14
ENDBRANCH  12  13
ENDBRANCH  11  12
ENDBRANCH  10  11
ENDBRANCH   9  10
ENDBRANCH   8   9
ENDBRANCH   7   8
ENDBRANCH   6   7
ENDBRANCH   5   6
ENDBRANCH   4   5
ENDBRANCH   3   4
ENDBRANCH   2   3
ENDBRANCH   1   2
BRANCH   1  18
ATOM     18  C   UNL     1     -32.473  16.441  -9.706  1.00  0.00     0.000 C 
BRANCH  18  19
ATOM     19  C   UNL     1     -33.338  16.768  -8.475  1.00  0.00     0.000 C 
BRANCH  19  20
ATOM     20  C   UNL     1     -33.841  15.543  -7.690  1.00  0.00     0.000 C 
BRANCH  20  21
ATOM     21  C   UNL     1     -32.852  15.077  -6.608  1.00  0.00     0.000 C 
BRANCH  21  22
ATOM     22  C   UNL     1     -33.559  14.433  -5.406  1.00  0.00     0.000 C 
BRANCH  22  23
ATOM     23  C   UNL     1     -33.502  12.897  -5.444  1.00  0.00     0.000 C 
BRANCH  23  24
ATOM     24  C   UNL     1     -33.463  12.336  -6.876  1.00  0.00    -0.000 C 
BRANCH  24  25
ATOM     25  C   UNL     1     -32.596  11.067  -7.019  1.00  0.00    -0.000 C 
BRANCH  25  26
ATOM     26  C   UNL     1     -32.251  10.759  -8.487  1.00  0.00    -0.000 C 
BRANCH  26  27
ATOM     27  C   UNL     1     -30.883  10.074  -8.642  1.00  0.00    -0.000 C 
BRANCH  27  28
ATOM     28  C   UNL     1     -30.792   8.749  -7.866  1.00  0.00    -0.000 C 
BRANCH  28  29
ATOM     29  C   UNL     1     -31.565   7.613  -8.571  1.00  0.00    -0.000 C 
BRANCH  29  30
ATOM     30  C   UNL     1     -31.403   6.244  -7.890  1.00  0.00    -0.000 C 
BRANCH  30  31
ATOM     31  C   UNL     1     -30.595   5.250  -8.737  1.00  0.00    -0.003 C 
ATOM     32  C   UNL     1     -29.195   5.053  -8.163  1.00  0.00     0.004 C 
ENDBRANCH  30  31
ENDBRANCH  29  30
ENDBRANCH  28  29
ENDBRANCH  27  28
ENDBRANCH  26  27
ENDBRANCH  25  26
ENDBRANCH  24  25
ENDBRANCH  23  24
ENDBRANCH  22  23
ENDBRANCH  21  22
ENDBRANCH  20  21
ENDBRANCH  19  20
ENDBRANCH  18  19
ENDBRANCH   1  18
TORSDOF 28
ENDMDL
MODEL 8
REMARK VINA RESULT:    22.309      4.816      6.099
REMARK INTER + INTRA:          57.564
REMARK INTER:                  58.631
REMARK INTRA:                  -1.068
REMARK UNBOUND:                -1.263
REMARK SMILES CCCCCCCCCCCCCCCCCCCCCCCCCCCCCC(=O)[O-]
REMARK SMILES IDX 16 1 17 2 18 3 19 4 20 5 21 6 22 7 23 8 24 9 25 10 26 11
REMARK SMILES IDX 27 12 28 13 29 14 30 15 31 16 32 17 15 18 14 19 13 20 12 21
REMARK SMILES IDX 11 22 10 23 9 24 8 25 7 26 6 27 5 28 4 29 3 30 2 31 1 32
REMARK H PARENT
REMARK Flexibility Score: inf
ROOT
ATOM      1  C   UNL     1     -33.181  23.006 -10.268  1.00  0.00     0.000 C 
ENDROOT
BRANCH   1   2
ATOM      2  C   UNL     1     -32.987  21.676  -9.521  1.00  0.00     0.000 C 
BRANCH   2   3
ATOM      3  C   UNL     1     -32.290  20.609 -10.379  1.00  0.00     0.000 C 
BRANCH   3   4
ATOM      4  C   UNL     1     -32.622  19.196  -9.874  1.00  0.00     0.000 C 
BRANCH   4   5
ATOM      5  C   UNL     1     -32.180  18.098 -10.863  1.00  0.00     0.000 C 
BRANCH   5   6
ATOM      6  C   UNL     1     -31.274  17.016 -10.240  1.00  0.00     0.000 C 
BRANCH   6   7
ATOM      7  C   UNL     1     -29.847  16.978 -10.820  1.00  0.00     0.000 C 
BRANCH   7   8
ATOM      8  C   UNL     1     -29.820  16.465 -12.271  1.00  0.00     0.000 C 
BRANCH   8   9
ATOM      9  C   UNL     1     -28.484  16.751 -12.981  1.00  0.00     0.000 C 
BRANCH   9  10
ATOM     10  C   UNL     1     -28.480  16.468 -14.497  1.00  0.00     0.000 C 
BRANCH  10  11
ATOM     11  C   UNL     1     -29.861  16.527 -15.172  1.00  0.00     0.000 C 
BRANCH  11  12
ATOM     12  C   UNL     1     -30.186  17.916 -15.748  1.00  0.00     0.000 C 
BRANCH  12  13
ATOM     13  C   UNL     1     -29.917  18.010 -17.257  1.00  0.00     0.006 C 
BRANCH  13  14
ATOM     14  C   UNL     1     -30.498  19.282 -17.886  1.00  0.00     0.053 C 
BRANCH  14  15
ATOM     15  C   UNL     1     -29.471  20.370 -17.904  1.00  0.00     0.041 C 
ATOM     16  O   UNL     1     -29.329  21.093 -18.925  1.00  0.00    -0.550 OA
ATOM     17  O   UNL     1     -28.704  20.620 -16.772  1.00  0.00    -0.550 OA
ENDBRANCH  14  15
ENDBRANCH  13  14
ENDBRANCH  12  13
ENDBRANCH  11  12
ENDBRANCH  10  11
ENDBRANCH   9  10
ENDBRANCH   8   9
ENDBRANCH   7   8
ENDBRANCH   6   7
ENDBRANCH   5   6
ENDBRANCH   4   5
ENDBRANCH   3   4
ENDBRANCH   2   3
ENDBRANCH   1   2
BRANCH   1  18
ATOM     18  C   UNL     1     -32.044  24.007  -9.999  1.00  0.00     0.000 C 
BRANCH  18  19
ATOM     19  C   UNL     1     -30.668  23.329  -9.871  1.00  0.00     0.000 C 
BRANCH  19  20
ATOM     20  C   UNL     1     -30.223  22.521 -11.102  1.00  0.00     0.000 C 
BRANCH  20  21
ATOM     21  C   UNL     1     -29.086  21.533 -10.791  1.00  0.00     0.000 C 
BRANCH  21  22
ATOM     22  C   UNL     1     -28.490  20.906 -12.060  1.00  0.00     0.000 C 
BRANCH  22  23
ATOM     23  C   UNL     1     -27.784  21.940 -12.952  1.00  0.00     0.000 C 
BRANCH  23  24
ATOM     24  C   UNL     1     -26.341  22.229 -12.504  1.00  0.00    -0.000 C 
BRANCH  24  25
ATOM     25  C   UNL     1     -26.170  23.602 -11.819  1.00  0.00    -0.000 C 
BRANCH  25  26
ATOM     26  C   UNL     1     -25.029  23.600 -10.785  1.00  0.00    -0.000 C 
BRANCH  26  27
ATOM     27  C   UNL     1     -25.038  22.344  -9.898  1.00  0.00    -0.000 C 
BRANCH  27  28
ATOM     28  C   UNL     1     -24.625  22.640  -8.447  1.00  0.00    -0.000 C 
BRANCH  28  29
ATOM     29  C   UNL     1     -24.215  21.357  -7.690  1.00  0.00    -0.000 C 
BRANCH  29  30
ATOM     30  C   UNL     1     -23.483  21.631  -6.366  1.00  0.00    -0.000 C 
BRANCH  30  31
ATOM     31  C   UNL     1     -22.251  22.531  -6.542  1.00  0.00    -0.003 C 
ATOM     32  C   UNL     1     -22.377  23.802  -5.707  1.00  0.00     0.004 C 
ENDBRANCH  30  31
ENDBRANCH  29  30
ENDBRANCH  28  29
ENDBRANCH  27  28
ENDBRANCH  26  27
ENDBRANCH  25  26
ENDBRANCH  24  25
ENDBRANCH  23  24
ENDBRANCH  22  23
ENDBRANCH  21  22
ENDBRANCH  20  21
ENDBRANCH  19  20
ENDBRANCH  18  19
ENDBRANCH   1  18
TORSDOF 28
ENDMDL
MODEL 9
REMARK VINA RESULT:    22.343      2.845      5.104
REMARK INTER + INTRA:          57.653
REMARK INTER:                  58.041
REMARK INTRA:                  -0.388
REMARK UNBOUND:                -1.263
REMARK SMILES CCCCCCCCCCCCCCCCCCCCCCCCCCCCCC(=O)[O-]
REMARK SMILES IDX 16 1 17 2 18 3 19 4 20 5 21 6 22 7 23 8 24 9 25 10 26 11
REMARK SMILES IDX 27 12 28 13 29 14 30 15 31 16 32 17 15 18 14 19 13 20 12 21
REMARK SMILES IDX 11 22 10 23 9 24 8 25 7 26 6 27 5 28 4 29 3 30 2 31 1 32
REMARK H PARENT
REMARK Flexibility Score: inf
ROOT
ATOM      1  C   UNL     1     -28.923  16.746 -13.095  1.00  0.00     0.000 C 
ENDROOT
BRANCH   1   2
ATOM      2  C   UNL     1     -29.055  15.609 -14.122  1.00  0.00     0.000 C 
BRANCH   2   3
ATOM      3  C   UNL     1     -27.707  15.209 -14.742  1.00  0.00     0.000 C 
BRANCH   3   4
ATOM      4  C   UNL     1     -27.664  13.702 -15.038  1.00  0.00     0.000 C 
BRANCH   4   5
ATOM      5  C   UNL     1     -26.240  13.205 -15.360  1.00  0.00     0.000 C 
BRANCH   5   6
ATOM      6  C   UNL     1     -25.490  14.067 -16.395  1.00  0.00     0.000 C 
BRANCH   6   7
ATOM      7  C   UNL     1     -24.913  13.270 -17.581  1.00  0.00     0.000 C 
BRANCH   7   8
ATOM      8  C   UNL     1     -24.393  14.186 -18.703  1.00  0.00     0.000 C 
BRANCH   8   9
ATOM      9  C   UNL     1     -24.103  13.426 -20.010  1.00  0.00     0.000 C 
BRANCH   9  10
ATOM     10  C   UNL     1     -24.303  11.899 -19.932  1.00  0.00     0.000 C 
BRANCH  10  11
ATOM     11  C   UNL     1     -23.258  11.150 -19.087  1.00  0.00     0.000 C 
BRANCH  11  12
ATOM     12  C   UNL     1     -23.459   9.625 -19.103  1.00  0.00     0.000 C 
BRANCH  12  13
ATOM     13  C   UNL     1     -23.306   8.992 -17.713  1.00  0.00     0.006 C 
BRANCH  13  14
ATOM     14  C   UNL     1     -23.079  10.031 -16.608  1.00  0.00     0.053 C 
BRANCH  14  15
ATOM     15  C   UNL     1     -21.747   9.820 -15.959  1.00  0.00     0.041 C 
ATOM     16  O   UNL     1     -21.463  10.410 -14.884  1.00  0.00    -0.550 OA
ATOM     17  O   UNL     1     -20.836   8.930 -16.517  1.00  0.00    -0.550 OA
ENDBRANCH  14  15
ENDBRANCH  13  14
ENDBRANCH  12  13
ENDBRANCH  11  12
ENDBRANCH  10  11
ENDBRANCH   9  10
ENDBRANCH   8   9
ENDBRANCH   7   8
ENDBRANCH   6   7
ENDBRANCH   5   6
ENDBRANCH   4   5
ENDBRANCH   3   4
ENDBRANCH   2   3
ENDBRANCH   1   2
BRANCH   1  18
ATOM     18  C   UNL     1     -29.082  16.255 -11.646  1.00  0.00     0.000 C 
BRANCH  18  19
ATOM     19  C   UNL     1     -29.920  17.211 -10.778  1.00  0.00     0.000 C 
BRANCH  19  20
ATOM     20  C   UNL     1     -31.321  16.695 -10.407  1.00  0.00     0.000 C 
BRANCH  20  21
ATOM     21  C   UNL     1     -32.354  17.825 -10.251  1.00  0.00     0.000 C 
BRANCH  21  22
ATOM     22  C   UNL     1     -31.705  19.217 -10.257  1.00  0.00     0.000 C 
BRANCH  22  23
ATOM     23  C   UNL     1     -32.729  20.343 -10.474  1.00  0.00     0.000 C 
BRANCH  23  24
ATOM     24  C   UNL     1     -32.805  21.317  -9.286  1.00  0.00    -0.000 C 
BRANCH  24  25
ATOM     25  C   UNL     1     -32.126  22.677  -9.557  1.00  0.00    -0.000 C 
BRANCH  25  26
ATOM     26  C   UNL     1     -31.611  22.793 -11.002  1.00  0.00    -0.000 C 
BRANCH  26  27
ATOM     27  C   UNL     1     -30.086  22.617 -11.103  1.00  0.00    -0.000 C 
BRANCH  27  28
ATOM     28  C   UNL     1     -29.582  21.375 -10.348  1.00  0.00    -0.000 C 
BRANCH  28  29
ATOM     29  C   UNL     1     -29.307  20.192 -11.302  1.00  0.00    -0.000 C 
BRANCH  29  30
ATOM     30  C   UNL     1     -27.853  20.126 -11.798  1.00  0.00    -0.000 C 
BRANCH  30  31
ATOM     31  C   UNL     1     -27.731  20.327 -13.315  1.00  0.00    -0.003 C 
ATOM     32  C   UNL     1     -27.308  21.756 -13.646  1.00  0.00     0.004 C 
ENDBRANCH  30  31
ENDBRANCH  29  30
ENDBRANCH  28  29
ENDBRANCH  27  28
ENDBRANCH  26  27
ENDBRANCH  25  26
ENDBRANCH  24  25
ENDBRANCH  23  24
ENDBRANCH  22  23
ENDBRANCH  21  22
ENDBRANCH  20  21
ENDBRANCH  19  20
ENDBRANCH  18  19
ENDBRANCH   1  18
TORSDOF 28
ENDMDL
