MODEL 1
REMARK VINA RESULT:    -3.673      0.000      0.000
REMARK INTER + INTRA:          -4.692
REMARK INTER:                  -4.532
REMARK INTRA:                  -0.160
REMARK UNBOUND:                -0.160
REMARK SMILES CCCCC=CC(C)=O
REMARK SMILES IDX 4 1 3 2 2 3 1 4 5 5 6 6 7 7 9 8 8 9
REMARK H PARENT
REMARK Flexibility Score: inf
ROOT
ATOM      1  C   UNL     1      27.916  13.098  22.376  1.00  0.00     0.027 C 
ENDROOT
BRANCH   1   2
ATOM      2  C   UNL     1      29.402  13.278  22.036  1.00  0.00     0.004 C 
BRANCH   2   3
ATOM      3  C   UNL     1      30.037  14.466  22.777  1.00  0.00    -0.003 C 
ATOM      4  C   UNL     1      29.705  15.809  22.127  1.00  0.00     0.004 C 
ENDBRANCH   2   3
ENDBRANCH   1   2
BRANCH   1   5
ATOM      5  C   UNL     1      27.739  12.212  23.576  1.00  0.00    -0.023 C 
ATOM      6  C   UNL     1      28.005  10.901  23.520  1.00  0.00     0.042 C 
BRANCH   6   7
ATOM      7  C   UNL     1      27.835   9.989  24.669  1.00  0.00     0.152 C 
ATOM      8  O   UNL     1      27.804  10.479  25.829  1.00  0.00    -0.295 OA
ATOM      9  C   UNL     1      27.697   8.505  24.504  1.00  0.00     0.093 C 
ENDBRANCH   6   7
ENDBRANCH   1   5
TORSDOF 4
ENDMDL
MODEL 2
REMARK VINA RESULT:    -3.590      1.405      1.784
REMARK INTER + INTRA:          -4.589
REMARK INTER:                  -4.378
REMARK INTRA:                  -0.211
REMARK UNBOUND:                -0.160
REMARK SMILES CCCCC=CC(C)=O
REMARK SMILES IDX 4 1 3 2 2 3 1 4 5 5 6 6 7 7 9 8 8 9
REMARK H PARENT
REMARK Flexibility Score: inf
ROOT
ATOM      1  C   UNL     1      27.658  11.661  22.843  1.00  0.00     0.027 C 
ENDROOT
BRANCH   1   2
ATOM      2  C   UNL     1      28.981  11.632  22.064  1.00  0.00     0.004 C 
BRANCH   2   3
ATOM      3  C   UNL     1      29.841  12.880  22.314  1.00  0.00    -0.003 C 
ATOM      4  C   UNL     1      29.005  14.153  22.451  1.00  0.00     0.004 C 
ENDBRANCH   2   3
ENDBRANCH   1   2
BRANCH   1   5
ATOM      5  C   UNL     1      27.734  10.800  24.071  1.00  0.00    -0.023 C 
ATOM      6  C   UNL     1      28.104   9.516  24.001  1.00  0.00     0.042 C 
BRANCH   6   7
ATOM      7  C   UNL     1      28.182   8.627  25.177  1.00  0.00     0.152 C 
ATOM      8  O   UNL     1      27.110   8.192  25.677  1.00  0.00    -0.295 OA
ATOM      9  C   UNL     1      29.486   8.225  25.797  1.00  0.00     0.093 C 
ENDBRANCH   6   7
ENDBRANCH   1   5
TORSDOF 4
ENDMDL
MODEL 3
REMARK VINA RESULT:    -3.411      2.108      5.137
REMARK INTER + INTRA:          -4.368
REMARK INTER:                  -4.168
REMARK INTRA:                  -0.201
REMARK UNBOUND:                -0.160
REMARK SMILES CCCCC=CC(C)=O
REMARK SMILES IDX 4 1 3 2 2 3 1 4 5 5 6 6 7 7 9 8 8 9
REMARK H PARENT
REMARK Flexibility Score: inf
ROOT
ATOM      1  C   UNL     1      27.188  12.101  24.761  1.00  0.00     0.027 C 
ENDROOT
BRANCH   1   2
ATOM      2  C   UNL     1      27.659  11.147  25.868  1.00  0.00     0.004 C 
BRANCH   2   3
ATOM      3  C   UNL     1      28.600  10.051  25.342  1.00  0.00    -0.003 C 
ATOM      4  C   UNL     1      27.865   8.983  24.532  1.00  0.00     0.004 C 
ENDBRANCH   2   3
ENDBRANCH   1   2
BRANCH   1   5
ATOM      5  C   UNL     1      28.354  12.756  24.080  1.00  0.00    -0.023 C 
ATOM      6  C   UNL     1      28.191  13.501  22.980  1.00  0.00     0.042 C 
BRANCH   6   7
ATOM      7  C   UNL     1      29.307  14.154  22.268  1.00  0.00     0.152 C 
ATOM      8  O   UNL     1      30.124  13.433  21.635  1.00  0.00    -0.295 OA
ATOM      9  C   UNL     1      29.503  15.640  22.272  1.00  0.00     0.093 C 
ENDBRANCH   6   7
ENDBRANCH   1   5
TORSDOF 4
ENDMDL
MODEL 4
REMARK VINA RESULT:    -3.392      2.256      5.188
REMARK INTER + INTRA:          -4.345
REMARK INTER:                  -4.159
REMARK INTRA:                  -0.186
REMARK UNBOUND:                -0.160
REMARK SMILES CCCCC=CC(C)=O
REMARK SMILES IDX 4 1 3 2 2 3 1 4 5 5 6 6 7 7 9 8 8 9
REMARK H PARENT
REMARK Flexibility Score: inf
ROOT
ATOM      1  C   UNL     1      27.459  10.086  24.302  1.00  0.00     0.027 C 
ENDROOT
BRANCH   1   2
ATOM      2  C   UNL     1      27.902   8.629  24.497  1.00  0.00     0.004 C 
BRANCH   2   3
ATOM      3  C   UNL     1      28.725   8.429  25.779  1.00  0.00    -0.003 C 
ATOM      4  C   UNL     1      30.121   7.871  25.502  1.00  0.00     0.004 C 
ENDBRANCH   2   3
ENDBRANCH   1   2
BRANCH   1   5
ATOM      5  C   UNL     1      28.220  10.738  23.183  1.00  0.00    -0.023 C 
ATOM      6  C   UNL     1      28.582  12.024  23.243  1.00  0.00     0.042 C 
BRANCH   6   7
ATOM      7  C   UNL     1      29.320  12.711  22.164  1.00  0.00     0.152 C 
ATOM      8  O   UNL     1      29.270  13.969  22.105  1.00  0.00    -0.295 OA
ATOM      9  C   UNL     1      30.124  11.968  21.140  1.00  0.00     0.093 C 
ENDBRANCH   6   7
ENDBRANCH   1   5
TORSDOF 4
ENDMDL
MODEL 5
REMARK VINA RESULT:    -3.391      1.547      2.155
REMARK INTER + INTRA:          -4.344
REMARK INTER:                  -4.072
REMARK INTRA:                  -0.272
REMARK UNBOUND:                -0.160
REMARK SMILES CCCCC=CC(C)=O
REMARK SMILES IDX 4 1 3 2 2 3 1 4 5 5 6 6 7 7 9 8 8 9
REMARK H PARENT
REMARK Flexibility Score: inf
ROOT
ATOM      1  C   UNL     1      28.679  12.713  25.017  1.00  0.00     0.027 C 
ENDROOT
BRANCH   1   2
ATOM      2  C   UNL     1      29.767  13.082  23.998  1.00  0.00     0.004 C 
BRANCH   2   3
ATOM      3  C   UNL     1      29.200  13.808  22.767  1.00  0.00    -0.003 C 
ATOM      4  C   UNL     1      28.037  13.056  22.123  1.00  0.00     0.004 C 
ENDBRANCH   2   3
ENDBRANCH   1   2
BRANCH   1   5
ATOM      5  C   UNL     1      28.757  11.261  25.391  1.00  0.00    -0.023 C 
ATOM      6  C   UNL     1      28.050  10.333  24.735  1.00  0.00     0.042 C 
BRANCH   6   7
ATOM      7  C   UNL     1      28.085   8.896  25.073  1.00  0.00     0.152 C 
ATOM      8  O   UNL     1      27.016   8.234  25.004  1.00  0.00    -0.295 OA
ATOM      9  C   UNL     1      29.344   8.199  25.494  1.00  0.00     0.093 C 
ENDBRANCH   6   7
ENDBRANCH   1   5
TORSDOF 4
ENDMDL
MODEL 6
REMARK VINA RESULT:    -3.382      2.266      4.932
REMARK INTER + INTRA:          -4.332
REMARK INTER:                  -4.061
REMARK INTRA:                  -0.271
REMARK UNBOUND:                -0.160
REMARK SMILES CCCCC=CC(C)=O
REMARK SMILES IDX 4 1 3 2 2 3 1 4 5 5 6 6 7 7 9 8 8 9
REMARK H PARENT
REMARK Flexibility Score: inf
ROOT
ATOM      1  C   UNL     1      29.187  11.447  26.125  1.00  0.00     0.027 C 
ENDROOT
BRANCH   1   2
ATOM      2  C   UNL     1      27.820  10.754  26.045  1.00  0.00     0.004 C 
BRANCH   2   3
ATOM      3  C   UNL     1      27.935   9.221  26.043  1.00  0.00    -0.003 C 
ATOM      4  C   UNL     1      27.796   8.622  24.644  1.00  0.00     0.004 C 
ENDBRANCH   2   3
ENDBRANCH   1   2
BRANCH   1   5
ATOM      5  C   UNL     1      29.532  12.115  24.825  1.00  0.00    -0.023 C 
ATOM      6  C   UNL     1      28.693  12.087  23.782  1.00  0.00     0.042 C 
BRANCH   6   7
ATOM      7  C   UNL     1      28.993  12.718  22.482  1.00  0.00     0.152 C 
ATOM      8  O   UNL     1      28.611  13.902  22.283  1.00  0.00    -0.295 OA
ATOM      9  C   UNL     1      29.735  12.003  21.392  1.00  0.00     0.093 C 
ENDBRANCH   6   7
ENDBRANCH   1   5
TORSDOF 4
ENDMDL
MODEL 7
REMARK VINA RESULT:    -3.151      2.048      2.957
REMARK INTER + INTRA:          -4.047
REMARK INTER:                  -3.944
REMARK INTRA:                  -0.103
REMARK UNBOUND:                -0.160
REMARK SMILES CCCCC=CC(C)=O
REMARK SMILES IDX 4 1 3 2 2 3 1 4 5 5 6 6 7 7 9 8 8 9
REMARK H PARENT
REMARK Flexibility Score: inf
ROOT
ATOM      1  C   UNL     1      28.299  11.507  22.993  1.00  0.00     0.027 C 
ENDROOT
BRANCH   1   2
ATOM      2  C   UNL     1      28.019  12.841  23.701  1.00  0.00     0.004 C 
BRANCH   2   3
ATOM      3  C   UNL     1      26.759  12.790  24.579  1.00  0.00    -0.003 C 
ATOM      4  C   UNL     1      27.084  12.755  26.072  1.00  0.00     0.004 C 
ENDBRANCH   2   3
ENDBRANCH   1   2
BRANCH   1   5
ATOM      5  C   UNL     1      28.746  10.459  23.972  1.00  0.00    -0.023 C 
ATOM      6  C   UNL     1      27.907   9.514  24.413  1.00  0.00     0.042 C 
BRANCH   6   7
ATOM      7  C   UNL     1      28.297   8.472  25.383  1.00  0.00     0.152 C 
ATOM      8  O   UNL     1      27.397   7.923  26.073  1.00  0.00    -0.295 OA
ATOM      9  C   UNL     1      29.721   8.044  25.575  1.00  0.00     0.093 C 
ENDBRANCH   6   7
ENDBRANCH   1   5
TORSDOF 4
ENDMDL
MODEL 8
REMARK VINA RESULT:    -2.451      2.973      4.682
REMARK INTER + INTRA:          -3.184
REMARK INTER:                  -3.068
REMARK INTRA:                  -0.116
REMARK UNBOUND:                -0.160
REMARK SMILES CCCCC=CC(C)=O
REMARK SMILES IDX 4 1 3 2 2 3 1 4 5 5 6 6 7 7 9 8 8 9
REMARK H PARENT
REMARK Flexibility Score: inf
ROOT
ATOM      1  C   UNL     1      28.152  12.119  26.053  1.00  0.00     0.027 C 
ENDROOT
BRANCH   1   2
ATOM      2  C   UNL     1      26.997  13.129  26.091  1.00  0.00     0.004 C 
BRANCH   2   3
ATOM      3  C   UNL     1      25.643  12.492  25.741  1.00  0.00    -0.003 C 
ATOM      4  C   UNL     1      24.459  13.386  26.106  1.00  0.00     0.004 C 
ENDBRANCH   2   3
ENDBRANCH   1   2
BRANCH   1   5
ATOM      5  C   UNL     1      28.917  12.220  24.765  1.00  0.00    -0.023 C 
ATOM      6  C   UNL     1      28.505  13.015  23.770  1.00  0.00     0.042 C 
BRANCH   6   7
ATOM      7  C   UNL     1      29.216  13.138  22.482  1.00  0.00     0.152 C 
ATOM      8  O   UNL     1      29.582  14.282  22.102  1.00  0.00    -0.295 OA
ATOM      9  C   UNL     1      29.519  11.954  21.613  1.00  0.00     0.093 C 
ENDBRANCH   6   7
ENDBRANCH   1   5
TORSDOF 4
ENDMDL
