MODEL 1
REMARK VINA RESULT:    -6.345      0.000      0.000
REMARK INTER + INTRA:          -8.087
REMARK INTER:                  -7.828
REMARK INTRA:                  -0.259
REMARK UNBOUND:                -0.259
REMARK SMILES COc1cc(-c2oc3cc(O)cc(O)c3c(=O)c2O)ccc1O
REMARK SMILES IDX 6 1 18 2 16 3 17 4 15 5 13 6 12 7 10 8 9 9 8 10 7 11 5 12
REMARK SMILES IDX 3 13 22 14 4 15 21 16 20 17 2 18 1 19 23 20 19 22 14 24
REMARK SMILES IDX 11 26
REMARK H PARENT 23 21 19 23 14 25 11 27
REMARK Flexibility Score: inf
ROOT
ATOM      1  C   UNL     1      18.386  -1.343 -16.758  1.00  0.00     0.180 A 
ATOM      2  C   UNL     1      17.664  -0.540 -15.853  1.00  0.00     0.208 A 
ATOM      3  C   UNL     1      16.917  -1.162 -14.841  1.00  0.00     0.238 A 
ATOM      4  O   UNL     1      16.258  -0.454 -14.032  1.00  0.00    -0.285 OA
ATOM      5  C   UNL     1      16.918  -2.569 -14.738  1.00  0.00     0.111 A 
ATOM      6  C   UNL     1      16.194  -3.272 -13.745  1.00  0.00     0.134 A 
ATOM      7  C   UNL     1      16.254  -4.674 -13.703  1.00  0.00     0.093 A 
ATOM      8  C   UNL     1      17.023  -5.382 -14.634  1.00  0.00     0.123 A 
ATOM      9  C   UNL     1      17.738  -4.692 -15.613  1.00  0.00     0.094 A 
ATOM     10  C   UNL     1      17.689  -3.296 -15.674  1.00  0.00     0.146 A 
ATOM     11  O   UNL     1      18.376  -2.666 -16.620  1.00  0.00    -0.452 OA
ENDROOT
BRANCH   1  12
ATOM     12  C   UNL     1      19.184  -0.762 -17.862  1.00  0.00     0.025 A 
ATOM     13  C   UNL     1      21.153   0.486 -18.598  1.00  0.00     0.161 A 
ATOM     14  C   UNL     1      20.762   0.304 -19.931  1.00  0.00     0.157 A 
ATOM     15  C   UNL     1      20.362  -0.057 -17.566  1.00  0.00     0.062 A 
ATOM     16  C   UNL     1      19.600  -0.418 -20.231  1.00  0.00     0.051 A 
ATOM     17  C   UNL     1      18.819  -0.953 -19.205  1.00  0.00     0.016 A 
BRANCH  13  18
ATOM     18  O   UNL     1      22.328   1.208 -18.338  1.00  0.00    -0.493 OA
ATOM     19  C   UNL     1      22.923   1.347 -17.052  1.00  0.00     0.278 C 
ENDBRANCH  13  18
BRANCH  14  20
ATOM     20  O   UNL     1      21.539   0.839 -20.957  1.00  0.00    -0.504 OA
ATOM     21  H   UNL     1      22.002   1.735 -20.860  1.00  0.00     0.293 HD
ENDBRANCH  14  20
ENDBRANCH   1  12
BRANCH   2  22
ATOM     22  O   UNL     1      17.719   0.853 -15.947  1.00  0.00    -0.502 OA
ATOM     23  H   UNL     1      18.593   1.357 -16.033  1.00  0.00     0.293 HD
ENDBRANCH   2  22
BRANCH   6  24
ATOM     24  O   UNL     1      15.419  -2.593 -12.804  1.00  0.00    -0.507 OA
ATOM     25  H   UNL     1      14.549  -2.976 -12.453  1.00  0.00     0.293 HD
ENDBRANCH   6  24
BRANCH   8  26
ATOM     26  O   UNL     1      17.084  -6.773 -14.591  1.00  0.00    -0.508 OA
ATOM     27  H   UNL     1      16.684  -7.298 -13.822  1.00  0.00     0.293 HD
ENDBRANCH   8  26
TORSDOF 6
ENDMDL
MODEL 2
REMARK VINA RESULT:    -6.334      3.559      5.290
REMARK INTER + INTRA:          -8.074
REMARK INTER:                  -7.940
REMARK INTRA:                  -0.134
REMARK UNBOUND:                -0.259
REMARK SMILES COc1cc(-c2oc3cc(O)cc(O)c3c(=O)c2O)ccc1O
REMARK SMILES IDX 6 1 18 2 16 3 17 4 15 5 13 6 12 7 10 8 9 9 8 10 7 11 5 12
REMARK SMILES IDX 3 13 22 14 4 15 21 16 20 17 2 18 1 19 23 20 19 22 14 24
REMARK SMILES IDX 11 26
REMARK H PARENT 23 21 19 23 14 25 11 27
REMARK Flexibility Score: inf
ROOT
ATOM      1  C   UNL     1      20.541   0.343 -17.556  1.00  0.00     0.180 A 
ATOM      2  C   UNL     1      19.334   0.227 -16.838  1.00  0.00     0.208 A 
ATOM      3  C   UNL     1      19.306   0.615 -15.490  1.00  0.00     0.238 A 
ATOM      4  O   UNL     1      18.234   0.506 -14.835  1.00  0.00    -0.285 OA
ATOM      5  C   UNL     1      20.473   1.128 -14.888  1.00  0.00     0.111 A 
ATOM      6  C   UNL     1      20.528   1.543 -13.536  1.00  0.00     0.134 A 
ATOM      7  C   UNL     1      21.727   2.052 -13.012  1.00  0.00     0.093 A 
ATOM      8  C   UNL     1      22.869   2.152 -13.815  1.00  0.00     0.123 A 
ATOM      9  C   UNL     1      22.819   1.743 -15.148  1.00  0.00     0.094 A 
ATOM     10  C   UNL     1      21.635   1.231 -15.688  1.00  0.00     0.146 A 
ATOM     11  O   UNL     1      21.618   0.845 -16.958  1.00  0.00    -0.452 OA
ENDROOT
BRANCH   1  12
ATOM     12  C   UNL     1      20.654  -0.061 -18.976  1.00  0.00     0.025 A 
ATOM     13  C   UNL     1      21.345   0.467 -21.260  1.00  0.00     0.161 A 
ATOM     14  C   UNL     1      20.945  -0.811 -21.670  1.00  0.00     0.157 A 
ATOM     15  C   UNL     1      21.204   0.834 -19.907  1.00  0.00     0.062 A 
ATOM     16  C   UNL     1      20.417  -1.715 -20.741  1.00  0.00     0.051 A 
ATOM     17  C   UNL     1      20.277  -1.346 -19.401  1.00  0.00     0.016 A 
BRANCH  13  18
ATOM     18  O   UNL     1      21.878   1.342 -22.220  1.00  0.00    -0.493 OA
ATOM     19  C   UNL     1      21.960   2.756 -22.068  1.00  0.00     0.278 C 
ENDBRANCH  13  18
BRANCH  14  20
ATOM     20  O   UNL     1      21.081  -1.180 -23.008  1.00  0.00    -0.504 OA
ATOM     21  H   UNL     1      21.552  -0.583 -23.678  1.00  0.00     0.293 HD
ENDBRANCH  14  20
ENDBRANCH   1  12
BRANCH   2  22
ATOM     22  O   UNL     1      18.179  -0.238 -17.472  1.00  0.00    -0.502 OA
ATOM     23  H   UNL     1      18.032  -1.217 -17.683  1.00  0.00     0.293 HD
ENDBRANCH   2  22
BRANCH   6  24
ATOM     24  O   UNL     1      19.406   1.457 -12.711  1.00  0.00    -0.507 OA
ATOM     25  H   UNL     1      19.430   1.760 -11.744  1.00  0.00     0.293 HD
ENDBRANCH   6  24
BRANCH   8  26
ATOM     26  O   UNL     1      24.059   2.658 -13.297  1.00  0.00    -0.508 OA
ATOM     27  H   UNL     1      24.876   2.071 -13.175  1.00  0.00     0.293 HD
ENDBRANCH   8  26
TORSDOF 6
ENDMDL
MODEL 3
REMARK VINA RESULT:    -6.046      3.494      4.978
REMARK INTER + INTRA:          -7.719
REMARK INTER:                  -7.571
REMARK INTRA:                  -0.148
REMARK UNBOUND:                -0.259
REMARK SMILES COc1cc(-c2oc3cc(O)cc(O)c3c(=O)c2O)ccc1O
REMARK SMILES IDX 6 1 18 2 16 3 17 4 15 5 13 6 12 7 10 8 9 9 8 10 7 11 5 12
REMARK SMILES IDX 3 13 22 14 4 15 21 16 20 17 2 18 1 19 23 20 19 22 14 24
REMARK SMILES IDX 11 26
REMARK H PARENT 23 21 19 23 14 25 11 27
REMARK Flexibility Score: inf
ROOT
ATOM      1  C   UNL     1      20.823   0.484 -17.567  1.00  0.00     0.180 A 
ATOM      2  C   UNL     1      21.975   0.916 -16.880  1.00  0.00     0.208 A 
ATOM      3  C   UNL     1      21.855   1.316 -15.540  1.00  0.00     0.238 A 
ATOM      4  O   UNL     1      22.877   1.715 -14.918  1.00  0.00    -0.285 OA
ATOM      5  C   UNL     1      20.597   1.258 -14.905  1.00  0.00     0.111 A 
ATOM      6  C   UNL     1      20.393   1.640 -13.557  1.00  0.00     0.134 A 
ATOM      7  C   UNL     1      19.111   1.545 -12.994  1.00  0.00     0.093 A 
ATOM      8  C   UNL     1      18.032   1.077 -13.754  1.00  0.00     0.123 A 
ATOM      9  C   UNL     1      18.230   0.701 -15.082  1.00  0.00     0.094 A 
ATOM     10  C   UNL     1      19.499   0.790 -15.662  1.00  0.00     0.146 A 
ATOM     11  O   UNL     1      19.657   0.429 -16.931  1.00  0.00    -0.452 OA
ENDROOT
BRANCH   1  12
ATOM     12  C   UNL     1      20.865   0.063 -18.987  1.00  0.00     0.025 A 
ATOM     13  C   UNL     1      21.405   0.580 -21.314  1.00  0.00     0.161 A 
ATOM     14  C   UNL     1      21.020  -0.715 -21.684  1.00  0.00     0.157 A 
ATOM     15  C   UNL     1      21.332   0.962 -19.959  1.00  0.00     0.062 A 
ATOM     16  C   UNL     1      20.575  -1.620 -20.714  1.00  0.00     0.051 A 
ATOM     17  C   UNL     1      20.503  -1.238 -19.373  1.00  0.00     0.016 A 
BRANCH  13  18
ATOM     18  O   UNL     1      21.854   1.457 -22.314  1.00  0.00    -0.493 OA
ATOM     19  C   UNL     1      22.039   2.858 -22.137  1.00  0.00     0.278 C 
ENDBRANCH  13  18
BRANCH  14  20
ATOM     20  O   UNL     1      21.088  -1.098 -23.023  1.00  0.00    -0.504 OA
ATOM     21  H   UNL     1      21.970  -1.333 -23.463  1.00  0.00     0.293 HD
ENDBRANCH  14  20
ENDBRANCH   1  12
BRANCH   2  22
ATOM     22  O   UNL     1      23.218   0.917 -17.517  1.00  0.00    -0.502 OA
ATOM     23  H   UNL     1      23.386   1.423 -18.378  1.00  0.00     0.293 HD
ENDBRANCH   2  22
BRANCH   6  24
ATOM     24  O   UNL     1      21.449   2.109 -12.775  1.00  0.00    -0.507 OA
ATOM     25  H   UNL     1      22.415   2.010 -13.067  1.00  0.00     0.293 HD
ENDBRANCH   6  24
BRANCH   8  26
ATOM     26  O   UNL     1      16.760   0.982 -13.195  1.00  0.00    -0.508 OA
ATOM     27  H   UNL     1      16.524   0.249 -12.535  1.00  0.00     0.293 HD
ENDBRANCH   8  26
TORSDOF 6
ENDMDL
MODEL 4
REMARK VINA RESULT:    -6.004      1.604      7.022
REMARK INTER + INTRA:          -7.667
REMARK INTER:                  -7.301
REMARK INTRA:                  -0.366
REMARK UNBOUND:                -0.259
REMARK SMILES COc1cc(-c2oc3cc(O)cc(O)c3c(=O)c2O)ccc1O
REMARK SMILES IDX 6 1 18 2 16 3 17 4 15 5 13 6 12 7 10 8 9 9 8 10 7 11 5 12
REMARK SMILES IDX 3 13 22 14 4 15 21 16 20 17 2 18 1 19 23 20 19 22 14 24
REMARK SMILES IDX 11 26
REMARK H PARENT 23 21 19 23 14 25 11 27
REMARK Flexibility Score: inf
ROOT
ATOM      1  C   UNL     1      18.275  -0.333 -15.971  1.00  0.00     0.180 A 
ATOM      2  C   UNL     1      19.331   0.451 -15.466  1.00  0.00     0.208 A 
ATOM      3  C   UNL     1      20.388   0.797 -16.321  1.00  0.00     0.238 A 
ATOM      4  O   UNL     1      21.344   1.490 -15.877  1.00  0.00    -0.285 OA
ATOM      5  C   UNL     1      20.364   0.374 -17.666  1.00  0.00     0.111 A 
ATOM      6  C   UNL     1      21.389   0.683 -18.593  1.00  0.00     0.134 A 
ATOM      7  C   UNL     1      21.287   0.232 -19.918  1.00  0.00     0.093 A 
ATOM      8  C   UNL     1      20.181  -0.522 -20.331  1.00  0.00     0.123 A 
ATOM      9  C   UNL     1      19.170  -0.829 -19.420  1.00  0.00     0.094 A 
ATOM     10  C   UNL     1      19.254  -0.390 -18.095  1.00  0.00     0.146 A 
ATOM     11  O   UNL     1      18.280  -0.702 -17.249  1.00  0.00    -0.452 OA
ENDROOT
BRANCH   1  12
ATOM     12  C   UNL     1      17.134  -0.754 -15.126  1.00  0.00     0.025 A 
ATOM     13  C   UNL     1      16.065  -2.459 -13.738  1.00  0.00     0.161 A 
ATOM     14  C   UNL     1      15.016  -1.571 -13.467  1.00  0.00     0.157 A 
ATOM     15  C   UNL     1      17.127  -2.040 -14.564  1.00  0.00     0.062 A 
ATOM     16  C   UNL     1      15.029  -0.280 -14.007  1.00  0.00     0.051 A 
ATOM     17  C   UNL     1      16.083   0.130 -14.827  1.00  0.00     0.016 A 
BRANCH  13  18
ATOM     18  O   UNL     1      16.020  -3.742 -13.171  1.00  0.00    -0.493 OA
ATOM     19  C   UNL     1      16.015  -4.955 -13.917  1.00  0.00     0.278 C 
ENDBRANCH  13  18
BRANCH  14  20
ATOM     20  O   UNL     1      13.961  -1.979 -12.651  1.00  0.00    -0.504 OA
ATOM     21  H   UNL     1      13.597  -1.383 -11.917  1.00  0.00     0.293 HD
ENDBRANCH  14  20
ENDBRANCH   1  12
BRANCH   2  22
ATOM     22  O   UNL     1      19.307   0.899 -14.143  1.00  0.00    -0.502 OA
ATOM     23  H   UNL     1      18.913   0.348 -13.390  1.00  0.00     0.293 HD
ENDBRANCH   2  22
BRANCH   6  24
ATOM     24  O   UNL     1      22.501   1.433 -18.211  1.00  0.00    -0.507 OA
ATOM     25  H   UNL     1      23.350   1.449 -18.765  1.00  0.00     0.293 HD
ENDBRANCH   6  24
BRANCH   8  26
ATOM     26  O   UNL     1      20.080  -0.969 -21.646  1.00  0.00    -0.508 OA
ATOM     27  H   UNL     1      20.466  -0.438 -22.418  1.00  0.00     0.293 HD
ENDBRANCH   8  26
TORSDOF 6
ENDMDL
MODEL 5
REMARK VINA RESULT:    -5.922      7.596     10.076
REMARK INTER + INTRA:          -7.566
REMARK INTER:                  -7.171
REMARK INTRA:                  -0.395
REMARK UNBOUND:                -0.259
REMARK SMILES COc1cc(-c2oc3cc(O)cc(O)c3c(=O)c2O)ccc1O
REMARK SMILES IDX 6 1 18 2 16 3 17 4 15 5 13 6 12 7 10 8 9 9 8 10 7 11 5 12
REMARK SMILES IDX 3 13 22 14 4 15 21 16 20 17 2 18 1 19 23 20 19 22 14 24
REMARK SMILES IDX 11 26
REMARK H PARENT 23 21 19 23 14 25 11 27
REMARK Flexibility Score: inf
ROOT
ATOM      1  C   UNL     1      18.941  -1.822  -8.054  1.00  0.00     0.180 A 
ATOM      2  C   UNL     1      18.846  -2.516  -6.832  1.00  0.00     0.208 A 
ATOM      3  C   UNL     1      20.024  -2.948  -6.204  1.00  0.00     0.238 A 
ATOM      4  O   UNL     1      19.950  -3.580  -5.115  1.00  0.00    -0.285 OA
ATOM      5  C   UNL     1      21.273  -2.665  -6.794  1.00  0.00     0.111 A 
ATOM      6  C   UNL     1      22.506  -3.062  -6.224  1.00  0.00     0.134 A 
ATOM      7  C   UNL     1      23.709  -2.733  -6.868  1.00  0.00     0.093 A 
ATOM      8  C   UNL     1      23.700  -2.016  -8.070  1.00  0.00     0.123 A 
ATOM      9  C   UNL     1      22.486  -1.623  -8.636  1.00  0.00     0.094 A 
ATOM     10  C   UNL     1      21.277  -1.943  -8.010  1.00  0.00     0.146 A 
ATOM     11  O   UNL     1      20.137  -1.560  -8.573  1.00  0.00    -0.452 OA
ENDROOT
BRANCH   1  12
ATOM     12  C   UNL     1      17.743  -1.349  -8.786  1.00  0.00     0.025 A 
ATOM     13  C   UNL     1      16.120   0.424  -9.233  1.00  0.00     0.161 A 
ATOM     14  C   UNL     1      15.509  -0.388 -10.197  1.00  0.00     0.157 A 
ATOM     15  C   UNL     1      17.244  -0.061  -8.535  1.00  0.00     0.062 A 
ATOM     16  C   UNL     1      16.017  -1.664 -10.467  1.00  0.00     0.051 A 
ATOM     17  C   UNL     1      17.130  -2.141  -9.771  1.00  0.00     0.016 A 
BRANCH  13  18
ATOM     18  O   UNL     1      15.587   1.701  -8.997  1.00  0.00    -0.493 OA
ATOM     19  C   UNL     1      15.969   2.549  -7.919  1.00  0.00     0.278 C 
ENDBRANCH  13  18
BRANCH  14  20
ATOM     20  O   UNL     1      14.396   0.085 -10.891  1.00  0.00    -0.504 OA
ATOM     21  H   UNL     1      14.213   1.076 -10.988  1.00  0.00     0.293 HD
ENDBRANCH  14  20
ENDBRANCH   1  12
BRANCH   2  22
ATOM     22  O   UNL     1      17.599  -2.741  -6.244  1.00  0.00    -0.502 OA
ATOM     23  H   UNL     1      17.222  -2.137  -5.523  1.00  0.00     0.293 HD
ENDBRANCH   2  22
BRANCH   6  24
ATOM     24  O   UNL     1      22.547  -3.777  -5.026  1.00  0.00    -0.507 OA
ATOM     25  H   UNL     1      21.701  -4.045  -4.536  1.00  0.00     0.293 HD
ENDBRANCH   6  24
BRANCH   8  26
ATOM     26  O   UNL     1      24.893  -1.689  -8.710  1.00  0.00    -0.508 OA
ATOM     27  H   UNL     1      24.902  -1.228  -9.612  1.00  0.00     0.293 HD
ENDBRANCH   8  26
TORSDOF 6
ENDMDL
MODEL 6
REMARK VINA RESULT:    -5.907      1.979      7.029
REMARK INTER + INTRA:          -7.548
REMARK INTER:                  -7.163
REMARK INTRA:                  -0.385
REMARK UNBOUND:                -0.259
REMARK SMILES COc1cc(-c2oc3cc(O)cc(O)c3c(=O)c2O)ccc1O
REMARK SMILES IDX 6 1 18 2 16 3 17 4 15 5 13 6 12 7 10 8 9 9 8 10 7 11 5 12
REMARK SMILES IDX 3 13 22 14 4 15 21 16 20 17 2 18 1 19 23 20 19 22 14 24
REMARK SMILES IDX 11 26
REMARK H PARENT 23 21 19 23 14 25 11 27
REMARK Flexibility Score: inf
ROOT
ATOM      1  C   UNL     1      18.358  -0.436 -15.901  1.00  0.00     0.180 A 
ATOM      2  C   UNL     1      19.405   0.373 -15.417  1.00  0.00     0.208 A 
ATOM      3  C   UNL     1      20.421   0.768 -16.300  1.00  0.00     0.238 A 
ATOM      4  O   UNL     1      21.369   1.483 -15.876  1.00  0.00    -0.285 OA
ATOM      5  C   UNL     1      20.365   0.368 -17.652  1.00  0.00     0.111 A 
ATOM      6  C   UNL     1      21.347   0.726 -18.606  1.00  0.00     0.134 A 
ATOM      7  C   UNL     1      21.215   0.295 -19.935  1.00  0.00     0.093 A 
ATOM      8  C   UNL     1      20.121  -0.486 -20.325  1.00  0.00     0.123 A 
ATOM      9  C   UNL     1      19.152  -0.842 -19.387  1.00  0.00     0.094 A 
ATOM     10  C   UNL     1      19.266  -0.424 -18.058  1.00  0.00     0.146 A 
ATOM     11  O   UNL     1      18.331  -0.782 -17.185  1.00  0.00    -0.452 OA
ENDROOT
BRANCH   1  12
ATOM     12  C   UNL     1      17.260  -0.908 -15.027  1.00  0.00     0.025 A 
ATOM     13  C   UNL     1      15.059  -0.530 -14.032  1.00  0.00     0.161 A 
ATOM     14  C   UNL     1      15.124  -1.792 -13.426  1.00  0.00     0.157 A 
ATOM     15  C   UNL     1      16.130  -0.097 -14.840  1.00  0.00     0.062 A 
ATOM     16  C   UNL     1      16.240  -2.613 -13.628  1.00  0.00     0.051 A 
ATOM     17  C   UNL     1      17.299  -2.178 -14.428  1.00  0.00     0.016 A 
BRANCH  13  18
ATOM     18  O   UNL     1      13.921   0.260 -13.812  1.00  0.00    -0.493 OA
ATOM     19  C   UNL     1      13.384   1.184 -14.754  1.00  0.00     0.278 C 
ENDBRANCH  13  18
BRANCH  14  20
ATOM     20  O   UNL     1      14.069  -2.227 -12.625  1.00  0.00    -0.504 OA
ATOM     21  H   UNL     1      14.198  -2.428 -11.640  1.00  0.00     0.293 HD
ENDBRANCH  14  20
ENDBRANCH   1  12
BRANCH   2  22
ATOM     22  O   UNL     1      19.412   0.797 -14.086  1.00  0.00    -0.502 OA
ATOM     23  H   UNL     1      18.591   1.184 -13.636  1.00  0.00     0.293 HD
ENDBRANCH   2  22
BRANCH   6  24
ATOM     24  O   UNL     1      22.448   1.505 -18.247  1.00  0.00    -0.507 OA
ATOM     25  H   UNL     1      23.173   1.153 -17.631  1.00  0.00     0.293 HD
ENDBRANCH   6  24
BRANCH   8  26
ATOM     26  O   UNL     1      19.989  -0.913 -21.644  1.00  0.00    -0.508 OA
ATOM     27  H   UNL     1      19.867  -1.892 -21.875  1.00  0.00     0.293 HD
ENDBRANCH   8  26
TORSDOF 6
ENDMDL
MODEL 7
REMARK VINA RESULT:    -5.906      7.284      9.981
REMARK INTER + INTRA:          -7.546
REMARK INTER:                  -7.153
REMARK INTRA:                  -0.393
REMARK UNBOUND:                -0.259
REMARK SMILES COc1cc(-c2oc3cc(O)cc(O)c3c(=O)c2O)ccc1O
REMARK SMILES IDX 6 1 18 2 16 3 17 4 15 5 13 6 12 7 10 8 9 9 8 10 7 11 5 12
REMARK SMILES IDX 3 13 22 14 4 15 21 16 20 17 2 18 1 19 23 20 19 22 14 24
REMARK SMILES IDX 11 26
REMARK H PARENT 23 21 19 23 14 25 11 27
REMARK Flexibility Score: inf
ROOT
ATOM      1  C   UNL     1      18.980  -1.957  -8.205  1.00  0.00     0.180 A 
ATOM      2  C   UNL     1      18.882  -2.544  -6.929  1.00  0.00     0.208 A 
ATOM      3  C   UNL     1      20.057  -2.934  -6.269  1.00  0.00     0.238 A 
ATOM      4  O   UNL     1      19.981  -3.471  -5.130  1.00  0.00    -0.285 OA
ATOM      5  C   UNL     1      21.307  -2.715  -6.884  1.00  0.00     0.111 A 
ATOM      6  C   UNL     1      22.538  -3.076  -6.284  1.00  0.00     0.134 A 
ATOM      7  C   UNL     1      23.742  -2.815  -6.958  1.00  0.00     0.093 A 
ATOM      8  C   UNL     1      23.736  -2.202  -8.216  1.00  0.00     0.123 A 
ATOM      9  C   UNL     1      22.525  -1.845  -8.810  1.00  0.00     0.094 A 
ATOM     10  C   UNL     1      21.315  -2.098  -8.156  1.00  0.00     0.146 A 
ATOM     11  O   UNL     1      20.177  -1.753  -8.747  1.00  0.00    -0.452 OA
ENDROOT
BRANCH   1  12
ATOM     12  C   UNL     1      17.785  -1.536  -8.972  1.00  0.00     0.025 A 
ATOM     13  C   UNL     1      15.963  -2.103 -10.500  1.00  0.00     0.161 A 
ATOM     14  C   UNL     1      15.476  -0.794 -10.395  1.00  0.00     0.157 A 
ATOM     15  C   UNL     1      17.116  -2.470  -9.778  1.00  0.00     0.062 A 
ATOM     16  C   UNL     1      16.127   0.135  -9.574  1.00  0.00     0.051 A 
ATOM     17  C   UNL     1      17.270  -0.233  -8.862  1.00  0.00     0.016 A 
BRANCH  13  18
ATOM     18  O   UNL     1      15.279  -3.008 -11.327  1.00  0.00    -0.493 OA
ATOM     19  C   UNL     1      14.890  -4.322 -10.938  1.00  0.00     0.278 C 
ENDBRANCH  13  18
BRANCH  14  20
ATOM     20  O   UNL     1      14.336  -0.423 -11.107  1.00  0.00    -0.504 OA
ATOM     21  H   UNL     1      13.559   0.045 -10.657  1.00  0.00     0.293 HD
ENDBRANCH  14  20
ENDBRANCH   1  12
BRANCH   2  22
ATOM     22  O   UNL     1      17.634  -2.706  -6.320  1.00  0.00    -0.502 OA
ATOM     23  H   UNL     1      16.767  -2.653  -6.839  1.00  0.00     0.293 HD
ENDBRANCH   2  22
BRANCH   6  24
ATOM     24  O   UNL     1      22.576  -3.687  -5.031  1.00  0.00    -0.507 OA
ATOM     25  H   UNL     1      22.639  -4.694  -4.930  1.00  0.00     0.293 HD
ENDBRANCH   6  24
BRANCH   8  26
ATOM     26  O   UNL     1      24.931  -1.942  -8.884  1.00  0.00    -0.508 OA
ATOM     27  H   UNL     1      25.018  -2.073  -9.885  1.00  0.00     0.293 HD
ENDBRANCH   8  26
TORSDOF 6
ENDMDL
MODEL 8
REMARK VINA RESULT:    -5.869      0.889      1.903
REMARK INTER + INTRA:          -7.501
REMARK INTER:                  -7.283
REMARK INTRA:                  -0.219
REMARK UNBOUND:                -0.259
REMARK SMILES COc1cc(-c2oc3cc(O)cc(O)c3c(=O)c2O)ccc1O
REMARK SMILES IDX 6 1 18 2 16 3 17 4 15 5 13 6 12 7 10 8 9 9 8 10 7 11 5 12
REMARK SMILES IDX 3 13 22 14 4 15 21 16 20 17 2 18 1 19 23 20 19 22 14 24
REMARK SMILES IDX 11 26
REMARK H PARENT 23 21 19 23 14 25 11 27
REMARK Flexibility Score: inf
ROOT
ATOM      1  C   UNL     1      18.392  -0.938 -16.290  1.00  0.00     0.180 A 
ATOM      2  C   UNL     1      17.525  -0.121 -15.538  1.00  0.00     0.208 A 
ATOM      3  C   UNL     1      16.605  -0.727 -14.669  1.00  0.00     0.238 A 
ATOM      4  O   UNL     1      15.817  -0.005 -13.998  1.00  0.00    -0.285 OA
ATOM      5  C   UNL     1      16.579  -2.132 -14.551  1.00  0.00     0.111 A 
ATOM      6  C   UNL     1      15.684  -2.820 -13.696  1.00  0.00     0.134 A 
ATOM      7  C   UNL     1      15.727  -4.221 -13.628  1.00  0.00     0.093 A 
ATOM      8  C   UNL     1      16.645  -4.944 -14.398  1.00  0.00     0.123 A 
ATOM      9  C   UNL     1      17.527  -4.270 -15.242  1.00  0.00     0.094 A 
ATOM     10  C   UNL     1      17.500  -2.875 -15.326  1.00  0.00     0.146 A 
ATOM     11  O   UNL     1      18.348  -2.259 -16.142  1.00  0.00    -0.452 OA
ENDROOT
BRANCH   1  12
ATOM     12  C   UNL     1      19.378  -0.374 -17.241  1.00  0.00     0.025 A 
ATOM     13  C   UNL     1      20.083   0.016 -19.549  1.00  0.00     0.161 A 
ATOM     14  C   UNL     1      21.192   0.733 -19.082  1.00  0.00     0.157 A 
ATOM     15  C   UNL     1      19.173  -0.530 -18.621  1.00  0.00     0.062 A 
ATOM     16  C   UNL     1      21.387   0.910 -17.707  1.00  0.00     0.051 A 
ATOM     17  C   UNL     1      20.484   0.365 -16.791  1.00  0.00     0.016 A 
BRANCH  13  18
ATOM     18  O   UNL     1      19.917  -0.133 -20.935  1.00  0.00    -0.493 OA
ATOM     19  C   UNL     1      20.542  -1.143 -21.719  1.00  0.00     0.278 C 
ENDBRANCH  13  18
BRANCH  14  20
ATOM     20  O   UNL     1      22.096   1.275 -19.994  1.00  0.00    -0.504 OA
ATOM     21  H   UNL     1      22.315   0.808 -20.866  1.00  0.00     0.293 HD
ENDBRANCH  14  20
ENDBRANCH   1  12
BRANCH   2  22
ATOM     22  O   UNL     1      17.606   1.270 -15.636  1.00  0.00    -0.502 OA
ATOM     23  H   UNL     1      17.075   1.798 -16.319  1.00  0.00     0.293 HD
ENDBRANCH   2  22
BRANCH   6  24
ATOM     24  O   UNL     1      14.759  -2.126 -12.916  1.00  0.00    -0.507 OA
ATOM     25  H   UNL     1      13.871  -1.814 -13.292  1.00  0.00     0.293 HD
ENDBRANCH   6  24
BRANCH   8  26
ATOM     26  O   UNL     1      16.687  -6.335 -14.330  1.00  0.00    -0.508 OA
ATOM     27  H   UNL     1      17.170  -6.886 -15.030  1.00  0.00     0.293 HD
ENDBRANCH   8  26
TORSDOF 6
ENDMDL
MODEL 9
REMARK VINA RESULT:    -5.817      2.472      4.316
REMARK INTER + INTRA:          -7.437
REMARK INTER:                  -7.050
REMARK INTRA:                  -0.386
REMARK UNBOUND:                -0.259
REMARK SMILES COc1cc(-c2oc3cc(O)cc(O)c3c(=O)c2O)ccc1O
REMARK SMILES IDX 6 1 18 2 16 3 17 4 15 5 13 6 12 7 10 8 9 9 8 10 7 11 5 12
REMARK SMILES IDX 3 13 22 14 4 15 21 16 20 17 2 18 1 19 23 20 19 22 14 24
REMARK SMILES IDX 11 26
REMARK H PARENT 23 21 19 23 14 25 11 27
REMARK Flexibility Score: inf
ROOT
ATOM      1  C   UNL     1      17.306  -0.457 -15.150  1.00  0.00     0.180 A 
ATOM      2  C   UNL     1      17.245  -1.515 -14.221  1.00  0.00     0.208 A 
ATOM      3  C   UNL     1      16.064  -1.709 -13.489  1.00  0.00     0.238 A 
ATOM      4  O   UNL     1      16.002  -2.646 -12.647  1.00  0.00    -0.285 OA
ATOM      5  C   UNL     1      14.960  -0.860 -13.709  1.00  0.00     0.111 A 
ATOM      6  C   UNL     1      13.733  -0.990 -13.016  1.00  0.00     0.134 A 
ATOM      7  C   UNL     1      12.676  -0.110 -13.299  1.00  0.00     0.093 A 
ATOM      8  C   UNL     1      12.826   0.896 -14.261  1.00  0.00     0.123 A 
ATOM      9  C   UNL     1      14.034   1.028 -14.946  1.00  0.00     0.094 A 
ATOM     10  C   UNL     1      15.099   0.162 -14.677  1.00  0.00     0.146 A 
ATOM     11  O   UNL     1      16.239   0.314 -15.341  1.00  0.00    -0.452 OA
ENDROOT
BRANCH   1  12
ATOM     12  C   UNL     1      18.522  -0.178 -15.946  1.00  0.00     0.025 A 
ATOM     13  C   UNL     1      19.806  -0.503 -18.001  1.00  0.00     0.161 A 
ATOM     14  C   UNL     1      20.787   0.374 -17.519  1.00  0.00     0.157 A 
ATOM     15  C   UNL     1      18.670  -0.769 -17.211  1.00  0.00     0.062 A 
ATOM     16  C   UNL     1      20.632   0.982 -16.268  1.00  0.00     0.051 A 
ATOM     17  C   UNL     1      19.505   0.714 -15.488  1.00  0.00     0.016 A 
BRANCH  13  18
ATOM     18  O   UNL     1      19.992  -1.087 -19.264  1.00  0.00    -0.493 OA
ATOM     19  C   UNL     1      19.523  -0.532 -20.488  1.00  0.00     0.278 C 
ENDBRANCH  13  18
BRANCH  14  20
ATOM     20  O   UNL     1      21.914   0.641 -18.295  1.00  0.00    -0.504 OA
ATOM     21  H   UNL     1      22.569  -0.089 -18.548  1.00  0.00     0.293 HD
ENDBRANCH  14  20
ENDBRANCH   1  12
BRANCH   2  22
ATOM     22  O   UNL     1      18.336  -2.373 -14.057  1.00  0.00    -0.502 OA
ATOM     23  H   UNL     1      19.170  -2.099 -13.552  1.00  0.00     0.293 HD
ENDBRANCH   2  22
BRANCH   6  24
ATOM     24  O   UNL     1      13.553  -1.983 -12.052  1.00  0.00    -0.507 OA
ATOM     25  H   UNL     1      12.671  -2.471 -11.947  1.00  0.00     0.293 HD
ENDBRANCH   6  24
BRANCH   8  26
ATOM     26  O   UNL     1      11.778   1.769 -14.543  1.00  0.00    -0.508 OA
ATOM     27  H   UNL     1      10.979   1.855 -13.926  1.00  0.00     0.293 HD
ENDBRANCH   8  26
TORSDOF 6
ENDMDL
