MODEL 1
REMARK VINA RESULT:    -4.559      0.000      0.000
REMARK INTER + INTRA:          -6.562
REMARK INTER:                  -6.424
REMARK INTRA:                  -0.137
REMARK UNBOUND:                -0.137
REMARK SMILES CC1=CCC(=C(C)C)C(=O)CC(C)=CCC1
REMARK SMILES IDX 12 1 14 2 13 3 15 4 16 5 2 6 1 7 3 8 11 10 9 11 10 12 5 13
REMARK SMILES IDX 6 14 7 15 8 16 4 17
REMARK H PARENT
REMARK Flexibility Score: 60.00
ROOT
ATOM      1  C   UNL     1      16.020  18.585  56.982  1.00  0.00    -0.070 C 
ATOM      2  C   UNL     1      15.633  19.127  58.159  1.00  0.00    -0.027 C 
ATOM      3  C   UNL     1      17.295  19.087  56.355  1.00  0.00     0.039 C 
ENDROOT
BRANCH   2   4
ATOM      4  C   UNL     1      14.474  18.645  58.993  1.00  0.00     0.032 C 
BRANCH   4   5
ATOM      5  C   UNL     1      13.214  19.446  58.646  1.00  0.00     0.034 C 
BRANCH   5   6
ATOM      6  C   UNL     1      11.979  18.574  58.551  1.00  0.00    -0.077 C 
ATOM      7  C   UNL     1      11.372  18.040  59.825  1.00  0.00     0.039 C 
ATOM      8  C   UNL     1      11.424  18.183  57.377  1.00  0.00    -0.023 CG0
ATOM      9  G   UNL     1      11.813  18.628  55.979  1.00  0.00     0.000 G0
ENDBRANCH   5   6
ENDBRANCH   4   5
ENDBRANCH   2   4
BRANCH   1  10
ATOM     10  C   UNL     1      15.227  17.518  56.255  1.00  0.00     0.111 C 
BRANCH  10  11
ATOM     11  C   UNL     1      14.239  18.115  55.281  1.00  0.00     0.163 C 
ATOM     12  O   UNL     1      14.675  18.991  54.486  1.00  0.00    -0.294 OA
BRANCH  11  13
ATOM     13  C   UNL     1      12.787  17.739  55.230  1.00  0.00    -0.002 C 
ATOM     14  C   UNL     1      12.358  16.731  54.408  1.00  0.00    -0.069 C 
ATOM     15  C   UNL     1      13.332  15.782  53.749  1.00  0.00     0.039 C 
ATOM     16  C   UNL     1      10.890  16.477  54.151  1.00  0.00     0.039 C 
BRANCH  13  17
ATOM     17  C   UNL     1      11.794  18.627  55.973  1.00  0.00     0.066 CG0
ATOM     18  G   UNL     1      11.420  18.192  57.379  1.00  0.00     0.000 G0
ENDBRANCH  13  17
ENDBRANCH  11  13
ENDBRANCH  10  11
ENDBRANCH   1  10
TORSDOF 0
ENDMDL
MODEL 2
REMARK VINA RESULT:    -4.370      1.614      3.856
REMARK INTER + INTRA:          -6.295
REMARK INTER:                  -6.551
REMARK INTRA:                   0.256
REMARK UNBOUND:                -0.137
REMARK SMILES CC1=CCC(=C(C)C)C(=O)CC(C)=CCC1
REMARK SMILES IDX 12 1 14 2 13 3 15 4 16 5 2 6 1 7 3 8 11 10 9 11 10 12 5 13
REMARK SMILES IDX 6 14 7 15 8 16 4 17
REMARK H PARENT
REMARK Flexibility Score: 60.00
ROOT
ATOM      1  C   UNL     1      15.001  18.439  57.805  1.00  0.00    -0.070 C 
ATOM      2  C   UNL     1      15.366  17.801  56.670  1.00  0.00    -0.027 C 
ATOM      3  C   UNL     1      15.863  19.575  58.289  1.00  0.00     0.039 C 
ENDROOT
BRANCH   2   4
ATOM      4  C   UNL     1      14.547  16.748  55.968  1.00  0.00     0.032 C 
BRANCH   4   5
ATOM      5  C   UNL     1      13.342  17.397  55.281  1.00  0.00     0.034 C 
BRANCH   5   6
ATOM      6  C   UNL     1      12.059  16.621  55.501  1.00  0.00    -0.077 C 
ATOM      7  C   UNL     1      11.970  15.209  54.977  1.00  0.00     0.039 C 
ATOM      8  C   UNL     1      10.953  17.148  56.083  1.00  0.00    -0.023 CG0
ATOM      9  G   UNL     1      10.814  18.512  56.735  1.00  0.00     0.000 G0
ENDBRANCH   5   6
ENDBRANCH   4   5
ENDBRANCH   2   4
BRANCH   1  10
ATOM     10  C   UNL     1      13.784  18.054  58.623  1.00  0.00     0.111 C 
BRANCH  10  11
ATOM     11  C   UNL     1      12.656  19.042  58.453  1.00  0.00     0.163 C 
ATOM     12  O   UNL     1      12.944  20.265  58.556  1.00  0.00    -0.294 OA
BRANCH  11  13
ATOM     13  C   UNL     1      11.231  18.646  58.194  1.00  0.00    -0.002 C 
ATOM     14  C   UNL     1      10.418  18.257  59.224  1.00  0.00    -0.069 C 
ATOM     15  C   UNL     1      10.813  18.477  60.667  1.00  0.00     0.039 C 
ATOM     16  C   UNL     1       9.063  17.632  58.984  1.00  0.00     0.039 C 
BRANCH  13  17
ATOM     17  C   UNL     1      10.781  18.516  56.742  1.00  0.00     0.066 CG0
ATOM     18  G   UNL     1      10.969  17.155  56.096  1.00  0.00     0.000 G0
ENDBRANCH  13  17
ENDBRANCH  11  13
ENDBRANCH  10  11
ENDBRANCH   1  10
TORSDOF 0
ENDMDL
MODEL 3
REMARK VINA RESULT:    -4.254      1.478      3.761
REMARK INTER + INTRA:          -6.132
REMARK INTER:                  -6.438
REMARK INTRA:                   0.306
REMARK UNBOUND:                -0.137
REMARK SMILES CC1=CCC(=C(C)C)C(=O)CC(C)=CCC1
REMARK SMILES IDX 12 1 14 2 13 3 15 4 16 5 2 6 1 7 3 8 11 10 9 11 10 12 5 13
REMARK SMILES IDX 6 14 7 15 8 16 4 17
REMARK H PARENT
REMARK Flexibility Score: 60.00
ROOT
ATOM      1  C   UNL     1      15.606  18.606  55.858  1.00  0.00    -0.070 C 
ATOM      2  C   UNL     1      15.020  18.565  54.640  1.00  0.00    -0.027 C 
ATOM      3  C   UNL     1      16.896  19.372  56.000  1.00  0.00     0.039 C 
ENDROOT
BRANCH   2   4
ATOM      4  C   UNL     1      13.664  17.974  54.353  1.00  0.00     0.032 C 
BRANCH   4   5
ATOM      5  C   UNL     1      12.568  18.975  54.733  1.00  0.00     0.034 C 
BRANCH   5   6
ATOM      6  C   UNL     1      11.451  18.338  55.535  1.00  0.00    -0.077 C 
ATOM      7  C   UNL     1      10.520  17.376  54.839  1.00  0.00     0.039 C 
ATOM      8  C   UNL     1      11.193  18.637  56.832  1.00  0.00    -0.023 CG0
ATOM      9  G   UNL     1      12.012  19.521  57.756  1.00  0.00     0.000 G0
ENDBRANCH   5   6
ENDBRANCH   4   5
ENDBRANCH   2   4
BRANCH   1  10
ATOM     10  C   UNL     1      15.042  17.906  57.079  1.00  0.00     0.111 C 
BRANCH  10  11
ATOM     11  C   UNL     1      14.489  18.886  58.086  1.00  0.00     0.163 C 
ATOM     12  O   UNL     1      15.279  19.766  58.523  1.00  0.00    -0.294 OA
BRANCH  11  13
ATOM     13  C   UNL     1      13.079  18.850  58.597  1.00  0.00    -0.002 C 
ATOM     14  C   UNL     1      12.754  18.094  59.692  1.00  0.00    -0.069 C 
ATOM     15  C   UNL     1      13.819  17.504  60.587  1.00  0.00     0.039 C 
ATOM     16  C   UNL     1      11.319  17.846  60.097  1.00  0.00     0.039 C 
BRANCH  13  17
ATOM     17  C   UNL     1      12.000  19.528  57.759  1.00  0.00     0.066 CG0
ATOM     18  G   UNL     1      11.189  18.627  56.844  1.00  0.00     0.000 G0
ENDBRANCH  13  17
ENDBRANCH  11  13
ENDBRANCH  10  11
ENDBRANCH   1  10
TORSDOF 0
ENDMDL
MODEL 4
REMARK VINA RESULT:    -4.119      2.971      5.303
REMARK INTER + INTRA:          -5.942
REMARK INTER:                  -5.896
REMARK INTRA:                  -0.045
REMARK UNBOUND:                -0.137
REMARK SMILES CC1=CCC(=C(C)C)C(=O)CC(C)=CCC1
REMARK SMILES IDX 12 1 14 2 13 3 15 4 16 5 2 6 1 7 3 8 11 10 9 11 10 12 5 13
REMARK SMILES IDX 6 14 7 15 8 16 4 17
REMARK H PARENT
REMARK Flexibility Score: 60.00
ROOT
ATOM      1  C   UNL     1      10.557  18.885  60.148  1.00  0.00    -0.070 C 
ATOM      2  C   UNL     1      11.416  17.882  59.857  1.00  0.00    -0.027 C 
ATOM      3  C   UNL     1       9.661  18.726  61.348  1.00  0.00     0.039 C 
ENDROOT
BRANCH   2   4
ATOM      4  C   UNL     1      12.479  17.936  58.789  1.00  0.00     0.032 C 
BRANCH   4   5
ATOM      5  C   UNL     1      11.882  17.526  57.439  1.00  0.00     0.034 C 
BRANCH   5   6
ATOM      6  C   UNL     1      12.398  18.374  56.294  1.00  0.00    -0.077 C 
ATOM      7  C   UNL     1      13.863  18.302  55.943  1.00  0.00     0.039 C 
ATOM      8  C   UNL     1      11.628  19.254  55.606  1.00  0.00    -0.023 CG0
ATOM      9  G   UNL     1      10.130  19.465  55.732  1.00  0.00     0.000 G0
ENDBRANCH   5   6
ENDBRANCH   4   5
ENDBRANCH   2   4
BRANCH   1  10
ATOM     10  C   UNL     1      10.438  20.147  59.317  1.00  0.00     0.111 C 
BRANCH  10  11
ATOM     11  C   UNL     1       9.446  19.989  58.191  1.00  0.00     0.163 C 
ATOM     12  O   UNL     1       8.373  19.381  58.452  1.00  0.00    -0.294 OA
BRANCH  11  13
ATOM     13  C   UNL     1       9.680  20.492  56.796  1.00  0.00    -0.002 C 
ATOM     14  C   UNL     1       9.346  21.775  56.453  1.00  0.00    -0.069 C 
ATOM     15  C   UNL     1       9.005  22.808  57.503  1.00  0.00     0.039 C 
ATOM     16  C   UNL     1       9.346  22.247  55.017  1.00  0.00     0.039 C 
BRANCH  13  17
ATOM     17  C   UNL     1      10.123  19.484  55.740  1.00  0.00     0.066 CG0
ATOM     18  G   UNL     1      11.618  19.246  55.619  1.00  0.00     0.000 G0
ENDBRANCH  13  17
ENDBRANCH  11  13
ENDBRANCH  10  11
ENDBRANCH   1  10
TORSDOF 0
ENDMDL
MODEL 5
REMARK VINA RESULT:    -3.920      2.482      4.856
REMARK INTER + INTRA:          -5.662
REMARK INTER:                  -5.629
REMARK INTRA:                  -0.033
REMARK UNBOUND:                -0.137
REMARK SMILES CC1=CCC(=C(C)C)C(=O)CC(C)=CCC1
REMARK SMILES IDX 12 1 14 2 13 3 15 4 16 5 2 6 1 7 3 8 11 10 9 11 10 12 5 13
REMARK SMILES IDX 6 14 7 15 8 16 4 17
REMARK H PARENT
REMARK Flexibility Score: 60.00
ROOT
ATOM      1  C   UNL     1      13.332  18.860  57.430  1.00  0.00    -0.070 C 
ATOM      2  C   UNL     1      12.917  18.905  56.143  1.00  0.00    -0.027 C 
ATOM      3  C   UNL     1      14.692  18.280  57.717  1.00  0.00     0.039 C 
ENDROOT
BRANCH   2   4
ATOM      4  C   UNL     1      11.658  19.581  55.664  1.00  0.00     0.032 C 
BRANCH   4   5
ATOM      5  C   UNL     1      10.643  18.528  55.206  1.00  0.00     0.034 C 
BRANCH   5   6
ATOM      6  C   UNL     1       9.261  18.766  55.779  1.00  0.00    -0.077 C 
ATOM      7  C   UNL     1       8.288  19.610  54.992  1.00  0.00     0.039 C 
ATOM      8  C   UNL     1       8.867  18.323  56.999  1.00  0.00    -0.023 CG0
ATOM      9  G   UNL     1       9.635  17.416  57.944  1.00  0.00     0.000 G0
ENDBRANCH   5   6
ENDBRANCH   4   5
ENDBRANCH   2   4
BRANCH   1  10
ATOM     10  C   UNL     1      12.489  19.344  58.594  1.00  0.00     0.111 C 
BRANCH  10  11
ATOM     11  C   UNL     1      11.733  18.213  59.250  1.00  0.00     0.163 C 
ATOM     12  O   UNL     1      12.414  17.349  59.866  1.00  0.00    -0.294 OA
BRANCH  11  13
ATOM     13  C   UNL     1      10.241  18.061  59.188  1.00  0.00    -0.002 C 
ATOM     14  C   UNL     1       9.466  18.349  60.279  1.00  0.00    -0.069 C 
ATOM     15  C   UNL     1      10.027  19.088  61.472  1.00  0.00     0.039 C 
ATOM     16  C   UNL     1       7.998  17.990  60.336  1.00  0.00     0.039 C 
BRANCH  13  17
ATOM     17  C   UNL     1       9.644  17.407  57.946  1.00  0.00     0.066 CG0
ATOM     18  G   UNL     1       8.874  18.319  57.006  1.00  0.00     0.000 G0
ENDBRANCH  13  17
ENDBRANCH  11  13
ENDBRANCH  10  11
ENDBRANCH   1  10
TORSDOF 0
ENDMDL
MODEL 6
REMARK VINA RESULT:    -3.906      9.564     11.019
REMARK INTER + INTRA:          -5.641
REMARK INTER:                  -5.863
REMARK INTRA:                   0.221
REMARK UNBOUND:                -0.137
REMARK SMILES CC1=CCC(=C(C)C)C(=O)CC(C)=CCC1
REMARK SMILES IDX 12 1 14 2 13 3 15 4 16 5 2 6 1 7 3 8 11 10 9 11 10 12 5 13
REMARK SMILES IDX 6 14 7 15 8 16 4 17
REMARK H PARENT
REMARK Flexibility Score: 60.00
ROOT
ATOM      1  C   UNL     1      19.904   8.276  54.224  1.00  0.00    -0.070 C 
ATOM      2  C   UNL     1      18.905   8.143  55.125  1.00  0.00    -0.027 C 
ATOM      3  C   UNL     1      21.207   8.871  54.691  1.00  0.00     0.039 C 
ENDROOT
BRANCH   2   4
ATOM      4  C   UNL     1      17.597   7.440  54.869  1.00  0.00     0.032 C 
BRANCH   4   5
ATOM      5  C   UNL     1      16.441   8.444  54.947  1.00  0.00     0.034 C 
BRANCH   5   6
ATOM      6  C   UNL     1      15.881   8.792  53.583  1.00  0.00    -0.077 C 
ATOM      7  C   UNL     1      14.699   8.010  53.065  1.00  0.00     0.039 C 
ATOM      8  C   UNL     1      16.427   9.725  52.764  1.00  0.00    -0.023 CG0
ATOM      9  G   UNL     1      17.571  10.673  53.077  1.00  0.00     0.000 G0
ENDBRANCH   5   6
ENDBRANCH   4   5
ENDBRANCH   2   4
BRANCH   1  10
ATOM     10  C   UNL     1      19.770   7.878  52.767  1.00  0.00     0.111 C 
BRANCH  10  11
ATOM     11  C   UNL     1      19.161   8.981  51.935  1.00  0.00     0.163 C 
ATOM     12  O   UNL     1      18.856   8.700  50.745  1.00  0.00    -0.294 OA
BRANCH  11  13
ATOM     13  C   UNL     1      18.925  10.375  52.441  1.00  0.00    -0.002 C 
ATOM     14  C   UNL     1      19.946  11.287  52.467  1.00  0.00    -0.069 C 
ATOM     15  C   UNL     1      21.247  11.037  51.741  1.00  0.00     0.039 C 
ATOM     16  C   UNL     1      19.814  12.616  53.178  1.00  0.00     0.039 C 
BRANCH  13  17
ATOM     17  C   UNL     1      17.578  10.679  53.088  1.00  0.00     0.066 CG0
ATOM     18  G   UNL     1      16.441   9.727  52.761  1.00  0.00     0.000 G0
ENDBRANCH  13  17
ENDBRANCH  11  13
ENDBRANCH  10  11
ENDBRANCH   1  10
TORSDOF 0
ENDMDL
MODEL 7
REMARK VINA RESULT:    -3.877      1.175      1.579
REMARK INTER + INTRA:          -5.601
REMARK INTER:                  -5.960
REMARK INTRA:                   0.359
REMARK UNBOUND:                -0.137
REMARK SMILES CC1=CCC(=C(C)C)C(=O)CC(C)=CCC1
REMARK SMILES IDX 12 1 14 2 13 3 15 4 16 5 2 6 1 7 3 8 11 10 9 11 10 12 5 13
REMARK SMILES IDX 6 14 7 15 8 16 4 17
REMARK H PARENT
REMARK Flexibility Score: 60.00
ROOT
ATOM      1  C   UNL     1      14.931  18.300  57.959  1.00  0.00    -0.070 C 
ATOM      2  C   UNL     1      14.229  18.523  59.094  1.00  0.00    -0.027 C 
ATOM      3  C   UNL     1      16.096  19.206  57.656  1.00  0.00     0.039 C 
ENDROOT
BRANCH   2   4
ATOM      4  C   UNL     1      13.136  17.631  59.623  1.00  0.00     0.032 C 
BRANCH   4   5
ATOM      5  C   UNL     1      11.864  18.452  59.863  1.00  0.00     0.034 C 
BRANCH   5   6
ATOM      6  C   UNL     1      11.467  19.276  58.656  1.00  0.00    -0.077 C 
ATOM      7  C   UNL     1      11.454  20.780  58.780  1.00  0.00     0.039 C 
ATOM      8  C   UNL     1      11.052  18.737  57.482  1.00  0.00    -0.023 CG0
ATOM      9  G   UNL     1      11.033  17.269  57.096  1.00  0.00     0.000 G0
ENDBRANCH   5   6
ENDBRANCH   4   5
ENDBRANCH   2   4
BRANCH   1  10
ATOM     10  C   UNL     1      14.592  17.200  56.972  1.00  0.00     0.111 C 
BRANCH  10  11
ATOM     11  C   UNL     1      13.416  17.569  56.100  1.00  0.00     0.163 C 
ATOM     12  O   UNL     1      13.550  18.575  55.351  1.00  0.00    -0.294 OA
BRANCH  11  13
ATOM     13  C   UNL     1      12.113  16.824  56.098  1.00  0.00    -0.002 C 
ATOM     14  C   UNL     1      11.849  15.888  55.134  1.00  0.00    -0.069 C 
ATOM     15  C   UNL     1      12.935  15.365  54.223  1.00  0.00     0.039 C 
ATOM     16  C   UNL     1      10.472  15.288  54.956  1.00  0.00     0.039 C 
BRANCH  13  17
ATOM     17  C   UNL     1      11.035  17.270  57.081  1.00  0.00     0.066 CG0
ATOM     18  G   UNL     1      11.046  18.736  57.476  1.00  0.00     0.000 G0
ENDBRANCH  13  17
ENDBRANCH  11  13
ENDBRANCH  10  11
ENDBRANCH   1  10
TORSDOF 0
ENDMDL
MODEL 8
REMARK VINA RESULT:    -3.866      2.069      4.629
REMARK INTER + INTRA:          -5.586
REMARK INTER:                  -5.522
REMARK INTRA:                  -0.064
REMARK UNBOUND:                -0.137
REMARK SMILES CC1=CCC(=C(C)C)C(=O)CC(C)=CCC1
REMARK SMILES IDX 12 1 14 2 13 3 15 4 16 5 2 6 1 7 3 8 11 10 9 11 10 12 5 13
REMARK SMILES IDX 6 14 7 15 8 16 4 17
REMARK H PARENT
REMARK Flexibility Score: 60.00
ROOT
ATOM      1  C   UNL     1      10.188  19.225  59.548  1.00  0.00    -0.070 C 
ATOM      2  C   UNL     1       9.035  18.789  58.993  1.00  0.00    -0.027 C 
ATOM      3  C   UNL     1      10.140  20.464  60.404  1.00  0.00     0.039 C 
ENDROOT
BRANCH   2   4
ATOM      4  C   UNL     1       8.875  17.496  58.236  1.00  0.00     0.032 C 
BRANCH   4   5
ATOM      5  C   UNL     1       8.965  17.759  56.729  1.00  0.00     0.034 C 
BRANCH   5   6
ATOM      6  C   UNL     1       9.906  16.801  56.027  1.00  0.00    -0.077 C 
ATOM      7  C   UNL     1       9.423  15.403  55.728  1.00  0.00     0.039 C 
ATOM      8  C   UNL     1      11.190  17.105  55.712  1.00  0.00    -0.023 CG0
ATOM      9  G   UNL     1      11.883  18.448  55.858  1.00  0.00     0.000 G0
ENDBRANCH   5   6
ENDBRANCH   4   5
ENDBRANCH   2   4
BRANCH   1  10
ATOM     10  C   UNL     1      11.525  18.544  59.336  1.00  0.00     0.111 C 
BRANCH  10  11
ATOM     11  C   UNL     1      12.353  19.242  58.284  1.00  0.00     0.163 C 
ATOM     12  O   UNL     1      12.608  20.463  58.472  1.00  0.00    -0.294 OA
BRANCH  11  13
ATOM     13  C   UNL     1      12.860  18.573  57.040  1.00  0.00    -0.002 C 
ATOM     14  C   UNL     1      14.183  18.243  56.917  1.00  0.00    -0.069 C 
ATOM     15  C   UNL     1      15.117  18.271  58.105  1.00  0.00     0.039 C 
ATOM     16  C   UNL     1      14.775  17.785  55.603  1.00  0.00     0.039 C 
BRANCH  13  17
ATOM     17  C   UNL     1      11.901  18.442  55.861  1.00  0.00     0.066 CG0
ATOM     18  G   UNL     1      11.210  17.100  55.697  1.00  0.00     0.000 G0
ENDBRANCH  13  17
ENDBRANCH  11  13
ENDBRANCH  10  11
ENDBRANCH   1  10
TORSDOF 0
ENDMDL
MODEL 9
REMARK VINA RESULT:    -3.865      2.147      3.448
REMARK INTER + INTRA:          -5.584
REMARK INTER:                  -5.745
REMARK INTRA:                   0.161
REMARK UNBOUND:                -0.137
REMARK SMILES CC1=CCC(=C(C)C)C(=O)CC(C)=CCC1
REMARK SMILES IDX 12 1 14 2 13 3 15 4 16 5 2 6 1 7 3 8 11 10 9 11 10 12 5 13
REMARK SMILES IDX 6 14 7 15 8 16 4 17
REMARK H PARENT
REMARK Flexibility Score: 60.00
ROOT
ATOM      1  C   UNL     1      12.700  19.125  58.512  1.00  0.00    -0.070 C 
ATOM      2  C   UNL     1      12.074  20.324  58.514  1.00  0.00    -0.027 C 
ATOM      3  C   UNL     1      14.197  19.106  58.680  1.00  0.00     0.039 C 
ENDROOT
BRANCH   2   4
ATOM      4  C   UNL     1      10.579  20.519  58.505  1.00  0.00     0.032 C 
BRANCH   4   5
ATOM      5  C   UNL     1      10.153  21.224  57.214  1.00  0.00     0.034 C 
BRANCH   5   6
ATOM      6  C   UNL     1       9.503  20.279  56.223  1.00  0.00    -0.077 C 
ATOM      7  C   UNL     1       7.998  20.181  56.197  1.00  0.00     0.039 C 
ATOM      8  C   UNL     1      10.202  19.459  55.400  1.00  0.00    -0.023 CG0
ATOM      9  G   UNL     1      11.707  19.413  55.201  1.00  0.00     0.000 G0
ENDBRANCH   5   6
ENDBRANCH   4   5
ENDBRANCH   2   4
BRANCH   1  10
ATOM     10  C   UNL     1      11.974  17.807  58.329  1.00  0.00     0.111 C 
BRANCH  10  11
ATOM     11  C   UNL     1      11.813  17.451  56.871  1.00  0.00     0.163 C 
ATOM     12  O   UNL     1      11.104  16.444  56.601  1.00  0.00    -0.294 OA
BRANCH  11  13
ATOM     13  C   UNL     1      12.459  18.212  55.749  1.00  0.00    -0.002 C 
ATOM     14  C   UNL     1      13.745  17.933  55.370  1.00  0.00    -0.069 C 
ATOM     15  C   UNL     1      14.457  16.689  55.850  1.00  0.00     0.039 C 
ATOM     16  C   UNL     1      14.508  18.821  54.413  1.00  0.00     0.039 C 
BRANCH  13  17
ATOM     17  C   UNL     1      11.711  19.412  55.179  1.00  0.00     0.066 CG0
ATOM     18  G   UNL     1      10.212  19.449  55.415  1.00  0.00     0.000 G0
ENDBRANCH  13  17
ENDBRANCH  11  13
ENDBRANCH  10  11
ENDBRANCH   1  10
TORSDOF 0
ENDMDL
