MODEL 1
REMARK VINA RESULT:    -3.607      0.000      0.000
REMARK INTER + INTRA:          -5.413
REMARK INTER:                  -5.084
REMARK INTRA:                  -0.330
REMARK UNBOUND:                -0.330
REMARK SMILES CCCCCCCCC(=O)[O-]
REMARK SMILES IDX 6 1 7 2 8 3 9 4 10 5 11 6 5 7 4 8 3 9 2 10 1 11
REMARK H PARENT
REMARK Flexibility Score: inf
ROOT
ATOM      1  C   UNL     1     -20.569  -0.555   6.279  1.00  0.00     0.000 C 
ENDROOT
BRANCH   1   2
ATOM      2  C   UNL     1     -21.612   0.557   6.472  1.00  0.00     0.006 C 
BRANCH   2   3
ATOM      3  C   UNL     1     -21.051   1.748   7.260  1.00  0.00     0.053 C 
BRANCH   3   4
ATOM      4  C   UNL     1     -21.805   1.975   8.535  1.00  0.00     0.041 C 
ATOM      5  O   UNL     1     -21.820   1.089   9.429  1.00  0.00    -0.550 OA
ATOM      6  O   UNL     1     -22.519   3.153   8.720  1.00  0.00    -0.550 OA
ENDBRANCH   3   4
ENDBRANCH   2   3
ENDBRANCH   1   2
BRANCH   1   7
ATOM      7  C   UNL     1     -21.007  -1.846   6.981  1.00  0.00     0.000 C 
BRANCH   7   8
ATOM      8  C   UNL     1     -20.639  -1.814   8.472  1.00  0.00    -0.000 C 
BRANCH   8   9
ATOM      9  C   UNL     1     -20.258  -3.199   9.025  1.00  0.00    -0.000 C 
BRANCH   9  10
ATOM     10  C   UNL     1     -19.892  -4.244   7.956  1.00  0.00    -0.003 C 
ATOM     11  C   UNL     1     -20.449  -5.634   8.261  1.00  0.00     0.004 C 
ENDBRANCH   9  10
ENDBRANCH   8   9
ENDBRANCH   7   8
ENDBRANCH   1   7
TORSDOF 7
ENDMDL
MODEL 2
REMARK VINA RESULT:    -3.511      2.419      5.818
REMARK INTER + INTRA:          -5.277
REMARK INTER:                  -4.931
REMARK INTRA:                  -0.346
REMARK UNBOUND:                -0.330
REMARK SMILES CCCCCCCCC(=O)[O-]
REMARK SMILES IDX 6 1 7 2 8 3 9 4 10 5 11 6 5 7 4 8 3 9 2 10 1 11
REMARK H PARENT
REMARK Flexibility Score: inf
ROOT
ATOM      1  C   UNL     1     -21.036   0.380   6.541  1.00  0.00     0.000 C 
ENDROOT
BRANCH   1   2
ATOM      2  C   UNL     1     -21.468  -0.794   7.432  1.00  0.00     0.006 C 
BRANCH   2   3
ATOM      3  C   UNL     1     -20.700  -2.082   7.109  1.00  0.00     0.053 C 
BRANCH   3   4
ATOM      4  C   UNL     1     -20.320  -2.830   8.351  1.00  0.00     0.041 C 
ATOM      5  O   UNL     1     -19.970  -4.037   8.280  1.00  0.00    -0.550 OA
ATOM      6  O   UNL     1     -20.386  -2.202   9.588  1.00  0.00    -0.550 OA
ENDBRANCH   3   4
ENDBRANCH   2   3
ENDBRANCH   1   2
BRANCH   1   7
ATOM      7  C   UNL     1     -21.213   1.718   7.269  1.00  0.00     0.000 C 
BRANCH   7   8
ATOM      8  C   UNL     1     -21.805   1.507   8.671  1.00  0.00    -0.000 C 
BRANCH   8   9
ATOM      9  C   UNL     1     -22.203   2.826   9.358  1.00  0.00    -0.000 C 
BRANCH   9  10
ATOM     10  C   UNL     1     -22.564   3.972   8.397  1.00  0.00    -0.003 C 
ATOM     11  C   UNL     1     -22.027   5.328   8.852  1.00  0.00     0.004 C 
ENDBRANCH   9  10
ENDBRANCH   8   9
ENDBRANCH   7   8
ENDBRANCH   1   7
TORSDOF 7
ENDMDL
MODEL 3
REMARK VINA RESULT:    -3.503      2.590      4.931
REMARK INTER + INTRA:          -5.266
REMARK INTER:                  -5.286
REMARK INTRA:                   0.020
REMARK UNBOUND:                -0.330
REMARK SMILES CCCCCCCCC(=O)[O-]
REMARK SMILES IDX 6 1 7 2 8 3 9 4 10 5 11 6 5 7 4 8 3 9 2 10 1 11
REMARK H PARENT
REMARK Flexibility Score: inf
ROOT
ATOM      1  C   UNL     1     -21.169  -0.002   6.262  1.00  0.00     0.000 C 
ENDROOT
BRANCH   1   2
ATOM      2  C   UNL     1     -21.055  -1.378   6.935  1.00  0.00     0.006 C 
BRANCH   2   3
ATOM      3  C   UNL     1     -21.108  -1.282   8.465  1.00  0.00     0.053 C 
BRANCH   3   4
ATOM      4  C   UNL     1     -20.311  -2.369   9.119  1.00  0.00     0.041 C 
ATOM      5  O   UNL     1     -19.858  -2.209  10.283  1.00  0.00    -0.550 OA
ATOM      6  O   UNL     1     -20.041  -3.545   8.431  1.00  0.00    -0.550 OA
ENDBRANCH   3   4
ENDBRANCH   2   3
ENDBRANCH   1   2
BRANCH   1   7
ATOM      7  C   UNL     1     -20.621   1.103   7.173  1.00  0.00     0.000 C 
BRANCH   7   8
ATOM      8  C   UNL     1     -21.638   2.244   7.327  1.00  0.00    -0.000 C 
BRANCH   8   9
ATOM      9  C   UNL     1     -22.072   2.468   8.786  1.00  0.00    -0.000 C 
BRANCH   9  10
ATOM     10  C   UNL     1     -21.816   1.277   9.727  1.00  0.00    -0.003 C 
ATOM     11  C   UNL     1     -22.173   1.575  11.182  1.00  0.00     0.004 C 
ENDBRANCH   9  10
ENDBRANCH   8   9
ENDBRANCH   7   8
ENDBRANCH   1   7
TORSDOF 7
ENDMDL
MODEL 4
REMARK VINA RESULT:    -3.440      1.318      1.981
REMARK INTER + INTRA:          -5.177
REMARK INTER:                  -5.208
REMARK INTRA:                   0.031
REMARK UNBOUND:                -0.330
REMARK SMILES CCCCCCCCC(=O)[O-]
REMARK SMILES IDX 6 1 7 2 8 3 9 4 10 5 11 6 5 7 4 8 3 9 2 10 1 11
REMARK H PARENT
REMARK Flexibility Score: inf
ROOT
ATOM      1  C   UNL     1     -21.031   0.301   6.306  1.00  0.00     0.000 C 
ENDROOT
BRANCH   1   2
ATOM      2  C   UNL     1     -21.201   1.511   7.238  1.00  0.00     0.006 C 
BRANCH   2   3
ATOM      3  C   UNL     1     -21.466   1.092   8.689  1.00  0.00     0.053 C 
BRANCH   3   4
ATOM      4  C   UNL     1     -22.302   2.101   9.416  1.00  0.00     0.041 C 
ATOM      5  O   UNL     1     -22.818   1.813  10.528  1.00  0.00    -0.550 OA
ATOM      6  O   UNL     1     -22.537   3.347   8.849  1.00  0.00    -0.550 OA
ENDBRANCH   3   4
ENDBRANCH   2   3
ENDBRANCH   1   2
BRANCH   1   7
ATOM      7  C   UNL     1     -21.661  -0.956   6.916  1.00  0.00     0.000 C 
BRANCH   7   8
ATOM      8  C   UNL     1     -20.623  -2.081   7.052  1.00  0.00    -0.000 C 
BRANCH   8   9
ATOM      9  C   UNL     1     -20.513  -2.626   8.488  1.00  0.00    -0.000 C 
BRANCH   9  10
ATOM     10  C   UNL     1     -20.564  -1.554   9.591  1.00  0.00    -0.003 C 
ATOM     11  C   UNL     1     -20.806  -2.137  10.982  1.00  0.00     0.004 C 
ENDBRANCH   9  10
ENDBRANCH   8   9
ENDBRANCH   7   8
ENDBRANCH   1   7
TORSDOF 7
ENDMDL
MODEL 5
REMARK VINA RESULT:    -3.371      3.209      5.026
REMARK INTER + INTRA:          -5.080
REMARK INTER:                  -4.799
REMARK INTRA:                  -0.281
REMARK UNBOUND:                -0.330
REMARK SMILES CCCCCCCCC(=O)[O-]
REMARK SMILES IDX 6 1 7 2 8 3 9 4 10 5 11 6 5 7 4 8 3 9 2 10 1 11
REMARK H PARENT
REMARK Flexibility Score: inf
ROOT
ATOM      1  C   UNL     1     -22.695   1.837  10.560  1.00  0.00     0.000 C 
ENDROOT
BRANCH   1   2
ATOM      2  C   UNL     1     -21.807   0.815  11.288  1.00  0.00     0.006 C 
BRANCH   2   3
ATOM      3  C   UNL     1     -21.849   0.990  12.811  1.00  0.00     0.053 C 
BRANCH   3   4
ATOM      4  C   UNL     1     -21.430  -0.258  13.526  1.00  0.00     0.041 C 
ATOM      5  O   UNL     1     -21.186  -0.228  14.761  1.00  0.00    -0.550 OA
ATOM      6  O   UNL     1     -21.277  -1.445  12.822  1.00  0.00    -0.550 OA
ENDBRANCH   3   4
ENDBRANCH   2   3
ENDBRANCH   1   2
BRANCH   1   7
ATOM      7  C   UNL     1     -22.154   2.135   9.157  1.00  0.00     0.000 C 
BRANCH   7   8
ATOM      8  C   UNL     1     -21.408   0.920   8.585  1.00  0.00    -0.000 C 
BRANCH   8   9
ATOM      9  C   UNL     1     -20.936   1.134   7.136  1.00  0.00    -0.000 C 
BRANCH   9  10
ATOM     10  C   UNL     1     -21.039  -0.108   6.232  1.00  0.00    -0.003 C 
ATOM     11  C   UNL     1     -21.043  -1.420   7.016  1.00  0.00     0.004 C 
ENDBRANCH   9  10
ENDBRANCH   8   9
ENDBRANCH   7   8
ENDBRANCH   1   7
TORSDOF 7
ENDMDL
MODEL 6
REMARK VINA RESULT:    -3.232      3.036      4.969
REMARK INTER + INTRA:          -4.885
REMARK INTER:                  -4.654
REMARK INTRA:                  -0.231
REMARK UNBOUND:                -0.330
REMARK SMILES CCCCCCCCC(=O)[O-]
REMARK SMILES IDX 6 1 7 2 8 3 9 4 10 5 11 6 5 7 4 8 3 9 2 10 1 11
REMARK H PARENT
REMARK Flexibility Score: inf
ROOT
ATOM      1  C   UNL     1     -20.985  -2.599  10.388  1.00  0.00     0.000 C 
ENDROOT
BRANCH   1   2
ATOM      2  C   UNL     1     -20.621  -1.485  11.381  1.00  0.00     0.006 C 
BRANCH   2   3
ATOM      3  C   UNL     1     -21.286  -1.686  12.748  1.00  0.00     0.053 C 
BRANCH   3   4
ATOM      4  C   UNL     1     -21.400  -0.399  13.507  1.00  0.00     0.041 C 
ATOM      5  O   UNL     1     -21.082  -0.351  14.724  1.00  0.00    -0.550 OA
ATOM      6  O   UNL     1     -21.887   0.739  12.877  1.00  0.00    -0.550 OA
ENDBRANCH   3   4
ENDBRANCH   2   3
ENDBRANCH   1   2
BRANCH   1   7
ATOM      7  C   UNL     1     -20.413  -2.304   8.996  1.00  0.00     0.000 C 
BRANCH   7   8
ATOM      8  C   UNL     1     -21.005  -1.008   8.421  1.00  0.00    -0.000 C 
BRANCH   8   9
ATOM      9  C   UNL     1     -21.091  -1.019   6.884  1.00  0.00    -0.000 C 
BRANCH   9  10
ATOM     10  C   UNL     1     -21.383   0.350   6.244  1.00  0.00    -0.003 C 
ATOM     11  C   UNL     1     -21.150   1.520   7.199  1.00  0.00     0.004 C 
ENDBRANCH   9  10
ENDBRANCH   8   9
ENDBRANCH   7   8
ENDBRANCH   1   7
TORSDOF 7
ENDMDL
MODEL 7
REMARK VINA RESULT:    -2.780      2.997      3.908
REMARK INTER + INTRA:          -4.247
REMARK INTER:                  -4.095
REMARK INTRA:                  -0.152
REMARK UNBOUND:                -0.330
REMARK SMILES CCCCCCCCC(=O)[O-]
REMARK SMILES IDX 6 1 7 2 8 3 9 4 10 5 11 6 5 7 4 8 3 9 2 10 1 11
REMARK H PARENT
REMARK Flexibility Score: inf
ROOT
ATOM      1  C   UNL     1     -20.964  -1.052   8.890  1.00  0.00     0.000 C 
ENDROOT
BRANCH   1   2
ATOM      2  C   UNL     1     -20.976  -1.380   7.389  1.00  0.00     0.006 C 
BRANCH   2   3
ATOM      3  C   UNL     1     -21.533  -0.226   6.547  1.00  0.00     0.053 C 
BRANCH   3   4
ATOM      4  C   UNL     1     -20.989   1.099   6.990  1.00  0.00     0.041 C 
ATOM      5  O   UNL     1     -19.818   1.439   6.675  1.00  0.00    -0.550 OA
ATOM      6  O   UNL     1     -21.763   1.941   7.777  1.00  0.00    -0.550 OA
ENDBRANCH   3   4
ENDBRANCH   2   3
ENDBRANCH   1   2
BRANCH   1   7
ATOM      7  C   UNL     1     -20.527  -2.268   9.716  1.00  0.00     0.000 C 
BRANCH   7   8
ATOM      8  C   UNL     1     -20.096  -1.848  11.129  1.00  0.00    -0.000 C 
BRANCH   8   9
ATOM      9  C   UNL     1     -21.277  -1.748  12.111  1.00  0.00    -0.000 C 
BRANCH   9  10
ATOM     10  C   UNL     1     -21.107  -0.697  13.222  1.00  0.00    -0.003 C 
ATOM     11  C   UNL     1     -22.188  -0.781  14.298  1.00  0.00     0.004 C 
ENDBRANCH   9  10
ENDBRANCH   8   9
ENDBRANCH   7   8
ENDBRANCH   1   7
TORSDOF 7
ENDMDL
MODEL 8
REMARK VINA RESULT:    -2.706      3.317      4.856
REMARK INTER + INTRA:          -4.143
REMARK INTER:                  -3.886
REMARK INTRA:                  -0.257
REMARK UNBOUND:                -0.330
REMARK SMILES CCCCCCCCC(=O)[O-]
REMARK SMILES IDX 6 1 7 2 8 3 9 4 10 5 11 6 5 7 4 8 3 9 2 10 1 11
REMARK H PARENT
REMARK Flexibility Score: inf
ROOT
ATOM      1  C   UNL     1     -22.044   2.035   8.711  1.00  0.00     0.000 C 
ENDROOT
BRANCH   1   2
ATOM      2  C   UNL     1     -21.192   1.676   7.484  1.00  0.00     0.006 C 
BRANCH   2   3
ATOM      3  C   UNL     1     -21.813   0.542   6.659  1.00  0.00     0.053 C 
BRANCH   3   4
ATOM      4  C   UNL     1     -20.933  -0.670   6.628  1.00  0.00     0.041 C 
ATOM      5  O   UNL     1     -21.034  -1.549   7.524  1.00  0.00    -0.550 OA
ATOM      6  O   UNL     1     -19.979  -0.812   5.628  1.00  0.00    -0.550 OA
ENDBRANCH   3   4
ENDBRANCH   2   3
ENDBRANCH   1   2
BRANCH   1   7
ATOM      7  C   UNL     1     -21.743   1.094   9.884  1.00  0.00     0.000 C 
BRANCH   7   8
ATOM      8  C   UNL     1     -22.490   1.537  11.151  1.00  0.00    -0.000 C 
BRANCH   8   9
ATOM      9  C   UNL     1     -21.687   1.286  12.440  1.00  0.00    -0.000 C 
BRANCH   9  10
ATOM     10  C   UNL     1     -21.753  -0.157  12.971  1.00  0.00    -0.003 C 
ATOM     11  C   UNL     1     -21.229  -0.293  14.401  1.00  0.00     0.004 C 
ENDBRANCH   9  10
ENDBRANCH   8   9
ENDBRANCH   7   8
ENDBRANCH   1   7
TORSDOF 7
ENDMDL
MODEL 9
REMARK VINA RESULT:    -2.685      2.605      4.756
REMARK INTER + INTRA:          -4.114
REMARK INTER:                  -3.896
REMARK INTRA:                  -0.218
REMARK UNBOUND:                -0.330
REMARK SMILES CCCCCCCCC(=O)[O-]
REMARK SMILES IDX 6 1 7 2 8 3 9 4 10 5 11 6 5 7 4 8 3 9 2 10 1 11
REMARK H PARENT
REMARK Flexibility Score: inf
ROOT
ATOM      1  C   UNL     1     -20.889   1.502   7.265  1.00  0.00     0.000 C 
ENDROOT
BRANCH   1   2
ATOM      2  C   UNL     1     -20.402   0.143   6.737  1.00  0.00     0.006 C 
BRANCH   2   3
ATOM      3  C   UNL     1     -21.324  -1.007   7.159  1.00  0.00     0.053 C 
BRANCH   3   4
ATOM      4  C   UNL     1     -20.704  -1.853   8.230  1.00  0.00     0.041 C 
ATOM      5  O   UNL     1     -20.230  -2.985   7.948  1.00  0.00    -0.550 OA
ATOM      6  O   UNL     1     -20.681  -1.403   9.544  1.00  0.00    -0.550 OA
ENDBRANCH   3   4
ENDBRANCH   2   3
ENDBRANCH   1   2
BRANCH   1   7
ATOM      7  C   UNL     1     -22.012   1.321   8.292  1.00  0.00     0.000 C 
BRANCH   7   8
ATOM      8  C   UNL     1     -21.658   2.007   9.621  1.00  0.00    -0.000 C 
BRANCH   8   9
ATOM      9  C   UNL     1     -22.403   1.403  10.825  1.00  0.00    -0.000 C 
BRANCH   9  10
ATOM     10  C   UNL     1     -21.669   1.533  12.171  1.00  0.00    -0.003 C 
ATOM     11  C   UNL     1     -21.735   0.260  13.015  1.00  0.00     0.004 C 
ENDBRANCH   9  10
ENDBRANCH   8   9
ENDBRANCH   7   8
ENDBRANCH   1   7
TORSDOF 7
ENDMDL
