MODEL 1
REMARK VINA RESULT:    -1.023      0.000      0.000
REMARK INTER + INTRA:           1.497
REMARK INTER:                  -1.561
REMARK INTRA:                   3.058
REMARK UNBOUND:                 3.058
REMARK SMILES CC1=CCC[C@H](C)C(=O)C[C@H](C(C)C)C(=O)C1
REMARK SMILES IDX 8 1 9 2 6 3 7 4 5 5 4 6 3 7 2 8 1 9 10 11 11 12 15 13 16 14
REMARK SMILES IDX 17 15 12 17 13 18 14 19
REMARK H PARENT
REMARK Flexibility Score: 70.00
ROOT
ATOM      1  C   UNL     1      29.144  13.304  23.965  1.00  0.00     0.136 C 
ATOM      2  O   UNL     1      28.562  14.243  23.441  1.00  0.00    -0.299 OA
ENDROOT
BRANCH   1   3
ATOM      3  C   UNL     1      28.932  13.025  25.442  1.00  0.00     0.053 C 
ATOM      4  C   UNL     1      27.552  12.394  25.675  1.00  0.00     0.016 C 
BRANCH   3   5
ATOM      5  C   UNL     1      30.072  12.119  25.989  1.00  0.00     0.015 C 
BRANCH   5   6
ATOM      6  C   UNL     1      30.106  10.699  25.391  1.00  0.00     0.028 C 
BRANCH   6   7
ATOM      7  C   UNL     1      28.937   9.807  25.749  1.00  0.00    -0.028 C 
ATOM      8  C   UNL     1      28.072   9.231  24.883  1.00  0.00    -0.070 CG0
ATOM      9  C   UNL     1      26.890   8.489  25.458  1.00  0.00     0.039 C 
ATOM     10  G   UNL     1      28.226   9.303  23.376  1.00  0.00     0.000 G0
ENDBRANCH   6   7
ENDBRANCH   5   6
ENDBRANCH   3   5
ENDBRANCH   1   3
BRANCH   1  11
ATOM     11  C   UNL     1      30.040  12.422  23.124  1.00  0.00     0.087 C 
BRANCH  11  12
ATOM     12  C   UNL     1      29.282  11.458  22.159  1.00  0.00     0.066 C 
BRANCH  12  13
ATOM     13  C   UNL     1      28.114  10.744  22.834  1.00  0.00     0.140 C 
ATOM     14  O   UNL     1      27.029  11.299  22.913  1.00  0.00    -0.299 OA
BRANCH  13  15
ATOM     15  C   UNL     1      28.232   9.333  23.369  1.00  0.00     0.106 CG0
ATOM     16  G   UNL     1      28.059   9.256  24.873  1.00  0.00     0.000 G0
ENDBRANCH  13  15
ENDBRANCH  12  13
BRANCH  12  17
ATOM     17  C   UNL     1      28.888  12.081  20.777  1.00  0.00    -0.006 C 
ATOM     18  C   UNL     1      28.929  13.617  20.735  1.00  0.00     0.008 C 
ATOM     19  C   UNL     1      29.745  11.508  19.636  1.00  0.00     0.008 C 
ENDBRANCH  12  17
ENDBRANCH  11  12
ENDBRANCH   1  11
TORSDOF 1
ENDMDL
MODEL 2
REMARK VINA RESULT:     1.270      1.536      2.289
REMARK INTER + INTRA:           4.997
REMARK INTER:                  -0.900
REMARK INTRA:                   5.897
REMARK UNBOUND:                 3.058
REMARK SMILES CC1=CCC[C@H](C)C(=O)C[C@H](C(C)C)C(=O)C1
REMARK SMILES IDX 8 1 9 2 6 3 7 4 5 5 4 6 3 7 2 8 1 9 10 11 11 12 15 13 16 14
REMARK SMILES IDX 17 15 12 17 13 18 14 19
REMARK H PARENT
REMARK Flexibility Score: 70.00
ROOT
ATOM      1  C   UNL     1      26.819  12.382  23.977  1.00  0.00     0.136 C 
ATOM      2  O   UNL     1      26.077  11.570  23.445  1.00  0.00    -0.299 OA
ENDROOT
BRANCH   1   3
ATOM      3  C   UNL     1      26.869  12.467  25.492  1.00  0.00     0.053 C 
ATOM      4  C   UNL     1      26.427  11.137  26.118  1.00  0.00     0.016 C 
BRANCH   3   5
ATOM      5  C   UNL     1      28.296  12.870  25.962  1.00  0.00     0.015 C 
BRANCH   5   6
ATOM      6  C   UNL     1      29.442  12.263  25.130  1.00  0.00     0.028 C 
BRANCH   6   7
ATOM      7  C   UNL     1      29.636  10.768  25.270  1.00  0.00    -0.028 C 
ATOM      8  C   UNL     1      29.234   9.822  24.391  1.00  0.00    -0.070 CG0
ATOM      9  C   UNL     1      29.402   8.376  24.789  1.00  0.00     0.039 C 
ATOM     10  G   UNL     1      28.619  10.141  23.041  1.00  0.00     0.000 G0
ENDBRANCH   6   7
ENDBRANCH   5   6
ENDBRANCH   3   5
ENDBRANCH   1   3
BRANCH   1  11
ATOM     11  C   UNL     1      27.694  13.265  23.115  1.00  0.00     0.087 C 
BRANCH  11  12
ATOM     12  C   UNL     1      29.157  12.751  22.934  1.00  0.00     0.066 C 
BRANCH  12  13
ATOM     13  C   UNL     1      29.221  11.343  22.346  1.00  0.00     0.140 C 
ATOM     14  O   UNL     1      29.826  11.150  21.303  1.00  0.00    -0.299 OA
BRANCH  13  15
ATOM     15  C   UNL     1      28.602  10.151  23.042  1.00  0.00     0.106 CG0
ATOM     16  G   UNL     1      29.239   9.854  24.386  1.00  0.00     0.000 G0
ENDBRANCH  13  15
ENDBRANCH  12  13
BRANCH  12  17
ATOM     17  C   UNL     1      30.124  13.748  22.210  1.00  0.00    -0.006 C 
ATOM     18  C   UNL     1      30.018  13.738  20.676  1.00  0.00     0.008 C 
ATOM     19  C   UNL     1      29.948  15.183  22.732  1.00  0.00     0.008 C 
ENDBRANCH  12  17
ENDBRANCH  11  12
ENDBRANCH   1  11
TORSDOF 1
ENDMDL
