MODEL 1
REMARK VINA RESULT:    -3.209      0.000      0.000
REMARK INTER + INTRA:          -5.000
REMARK INTER:                  -4.523
REMARK INTRA:                  -0.477
REMARK UNBOUND:                -0.477
REMARK SMILES C=CCCCCCCC(=O)[O-]
REMARK SMILES IDX 6 1 7 2 8 3 9 4 10 5 11 6 5 7 4 8 3 9 2 10 1 11
REMARK H PARENT
REMARK Flexibility Score: inf
ROOT
ATOM      1  C   UNL     1       2.199  -4.150  -7.360  1.00  0.00     0.000 C 
ENDROOT
BRANCH   1   2
ATOM      2  C   UNL     1       3.442  -3.248  -7.426  1.00  0.00     0.006 C 
BRANCH   2   3
ATOM      3  C   UNL     1       3.287  -1.968  -6.594  1.00  0.00     0.053 C 
BRANCH   3   4
ATOM      4  C   UNL     1       2.240  -1.081  -7.190  1.00  0.00     0.041 C 
ATOM      5  O   UNL     1       1.123  -0.948  -6.621  1.00  0.00    -0.550 OA
ATOM      6  O   UNL     1       2.512  -0.363  -8.346  1.00  0.00    -0.550 OA
ENDBRANCH   3   4
ENDBRANCH   2   3
ENDBRANCH   1   2
BRANCH   1   7
ATOM      7  C   UNL     1       2.553  -5.634  -7.189  1.00  0.00     0.000 C 
BRANCH   7   8
ATOM      8  C   UNL     1       4.028  -5.805  -6.806  1.00  0.00     0.004 C 
BRANCH   8   9
ATOM      9  C   UNL     1       4.195  -6.877  -5.721  1.00  0.00     0.027 C 
BRANCH   9  10
ATOM     10  C   UNL     1       5.328  -6.539  -4.791  1.00  0.00    -0.035 C 
ATOM     11  C   UNL     1       5.746  -5.282  -4.619  1.00  0.00     0.004 C 
ENDBRANCH   9  10
ENDBRANCH   8   9
ENDBRANCH   7   8
ENDBRANCH   1   7
TORSDOF 7
ENDMDL
MODEL 2
REMARK VINA RESULT:    -3.201      1.231      1.832
REMARK INTER + INTRA:          -4.988
REMARK INTER:                  -4.482
REMARK INTRA:                  -0.506
REMARK UNBOUND:                -0.477
REMARK SMILES C=CCCCCCCC(=O)[O-]
REMARK SMILES IDX 6 1 7 2 8 3 9 4 10 5 11 6 5 7 4 8 3 9 2 10 1 11
REMARK H PARENT
REMARK Flexibility Score: inf
ROOT
ATOM      1  C   UNL     1       2.928  -4.939  -7.020  1.00  0.00     0.000 C 
ENDROOT
BRANCH   1   2
ATOM      2  C   UNL     1       2.167  -3.661  -7.408  1.00  0.00     0.006 C 
BRANCH   2   3
ATOM      3  C   UNL     1       2.982  -2.387  -7.148  1.00  0.00     0.053 C 
BRANCH   3   4
ATOM      4  C   UNL     1       2.143  -1.172  -7.393  1.00  0.00     0.041 C 
ATOM      5  O   UNL     1       1.122  -0.955  -6.688  1.00  0.00    -0.550 OA
ATOM      6  O   UNL     1       2.516  -0.254  -8.365  1.00  0.00    -0.550 OA
ENDBRANCH   3   4
ENDBRANCH   2   3
ENDBRANCH   1   2
BRANCH   1   7
ATOM      7  C   UNL     1       4.394  -4.668  -6.659  1.00  0.00     0.000 C 
BRANCH   7   8
ATOM      8  C   UNL     1       4.868  -5.609  -5.545  1.00  0.00     0.004 C 
BRANCH   8   9
ATOM      9  C   UNL     1       5.808  -4.884  -4.573  1.00  0.00     0.027 C 
BRANCH   9  10
ATOM     10  C   UNL     1       5.883  -3.414  -4.883  1.00  0.00    -0.035 C 
ATOM     11  C   UNL     1       5.894  -2.491  -3.916  1.00  0.00     0.004 C 
ENDBRANCH   9  10
ENDBRANCH   8   9
ENDBRANCH   7   8
ENDBRANCH   1   7
TORSDOF 7
ENDMDL
MODEL 3
REMARK VINA RESULT:    -3.197     13.500     14.313
REMARK INTER + INTRA:          -4.982
REMARK INTER:                  -4.663
REMARK INTRA:                  -0.319
REMARK UNBOUND:                -0.477
REMARK SMILES C=CCCCCCCC(=O)[O-]
REMARK SMILES IDX 6 1 7 2 8 3 9 4 10 5 11 6 5 7 4 8 3 9 2 10 1 11
REMARK H PARENT
REMARK Flexibility Score: inf
ROOT
ATOM      1  C   UNL     1       7.197   1.407   6.197  1.00  0.00     0.000 C 
ENDROOT
BRANCH   1   2
ATOM      2  C   UNL     1       6.141   2.497   6.441  1.00  0.00     0.006 C 
BRANCH   2   3
ATOM      3  C   UNL     1       6.496   3.825   5.758  1.00  0.00     0.053 C 
BRANCH   3   4
ATOM      4  C   UNL     1       5.329   4.761   5.799  1.00  0.00     0.041 C 
ATOM      5  O   UNL     1       5.360   5.780   6.539  1.00  0.00    -0.550 OA
ATOM      6  O   UNL     1       4.228   4.536   4.983  1.00  0.00    -0.550 OA
ENDBRANCH   3   4
ENDBRANCH   2   3
ENDBRANCH   1   2
BRANCH   1   7
ATOM      7  C   UNL     1       8.100   1.715   4.994  1.00  0.00     0.000 C 
BRANCH   7   8
ATOM      8  C   UNL     1       9.574   1.468   5.338  1.00  0.00     0.004 C 
BRANCH   8   9
ATOM      9  C   UNL     1      10.268   0.661   4.233  1.00  0.00     0.027 C 
BRANCH   9  10
ATOM     10  C   UNL     1      10.550  -0.747   4.681  1.00  0.00    -0.035 C 
ATOM     11  C   UNL     1       9.580  -1.550   5.129  1.00  0.00     0.004 C 
ENDBRANCH   9  10
ENDBRANCH   8   9
ENDBRANCH   7   8
ENDBRANCH   1   7
TORSDOF 7
ENDMDL
MODEL 4
REMARK VINA RESULT:    -3.190      3.192      4.650
REMARK INTER + INTRA:          -4.972
REMARK INTER:                  -4.671
REMARK INTRA:                  -0.302
REMARK UNBOUND:                -0.477
REMARK SMILES C=CCCCCCCC(=O)[O-]
REMARK SMILES IDX 6 1 7 2 8 3 9 4 10 5 11 6 5 7 4 8 3 9 2 10 1 11
REMARK H PARENT
REMARK Flexibility Score: inf
ROOT
ATOM      1  C   UNL     1       4.772  -5.244  -5.862  1.00  0.00     0.000 C 
ENDROOT
BRANCH   1   2
ATOM      2  C   UNL     1       6.034  -4.544  -5.332  1.00  0.00     0.006 C 
BRANCH   2   3
ATOM      3  C   UNL     1       6.017  -4.373  -3.807  1.00  0.00     0.053 C 
BRANCH   3   4
ATOM      4  C   UNL     1       6.136  -2.927  -3.443  1.00  0.00     0.041 C 
ATOM      5  O   UNL     1       7.004  -2.553  -2.609  1.00  0.00    -0.550 OA
ATOM      6  O   UNL     1       5.325  -1.985  -4.061  1.00  0.00    -0.550 OA
ENDBRANCH   3   4
ENDBRANCH   2   3
ENDBRANCH   1   2
BRANCH   1   7
ATOM      7  C   UNL     1       4.617  -6.673  -5.323  1.00  0.00     0.000 C 
BRANCH   7   8
ATOM      8  C   UNL     1       3.505  -7.422  -6.068  1.00  0.00     0.004 C 
BRANCH   8   9
ATOM      9  C   UNL     1       2.754  -6.485  -7.023  1.00  0.00     0.027 C 
BRANCH   9  10
ATOM     10  C   UNL     1       1.439  -7.079  -7.447  1.00  0.00    -0.035 C 
ATOM     11  C   UNL     1       1.374  -8.117  -8.286  1.00  0.00     0.004 C 
ENDBRANCH   9  10
ENDBRANCH   8   9
ENDBRANCH   7   8
ENDBRANCH   1   7
TORSDOF 7
ENDMDL
MODEL 5
REMARK VINA RESULT:    -3.169     13.761     14.661
REMARK INTER + INTRA:          -4.943
REMARK INTER:                  -4.420
REMARK INTRA:                  -0.523
REMARK UNBOUND:                -0.477
REMARK SMILES C=CCCCCCCC(=O)[O-]
REMARK SMILES IDX 6 1 7 2 8 3 9 4 10 5 11 6 5 7 4 8 3 9 2 10 1 11
REMARK H PARENT
REMARK Flexibility Score: inf
ROOT
ATOM      1  C   UNL     1       6.870   1.644   6.093  1.00  0.00     0.000 C 
ENDROOT
BRANCH   1   2
ATOM      2  C   UNL     1       7.096   2.891   6.965  1.00  0.00     0.006 C 
BRANCH   2   3
ATOM      3  C   UNL     1       5.875   3.821   6.993  1.00  0.00     0.053 C 
BRANCH   3   4
ATOM      4  C   UNL     1       5.705   4.498   5.670  1.00  0.00     0.041 C 
ATOM      5  O   UNL     1       6.714   4.882   5.020  1.00  0.00    -0.550 OA
ATOM      6  O   UNL     1       4.436   4.661   5.129  1.00  0.00    -0.550 OA
ENDBRANCH   3   4
ENDBRANCH   2   3
ENDBRANCH   1   2
BRANCH   1   7
ATOM      7  C   UNL     1       7.931   1.489   4.996  1.00  0.00     0.000 C 
BRANCH   7   8
ATOM      8  C   UNL     1       9.245   0.951   5.576  1.00  0.00     0.004 C 
BRANCH   8   9
ATOM      9  C   UNL     1       9.280  -0.582   5.531  1.00  0.00     0.027 C 
BRANCH   9  10
ATOM     10  C   UNL     1       9.526  -1.161   6.897  1.00  0.00    -0.035 C 
ATOM     11  C   UNL     1       9.331  -0.447   8.010  1.00  0.00     0.004 C 
ENDBRANCH   9  10
ENDBRANCH   8   9
ENDBRANCH   7   8
ENDBRANCH   1   7
TORSDOF 7
ENDMDL
MODEL 6
REMARK VINA RESULT:    -3.147      1.538      2.551
REMARK INTER + INTRA:          -4.912
REMARK INTER:                  -4.448
REMARK INTRA:                  -0.464
REMARK UNBOUND:                -0.477
REMARK SMILES C=CCCCCCCC(=O)[O-]
REMARK SMILES IDX 6 1 7 2 8 3 9 4 10 5 11 6 5 7 4 8 3 9 2 10 1 11
REMARK H PARENT
REMARK Flexibility Score: inf
ROOT
ATOM      1  C   UNL     1       3.651  -5.950  -6.565  1.00  0.00     0.000 C 
ENDROOT
BRANCH   1   2
ATOM      2  C   UNL     1       3.670  -4.469  -6.975  1.00  0.00     0.006 C 
BRANCH   2   3
ATOM      3  C   UNL     1       2.270  -3.928  -7.298  1.00  0.00     0.053 C 
BRANCH   3   4
ATOM      4  C   UNL     1       2.236  -2.441  -7.141  1.00  0.00     0.041 C 
ATOM      5  O   UNL     1       3.294  -1.807  -6.885  1.00  0.00    -0.550 OA
ATOM      6  O   UNL     1       1.047  -1.749  -7.325  1.00  0.00    -0.550 OA
ENDBRANCH   3   4
ENDBRANCH   2   3
ENDBRANCH   1   2
BRANCH   1   7
ATOM      7  C   UNL     1       4.708  -6.284  -5.504  1.00  0.00     0.000 C 
BRANCH   7   8
ATOM      8  C   UNL     1       5.733  -5.151  -5.374  1.00  0.00     0.004 C 
BRANCH   8   9
ATOM      9  C   UNL     1       5.894  -4.719  -3.910  1.00  0.00     0.027 C 
BRANCH   9  10
ATOM     10  C   UNL     1       6.388  -3.302  -3.812  1.00  0.00    -0.035 C 
ATOM     11  C   UNL     1       5.627  -2.265  -4.174  1.00  0.00     0.004 C 
ENDBRANCH   9  10
ENDBRANCH   8   9
ENDBRANCH   7   8
ENDBRANCH   1   7
TORSDOF 7
ENDMDL
MODEL 7
REMARK VINA RESULT:    -3.143     14.477     15.537
REMARK INTER + INTRA:          -4.907
REMARK INTER:                  -4.241
REMARK INTRA:                  -0.666
REMARK UNBOUND:                -0.477
REMARK SMILES C=CCCCCCCC(=O)[O-]
REMARK SMILES IDX 6 1 7 2 8 3 9 4 10 5 11 6 5 7 4 8 3 9 2 10 1 11
REMARK H PARENT
REMARK Flexibility Score: inf
ROOT
ATOM      1  C   UNL     1       8.053   3.566   5.571  1.00  0.00     0.000 C 
ENDROOT
BRANCH   1   2
ATOM      2  C   UNL     1       7.024   4.580   5.048  1.00  0.00     0.006 C 
BRANCH   2   3
ATOM      3  C   UNL     1       5.650   4.426   5.715  1.00  0.00     0.053 C 
BRANCH   3   4
ATOM      4  C   UNL     1       5.570   5.274   6.944  1.00  0.00     0.041 C 
ATOM      5  O   UNL     1       5.088   6.437   6.882  1.00  0.00    -0.550 OA
ATOM      6  O   UNL     1       5.980   4.765   8.170  1.00  0.00    -0.550 OA
ENDBRANCH   3   4
ENDBRANCH   2   3
ENDBRANCH   1   2
BRANCH   1   7
ATOM      7  C   UNL     1       8.003   2.229   4.817  1.00  0.00     0.000 C 
BRANCH   7   8
ATOM      8  C   UNL     1       7.849   1.055   5.792  1.00  0.00     0.004 C 
BRANCH   8   9
ATOM      9  C   UNL     1       7.621   1.555   7.224  1.00  0.00     0.027 C 
BRANCH   9  10
ATOM     10  C   UNL     1       6.213   1.287   7.677  1.00  0.00    -0.035 C 
ATOM     11  C   UNL     1       5.878   1.286   8.971  1.00  0.00     0.004 C 
ENDBRANCH   9  10
ENDBRANCH   8   9
ENDBRANCH   7   8
ENDBRANCH   1   7
TORSDOF 7
ENDMDL
MODEL 8
REMARK VINA RESULT:    -3.056      2.870      4.762
REMARK INTER + INTRA:          -4.783
REMARK INTER:                  -4.364
REMARK INTRA:                  -0.419
REMARK UNBOUND:                -0.477
REMARK SMILES C=CCCCCCCC(=O)[O-]
REMARK SMILES IDX 6 1 7 2 8 3 9 4 10 5 11 6 5 7 4 8 3 9 2 10 1 11
REMARK H PARENT
REMARK Flexibility Score: inf
ROOT
ATOM      1  C   UNL     1       4.761  -5.520  -5.838  1.00  0.00     0.000 C 
ENDROOT
BRANCH   1   2
ATOM      2  C   UNL     1       6.045  -4.923  -5.241  1.00  0.00     0.006 C 
BRANCH   2   3
ATOM      3  C   UNL     1       5.865  -4.471  -3.785  1.00  0.00     0.053 C 
BRANCH   3   4
ATOM      4  C   UNL     1       6.110  -3.000  -3.662  1.00  0.00     0.041 C 
ATOM      5  O   UNL     1       5.531  -2.194  -4.437  1.00  0.00    -0.550 OA
ATOM      6  O   UNL     1       6.940  -2.515  -2.659  1.00  0.00    -0.550 OA
ENDBRANCH   3   4
ENDBRANCH   2   3
ENDBRANCH   1   2
BRANCH   1   7
ATOM      7  C   UNL     1       4.181  -4.664  -6.972  1.00  0.00     0.000 C 
BRANCH   7   8
ATOM      8  C   UNL     1       2.658  -4.826  -7.058  1.00  0.00     0.004 C 
BRANCH   8   9
ATOM      9  C   UNL     1       1.985  -3.502  -7.442  1.00  0.00     0.027 C 
BRANCH   9  10
ATOM     10  C   UNL     1       2.838  -2.325  -7.057  1.00  0.00    -0.035 C 
ATOM     11  C   UNL     1       2.367  -1.075  -7.087  1.00  0.00     0.004 C 
ENDBRANCH   9  10
ENDBRANCH   8   9
ENDBRANCH   7   8
ENDBRANCH   1   7
TORSDOF 7
ENDMDL
MODEL 9
REMARK VINA RESULT:    -3.034      1.572      2.695
REMARK INTER + INTRA:          -4.753
REMARK INTER:                  -4.132
REMARK INTRA:                  -0.621
REMARK UNBOUND:                -0.477
REMARK SMILES C=CCCCCCCC(=O)[O-]
REMARK SMILES IDX 6 1 7 2 8 3 9 4 10 5 11 6 5 7 4 8 3 9 2 10 1 11
REMARK H PARENT
REMARK Flexibility Score: inf
ROOT
ATOM      1  C   UNL     1       4.429  -4.589  -6.239  1.00  0.00     0.000 C 
ENDROOT
BRANCH   1   2
ATOM      2  C   UNL     1       3.506  -4.679  -7.465  1.00  0.00     0.006 C 
BRANCH   2   3
ATOM      3  C   UNL     1       2.125  -4.060  -7.210  1.00  0.00     0.053 C 
BRANCH   3   4
ATOM      4  C   UNL     1       2.138  -2.601  -7.539  1.00  0.00     0.041 C 
ATOM      5  O   UNL     1       1.479  -1.788  -6.838  1.00  0.00    -0.550 OA
ATOM      6  O   UNL     1       2.916  -2.131  -8.588  1.00  0.00    -0.550 OA
ENDBRANCH   3   4
ENDBRANCH   2   3
ENDBRANCH   1   2
BRANCH   1   7
ATOM      7  C   UNL     1       4.735  -5.963  -5.627  1.00  0.00     0.000 C 
BRANCH   7   8
ATOM      8  C   UNL     1       4.212  -7.092  -6.524  1.00  0.00     0.004 C 
BRANCH   8   9
ATOM      9  C   UNL     1       3.443  -8.136  -5.702  1.00  0.00     0.027 C 
BRANCH   9  10
ATOM     10  C   UNL     1       2.184  -8.563  -6.406  1.00  0.00    -0.035 C 
ATOM     11  C   UNL     1       1.599  -7.794  -7.329  1.00  0.00     0.004 C 
ENDBRANCH   9  10
ENDBRANCH   8   9
ENDBRANCH   7   8
ENDBRANCH   1   7
TORSDOF 7
ENDMDL
