MODEL 1
REMARK VINA RESULT:    -5.173      0.000      0.000
REMARK INTER + INTRA:          -5.822
REMARK INTER:                  -7.592
REMARK INTRA:                   1.770
REMARK UNBOUND:                 1.770
REMARK SMILES O=c1c(O[C@H]2O[C@H](CO)[C@@H](O)[C@H](O)[C@H]2O)c(-c2ccc(O)c(O)c2)oc2cc(O)cc(O)c12
REMARK SMILES IDX 4 1 3 2 16 3 25 4 2 5 26 6 1 7 33 8 27 9 31 10 28 11 30 12
REMARK SMILES IDX 17 13 18 14 19 15 20 16 24 17 22 18 21 19 23 21 32 23 29 25
REMARK SMILES IDX 5 27 14 28 6 29 12 30 7 31 10 32 15 33 13 35 8 37 9 38 11 40
REMARK H PARENT 21 20 23 22 32 24 29 26 15 34 13 36 9 39 11 41
REMARK Flexibility Score: inf
ROOT
ATOM      1  O   UNL     1       3.293 -17.386   7.531  1.00  0.00    -0.454 OA
ENDROOT
BRANCH   1   2
ATOM      2  C   UNL     1       3.677 -16.042   7.376  1.00  0.00     0.214 A 
ATOM      3  C   UNL     1       4.253 -15.375   8.464  1.00  0.00     0.180 A 
ATOM      4  O   UNL     1       4.683 -14.123   8.337  1.00  0.00    -0.452 OA
ATOM      5  C   UNL     1       3.512 -15.347   6.164  1.00  0.00     0.239 A 
ATOM      6  C   UNL     1       4.560 -13.427   7.210  1.00  0.00     0.146 A 
ATOM      7  O   UNL     1       2.997 -15.947   5.188  1.00  0.00    -0.285 OA
ATOM      8  C   UNL     1       3.944 -13.997   6.058  1.00  0.00     0.111 A 
ATOM      9  C   UNL     1       5.053 -12.119   7.175  1.00  0.00     0.094 A 
ATOM     10  C   UNL     1       3.828 -13.190   4.882  1.00  0.00     0.134 A 
ATOM     11  C   UNL     1       4.959 -11.350   6.020  1.00  0.00     0.123 A 
ATOM     12  C   UNL     1       4.361 -11.893   4.882  1.00  0.00     0.093 A 
BRANCH   3  13
ATOM     13  C   UNL     1       4.448 -16.064   9.747  1.00  0.00     0.025 A 
ATOM     14  C   UNL     1       5.345 -15.544  10.690  1.00  0.00     0.016 A 
ATOM     15  C   UNL     1       5.611 -16.247  11.872  1.00  0.00     0.051 A 
ATOM     16  C   UNL     1       4.970 -17.466  12.129  1.00  0.00     0.157 A 
ATOM     17  C   UNL     1       3.789 -17.276  10.010  1.00  0.00     0.062 A 
ATOM     18  C   UNL     1       4.041 -17.977  11.200  1.00  0.00     0.158 A 
BRANCH  16  19
ATOM     19  O   UNL     1       5.257 -18.148  13.314  1.00  0.00    -0.504 OA
ATOM     20  H   UNL     1       6.084 -18.727  13.410  1.00  0.00     0.293 HD
ENDBRANCH  16  19
BRANCH  18  21
ATOM     21  O   UNL     1       3.391 -19.186  11.456  1.00  0.00    -0.504 OA
ATOM     22  H   UNL     1       2.382 -19.248  11.508  1.00  0.00     0.293 HD
ENDBRANCH  18  21
ENDBRANCH   3  13
BRANCH  10  23
ATOM     23  O   UNL     1       3.200 -13.595   3.695  1.00  0.00    -0.507 OA
ATOM     24  H   UNL     1       3.203 -13.107   2.815  1.00  0.00     0.293 HD
ENDBRANCH  10  23
BRANCH  11  25
ATOM     25  O   UNL     1       5.469 -10.054   6.009  1.00  0.00    -0.508 OA
ATOM     26  H   UNL     1       5.049  -9.322   5.451  1.00  0.00     0.293 HD
ENDBRANCH  11  25
ENDBRANCH   1   2
BRANCH   1  27
ATOM     27  C   UNL     1       3.834 -18.461   6.762  1.00  0.00     0.339 C 
ATOM     28  C   UNL     1       5.176 -18.911   7.371  1.00  0.00     0.214 C 
ATOM     29  O   UNL     1       4.051 -18.040   5.427  1.00  0.00    -0.332 OA
ATOM     30  C   UNL     1       5.882 -19.955   6.451  1.00  0.00     0.180 C 
ATOM     31  C   UNL     1       4.394 -19.118   4.564  1.00  0.00     0.179 C 
ATOM     32  C   UNL     1       4.979 -20.387   5.267  1.00  0.00     0.177 C 
BRANCH  28  33
ATOM     33  O   UNL     1       6.027 -17.803   7.533  1.00  0.00    -0.384 OA
ATOM     34  H   UNL     1       6.068 -17.592   8.506  1.00  0.00     0.211 HD
ENDBRANCH  28  33
BRANCH  30  35
ATOM     35  O   UNL     1       6.235 -21.079   7.222  1.00  0.00    -0.387 OA
ATOM     36  H   UNL     1       7.146 -20.913   7.590  1.00  0.00     0.211 HD
ENDBRANCH  30  35
BRANCH  31  37
ATOM     37  C   UNL     1       3.189 -19.475   3.683  1.00  0.00     0.191 C 
BRANCH  37  38
ATOM     38  O   UNL     1       2.957 -20.857   3.718  1.00  0.00    -0.394 OA
ATOM     39  H   UNL     1       3.726 -21.259   4.201  1.00  0.00     0.210 HD
ENDBRANCH  37  38
ENDBRANCH  31  37
BRANCH  32  40
ATOM     40  O   UNL     1       5.729 -21.125   4.336  1.00  0.00    -0.387 OA
ATOM     41  H   UNL     1       6.551 -20.594   4.154  1.00  0.00     0.211 HD
ENDBRANCH  32  40
ENDBRANCH   1  27
TORSDOF 12
ENDMDL
MODEL 2
REMARK VINA RESULT:    -3.426      1.706      5.223
REMARK INTER + INTRA:          -3.258
REMARK INTER:                  -4.022
REMARK INTRA:                   0.763
REMARK UNBOUND:                 1.770
REMARK SMILES O=c1c(O[C@H]2O[C@H](CO)[C@@H](O)[C@H](O)[C@H]2O)c(-c2ccc(O)c(O)c2)oc2cc(O)cc(O)c12
REMARK SMILES IDX 4 1 3 2 16 3 25 4 2 5 26 6 1 7 33 8 27 9 31 10 28 11 30 12
REMARK SMILES IDX 17 13 18 14 19 15 20 16 24 17 22 18 21 19 23 21 32 23 29 25
REMARK SMILES IDX 5 27 14 28 6 29 12 30 7 31 10 32 15 33 13 35 8 37 9 38 11 40
REMARK H PARENT 21 20 23 22 32 24 29 26 15 34 13 36 9 39 11 41
REMARK Flexibility Score: inf
ROOT
ATOM      1  O   UNL     1       5.109 -16.622   7.293  1.00  0.00    -0.454 OA
ENDROOT
BRANCH   1   2
ATOM      2  C   UNL     1       4.716 -15.499   6.543  1.00  0.00     0.214 A 
ATOM      3  C   UNL     1       4.119 -15.697   5.293  1.00  0.00     0.180 A 
ATOM      4  O   UNL     1       3.679 -14.662   4.584  1.00  0.00    -0.452 OA
ATOM      5  C   UNL     1       4.894 -14.184   7.010  1.00  0.00     0.239 A 
ATOM      6  C   UNL     1       3.814 -13.401   4.985  1.00  0.00     0.146 A 
ATOM      7  O   UNL     1       5.428 -14.007   8.133  1.00  0.00    -0.285 OA
ATOM      8  C   UNL     1       4.452 -13.087   6.220  1.00  0.00     0.111 A 
ATOM      9  C   UNL     1       3.310 -12.382   4.169  1.00  0.00     0.094 A 
ATOM     10  C   UNL     1       4.578 -11.710   6.587  1.00  0.00     0.134 A 
ATOM     11  C   UNL     1       3.415 -11.048   4.546  1.00  0.00     0.123 A 
ATOM     12  C   UNL     1       4.035 -10.722   5.753  1.00  0.00     0.093 A 
BRANCH   3  13
ATOM     13  C   UNL     1       3.910 -17.054   4.770  1.00  0.00     0.025 A 
ATOM     14  C   UNL     1       3.936 -17.281   3.386  1.00  0.00     0.016 A 
ATOM     15  C   UNL     1       3.639 -18.552   2.876  1.00  0.00     0.051 A 
ATOM     16  C   UNL     1       3.333 -19.608   3.742  1.00  0.00     0.157 A 
ATOM     17  C   UNL     1       3.622 -18.116   5.643  1.00  0.00     0.062 A 
ATOM     18  C   UNL     1       3.339 -19.394   5.136  1.00  0.00     0.158 A 
BRANCH  16  19
ATOM     19  O   UNL     1       3.037 -20.864   3.206  1.00  0.00    -0.504 OA
ATOM     20  H   UNL     1       2.152 -21.055   2.750  1.00  0.00     0.293 HD
ENDBRANCH  16  19
BRANCH  18  21
ATOM     21  O   UNL     1       3.045 -20.447   6.005  1.00  0.00    -0.504 OA
ATOM     22  H   UNL     1       2.308 -20.378   6.696  1.00  0.00     0.293 HD
ENDBRANCH  18  21
ENDBRANCH   3  13
BRANCH  10  23
ATOM     23  O   UNL     1       5.228 -11.249   7.742  1.00  0.00    -0.507 OA
ATOM     24  H   UNL     1       4.792 -10.949   8.599  1.00  0.00     0.293 HD
ENDBRANCH  10  23
BRANCH  11  25
ATOM     25  O   UNL     1       2.894 -10.054   3.721  1.00  0.00    -0.508 OA
ATOM     26  H   UNL     1       2.064 -10.208   3.161  1.00  0.00     0.293 HD
ENDBRANCH  11  25
ENDBRANCH   1   2
BRANCH   1  27
ATOM     27  C   UNL     1       4.394 -17.110   8.429  1.00  0.00     0.339 C 
ATOM     28  C   UNL     1       4.562 -16.131   9.607  1.00  0.00     0.214 C 
ATOM     29  O   UNL     1       4.896 -18.379   8.809  1.00  0.00    -0.332 OA
ATOM     30  C   UNL     1       3.950 -16.723  10.914  1.00  0.00     0.180 C 
ATOM     31  C   UNL     1       4.095 -19.008   9.802  1.00  0.00     0.179 C 
ATOM     32  C   UNL     1       3.193 -18.050  10.649  1.00  0.00     0.177 C 
BRANCH  28  33
ATOM     33  O   UNL     1       5.926 -15.868   9.825  1.00  0.00    -0.384 OA
ATOM     34  H   UNL     1       6.115 -16.027  10.790  1.00  0.00     0.211 HD
ENDBRANCH  28  33
BRANCH  30  35
ATOM     35  O   UNL     1       3.077 -15.776  11.480  1.00  0.00    -0.387 OA
ATOM     36  H   UNL     1       2.984 -15.029  10.827  1.00  0.00     0.211 HD
ENDBRANCH  30  35
BRANCH  31  37
ATOM     37  C   UNL     1       3.267 -20.130   9.161  1.00  0.00     0.191 C 
BRANCH  37  38
ATOM     38  O   UNL     1       4.108 -21.024   8.483  1.00  0.00    -0.394 OA
ATOM     39  H   UNL     1       3.862 -21.934   8.799  1.00  0.00     0.210 HD
ENDBRANCH  37  38
ENDBRANCH  31  37
BRANCH  32  40
ATOM     40  O   UNL     1       2.876 -18.673  11.867  1.00  0.00    -0.387 OA
ATOM     41  H   UNL     1       2.855 -17.952  12.553  1.00  0.00     0.211 HD
ENDBRANCH  32  40
ENDBRANCH   1  27
TORSDOF 12
ENDMDL
MODEL 3
REMARK VINA RESULT:    -3.354      1.623      5.603
REMARK INTER + INTRA:          -3.151
REMARK INTER:                  -4.164
REMARK INTRA:                   1.013
REMARK UNBOUND:                 1.770
REMARK SMILES O=c1c(O[C@H]2O[C@H](CO)[C@@H](O)[C@H](O)[C@H]2O)c(-c2ccc(O)c(O)c2)oc2cc(O)cc(O)c12
REMARK SMILES IDX 4 1 3 2 16 3 25 4 2 5 26 6 1 7 33 8 27 9 31 10 28 11 30 12
REMARK SMILES IDX 17 13 18 14 19 15 20 16 24 17 22 18 21 19 23 21 32 23 29 25
REMARK SMILES IDX 5 27 14 28 6 29 12 30 7 31 10 32 15 33 13 35 8 37 9 38 11 40
REMARK H PARENT 21 20 23 22 32 24 29 26 15 34 13 36 9 39 11 41
REMARK Flexibility Score: inf
ROOT
ATOM      1  O   UNL     1       4.910 -17.070   7.466  1.00  0.00    -0.454 OA
ENDROOT
BRANCH   1   2
ATOM      2  C   UNL     1       4.571 -15.911   6.744  1.00  0.00     0.214 A 
ATOM      3  C   UNL     1       4.015 -16.051   5.467  1.00  0.00     0.180 A 
ATOM      4  O   UNL     1       3.625 -14.981   4.780  1.00  0.00    -0.452 OA
ATOM      5  C   UNL     1       4.760 -14.618   7.264  1.00  0.00     0.239 A 
ATOM      6  C   UNL     1       3.772 -13.739   5.231  1.00  0.00     0.146 A 
ATOM      7  O   UNL     1       5.257 -14.494   8.411  1.00  0.00    -0.285 OA
ATOM      8  C   UNL     1       4.372 -13.484   6.499  1.00  0.00     0.111 A 
ATOM      9  C   UNL     1       3.322 -12.680   4.436  1.00  0.00     0.094 A 
ATOM     10  C   UNL     1       4.515 -12.124   6.920  1.00  0.00     0.134 A 
ATOM     11  C   UNL     1       3.443 -11.363   4.863  1.00  0.00     0.123 A 
ATOM     12  C   UNL     1       4.025 -11.095   6.103  1.00  0.00     0.093 A 
BRANCH   3  13
ATOM     13  C   UNL     1       3.795 -17.383   4.888  1.00  0.00     0.025 A 
ATOM     14  C   UNL     1       3.737 -17.539   3.495  1.00  0.00     0.016 A 
ATOM     15  C   UNL     1       3.429 -18.788   2.939  1.00  0.00     0.051 A 
ATOM     16  C   UNL     1       3.195 -19.893   3.767  1.00  0.00     0.157 A 
ATOM     17  C   UNL     1       3.580 -18.494   5.720  1.00  0.00     0.062 A 
ATOM     18  C   UNL     1       3.286 -19.750   5.167  1.00  0.00     0.158 A 
BRANCH  16  19
ATOM     19  O   UNL     1       2.886 -21.125   3.185  1.00  0.00    -0.504 OA
ATOM     20  H   UNL     1       3.595 -21.830   3.016  1.00  0.00     0.293 HD
ENDBRANCH  16  19
BRANCH  18  21
ATOM     21  O   UNL     1       3.065 -20.851   5.996  1.00  0.00    -0.504 OA
ATOM     22  H   UNL     1       3.814 -21.277   6.527  1.00  0.00     0.293 HD
ENDBRANCH  18  21
ENDBRANCH   3  13
BRANCH  10  23
ATOM     23  O   UNL     1       5.133 -11.720   8.113  1.00  0.00    -0.507 OA
ATOM     24  H   UNL     1       5.887 -11.058   8.206  1.00  0.00     0.293 HD
ENDBRANCH  10  23
BRANCH  11  25
ATOM     25  O   UNL     1       2.974 -10.329   4.057  1.00  0.00    -0.508 OA
ATOM     26  H   UNL     1       2.206  -9.736   4.345  1.00  0.00     0.293 HD
ENDBRANCH  11  25
ENDBRANCH   1   2
BRANCH   1  27
ATOM     27  C   UNL     1       4.879 -17.157   8.891  1.00  0.00     0.339 C 
ATOM     28  C   UNL     1       4.844 -18.636   9.320  1.00  0.00     0.214 C 
ATOM     29  O   UNL     1       3.724 -16.504   9.390  1.00  0.00    -0.332 OA
ATOM     30  C   UNL     1       4.623 -18.763  10.859  1.00  0.00     0.180 C 
ATOM     31  C   UNL     1       3.740 -16.377  10.807  1.00  0.00     0.179 C 
ATOM     32  C   UNL     1       4.665 -17.383  11.566  1.00  0.00     0.177 C 
BRANCH  28  33
ATOM     33  O   UNL     1       3.802 -19.307   8.656  1.00  0.00    -0.384 OA
ATOM     34  H   UNL     1       4.211 -19.881   7.952  1.00  0.00     0.211 HD
ENDBRANCH  28  33
BRANCH  30  35
ATOM     35  O   UNL     1       5.611 -19.609  11.395  1.00  0.00    -0.387 OA
ATOM     36  H   UNL     1       5.294 -19.907  12.292  1.00  0.00     0.211 HD
ENDBRANCH  30  35
BRANCH  31  37
ATOM     37  C   UNL     1       4.062 -14.926  11.190  1.00  0.00     0.191 C 
BRANCH  37  38
ATOM     38  O   UNL     1       4.372 -14.844  12.555  1.00  0.00    -0.394 OA
ATOM     39  H   UNL     1       4.497 -13.878  12.756  1.00  0.00     0.210 HD
ENDBRANCH  37  38
ENDBRANCH  31  37
BRANCH  32  40
ATOM     40  O   UNL     1       4.219 -17.510  12.892  1.00  0.00    -0.387 OA
ATOM     41  H   UNL     1       3.398 -18.072  12.859  1.00  0.00     0.211 HD
ENDBRANCH  32  40
ENDBRANCH   1  27
TORSDOF 12
ENDMDL
MODEL 4
REMARK VINA RESULT:    -3.112      1.595      6.992
REMARK INTER + INTRA:          -2.797
REMARK INTER:                  -5.015
REMARK INTRA:                   2.218
REMARK UNBOUND:                 1.770
REMARK SMILES O=c1c(O[C@H]2O[C@H](CO)[C@@H](O)[C@H](O)[C@H]2O)c(-c2ccc(O)c(O)c2)oc2cc(O)cc(O)c12
REMARK SMILES IDX 4 1 3 2 16 3 25 4 2 5 26 6 1 7 33 8 27 9 31 10 28 11 30 12
REMARK SMILES IDX 17 13 18 14 19 15 20 16 24 17 22 18 21 19 23 21 32 23 29 25
REMARK SMILES IDX 5 27 14 28 6 29 12 30 7 31 10 32 15 33 13 35 8 37 9 38 11 40
REMARK H PARENT 21 20 23 22 32 24 29 26 15 34 13 36 9 39 11 41
REMARK Flexibility Score: inf
ROOT
ATOM      1  O   UNL     1       3.983 -15.852   8.514  1.00  0.00    -0.454 OA
ENDROOT
BRANCH   1   2
ATOM      2  C   UNL     1       3.745 -16.712   7.426  1.00  0.00     0.214 A 
ATOM      3  C   UNL     1       3.761 -16.181   6.131  1.00  0.00     0.180 A 
ATOM      4  O   UNL     1       3.601 -16.973   5.075  1.00  0.00    -0.452 OA
ATOM      5  C   UNL     1       3.501 -18.087   7.593  1.00  0.00     0.239 A 
ATOM      6  C   UNL     1       3.379 -18.280   5.179  1.00  0.00     0.146 A 
ATOM      7  O   UNL     1       3.489 -18.562   8.756  1.00  0.00    -0.285 OA
ATOM      8  C   UNL     1       3.294 -18.912   6.454  1.00  0.00     0.111 A 
ATOM      9  C   UNL     1       3.232 -19.029   4.007  1.00  0.00     0.094 A 
ATOM     10  C   UNL     1       3.038 -20.319   6.497  1.00  0.00     0.134 A 
ATOM     11  C   UNL     1       3.007 -20.400   4.058  1.00  0.00     0.123 A 
ATOM     12  C   UNL     1       2.924 -21.036   5.298  1.00  0.00     0.093 A 
BRANCH   3  13
ATOM     13  C   UNL     1       4.017 -14.751   5.911  1.00  0.00     0.025 A 
ATOM     14  C   UNL     1       4.012 -14.232   4.608  1.00  0.00     0.016 A 
ATOM     15  C   UNL     1       4.353 -12.893   4.383  1.00  0.00     0.051 A 
ATOM     16  C   UNL     1       4.682 -12.056   5.456  1.00  0.00     0.157 A 
ATOM     17  C   UNL     1       4.328 -13.910   6.992  1.00  0.00     0.062 A 
ATOM     18  C   UNL     1       4.656 -12.563   6.772  1.00  0.00     0.158 A 
BRANCH  16  19
ATOM     19  O   UNL     1       5.022 -10.725   5.201  1.00  0.00    -0.504 OA
ATOM     20  H   UNL     1       4.469  -9.954   5.560  1.00  0.00     0.293 HD
ENDBRANCH  16  19
BRANCH  18  21
ATOM     21  O   UNL     1       4.973 -11.730   7.847  1.00  0.00    -0.504 OA
ATOM     22  H   UNL     1       5.285 -12.102   8.735  1.00  0.00     0.293 HD
ENDBRANCH  18  21
ENDBRANCH   3  13
BRANCH  10  23
ATOM     23  O   UNL     1       2.875 -21.064   7.675  1.00  0.00    -0.507 OA
ATOM     24  H   UNL     1       2.836 -20.704   8.615  1.00  0.00     0.293 HD
ENDBRANCH  10  23
BRANCH  11  25
ATOM     25  O   UNL     1       2.877 -21.124   2.875  1.00  0.00    -0.508 OA
ATOM     26  H   UNL     1       3.339 -20.836   2.022  1.00  0.00     0.293 HD
ENDBRANCH  11  25
ENDBRANCH   1   2
BRANCH   1  27
ATOM     27  C   UNL     1       4.190 -16.303   9.853  1.00  0.00     0.339 C 
ATOM     28  C   UNL     1       4.634 -15.121  10.736  1.00  0.00     0.214 C 
ATOM     29  O   UNL     1       5.196 -17.300   9.878  1.00  0.00    -0.332 OA
ATOM     30  C   UNL     1       5.047 -15.613  12.157  1.00  0.00     0.180 C 
ATOM     31  C   UNL     1       5.305 -17.934  11.147  1.00  0.00     0.179 C 
ATOM     32  C   UNL     1       4.744 -17.120  12.359  1.00  0.00     0.177 C 
BRANCH  28  33
ATOM     33  O   UNL     1       5.730 -14.465  10.148  1.00  0.00    -0.384 OA
ATOM     34  H   UNL     1       6.470 -14.454  10.815  1.00  0.00     0.211 HD
ENDBRANCH  28  33
BRANCH  30  35
ATOM     35  O   UNL     1       4.361 -14.851  13.122  1.00  0.00    -0.387 OA
ATOM     36  H   UNL     1       4.755 -13.935  13.113  1.00  0.00     0.211 HD
ENDBRANCH  30  35
BRANCH  31  37
ATOM     37  C   UNL     1       4.679 -19.334  11.079  1.00  0.00     0.191 C 
BRANCH  37  38
ATOM     38  O   UNL     1       3.410 -19.326  11.676  1.00  0.00    -0.394 OA
ATOM     39  H   UNL     1       3.093 -18.385  11.648  1.00  0.00     0.210 HD
ENDBRANCH  37  38
ENDBRANCH  31  37
BRANCH  32  40
ATOM     40  O   UNL     1       5.349 -17.577  13.541  1.00  0.00    -0.387 OA
ATOM     41  H   UNL     1       6.314 -17.707  13.330  1.00  0.00     0.211 HD
ENDBRANCH  32  40
ENDBRANCH   1  27
TORSDOF 12
ENDMDL
