MODEL 1
REMARK VINA RESULT:    -8.568      0.000      0.000
REMARK INTER + INTRA:          -8.568
REMARK INTER:                  -8.568
REMARK INTRA:                   0.000
REMARK UNBOUND:                 0.000
REMARK SMILES C[NH+]1CCN(C2=[NH+]c3ccccc3Oc3ccc(Cl)cc32)CC1
REMARK SMILES IDX 7 1 6 2 21 3 5 4 8 5 9 6 13 7 10 8 12 9 14 10 11 11 15 12
REMARK SMILES IDX 16 13 17 14 18 15 20 16 19 17 4 18 22 19 3 20 23 21 2 22
REMARK SMILES IDX 1 23
REMARK H PARENT 7 24 2 25
REMARK Flexibility Score: inf
ROOT
ATOM      1  N   UNL     1     132.150 135.003 151.483  1.00  0.00    -0.237 N 
ATOM      2  C   UNL     1     131.540 134.512 152.530  1.00  0.00     0.286 C 
ATOM      3  C   UNL     1     131.228 133.067 152.697  1.00  0.00     0.108 A 
ATOM      4  N   UNL     1     131.179 135.415 153.593  1.00  0.00    -0.250 N 
ATOM      5  C   UNL     1     132.611 134.291 150.322  1.00  0.00     0.168 A 
ATOM      6  C   UNL     1     133.757 134.768 149.662  1.00  0.00     0.056 A 
ATOM      7  C   UNL     1     131.852 133.268 149.718  1.00  0.00     0.173 A 
ATOM      8  C   UNL     1     134.149 134.233 148.434  1.00  0.00     0.005 A 
ATOM      9  C   UNL     1     132.235 132.761 148.468  1.00  0.00     0.052 A 
ATOM     10  O   UNL     1     130.723 132.723 150.323  1.00  0.00    -0.452 OA
ATOM     11  C   UNL     1     133.384 133.235 147.833  1.00  0.00     0.004 A 
ATOM     12  C   UNL     1     130.734 132.277 151.640  1.00  0.00     0.143 A 
ATOM     13  C   UNL     1     130.247 130.989 151.898  1.00  0.00     0.049 A 
ATOM     14  C   UNL     1     130.303 130.454 153.185  1.00  0.00     0.024 A 
ATOM     15  C   UNL     1     130.839 131.207 154.229  1.00  0.00     0.042 A 
ATOM     16  C   UNL     1     131.292 132.507 153.989  1.00  0.00     0.041 A 
ATOM     17  Cl  UNL     1     130.917 130.536 155.847  1.00  0.00    -0.084 Cl
ATOM     18  C   UNL     1     132.215 136.135 154.337  1.00  0.00     0.298 C 
ATOM     19  C   UNL     1     129.815 135.420 154.128  1.00  0.00     0.298 C 
ATOM     20  C   UNL     1     131.726 137.550 154.664  1.00  0.00     0.308 C 
ATOM     21  C   UNL     1     129.399 136.857 154.463  1.00  0.00     0.308 C 
ATOM     22  N   UNL     1     130.405 137.512 155.329  1.00  0.00    -0.331 N 
ATOM     23  C   UNL     1     129.970 138.878 155.663  1.00  0.00     0.332 C 
ATOM     24  H   UNL     1     132.358 136.028 151.492  1.00  0.00     0.312 HD
ATOM     25  H   UNL     1     130.487 136.974 156.225  1.00  0.00     0.348 HD
ENDROOT
TORSDOF 0
ENDMDL
MODEL 2
REMARK VINA RESULT:    -8.521      3.304      6.617
REMARK INTER + INTRA:          -8.521
REMARK INTER:                  -8.521
REMARK INTRA:                   0.000
REMARK UNBOUND:                 0.000
REMARK SMILES C[NH+]1CCN(C2=[NH+]c3ccccc3Oc3ccc(Cl)cc32)CC1
REMARK SMILES IDX 7 1 6 2 21 3 5 4 8 5 9 6 13 7 10 8 12 9 14 10 11 11 15 12
REMARK SMILES IDX 16 13 17 14 18 15 20 16 19 17 4 18 22 19 3 20 23 21 2 22
REMARK SMILES IDX 1 23
REMARK H PARENT 7 24 2 25
REMARK Flexibility Score: inf
ROOT
ATOM      1  N   UNL     1     130.197 131.629 152.817  1.00  0.00    -0.237 N 
ATOM      2  C   UNL     1     130.475 132.489 151.873  1.00  0.00     0.286 C 
ATOM      3  C   UNL     1     131.467 133.588 152.029  1.00  0.00     0.108 A 
ATOM      4  N   UNL     1     129.807 132.349 150.605  1.00  0.00    -0.250 N 
ATOM      5  C   UNL     1     130.751 131.571 154.142  1.00  0.00     0.168 A 
ATOM      6  C   UNL     1     130.882 130.311 154.753  1.00  0.00     0.056 A 
ATOM      7  C   UNL     1     130.976 132.729 154.914  1.00  0.00     0.173 A 
ATOM      8  C   UNL     1     131.242 130.202 156.097  1.00  0.00     0.005 A 
ATOM      9  C   UNL     1     131.302 132.610 156.272  1.00  0.00     0.052 A 
ATOM     10  O   UNL     1     130.893 134.010 154.375  1.00  0.00    -0.452 OA
ATOM     11  C   UNL     1     131.444 131.352 156.859  1.00  0.00     0.004 A 
ATOM     12  C   UNL     1     131.556 134.361 153.203  1.00  0.00     0.143 A 
ATOM     13  C   UNL     1     132.346 135.517 153.221  1.00  0.00     0.049 A 
ATOM     14  C   UNL     1     133.097 135.881 152.103  1.00  0.00     0.024 A 
ATOM     15  C   UNL     1     133.058 135.094 150.953  1.00  0.00     0.042 A 
ATOM     16  C   UNL     1     132.244 133.959 150.913  1.00  0.00     0.041 A 
ATOM     17  Cl  UNL     1     134.006 135.544 149.548  1.00  0.00    -0.084 Cl
ATOM     18  C   UNL     1     130.011 131.150 149.789  1.00  0.00     0.298 C 
ATOM     19  C   UNL     1     129.142 133.499 149.987  1.00  0.00     0.298 C 
ATOM     20  C   UNL     1     128.697 130.761 149.105  1.00  0.00     0.308 C 
ATOM     21  C   UNL     1     127.854 133.039 149.295  1.00  0.00     0.308 C 
ATOM     22  N   UNL     1     128.121 131.912 148.374  1.00  0.00    -0.331 N 
ATOM     23  C   UNL     1     126.878 131.507 147.698  1.00  0.00     0.332 C 
ATOM     24  H   UNL     1     129.516 130.871 152.583  1.00  0.00     0.312 HD
ATOM     25  H   UNL     1     128.799 132.224 147.638  1.00  0.00     0.348 HD
ENDROOT
TORSDOF 0
ENDMDL
MODEL 3
REMARK VINA RESULT:    -8.330      2.845      7.176
REMARK INTER + INTRA:          -8.330
REMARK INTER:                  -8.330
REMARK INTRA:                   0.000
REMARK UNBOUND:                 0.000
REMARK SMILES C[NH+]1CCN(C2=[NH+]c3ccccc3Oc3ccc(Cl)cc32)CC1
REMARK SMILES IDX 7 1 6 2 21 3 5 4 8 5 9 6 13 7 10 8 12 9 14 10 11 11 15 12
REMARK SMILES IDX 16 13 17 14 18 15 20 16 19 17 4 18 22 19 3 20 23 21 2 22
REMARK SMILES IDX 1 23
REMARK H PARENT 7 24 2 25
REMARK Flexibility Score: inf
ROOT
ATOM      1  N   UNL     1     130.188 135.733 154.102  1.00  0.00    -0.237 N 
ATOM      2  C   UNL     1     131.439 135.884 153.755  1.00  0.00     0.286 C 
ATOM      3  C   UNL     1     132.360 136.856 154.405  1.00  0.00     0.108 A 
ATOM      4  N   UNL     1     131.963 135.045 152.708  1.00  0.00    -0.250 N 
ATOM      5  C   UNL     1     129.467 136.446 155.121  1.00  0.00     0.168 A 
ATOM      6  C   UNL     1     128.441 135.771 155.804  1.00  0.00     0.056 A 
ATOM      7  C   UNL     1     129.619 137.834 155.318  1.00  0.00     0.173 A 
ATOM      8  C   UNL     1     127.589 136.455 156.673  1.00  0.00     0.005 A 
ATOM      9  C   UNL     1     128.737 138.519 156.165  1.00  0.00     0.052 A 
ATOM     10  O   UNL     1     130.629 138.566 154.701  1.00  0.00    -0.452 OA
ATOM     11  C   UNL     1     127.732 137.831 156.848  1.00  0.00     0.004 A 
ATOM     12  C   UNL     1     131.960 138.165 154.738  1.00  0.00     0.143 A 
ATOM     13  C   UNL     1     132.915 139.107 155.141  1.00  0.00     0.049 A 
ATOM     14  C   UNL     1     134.256 138.745 155.275  1.00  0.00     0.024 A 
ATOM     15  C   UNL     1     134.655 137.438 154.998  1.00  0.00     0.042 A 
ATOM     16  C   UNL     1     133.715 136.501 154.560  1.00  0.00     0.041 A 
ATOM     17  Cl  UNL     1     136.338 136.978 155.172  1.00  0.00    -0.084 Cl
ATOM     18  C   UNL     1     132.022 133.592 152.885  1.00  0.00     0.298 C 
ATOM     19  C   UNL     1     132.688 135.633 151.580  1.00  0.00     0.298 C 
ATOM     20  C   UNL     1     131.696 132.897 151.559  1.00  0.00     0.308 C 
ATOM     21  C   UNL     1     132.343 134.876 150.293  1.00  0.00     0.308 C 
ATOM     22  N   UNL     1     132.544 133.419 150.466  1.00  0.00    -0.331 N 
ATOM     23  C   UNL     1     132.238 132.715 149.210  1.00  0.00     0.332 C 
ATOM     24  H   UNL     1     129.644 134.989 153.606  1.00  0.00     0.312 HD
ATOM     25  H   UNL     1     133.551 133.238 150.696  1.00  0.00     0.348 HD
ENDROOT
TORSDOF 0
ENDMDL
MODEL 4
REMARK VINA RESULT:    -7.631      3.303      6.175
REMARK INTER + INTRA:          -7.631
REMARK INTER:                  -7.631
REMARK INTRA:                   0.000
REMARK UNBOUND:                 0.000
REMARK SMILES C[NH+]1CCN(C2=[NH+]c3ccccc3Oc3ccc(Cl)cc32)CC1
REMARK SMILES IDX 7 1 6 2 21 3 5 4 8 5 9 6 13 7 10 8 12 9 14 10 11 11 15 12
REMARK SMILES IDX 16 13 17 14 18 15 20 16 19 17 4 18 22 19 3 20 23 21 2 22
REMARK SMILES IDX 1 23
REMARK H PARENT 7 24 2 25
REMARK Flexibility Score: inf
ROOT
ATOM      1  N   UNL     1     131.441 137.665 155.273  1.00  0.00    -0.237 N 
ATOM      2  C   UNL     1     132.332 137.155 154.463  1.00  0.00     0.286 C 
ATOM      3  C   UNL     1     132.011 136.140 153.423  1.00  0.00     0.108 A 
ATOM      4  N   UNL     1     133.691 137.623 154.563  1.00  0.00    -0.250 N 
ATOM      5  C   UNL     1     130.038 137.359 155.339  1.00  0.00     0.168 A 
ATOM      6  C   UNL     1     129.153 138.380 155.728  1.00  0.00     0.056 A 
ATOM      7  C   UNL     1     129.549 136.042 155.221  1.00  0.00     0.173 A 
ATOM      8  C   UNL     1     127.809 138.102 155.984  1.00  0.00     0.005 A 
ATOM      9  C   UNL     1     128.207 135.767 155.515  1.00  0.00     0.052 A 
ATOM     10  O   UNL     1     130.356 134.983 154.813  1.00  0.00    -0.452 OA
ATOM     11  C   UNL     1     127.338 136.794 155.885  1.00  0.00     0.004 A 
ATOM     12  C   UNL     1     131.147 135.056 153.671  1.00  0.00     0.143 A 
ATOM     13  C   UNL     1     131.050 134.012 152.742  1.00  0.00     0.049 A 
ATOM     14  C   UNL     1     131.758 134.063 151.541  1.00  0.00     0.024 A 
ATOM     15  C   UNL     1     132.576 135.157 151.262  1.00  0.00     0.042 A 
ATOM     16  C   UNL     1     132.708 136.186 152.199  1.00  0.00     0.041 A 
ATOM     17  Cl  UNL     1     133.462 135.229 149.750  1.00  0.00    -0.084 Cl
ATOM     18  C   UNL     1     134.012 139.025 154.289  1.00  0.00     0.298 C 
ATOM     19  C   UNL     1     134.797 136.668 154.667  1.00  0.00     0.298 C 
ATOM     20  C   UNL     1     135.102 139.502 155.254  1.00  0.00     0.308 C 
ATOM     21  C   UNL     1     135.864 137.217 155.619  1.00  0.00     0.308 C 
ATOM     22  N   UNL     1     136.265 138.588 155.232  1.00  0.00    -0.331 N 
ATOM     23  C   UNL     1     137.313 139.083 156.140  1.00  0.00     0.332 C 
ATOM     24  H   UNL     1     131.770 138.404 155.936  1.00  0.00     0.312 HD
ATOM     25  H   UNL     1     136.666 138.567 154.263  1.00  0.00     0.348 HD
ENDROOT
TORSDOF 0
ENDMDL
MODEL 5
REMARK VINA RESULT:    -7.362      2.932      4.477
REMARK INTER + INTRA:          -7.362
REMARK INTER:                  -7.362
REMARK INTRA:                   0.000
REMARK UNBOUND:                 0.000
REMARK SMILES C[NH+]1CCN(C2=[NH+]c3ccccc3Oc3ccc(Cl)cc32)CC1
REMARK SMILES IDX 7 1 6 2 21 3 5 4 8 5 9 6 13 7 10 8 12 9 14 10 11 11 15 12
REMARK SMILES IDX 16 13 17 14 18 15 20 16 19 17 4 18 22 19 3 20 23 21 2 22
REMARK SMILES IDX 1 23
REMARK H PARENT 7 24 2 25
REMARK Flexibility Score: inf
ROOT
ATOM      1  N   UNL     1     129.717 135.000 152.844  1.00  0.00    -0.237 N 
ATOM      2  C   UNL     1     130.193 135.796 153.764  1.00  0.00     0.286 C 
ATOM      3  C   UNL     1     131.640 136.112 153.908  1.00  0.00     0.108 A 
ATOM      4  N   UNL     1     129.265 136.425 154.669  1.00  0.00    -0.250 N 
ATOM      5  C   UNL     1     130.452 134.285 151.836  1.00  0.00     0.168 A 
ATOM      6  C   UNL     1     129.826 134.051 150.599  1.00  0.00     0.056 A 
ATOM      7  C   UNL     1     131.680 133.649 152.110  1.00  0.00     0.173 A 
ATOM      8  C   UNL     1     130.412 133.212 149.648  1.00  0.00     0.005 A 
ATOM      9  C   UNL     1     132.243 132.782 151.163  1.00  0.00     0.052 A 
ATOM     10  O   UNL     1     132.374 133.854 153.299  1.00  0.00    -0.452 OA
ATOM     11  C   UNL     1     131.617 132.572 149.934  1.00  0.00     0.004 A 
ATOM     12  C   UNL     1     132.642 135.129 153.787  1.00  0.00     0.143 A 
ATOM     13  C   UNL     1     133.962 135.426 154.147  1.00  0.00     0.049 A 
ATOM     14  C   UNL     1     134.310 136.709 154.570  1.00  0.00     0.024 A 
ATOM     15  C   UNL     1     133.337 137.705 154.644  1.00  0.00     0.042 A 
ATOM     16  C   UNL     1     132.010 137.408 154.321  1.00  0.00     0.041 A 
ATOM     17  Cl  UNL     1     133.772 139.321 155.167  1.00  0.00    -0.084 Cl
ATOM     18  C   UNL     1     128.255 137.356 154.163  1.00  0.00     0.298 C 
ATOM     19  C   UNL     1     129.485 136.364 156.116  1.00  0.00     0.298 C 
ATOM     20  C   UNL     1     126.948 137.172 154.941  1.00  0.00     0.308 C 
ATOM     21  C   UNL     1     128.141 136.211 156.835  1.00  0.00     0.308 C 
ATOM     22  N   UNL     1     127.184 137.253 156.399  1.00  0.00    -0.331 N 
ATOM     23  C   UNL     1     125.912 137.106 157.124  1.00  0.00     0.332 C 
ATOM     24  H   UNL     1     128.678 134.884 152.807  1.00  0.00     0.312 HD
ATOM     25  H   UNL     1     127.578 138.197 156.630  1.00  0.00     0.348 HD
ENDROOT
TORSDOF 0
ENDMDL
MODEL 6
REMARK VINA RESULT:    -7.274      3.157      4.742
REMARK INTER + INTRA:          -7.274
REMARK INTER:                  -7.274
REMARK INTRA:                   0.000
REMARK UNBOUND:                 0.000
REMARK SMILES C[NH+]1CCN(C2=[NH+]c3ccccc3Oc3ccc(Cl)cc32)CC1
REMARK SMILES IDX 7 1 6 2 21 3 5 4 8 5 9 6 13 7 10 8 12 9 14 10 11 11 15 12
REMARK SMILES IDX 16 13 17 14 18 15 20 16 19 17 4 18 22 19 3 20 23 21 2 22
REMARK SMILES IDX 1 23
REMARK H PARENT 7 24 2 25
REMARK Flexibility Score: inf
ROOT
ATOM      1  N   UNL     1     129.076 133.030 151.124  1.00  0.00    -0.237 N 
ATOM      2  C   UNL     1     130.316 133.411 151.283  1.00  0.00     0.286 C 
ATOM      3  C   UNL     1     131.335 133.365 150.199  1.00  0.00     0.108 A 
ATOM      4  N   UNL     1     130.711 133.931 152.567  1.00  0.00    -0.250 N 
ATOM      5  C   UNL     1     128.466 132.500 149.935  1.00  0.00     0.168 A 
ATOM      6  C   UNL     1     127.104 132.767 149.711  1.00  0.00     0.056 A 
ATOM      7  C   UNL     1     129.125 131.572 149.103  1.00  0.00     0.173 A 
ATOM      8  C   UNL     1     126.413 132.135 148.676  1.00  0.00     0.005 A 
ATOM      9  C   UNL     1     128.413 130.917 148.088  1.00  0.00     0.052 A 
ATOM     10  O   UNL     1     130.478 131.277 149.243  1.00  0.00    -0.452 OA
ATOM     11  C   UNL     1     127.065 131.204 147.869  1.00  0.00     0.004 A 
ATOM     12  C   UNL     1     131.447 132.272 149.317  1.00  0.00     0.143 A 
ATOM     13  C   UNL     1     132.552 132.172 148.463  1.00  0.00     0.049 A 
ATOM     14  C   UNL     1     133.519 133.178 148.433  1.00  0.00     0.024 A 
ATOM     15  C   UNL     1     133.392 134.290 149.265  1.00  0.00     0.042 A 
ATOM     16  C   UNL     1     132.311 134.381 150.147  1.00  0.00     0.041 A 
ATOM     17  Cl  UNL     1     134.600 135.560 149.226  1.00  0.00    -0.084 Cl
ATOM     18  C   UNL     1     130.102 135.157 153.088  1.00  0.00     0.298 C 
ATOM     19  C   UNL     1     131.902 133.411 153.242  1.00  0.00     0.298 C 
ATOM     20  C   UNL     1     129.903 135.032 154.602  1.00  0.00     0.308 C 
ATOM     21  C   UNL     1     131.650 133.340 154.752  1.00  0.00     0.308 C 
ATOM     22  N   UNL     1     131.163 134.638 155.270  1.00  0.00    -0.331 N 
ATOM     23  C   UNL     1     130.957 134.556 156.725  1.00  0.00     0.332 C 
ATOM     24  H   UNL     1     128.435 133.148 151.942  1.00  0.00     0.312 HD
ATOM     25  H   UNL     1     131.890 135.372 155.090  1.00  0.00     0.348 HD
ENDROOT
TORSDOF 0
ENDMDL
MODEL 7
REMARK VINA RESULT:    -7.211      3.089      6.354
REMARK INTER + INTRA:          -7.211
REMARK INTER:                  -7.211
REMARK INTRA:                   0.000
REMARK UNBOUND:                 0.000
REMARK SMILES C[NH+]1CCN(C2=[NH+]c3ccccc3Oc3ccc(Cl)cc32)CC1
REMARK SMILES IDX 7 1 6 2 21 3 5 4 8 5 9 6 13 7 10 8 12 9 14 10 11 11 15 12
REMARK SMILES IDX 16 13 17 14 18 15 20 16 19 17 4 18 22 19 3 20 23 21 2 22
REMARK SMILES IDX 1 23
REMARK H PARENT 7 24 2 25
REMARK Flexibility Score: inf
ROOT
ATOM      1  N   UNL     1     130.818 131.822 153.277  1.00  0.00    -0.237 N 
ATOM      2  C   UNL     1     130.762 133.055 152.847  1.00  0.00     0.286 C 
ATOM      3  C   UNL     1     131.075 134.237 153.695  1.00  0.00     0.108 A 
ATOM      4  N   UNL     1     130.407 133.280 151.469  1.00  0.00    -0.250 N 
ATOM      5  C   UNL     1     131.161 131.368 154.597  1.00  0.00     0.168 A 
ATOM      6  C   UNL     1     131.806 130.126 154.726  1.00  0.00     0.056 A 
ATOM      7  C   UNL     1     130.704 132.022 155.760  1.00  0.00     0.173 A 
ATOM      8  C   UNL     1     132.004 129.549 155.982  1.00  0.00     0.005 A 
ATOM      9  C   UNL     1     130.876 131.419 157.013  1.00  0.00     0.052 A 
ATOM     10  O   UNL     1     130.083 133.268 155.717  1.00  0.00    -0.452 OA
ATOM     11  C   UNL     1     131.532 130.192 157.125  1.00  0.00     0.004 A 
ATOM     12  C   UNL     1     130.634 134.344 155.029  1.00  0.00     0.143 A 
ATOM     13  C   UNL     1     130.761 135.560 155.712  1.00  0.00     0.049 A 
ATOM     14  C   UNL     1     131.377 136.654 155.104  1.00  0.00     0.024 A 
ATOM     15  C   UNL     1     131.864 136.544 153.802  1.00  0.00     0.042 A 
ATOM     16  C   UNL     1     131.709 135.346 153.099  1.00  0.00     0.041 A 
ATOM     17  Cl  UNL     1     132.645 137.915 153.037  1.00  0.00    -0.084 Cl
ATOM     18  C   UNL     1     131.262 132.776 150.392  1.00  0.00     0.298 C 
ATOM     19  C   UNL     1     129.353 134.237 151.122  1.00  0.00     0.298 C 
ATOM     20  C   UNL     1     130.394 132.287 149.229  1.00  0.00     0.308 C 
ATOM     21  C   UNL     1     128.543 133.705 149.936  1.00  0.00     0.308 C 
ATOM     22  N   UNL     1     129.431 133.330 148.813  1.00  0.00    -0.331 N 
ATOM     23  C   UNL     1     128.630 132.851 147.674  1.00  0.00     0.332 C 
ATOM     24  H   UNL     1     130.620 131.067 152.581  1.00  0.00     0.312 HD
ATOM     25  H   UNL     1     129.960 134.178 148.498  1.00  0.00     0.348 HD
ENDROOT
TORSDOF 0
ENDMDL
MODEL 8
REMARK VINA RESULT:    -6.979      2.238      6.152
REMARK INTER + INTRA:          -6.979
REMARK INTER:                  -6.979
REMARK INTRA:                   0.000
REMARK UNBOUND:                 0.000
REMARK SMILES C[NH+]1CCN(C2=[NH+]c3ccccc3Oc3ccc(Cl)cc32)CC1
REMARK SMILES IDX 7 1 6 2 21 3 5 4 8 5 9 6 13 7 10 8 12 9 14 10 11 11 15 12
REMARK SMILES IDX 16 13 17 14 18 15 20 16 19 17 4 18 22 19 3 20 23 21 2 22
REMARK SMILES IDX 1 23
REMARK H PARENT 7 24 2 25
REMARK Flexibility Score: inf
ROOT
ATOM      1  N   UNL     1     129.798 135.392 153.433  1.00  0.00    -0.237 N 
ATOM      2  C   UNL     1     130.397 134.235 153.536  1.00  0.00     0.286 C 
ATOM      3  C   UNL     1     130.712 133.586 154.838  1.00  0.00     0.108 A 
ATOM      4  N   UNL     1     130.745 133.537 152.325  1.00  0.00    -0.250 N 
ATOM      5  C   UNL     1     129.351 136.247 154.499  1.00  0.00     0.168 A 
ATOM      6  C   UNL     1     128.211 137.039 154.281  1.00  0.00     0.056 A 
ATOM      7  C   UNL     1     130.119 136.462 155.662  1.00  0.00     0.173 A 
ATOM      8  C   UNL     1     127.833 138.018 155.203  1.00  0.00     0.005 A 
ATOM      9  C   UNL     1     129.752 137.470 156.564  1.00  0.00     0.052 A 
ATOM     10  O   UNL     1     131.244 135.698 155.962  1.00  0.00    -0.452 OA
ATOM     11  C   UNL     1     128.608 138.238 156.341  1.00  0.00     0.004 A 
ATOM     12  C   UNL     1     131.220 134.308 155.935  1.00  0.00     0.143 A 
ATOM     13  C   UNL     1     131.708 133.625 157.057  1.00  0.00     0.049 A 
ATOM     14  C   UNL     1     131.640 132.233 157.125  1.00  0.00     0.024 A 
ATOM     15  C   UNL     1     131.091 131.510 156.066  1.00  0.00     0.042 A 
ATOM     16  C   UNL     1     130.636 132.181 154.927  1.00  0.00     0.041 A 
ATOM     17  Cl  UNL     1     130.997 129.762 156.151  1.00  0.00    -0.084 Cl
ATOM     18  C   UNL     1     129.699 133.091 151.402  1.00  0.00     0.298 C 
ATOM     19  C   UNL     1     132.103 133.023 152.130  1.00  0.00     0.298 C 
ATOM     20  C   UNL     1     130.180 133.258 149.957  1.00  0.00     0.308 C 
ATOM     21  C   UNL     1     132.511 133.191 150.662  1.00  0.00     0.308 C 
ATOM     22  N   UNL     1     131.494 132.607 149.759  1.00  0.00    -0.331 N 
ATOM     23  C   UNL     1     131.921 132.752 148.358  1.00  0.00     0.332 C 
ATOM     24  H   UNL     1     129.586 135.732 152.467  1.00  0.00     0.312 HD
ATOM     25  H   UNL     1     131.404 131.583 149.962  1.00  0.00     0.348 HD
ENDROOT
TORSDOF 0
ENDMDL
