MODEL 1
REMARK VINA RESULT:    -4.761      0.000      0.000
REMARK INTER + INTRA:          -8.063
REMARK INTER:                  -7.684
REMARK INTRA:                  -0.379
REMARK UNBOUND:                -0.379
REMARK SMILES CCCCCCCCCCCCO
REMARK SMILES IDX 7 1 6 2 5 3 4 4 3 5 2 6 1 7 8 8 9 9 10 10 11 11 12 12 13 13
REMARK H PARENT 13 14
REMARK Flexibility Score: inf
ROOT
ATOM      1  C   UNL     1     -16.937  -4.313   1.903  1.00  0.00     0.000 C 
ENDROOT
BRANCH   1   2
ATOM      2  C   UNL     1     -18.156  -5.173   1.525  1.00  0.00    -0.000 C 
BRANCH   2   3
ATOM      3  C   UNL     1     -19.481  -4.403   1.646  1.00  0.00    -0.000 C 
BRANCH   3   4
ATOM      4  C   UNL     1     -20.220  -4.288   0.304  1.00  0.00    -0.000 C 
BRANCH   4   5
ATOM      5  C   UNL     1     -20.370  -5.665  -0.358  1.00  0.00    -0.000 C 
BRANCH   5   6
ATOM      6  C   UNL     1     -21.494  -6.503   0.272  1.00  0.00    -0.003 C 
ATOM      7  C   UNL     1     -21.284  -8.006   0.091  1.00  0.00     0.004 C 
ENDBRANCH   5   6
ENDBRANCH   4   5
ENDBRANCH   3   4
ENDBRANCH   2   3
ENDBRANCH   1   2
BRANCH   1   8
ATOM      8  C   UNL     1     -15.607  -5.074   1.768  1.00  0.00     0.000 C 
BRANCH   8   9
ATOM      9  C   UNL     1     -14.598  -4.828   2.907  1.00  0.00     0.000 C 
BRANCH   9  10
ATOM     10  C   UNL     1     -13.172  -4.459   2.453  1.00  0.00     0.002 C 
BRANCH  10  11
ATOM     11  C   UNL     1     -12.053  -5.356   3.017  1.00  0.00     0.028 C 
BRANCH  11  12
ATOM     12  C   UNL     1     -12.525  -6.295   4.133  1.00  0.00     0.156 C 
BRANCH  12  13
ATOM     13  O   UNL     1     -11.574  -6.348   5.159  1.00  0.00    -0.396 OA
ATOM     14  H   UNL     1     -11.021  -5.530   5.065  1.00  0.00     0.210 HD
ENDBRANCH  12  13
ENDBRANCH  11  12
ENDBRANCH  10  11
ENDBRANCH   9  10
ENDBRANCH   8   9
ENDBRANCH   1   8
TORSDOF 11
ENDMDL
MODEL 2
REMARK VINA RESULT:    -4.597      3.468      7.982
REMARK INTER + INTRA:          -7.798
REMARK INTER:                  -7.455
REMARK INTRA:                  -0.343
REMARK UNBOUND:                -0.379
REMARK SMILES CCCCCCCCCCCCO
REMARK SMILES IDX 7 1 6 2 5 3 4 4 3 5 2 6 1 7 8 8 9 9 10 10 11 11 12 12 13 13
REMARK H PARENT 13 14
REMARK Flexibility Score: inf
ROOT
ATOM      1  C   UNL     1     -16.808  -4.440   1.504  1.00  0.00     0.000 C 
ENDROOT
BRANCH   1   2
ATOM      2  C   UNL     1     -15.821  -4.893   2.594  1.00  0.00    -0.000 C 
BRANCH   2   3
ATOM      3  C   UNL     1     -14.360  -4.855   2.121  1.00  0.00    -0.000 C 
BRANCH   3   4
ATOM      4  C   UNL     1     -13.378  -5.349   3.195  1.00  0.00    -0.000 C 
BRANCH   4   5
ATOM      5  C   UNL     1     -11.944  -4.907   2.870  1.00  0.00    -0.000 C 
BRANCH   5   6
ATOM      6  C   UNL     1     -11.890  -3.524   2.201  1.00  0.00    -0.003 C 
ATOM      7  C   UNL     1     -10.494  -2.904   2.237  1.00  0.00     0.004 C 
ENDBRANCH   5   6
ENDBRANCH   4   5
ENDBRANCH   3   4
ENDBRANCH   2   3
ENDBRANCH   1   2
BRANCH   1   8
ATOM      8  C   UNL     1     -18.124  -5.235   1.525  1.00  0.00     0.000 C 
BRANCH   8   9
ATOM      9  C   UNL     1     -19.401  -4.376   1.621  1.00  0.00     0.000 C 
BRANCH   9  10
ATOM     10  C   UNL     1     -20.524  -4.757   0.637  1.00  0.00     0.002 C 
BRANCH  10  11
ATOM     11  C   UNL     1     -20.210  -5.950  -0.285  1.00  0.00     0.028 C 
BRANCH  11  12
ATOM     12  C   UNL     1     -21.320  -7.006  -0.320  1.00  0.00     0.156 C 
BRANCH  12  13
ATOM     13  O   UNL     1     -22.426  -6.576   0.424  1.00  0.00    -0.396 OA
ATOM     14  H   UNL     1     -22.070  -6.279   1.301  1.00  0.00     0.210 HD
ENDBRANCH  12  13
ENDBRANCH  11  12
ENDBRANCH  10  11
ENDBRANCH   9  10
ENDBRANCH   8   9
ENDBRANCH   1   8
TORSDOF 11
ENDMDL
MODEL 3
REMARK VINA RESULT:    -4.511      2.548      7.324
REMARK INTER + INTRA:          -7.658
REMARK INTER:                  -7.334
REMARK INTRA:                  -0.324
REMARK UNBOUND:                -0.379
REMARK SMILES CCCCCCCCCCCCO
REMARK SMILES IDX 7 1 6 2 5 3 4 4 3 5 2 6 1 7 8 8 9 9 10 10 11 11 12 12 13 13
REMARK H PARENT 13 14
REMARK Flexibility Score: inf
ROOT
ATOM      1  C   UNL     1     -18.003  -5.193   1.522  1.00  0.00     0.000 C 
ENDROOT
BRANCH   1   2
ATOM      2  C   UNL     1     -16.826  -4.286   1.921  1.00  0.00    -0.000 C 
BRANCH   2   3
ATOM      3  C   UNL     1     -15.461  -4.961   1.708  1.00  0.00    -0.000 C 
BRANCH   3   4
ATOM      4  C   UNL     1     -14.552  -4.857   2.942  1.00  0.00    -0.000 C 
BRANCH   4   5
ATOM      5  C   UNL     1     -13.125  -4.461   2.538  1.00  0.00    -0.000 C 
BRANCH   5   6
ATOM      6  C   UNL     1     -12.069  -5.451   3.054  1.00  0.00    -0.003 C 
ATOM      7  C   UNL     1     -12.523  -6.200   4.306  1.00  0.00     0.004 C 
ENDBRANCH   5   6
ENDBRANCH   4   5
ENDBRANCH   3   4
ENDBRANCH   2   3
ENDBRANCH   1   2
BRANCH   1   8
ATOM      8  C   UNL     1     -19.367  -4.499   1.676  1.00  0.00     0.000 C 
BRANCH   8   9
ATOM      9  C   UNL     1     -20.120  -4.245   0.355  1.00  0.00     0.000 C 
BRANCH   9  10
ATOM     10  C   UNL     1     -20.459  -5.507  -0.461  1.00  0.00     0.002 C 
BRANCH  10  11
ATOM     11  C   UNL     1     -21.380  -6.518   0.249  1.00  0.00     0.028 C 
BRANCH  11  12
ATOM     12  C   UNL     1     -20.763  -7.914   0.392  1.00  0.00     0.156 C 
BRANCH  12  13
ATOM     13  O   UNL     1     -19.758  -7.905   1.368  1.00  0.00    -0.396 OA
ATOM     14  H   UNL     1     -19.624  -6.954   1.617  1.00  0.00     0.210 HD
ENDBRANCH  12  13
ENDBRANCH  11  12
ENDBRANCH  10  11
ENDBRANCH   9  10
ENDBRANCH   8   9
ENDBRANCH   1   8
TORSDOF 11
ENDMDL
MODEL 4
REMARK VINA RESULT:    -4.482      1.804      2.238
REMARK INTER + INTRA:          -7.612
REMARK INTER:                  -7.300
REMARK INTRA:                  -0.311
REMARK UNBOUND:                -0.379
REMARK SMILES CCCCCCCCCCCCO
REMARK SMILES IDX 7 1 6 2 5 3 4 4 3 5 2 6 1 7 8 8 9 9 10 10 11 11 12 12 13 13
REMARK H PARENT 13 14
REMARK Flexibility Score: inf
ROOT
ATOM      1  C   UNL     1     -15.727  -4.894   1.867  1.00  0.00     0.000 C 
ENDROOT
BRANCH   1   2
ATOM      2  C   UNL     1     -17.111  -4.224   1.841  1.00  0.00    -0.000 C 
BRANCH   2   3
ATOM      3  C   UNL     1     -18.225  -5.185   1.396  1.00  0.00    -0.000 C 
BRANCH   3   4
ATOM      4  C   UNL     1     -19.623  -4.558   1.502  1.00  0.00    -0.000 C 
BRANCH   4   5
ATOM      5  C   UNL     1     -20.402  -4.733   0.190  1.00  0.00    -0.000 C 
BRANCH   5   6
ATOM      6  C   UNL     1     -20.506  -6.205  -0.242  1.00  0.00    -0.003 C 
ATOM      7  C   UNL     1     -21.582  -6.972   0.527  1.00  0.00     0.004 C 
ENDBRANCH   5   6
ENDBRANCH   4   5
ENDBRANCH   3   4
ENDBRANCH   2   3
ENDBRANCH   1   2
BRANCH   1   8
ATOM      8  C   UNL     1     -15.071  -4.852   3.257  1.00  0.00     0.000 C 
BRANCH   8   9
ATOM      9  C   UNL     1     -13.565  -5.184   3.276  1.00  0.00     0.000 C 
BRANCH   9  10
ATOM     10  C   UNL     1     -12.718  -4.451   2.217  1.00  0.00     0.002 C 
BRANCH  10  11
ATOM     11  C   UNL     1     -11.236  -4.251   2.588  1.00  0.00     0.028 C 
BRANCH  11  12
ATOM     12  C   UNL     1     -10.739  -2.817   2.370  1.00  0.00     0.156 C 
BRANCH  12  13
ATOM     13  O   UNL     1      -9.511  -2.824   1.697  1.00  0.00    -0.396 OA
ATOM     14  H   UNL     1      -9.726  -2.757   0.731  1.00  0.00     0.210 HD
ENDBRANCH  12  13
ENDBRANCH  11  12
ENDBRANCH  10  11
ENDBRANCH   9  10
ENDBRANCH   8   9
ENDBRANCH   1   8
TORSDOF 11
ENDMDL
MODEL 5
REMARK VINA RESULT:    -4.440     16.416     17.343
REMARK INTER + INTRA:          -7.544
REMARK INTER:                  -7.066
REMARK INTRA:                  -0.478
REMARK UNBOUND:                -0.379
REMARK SMILES CCCCCCCCCCCCO
REMARK SMILES IDX 7 1 6 2 5 3 4 4 3 5 2 6 1 7 8 8 9 9 10 10 11 11 12 12 13 13
REMARK H PARENT 13 14
REMARK Flexibility Score: inf
ROOT
ATOM      1  C   UNL     1     -20.095   8.254   9.581  1.00  0.00     0.000 C 
ENDROOT
BRANCH   1   2
ATOM      2  C   UNL     1     -20.913   8.067  10.871  1.00  0.00    -0.000 C 
BRANCH   2   3
ATOM      3  C   UNL     1     -22.375   8.513  10.714  1.00  0.00    -0.000 C 
BRANCH   3   4
ATOM      4  C   UNL     1     -23.366   7.512  11.329  1.00  0.00    -0.000 C 
BRANCH   4   5
ATOM      5  C   UNL     1     -24.797   7.793  10.845  1.00  0.00    -0.000 C 
BRANCH   5   6
ATOM      6  C   UNL     1     -25.862   7.325  11.849  1.00  0.00    -0.003 C 
ATOM      7  C   UNL     1     -25.268   6.541  13.019  1.00  0.00     0.004 C 
ENDBRANCH   5   6
ENDBRANCH   4   5
ENDBRANCH   3   4
ENDBRANCH   2   3
ENDBRANCH   1   2
BRANCH   1   8
ATOM      8  C   UNL     1     -18.628   7.820   9.737  1.00  0.00     0.000 C 
BRANCH   8   9
ATOM      9  C   UNL     1     -17.588   8.889   9.346  1.00  0.00     0.000 C 
BRANCH   9  10
ATOM     10  C   UNL     1     -17.540  10.125  10.265  1.00  0.00     0.002 C 
BRANCH  10  11
ATOM     11  C   UNL     1     -16.412  10.115  11.315  1.00  0.00     0.028 C 
BRANCH  11  12
ATOM     12  C   UNL     1     -16.921  10.064  12.760  1.00  0.00     0.156 C 
BRANCH  12  13
ATOM     13  O   UNL     1     -18.274   9.702  12.788  1.00  0.00    -0.396 OA
ATOM     14  H   UNL     1     -18.641   9.941  11.897  1.00  0.00     0.210 HD
ENDBRANCH  12  13
ENDBRANCH  11  12
ENDBRANCH  10  11
ENDBRANCH   9  10
ENDBRANCH   8   9
ENDBRANCH   1   8
TORSDOF 11
ENDMDL
MODEL 6
REMARK VINA RESULT:    -4.395     16.574     18.587
REMARK INTER + INTRA:          -7.471
REMARK INTER:                  -6.898
REMARK INTRA:                  -0.574
REMARK UNBOUND:                -0.379
REMARK SMILES CCCCCCCCCCCCO
REMARK SMILES IDX 7 1 6 2 5 3 4 4 3 5 2 6 1 7 8 8 9 9 10 10 11 11 12 12 13 13
REMARK H PARENT 13 14
REMARK Flexibility Score: inf
ROOT
ATOM      1  C   UNL     1     -20.768   8.269  11.047  1.00  0.00     0.000 C 
ENDROOT
BRANCH   1   2
ATOM      2  C   UNL     1     -19.917   8.828   9.893  1.00  0.00    -0.000 C 
BRANCH   2   3
ATOM      3  C   UNL     1     -18.719   7.927   9.553  1.00  0.00    -0.000 C 
BRANCH   3   4
ATOM      4  C   UNL     1     -17.434   8.728   9.292  1.00  0.00    -0.000 C 
BRANCH   4   5
ATOM      5  C   UNL     1     -17.426  10.029  10.108  1.00  0.00    -0.000 C 
BRANCH   5   6
ATOM      6  C   UNL     1     -16.668   9.887  11.437  1.00  0.00    -0.003 C 
ATOM      7  C   UNL     1     -17.559  10.125  12.656  1.00  0.00     0.004 C 
ENDBRANCH   5   6
ENDBRANCH   4   5
ENDBRANCH   3   4
ENDBRANCH   2   3
ENDBRANCH   1   2
BRANCH   1   8
ATOM      8  C   UNL     1     -22.272   8.536  10.862  1.00  0.00     0.000 C 
BRANCH   8   9
ATOM      9  C   UNL     1     -23.164   7.279  10.897  1.00  0.00     0.000 C 
BRANCH   9  10
ATOM     10  C   UNL     1     -24.646   7.517  10.549  1.00  0.00     0.002 C 
BRANCH  10  11
ATOM     11  C   UNL     1     -25.594   7.626  11.759  1.00  0.00     0.028 C 
BRANCH  11  12
ATOM     12  C   UNL     1     -25.173   6.753  12.947  1.00  0.00     0.156 C 
BRANCH  12  13
ATOM     13  O   UNL     1     -26.268   6.026  13.430  1.00  0.00    -0.396 OA
ATOM     14  H   UNL     1     -26.518   6.447  14.294  1.00  0.00     0.210 HD
ENDBRANCH  12  13
ENDBRANCH  11  12
ENDBRANCH  10  11
ENDBRANCH   9  10
ENDBRANCH   8   9
ENDBRANCH   1   8
TORSDOF 11
ENDMDL
MODEL 7
REMARK VINA RESULT:    -3.640     16.191     16.914
REMARK INTER + INTRA:          -6.254
REMARK INTER:                  -5.929
REMARK INTRA:                  -0.325
REMARK UNBOUND:                -0.379
REMARK SMILES CCCCCCCCCCCCO
REMARK SMILES IDX 7 1 6 2 5 3 4 4 3 5 2 6 1 7 8 8 9 9 10 10 11 11 12 12 13 13
REMARK H PARENT 13 14
REMARK Flexibility Score: inf
ROOT
ATOM      1  C   UNL     1     -23.618  -6.365  17.792  1.00  0.00     0.000 C 
ENDROOT
BRANCH   1   2
ATOM      2  C   UNL     1     -25.055  -6.665  17.330  1.00  0.00    -0.000 C 
BRANCH   2   3
ATOM      3  C   UNL     1     -26.058  -5.594  17.787  1.00  0.00    -0.000 C 
BRANCH   3   4
ATOM      4  C   UNL     1     -27.477  -5.850  17.258  1.00  0.00    -0.000 C 
BRANCH   4   5
ATOM      5  C   UNL     1     -28.238  -4.529  17.071  1.00  0.00    -0.000 C 
BRANCH   5   6
ATOM      6  C   UNL     1     -27.301  -3.313  17.010  1.00  0.00    -0.003 C 
ATOM      7  C   UNL     1     -27.930  -2.116  16.296  1.00  0.00     0.004 C 
ENDBRANCH   5   6
ENDBRANCH   4   5
ENDBRANCH   3   4
ENDBRANCH   2   3
ENDBRANCH   1   2
BRANCH   1   8
ATOM      8  C   UNL     1     -22.556  -6.885  16.808  1.00  0.00     0.000 C 
BRANCH   8   9
ATOM      9  C   UNL     1     -21.102  -6.798  17.316  1.00  0.00     0.000 C 
BRANCH   9  10
ATOM     10  C   UNL     1     -20.613  -5.379  17.667  1.00  0.00     0.002 C 
BRANCH  10  11
ATOM     11  C   UNL     1     -19.086  -5.181  17.612  1.00  0.00     0.028 C 
BRANCH  11  12
ATOM     12  C   UNL     1     -18.552  -4.932  16.197  1.00  0.00     0.156 C 
BRANCH  12  13
ATOM     13  O   UNL     1     -18.673  -3.577  15.861  1.00  0.00    -0.396 OA
ATOM     14  H   UNL     1     -18.227  -3.073  16.590  1.00  0.00     0.210 HD
ENDBRANCH  12  13
ENDBRANCH  11  12
ENDBRANCH  10  11
ENDBRANCH   9  10
ENDBRANCH   8   9
ENDBRANCH   1   8
TORSDOF 11
ENDMDL
MODEL 8
REMARK VINA RESULT:    -3.631     14.198     17.105
REMARK INTER + INTRA:          -6.239
REMARK INTER:                  -5.834
REMARK INTRA:                  -0.405
REMARK UNBOUND:                -0.379
REMARK SMILES CCCCCCCCCCCCO
REMARK SMILES IDX 7 1 6 2 5 3 4 4 3 5 2 6 1 7 8 8 9 9 10 10 11 11 12 12 13 13
REMARK H PARENT 13 14
REMARK Flexibility Score: inf
ROOT
ATOM      1  C   UNL     1     -13.684  -4.760  18.588  1.00  0.00     0.000 C 
ENDROOT
BRANCH   1   2
ATOM      2  C   UNL     1     -12.897  -6.081  18.647  1.00  0.00    -0.000 C 
BRANCH   2   3
ATOM      3  C   UNL     1     -11.934  -6.248  17.461  1.00  0.00    -0.000 C 
BRANCH   3   4
ATOM      4  C   UNL     1     -10.540  -5.670  17.746  1.00  0.00    -0.000 C 
BRANCH   4   5
ATOM      5  C   UNL     1      -9.655  -5.730  16.492  1.00  0.00    -0.000 C 
BRANCH   5   6
ATOM      6  C   UNL     1     -10.401  -6.292  15.271  1.00  0.00    -0.003 C 
ATOM      7  C   UNL     1      -9.461  -6.683  14.132  1.00  0.00     0.004 C 
ENDBRANCH   5   6
ENDBRANCH   4   5
ENDBRANCH   3   4
ENDBRANCH   2   3
ENDBRANCH   1   2
BRANCH   1   8
ATOM      8  C   UNL     1     -15.103  -4.937  18.021  1.00  0.00     0.000 C 
BRANCH   8   9
ATOM      9  C   UNL     1     -16.241  -4.719  19.039  1.00  0.00     0.000 C 
BRANCH   9  10
ATOM     10  C   UNL     1     -17.666  -4.867  18.473  1.00  0.00     0.002 C 
BRANCH  10  11
ATOM     11  C   UNL     1     -17.766  -5.649  17.149  1.00  0.00     0.028 C 
BRANCH  11  12
ATOM     12  C   UNL     1     -18.797  -5.071  16.172  1.00  0.00     0.156 C 
BRANCH  12  13
ATOM     13  O   UNL     1     -18.602  -3.693  16.018  1.00  0.00    -0.396 OA
ATOM     14  H   UNL     1     -17.777  -3.473  16.524  1.00  0.00     0.210 HD
ENDBRANCH  12  13
ENDBRANCH  11  12
ENDBRANCH  10  11
ENDBRANCH   9  10
ENDBRANCH   8   9
ENDBRANCH   1   8
TORSDOF 11
ENDMDL
MODEL 9
REMARK VINA RESULT:    -3.503     14.645     16.798
REMARK INTER + INTRA:          -6.033
REMARK INTER:                  -4.842
REMARK INTRA:                  -1.190
REMARK UNBOUND:                -0.379
REMARK SMILES CCCCCCCCCCCCO
REMARK SMILES IDX 7 1 6 2 5 3 4 4 3 5 2 6 1 7 8 8 9 9 10 10 11 11 12 12 13 13
REMARK H PARENT 13 14
REMARK Flexibility Score: inf
ROOT
ATOM      1  C   UNL     1     -14.109  -4.548  18.294  1.00  0.00     0.000 C 
ENDROOT
BRANCH   1   2
ATOM      2  C   UNL     1     -12.927  -5.323  18.902  1.00  0.00    -0.000 C 
BRANCH   2   3
ATOM      3  C   UNL     1     -11.848  -5.667  17.863  1.00  0.00    -0.000 C 
BRANCH   3   4
ATOM      4  C   UNL     1     -12.132  -6.989  17.133  1.00  0.00    -0.000 C 
BRANCH   4   5
ATOM      5  C   UNL     1     -12.824  -7.992  18.068  1.00  0.00    -0.000 C 
BRANCH   5   6
ATOM      6  C   UNL     1     -14.139  -8.531  17.485  1.00  0.00    -0.003 C 
ATOM      7  C   UNL     1     -14.324  -8.172  16.011  1.00  0.00     0.004 C 
ENDBRANCH   5   6
ENDBRANCH   4   5
ENDBRANCH   3   4
ENDBRANCH   2   3
ENDBRANCH   1   2
BRANCH   1   8
ATOM      8  C   UNL     1     -15.473  -5.155  18.665  1.00  0.00     0.000 C 
BRANCH   8   9
ATOM      9  C   UNL     1     -16.461  -5.300  17.489  1.00  0.00     0.000 C 
BRANCH   9  10
ATOM     10  C   UNL     1     -17.345  -6.562  17.527  1.00  0.00     0.002 C 
BRANCH  10  11
ATOM     11  C   UNL     1     -18.712  -6.424  16.831  1.00  0.00     0.028 C 
BRANCH  11  12
ATOM     12  C   UNL     1     -18.961  -5.031  16.241  1.00  0.00     0.156 C 
BRANCH  12  13
ATOM     13  O   UNL     1     -18.854  -5.066  14.845  1.00  0.00    -0.396 OA
ATOM     14  H   UNL     1     -17.892  -4.933  14.640  1.00  0.00     0.210 HD
ENDBRANCH  12  13
ENDBRANCH  11  12
ENDBRANCH  10  11
ENDBRANCH   9  10
ENDBRANCH   8   9
ENDBRANCH   1   8
TORSDOF 11
ENDMDL
