MODEL 1
REMARK VINA RESULT:    -4.108      0.000      0.000
REMARK INTER + INTRA:          -4.228
REMARK INTER:                  -4.228
REMARK INTRA:                   0.000
REMARK UNBOUND:                 0.000
REMARK SMILES Nc1ncnc2nc[nH]c12
REMARK SMILES IDX 8 1 7 2 6 3 5 4 4 5 3 6 2 7 10 8 9 9 1 11
REMARK H PARENT 9 10 1 12 1 13
REMARK Flexibility Score: inf
ROOT
ATOM      1  C   UNL     1      18.643  32.258  19.744  1.00  0.00     0.199 A 
ATOM      2  N   UNL     1      19.851  32.710  19.309  1.00  0.00    -0.217 NA
ATOM      3  C   UNL     1      20.576  31.581  19.255  1.00  0.00     0.182 A 
ATOM      4  N   UNL     1      21.872  31.469  18.875  1.00  0.00    -0.215 NA
ATOM      5  C   UNL     1      22.443  30.226  18.884  1.00  0.00     0.226 A 
ATOM      6  N   UNL     1      21.714  29.129  19.267  1.00  0.00    -0.217 NA
ATOM      7  C   UNL     1      20.407  29.239  19.649  1.00  0.00     0.152 A 
ATOM      8  C   UNL     1      19.840  30.511  19.635  1.00  0.00     0.127 A 
ATOM      9  N   UNL     1      18.605  30.917  19.952  1.00  0.00    -0.340 N 
ATOM     10  H   UNL     1      17.794  30.349  20.281  1.00  0.00     0.168 HD
ENDROOT
BRANCH   7  11
ATOM     11  N   UNL     1      19.668  28.082  20.044  1.00  0.00    -0.382 N 
ATOM     12  H   UNL     1      18.636  28.044  19.887  1.00  0.00     0.158 HD
ATOM     13  H   UNL     1      20.136  27.263  20.490  1.00  0.00     0.158 HD
ENDBRANCH   7  11
TORSDOF 1
ENDMDL
MODEL 2
REMARK VINA RESULT:    -4.086     10.777     12.135
REMARK INTER + INTRA:          -4.205
REMARK INTER:                  -4.205
REMARK INTRA:                   0.000
REMARK UNBOUND:                 0.000
REMARK SMILES Nc1ncnc2nc[nH]c12
REMARK SMILES IDX 8 1 7 2 6 3 5 4 4 5 3 6 2 7 10 8 9 9 1 11
REMARK H PARENT 9 10 1 12 1 13
REMARK Flexibility Score: inf
ROOT
ATOM      1  C   UNL     1       8.242  30.435  24.895  1.00  0.00     0.199 A 
ATOM      2  N   UNL     1       7.626  31.284  24.028  1.00  0.00    -0.217 NA
ATOM      3  C   UNL     1       8.171  30.935  22.851  1.00  0.00     0.182 A 
ATOM      4  N   UNL     1       7.898  31.480  21.641  1.00  0.00    -0.215 NA
ATOM      5  C   UNL     1       8.558  30.988  20.548  1.00  0.00     0.226 A 
ATOM      6  N   UNL     1       9.467  29.970  20.683  1.00  0.00    -0.217 NA
ATOM      7  C   UNL     1       9.742  29.419  21.903  1.00  0.00     0.152 A 
ATOM      8  C   UNL     1       9.064  29.931  23.006  1.00  0.00     0.127 A 
ATOM      9  N   UNL     1       9.127  29.595  24.300  1.00  0.00    -0.340 N 
ATOM     10  H   UNL     1       9.713  28.862  24.757  1.00  0.00     0.168 HD
ENDROOT
BRANCH   7  11
ATOM     11  N   UNL     1      10.694  28.359  22.020  1.00  0.00    -0.382 N 
ATOM     12  H   UNL     1      10.756  27.630  21.276  1.00  0.00     0.158 HD
ATOM     13  H   UNL     1      11.336  28.293  22.840  1.00  0.00     0.158 HD
ENDBRANCH   7  11
TORSDOF 1
ENDMDL
MODEL 3
REMARK VINA RESULT:    -3.789     11.042     12.317
REMARK INTER + INTRA:          -3.899
REMARK INTER:                  -3.899
REMARK INTRA:                   0.000
REMARK UNBOUND:                 0.000
REMARK SMILES Nc1ncnc2nc[nH]c12
REMARK SMILES IDX 8 1 7 2 6 3 5 4 4 5 3 6 2 7 10 8 9 9 1 11
REMARK H PARENT 9 10 1 12 1 13
REMARK Flexibility Score: inf
ROOT
ATOM      1  C   UNL     1       8.325  31.985  20.386  1.00  0.00     0.199 A 
ATOM      2  N   UNL     1       7.519  32.270  21.445  1.00  0.00    -0.217 NA
ATOM      3  C   UNL     1       7.928  31.379  22.363  1.00  0.00     0.182 A 
ATOM      4  N   UNL     1       7.443  31.233  23.620  1.00  0.00    -0.215 NA
ATOM      5  C   UNL     1       7.990  30.263  24.414  1.00  0.00     0.226 A 
ATOM      6  N   UNL     1       9.002  29.467  23.943  1.00  0.00    -0.217 NA
ATOM      7  C   UNL     1       9.492  29.613  22.676  1.00  0.00     0.152 A 
ATOM      8  C   UNL     1       8.925  30.603  21.879  1.00  0.00     0.127 A 
ATOM      9  N   UNL     1       9.196  30.971  20.620  1.00  0.00    -0.340 N 
ATOM     10  H   UNL     1       9.907  30.579  19.964  1.00  0.00     0.168 HD
ENDROOT
BRANCH   7  11
ATOM     11  N   UNL     1      10.548  28.771  22.206  1.00  0.00    -0.382 N 
ATOM     12  H   UNL     1      11.537  28.985  22.460  1.00  0.00     0.158 HD
ATOM     13  H   UNL     1      10.353  27.938  21.609  1.00  0.00     0.158 HD
ENDBRANCH   7  11
TORSDOF 1
ENDMDL
MODEL 4
REMARK VINA RESULT:    -3.758      1.016      3.010
REMARK INTER + INTRA:          -3.868
REMARK INTER:                  -3.868
REMARK INTRA:                   0.000
REMARK UNBOUND:                 0.000
REMARK SMILES Nc1ncnc2nc[nH]c12
REMARK SMILES IDX 8 1 7 2 6 3 5 4 4 5 3 6 2 7 10 8 9 9 1 11
REMARK H PARENT 9 10 1 12 1 13
REMARK Flexibility Score: inf
ROOT
ATOM      1  C   UNL     1      20.375  27.648  19.739  1.00  0.00     0.199 A 
ATOM      2  N   UNL     1      21.573  28.121  19.299  1.00  0.00    -0.217 NA
ATOM      3  C   UNL     1      21.356  29.445  19.251  1.00  0.00     0.182 A 
ATOM      4  N   UNL     1      22.244  30.396  18.871  1.00  0.00    -0.215 NA
ATOM      5  C   UNL     1      21.837  31.702  18.888  1.00  0.00     0.226 A 
ATOM      6  N   UNL     1      20.565  32.030  19.282  1.00  0.00    -0.217 NA
ATOM      7  C   UNL     1      19.669  31.073  19.666  1.00  0.00     0.152 A 
ATOM      8  C   UNL     1      20.097  29.748  19.643  1.00  0.00     0.127 A 
ATOM      9  N   UNL     1      19.452  28.619  19.959  1.00  0.00    -0.340 N 
ATOM     10  H   UNL     1      18.471  28.499  20.296  1.00  0.00     0.168 HD
ENDROOT
BRANCH   7  11
ATOM     11  N   UNL     1      18.349  31.438  20.072  1.00  0.00    -0.382 N 
ATOM     12  H   UNL     1      17.902  32.298  19.683  1.00  0.00     0.158 HD
ATOM     13  H   UNL     1      17.812  30.862  20.757  1.00  0.00     0.158 HD
ENDBRANCH   7  11
TORSDOF 1
ENDMDL
MODEL 5
REMARK VINA RESULT:    -3.749      9.618     10.131
REMARK INTER + INTRA:          -3.859
REMARK INTER:                  -3.859
REMARK INTRA:                   0.000
REMARK UNBOUND:                 0.000
REMARK SMILES Nc1ncnc2nc[nH]c12
REMARK SMILES IDX 8 1 7 2 6 3 5 4 4 5 3 6 2 7 10 8 9 9 1 11
REMARK H PARENT 9 10 1 12 1 13
REMARK Flexibility Score: inf
ROOT
ATOM      1  C   UNL     1      24.898  32.465  10.352  1.00  0.00     0.199 A 
ATOM      2  N   UNL     1      24.026  33.472  10.632  1.00  0.00    -0.217 NA
ATOM      3  C   UNL     1      22.838  32.897  10.386  1.00  0.00     0.182 A 
ATOM      4  N   UNL     1      21.619  33.476  10.510  1.00  0.00    -0.215 NA
ATOM      5  C   UNL     1      20.514  32.725  10.212  1.00  0.00     0.226 A 
ATOM      6  N   UNL     1      20.648  31.423   9.801  1.00  0.00    -0.217 NA
ATOM      7  C   UNL     1      21.876  30.838   9.676  1.00  0.00     0.152 A 
ATOM      8  C   UNL     1      22.990  31.615   9.982  1.00  0.00     0.127 A 
ATOM      9  N   UNL     1      24.295  31.316   9.953  1.00  0.00    -0.340 N 
ATOM     10  H   UNL     1      24.753  30.417   9.688  1.00  0.00     0.168 HD
ENDROOT
BRANCH   7  11
ATOM     11  N   UNL     1      21.991  29.480   9.246  1.00  0.00    -0.382 N 
ATOM     12  H   UNL     1      21.274  29.074   8.605  1.00  0.00     0.158 HD
ATOM     13  H   UNL     1      22.781  28.876   9.560  1.00  0.00     0.158 HD
ENDBRANCH   7  11
TORSDOF 1
ENDMDL
MODEL 6
REMARK VINA RESULT:    -3.633     10.433     10.925
REMARK INTER + INTRA:          -3.739
REMARK INTER:                  -3.739
REMARK INTRA:                   0.000
REMARK UNBOUND:                 0.000
REMARK SMILES Nc1ncnc2nc[nH]c12
REMARK SMILES IDX 8 1 7 2 6 3 5 4 4 5 3 6 2 7 10 8 9 9 1 11
REMARK H PARENT 9 10 1 12 1 13
REMARK Flexibility Score: inf
ROOT
ATOM      1  C   UNL     1      10.121  26.008  23.372  1.00  0.00     0.199 A 
ATOM      2  N   UNL     1      10.202  25.433  22.141  1.00  0.00    -0.217 NA
ATOM      3  C   UNL     1      11.373  24.779  22.208  1.00  0.00     0.182 A 
ATOM      4  N   UNL     1      11.937  24.030  21.230  1.00  0.00    -0.215 NA
ATOM      5  C   UNL     1      13.143  23.436  21.486  1.00  0.00     0.226 A 
ATOM      6  N   UNL     1      13.755  23.599  22.702  1.00  0.00    -0.217 NA
ATOM      7  C   UNL     1      13.187  24.354  23.690  1.00  0.00     0.152 A 
ATOM      8  C   UNL     1      11.960  24.952  23.414  1.00  0.00     0.127 A 
ATOM      9  N   UNL     1      11.181  25.732  24.174  1.00  0.00    -0.340 N 
ATOM     10  H   UNL     1      11.339  26.058  25.153  1.00  0.00     0.168 HD
ENDROOT
BRANCH   7  11
ATOM     11  N   UNL     1      13.843  24.510  24.950  1.00  0.00    -0.382 N 
ATOM     12  H   UNL     1      14.232  25.439  25.223  1.00  0.00     0.158 HD
ATOM     13  H   UNL     1      13.945  23.710  25.612  1.00  0.00     0.158 HD
ENDBRANCH   7  11
TORSDOF 1
ENDMDL
MODEL 7
REMARK VINA RESULT:    -3.609     10.762     11.521
REMARK INTER + INTRA:          -3.715
REMARK INTER:                  -3.715
REMARK INTRA:                   0.000
REMARK UNBOUND:                 0.000
REMARK SMILES Nc1ncnc2nc[nH]c12
REMARK SMILES IDX 8 1 7 2 6 3 5 4 4 5 3 6 2 7 10 8 9 9 1 11
REMARK H PARENT 9 10 1 12 1 13
REMARK Flexibility Score: inf
ROOT
ATOM      1  C   UNL     1      11.765  24.499  24.538  1.00  0.00     0.199 A 
ATOM      2  N   UNL     1      11.694  23.575  23.541  1.00  0.00    -0.217 NA
ATOM      3  C   UNL     1      11.315  24.318  22.489  1.00  0.00     0.182 A 
ATOM      4  N   UNL     1      11.097  23.879  21.226  1.00  0.00    -0.215 NA
ATOM      5  C   UNL     1      10.713  24.793  20.282  1.00  0.00     0.226 A 
ATOM      6  N   UNL     1      10.559  26.114  20.615  1.00  0.00    -0.217 NA
ATOM      7  C   UNL     1      10.779  26.558  21.888  1.00  0.00     0.152 A 
ATOM      8  C   UNL     1      11.168  25.617  22.837  1.00  0.00     0.127 A 
ATOM      9  N   UNL     1      11.449  25.757  24.139  1.00  0.00    -0.340 N 
ATOM     10  H   UNL     1      11.433  26.623  24.721  1.00  0.00     0.168 HD
ENDROOT
BRANCH   7  11
ATOM     11  N   UNL     1      10.611  27.940  22.212  1.00  0.00    -0.382 N 
ATOM     12  H   UNL     1       9.654  28.328  22.363  1.00  0.00     0.158 HD
ATOM     13  H   UNL     1      11.430  28.581  22.302  1.00  0.00     0.158 HD
ENDBRANCH   7  11
TORSDOF 1
ENDMDL
MODEL 8
REMARK VINA RESULT:    -3.544     10.517     12.154
REMARK INTER + INTRA:          -3.648
REMARK INTER:                  -3.648
REMARK INTRA:                   0.000
REMARK UNBOUND:                 0.000
REMARK SMILES Nc1ncnc2nc[nH]c12
REMARK SMILES IDX 8 1 7 2 6 3 5 4 4 5 3 6 2 7 10 8 9 9 1 11
REMARK H PARENT 9 10 1 12 1 13
REMARK Flexibility Score: inf
ROOT
ATOM      1  C   UNL     1      13.279  24.300  24.293  1.00  0.00     0.199 A 
ATOM      2  N   UNL     1      12.227  23.555  24.730  1.00  0.00    -0.217 NA
ATOM      3  C   UNL     1      11.182  24.173  24.157  1.00  0.00     0.182 A 
ATOM      4  N   UNL     1       9.877  23.827  24.270  1.00  0.00    -0.215 NA
ATOM      5  C   UNL     1       8.949  24.583  23.607  1.00  0.00     0.226 A 
ATOM      6  N   UNL     1       9.339  25.658  22.850  1.00  0.00    -0.217 NA
ATOM      7  C   UNL     1      10.654  26.008  22.735  1.00  0.00     0.152 A 
ATOM      8  C   UNL     1      11.587  25.230  23.416  1.00  0.00     0.127 A 
ATOM      9  N   UNL     1      12.920  25.332  23.487  1.00  0.00    -0.340 N 
ATOM     10  H   UNL     1      13.547  26.033  23.034  1.00  0.00     0.168 HD
ENDROOT
BRANCH   7  11
ATOM     11  N   UNL     1      11.037  27.133  21.941  1.00  0.00    -0.382 N 
ATOM     12  H   UNL     1      11.698  27.843  22.327  1.00  0.00     0.158 HD
ATOM     13  H   UNL     1      10.669  27.267  20.974  1.00  0.00     0.158 HD
ENDBRANCH   7  11
TORSDOF 1
ENDMDL
MODEL 9
REMARK VINA RESULT:    -3.498     11.315     12.831
REMARK INTER + INTRA:          -3.600
REMARK INTER:                  -3.600
REMARK INTRA:                   0.000
REMARK UNBOUND:                 0.000
REMARK SMILES Nc1ncnc2nc[nH]c12
REMARK SMILES IDX 8 1 7 2 6 3 5 4 4 5 3 6 2 7 10 8 9 9 1 11
REMARK H PARENT 9 10 1 12 1 13
REMARK Flexibility Score: inf
ROOT
ATOM      1  C   UNL     1       9.698  22.210  25.612  1.00  0.00     0.199 A 
ATOM      2  N   UNL     1      10.941  21.655  25.613  1.00  0.00    -0.217 NA
ATOM      3  C   UNL     1      11.703  22.662  25.157  1.00  0.00     0.182 A 
ATOM      4  N   UNL     1      13.044  22.637  24.964  1.00  0.00    -0.215 NA
ATOM      5  C   UNL     1      13.649  23.769  24.489  1.00  0.00     0.226 A 
ATOM      6  N   UNL     1      12.910  24.893  24.221  1.00  0.00    -0.217 NA
ATOM      7  C   UNL     1      11.558  24.920  24.415  1.00  0.00     0.152 A 
ATOM      8  C   UNL     1      10.957  23.760  24.898  1.00  0.00     0.127 A 
ATOM      9  N   UNL     1       9.675  23.497  25.180  1.00  0.00    -0.340 N 
ATOM     10  H   UNL     1       8.845  24.123  25.094  1.00  0.00     0.168 HD
ENDROOT
BRANCH   7  11
ATOM     11  N   UNL     1      10.809  26.102  24.128  1.00  0.00    -0.382 N 
ATOM     12  H   UNL     1      10.257  26.566  24.883  1.00  0.00     0.158 HD
ATOM     13  H   UNL     1      10.798  26.520  23.172  1.00  0.00     0.158 HD
ENDBRANCH   7  11
TORSDOF 1
ENDMDL
