MODEL 1
REMARK VINA RESULT:    -5.296      0.000      0.000
REMARK INTER + INTRA:          -8.291
REMARK INTER:                  -8.082
REMARK INTRA:                  -0.208
REMARK UNBOUND:                -0.208
REMARK SMILES CC1=CCC[C@H](C)C(=O)C[C@@H](C(C)C)C(=O)C1
REMARK SMILES IDX 8 1 9 2 6 3 7 4 5 5 4 6 3 7 2 8 1 9 10 11 11 12 15 13 16 14
REMARK SMILES IDX 17 15 12 17 13 18 14 19
REMARK H PARENT
REMARK Flexibility Score: 70.00
ROOT
ATOM      1  C   UNL     1      26.203  57.113 140.264  1.00  0.00     0.136 C 
ATOM      2  O   UNL     1      25.052  56.700 140.319  1.00  0.00    -0.299 OA
ENDROOT
BRANCH   1   3
ATOM      3  C   UNL     1      26.657  57.919 139.064  1.00  0.00     0.053 C 
ATOM      4  C   UNL     1      25.985  57.369 137.801  1.00  0.00     0.016 C 
BRANCH   3   5
ATOM      5  C   UNL     1      26.340  59.423 139.228  1.00  0.00     0.015 C 
BRANCH   5   6
ATOM      6  C   UNL     1      27.587  60.318 139.160  1.00  0.00     0.028 C 
BRANCH   6   7
ATOM      7  C   UNL     1      28.847  59.493 139.043  1.00  0.00    -0.028 C 
ATOM      8  C   UNL     1      29.674  59.168 140.064  1.00  0.00    -0.070 CG0
ATOM      9  C   UNL     1      30.891  58.335 139.749  1.00  0.00     0.039 C 
ATOM     10  G   UNL     1      29.415  59.568 141.503  1.00  0.00     0.000 G0
ENDBRANCH   6   7
ENDBRANCH   5   6
ENDBRANCH   3   5
ENDBRANCH   1   3
BRANCH   1  11
ATOM     11  C   UNL     1      27.150  56.792 141.391  1.00  0.00     0.087 C 
BRANCH  11  12
ATOM     12  C   UNL     1      27.411  58.024 142.295  1.00  0.00     0.066 C 
BRANCH  12  13
ATOM     13  C   UNL     1      28.886  58.383 142.311  1.00  0.00     0.140 C 
ATOM     14  O   UNL     1      29.660  57.747 143.013  1.00  0.00    -0.299 OA
BRANCH  13  15
ATOM     15  C   UNL     1      29.418  59.551 141.521  1.00  0.00     0.106 CG0
ATOM     16  G   UNL     1      29.667  59.160 140.078  1.00  0.00     0.000 G0
ENDBRANCH  13  15
ENDBRANCH  12  13
BRANCH  12  17
ATOM     17  C   UNL     1      26.877  57.850 143.752  1.00  0.00    -0.006 C 
ATOM     18  C   UNL     1      25.738  56.823 143.881  1.00  0.00     0.008 C 
ATOM     19  C   UNL     1      26.446  59.193 144.364  1.00  0.00     0.008 C 
ENDBRANCH  12  17
ENDBRANCH  11  12
ENDBRANCH   1  11
TORSDOF 1
ENDMDL
MODEL 2
REMARK VINA RESULT:    -5.229      1.693      4.023
REMARK INTER + INTRA:          -8.188
REMARK INTER:                  -7.924
REMARK INTRA:                  -0.265
REMARK UNBOUND:                -0.208
REMARK SMILES CC1=CCC[C@H](C)C(=O)C[C@@H](C(C)C)C(=O)C1
REMARK SMILES IDX 8 1 9 2 6 3 7 4 5 5 4 6 3 7 2 8 1 9 10 11 11 12 15 13 16 14
REMARK SMILES IDX 17 15 12 17 13 18 14 19
REMARK H PARENT
REMARK Flexibility Score: 70.00
ROOT
ATOM      1  C   UNL     1      26.468  57.177 142.271  1.00  0.00     0.136 C 
ATOM      2  O   UNL     1      26.132  56.229 142.968  1.00  0.00    -0.299 OA
ENDROOT
BRANCH   1   3
ATOM      3  C   UNL     1      27.304  58.291 142.866  1.00  0.00     0.053 C 
ATOM      4  C   UNL     1      26.691  58.727 144.201  1.00  0.00     0.016 C 
BRANCH   3   5
ATOM      5  C   UNL     1      28.775  57.861 143.068  1.00  0.00     0.015 C 
BRANCH   5   6
ATOM      6  C   UNL     1      29.718  58.389 141.976  1.00  0.00     0.028 C 
BRANCH   6   7
ATOM      7  C   UNL     1      29.096  59.543 141.227  1.00  0.00    -0.028 C 
ATOM      8  C   UNL     1      28.739  59.536 139.921  1.00  0.00    -0.070 CG0
ATOM      9  C   UNL     1      28.133  60.792 139.348  1.00  0.00     0.039 C 
ATOM     10  G   UNL     1      28.887  58.321 139.026  1.00  0.00     0.000 G0
ENDBRANCH   6   7
ENDBRANCH   5   6
ENDBRANCH   3   5
ENDBRANCH   1   3
BRANCH   1  11
ATOM     11  C   UNL     1      26.023  57.221 140.832  1.00  0.00     0.087 C 
BRANCH  11  12
ATOM     12  C   UNL     1      27.076  56.593 139.882  1.00  0.00     0.066 C 
BRANCH  12  13
ATOM     13  C   UNL     1      27.557  57.607 138.859  1.00  0.00     0.140 C 
ATOM     14  O   UNL     1      26.886  57.830 137.861  1.00  0.00    -0.299 OA
BRANCH  13  15
ATOM     15  C   UNL     1      28.881  58.311 139.014  1.00  0.00     0.106 CG0
ATOM     16  G   UNL     1      28.744  59.530 139.905  1.00  0.00     0.000 G0
ENDBRANCH  13  15
ENDBRANCH  12  13
BRANCH  12  17
ATOM     17  C   UNL     1      26.577  55.297 139.170  1.00  0.00    -0.006 C 
ATOM     18  C   UNL     1      25.173  54.846 139.607  1.00  0.00     0.008 C 
ATOM     19  C   UNL     1      27.575  54.139 139.331  1.00  0.00     0.008 C 
ENDBRANCH  12  17
ENDBRANCH  11  12
ENDBRANCH   1  11
TORSDOF 1
ENDMDL
MODEL 3
REMARK VINA RESULT:    -5.171      1.759      3.057
REMARK INTER + INTRA:          -8.100
REMARK INTER:                  -8.227
REMARK INTRA:                   0.128
REMARK UNBOUND:                -0.208
REMARK SMILES CC1=CCC[C@H](C)C(=O)C[C@@H](C(C)C)C(=O)C1
REMARK SMILES IDX 8 1 9 2 6 3 7 4 5 5 4 6 3 7 2 8 1 9 10 11 11 12 15 13 16 14
REMARK SMILES IDX 17 15 12 17 13 18 14 19
REMARK H PARENT
REMARK Flexibility Score: 70.00
ROOT
ATOM      1  C   UNL     1      27.467  58.092 138.286  1.00  0.00     0.136 C 
ATOM      2  O   UNL     1      26.932  57.672 137.269  1.00  0.00    -0.299 OA
ENDROOT
BRANCH   1   3
ATOM      3  C   UNL     1      27.976  59.518 138.336  1.00  0.00     0.053 C 
ATOM      4  C   UNL     1      28.210  60.024 136.909  1.00  0.00     0.016 C 
BRANCH   3   5
ATOM      5  C   UNL     1      26.995  60.452 139.081  1.00  0.00     0.015 C 
BRANCH   5   6
ATOM      6  C   UNL     1      27.572  61.023 140.386  1.00  0.00     0.028 C 
BRANCH   6   7
ATOM      7  C   UNL     1      28.700  60.165 140.908  1.00  0.00    -0.028 C 
ATOM      8  C   UNL     1      28.575  59.155 141.799  1.00  0.00    -0.070 CG0
ATOM      9  C   UNL     1      29.823  58.411 142.204  1.00  0.00     0.039 C 
ATOM     10  G   UNL     1      27.243  58.716 142.377  1.00  0.00     0.000 G0
ENDBRANCH   6   7
ENDBRANCH   5   6
ENDBRANCH   3   5
ENDBRANCH   1   3
BRANCH   1  11
ATOM     11  C   UNL     1      27.624  57.167 139.465  1.00  0.00     0.087 C 
BRANCH  11  12
ATOM     12  C   UNL     1      26.380  57.192 140.389  1.00  0.00     0.066 C 
BRANCH  12  13
ATOM     13  C   UNL     1      26.785  57.366 141.842  1.00  0.00     0.140 C 
ATOM     14  O   UNL     1      26.715  56.417 142.611  1.00  0.00    -0.299 OA
BRANCH  13  15
ATOM     15  C   UNL     1      27.221  58.704 142.380  1.00  0.00     0.106 CG0
ATOM     16  G   UNL     1      28.559  59.113 141.796  1.00  0.00     0.000 G0
ENDBRANCH  13  15
ENDBRANCH  12  13
BRANCH  12  17
ATOM     17  C   UNL     1      25.459  55.941 140.227  1.00  0.00    -0.006 C 
ATOM     18  C   UNL     1      26.076  54.819 139.375  1.00  0.00     0.008 C 
ATOM     19  C   UNL     1      24.075  56.321 139.674  1.00  0.00     0.008 C 
ENDBRANCH  12  17
ENDBRANCH  11  12
ENDBRANCH   1  11
TORSDOF 1
ENDMDL
MODEL 4
REMARK VINA RESULT:    -4.777      1.860      4.179
REMARK INTER + INTRA:          -7.499
REMARK INTER:                  -7.796
REMARK INTRA:                   0.297
REMARK UNBOUND:                -0.208
REMARK SMILES CC1=CCC[C@H](C)C(=O)C[C@@H](C(C)C)C(=O)C1
REMARK SMILES IDX 8 1 9 2 6 3 7 4 5 5 4 6 3 7 2 8 1 9 10 11 11 12 15 13 16 14
REMARK SMILES IDX 17 15 12 17 13 18 14 19
REMARK H PARENT
REMARK Flexibility Score: 70.00
ROOT
ATOM      1  C   UNL     1      25.579  57.705 138.962  1.00  0.00     0.136 C 
ATOM      2  O   UNL     1      25.643  57.390 137.781  1.00  0.00    -0.299 OA
ENDROOT
BRANCH   1   3
ATOM      3  C   UNL     1      24.924  56.769 139.957  1.00  0.00     0.053 C 
ATOM      4  C   UNL     1      23.625  56.220 139.358  1.00  0.00     0.016 C 
BRANCH   3   5
ATOM      5  C   UNL     1      25.862  55.607 140.356  1.00  0.00     0.015 C 
BRANCH   5   6
ATOM      6  C   UNL     1      27.017  56.045 141.270  1.00  0.00     0.028 C 
BRANCH   6   7
ATOM      7  C   UNL     1      26.501  56.608 142.573  1.00  0.00    -0.028 C 
ATOM      8  C   UNL     1      26.959  57.724 143.186  1.00  0.00    -0.070 CG0
ATOM      9  C   UNL     1      26.316  58.128 144.489  1.00  0.00     0.039 C 
ATOM     10  G   UNL     1      28.053  58.601 142.608  1.00  0.00     0.000 G0
ENDBRANCH   6   7
ENDBRANCH   5   6
ENDBRANCH   3   5
ENDBRANCH   1   3
BRANCH   1  11
ATOM     11  C   UNL     1      26.140  59.035 139.395  1.00  0.00     0.087 C 
BRANCH  11  12
ATOM     12  C   UNL     1      27.543  58.887 140.039  1.00  0.00     0.066 C 
BRANCH  12  13
ATOM     13  C   UNL     1      27.549  59.429 141.458  1.00  0.00     0.140 C 
ATOM     14  O   UNL     1      27.178  60.574 141.674  1.00  0.00    -0.299 OA
BRANCH  13  15
ATOM     15  C   UNL     1      28.058  58.603 142.611  1.00  0.00     0.106 CG0
ATOM     16  G   UNL     1      26.948  57.755 143.201  1.00  0.00     0.000 G0
ENDBRANCH  13  15
ENDBRANCH  12  13
BRANCH  12  17
ATOM     17  C   UNL     1      28.685  59.544 139.201  1.00  0.00    -0.006 C 
ATOM     18  C   UNL     1      28.394  59.605 137.691  1.00  0.00     0.008 C 
ATOM     19  C   UNL     1      30.039  58.859 139.449  1.00  0.00     0.008 C 
ENDBRANCH  12  17
ENDBRANCH  11  12
ENDBRANCH   1  11
TORSDOF 1
ENDMDL
MODEL 5
REMARK VINA RESULT:    -4.720      1.740      3.809
REMARK INTER + INTRA:          -7.411
REMARK INTER:                  -8.112
REMARK INTRA:                   0.700
REMARK UNBOUND:                -0.208
REMARK SMILES CC1=CCC[C@H](C)C(=O)C[C@@H](C(C)C)C(=O)C1
REMARK SMILES IDX 8 1 9 2 6 3 7 4 5 5 4 6 3 7 2 8 1 9 10 11 11 12 15 13 16 14
REMARK SMILES IDX 17 15 12 17 13 18 14 19
REMARK H PARENT
REMARK Flexibility Score: 70.00
ROOT
ATOM      1  C   UNL     1      27.096  56.017 140.130  1.00  0.00     0.136 C 
ATOM      2  O   UNL     1      26.881  54.971 139.532  1.00  0.00    -0.299 OA
ENDROOT
BRANCH   1   3
ATOM      3  C   UNL     1      25.961  56.729 140.836  1.00  0.00     0.053 C 
ATOM      4  C   UNL     1      24.634  56.359 140.164  1.00  0.00     0.016 C 
BRANCH   3   5
ATOM      5  C   UNL     1      25.913  56.381 142.342  1.00  0.00     0.015 C 
BRANCH   5   6
ATOM      6  C   UNL     1      26.965  57.132 143.173  1.00  0.00     0.028 C 
BRANCH   6   7
ATOM      7  C   UNL     1      26.838  58.626 142.995  1.00  0.00    -0.028 C 
ATOM      8  C   UNL     1      27.741  59.427 142.383  1.00  0.00    -0.070 CG0
ATOM      9  C   UNL     1      27.439  60.902 142.306  1.00  0.00     0.039 C 
ATOM     10  G   UNL     1      29.015  58.908 141.745  1.00  0.00     0.000 G0
ENDBRANCH   6   7
ENDBRANCH   5   6
ENDBRANCH   3   5
ENDBRANCH   1   3
BRANCH   1  11
ATOM     11  C   UNL     1      28.492  56.585 140.131  1.00  0.00     0.087 C 
BRANCH  11  12
ATOM     12  C   UNL     1      28.575  57.915 139.338  1.00  0.00     0.066 C 
BRANCH  12  13
ATOM     13  C   UNL     1      28.988  59.062 140.244  1.00  0.00     0.140 C 
ATOM     14  O   UNL     1      29.340  60.127 139.755  1.00  0.00    -0.299 OA
BRANCH  13  15
ATOM     15  C   UNL     1      29.029  58.904 141.741  1.00  0.00     0.106 CG0
ATOM     16  G   UNL     1      27.749  59.413 142.375  1.00  0.00     0.000 G0
ENDBRANCH  13  15
ENDBRANCH  12  13
BRANCH  12  17
ATOM     17  C   UNL     1      27.260  58.269 138.576  1.00  0.00    -0.006 C 
ATOM     18  C   UNL     1      27.368  58.129 137.048  1.00  0.00     0.008 C 
ATOM     19  C   UNL     1      26.751  59.673 138.940  1.00  0.00     0.008 C 
ENDBRANCH  12  17
ENDBRANCH  11  12
ENDBRANCH   1  11
TORSDOF 1
ENDMDL
MODEL 6
REMARK VINA RESULT:    -4.698      1.166      1.530
REMARK INTER + INTRA:          -7.378
REMARK INTER:                  -7.106
REMARK INTRA:                  -0.272
REMARK UNBOUND:                -0.208
REMARK SMILES CC1=CCC[C@H](C)C(=O)C[C@@H](C(C)C)C(=O)C1
REMARK SMILES IDX 8 1 9 2 6 3 7 4 5 5 4 6 3 7 2 8 1 9 10 11 11 12 15 13 16 14
REMARK SMILES IDX 17 15 12 17 13 18 14 19
REMARK H PARENT
REMARK Flexibility Score: 70.00
ROOT
ATOM      1  C   UNL     1      26.007  56.626 141.157  1.00  0.00     0.136 C 
ATOM      2  O   UNL     1      24.800  56.636 141.355  1.00  0.00    -0.299 OA
ENDROOT
BRANCH   1   3
ATOM      3  C   UNL     1      26.544  56.267 139.787  1.00  0.00     0.053 C 
ATOM      4  C   UNL     1      26.057  54.866 139.403  1.00  0.00     0.016 C 
BRANCH   3   5
ATOM      5  C   UNL     1      26.116  57.295 138.715  1.00  0.00     0.015 C 
BRANCH   5   6
ATOM      6  C   UNL     1      27.184  58.366 138.439  1.00  0.00     0.028 C 
BRANCH   6   7
ATOM      7  C   UNL     1      28.574  57.779 138.493  1.00  0.00    -0.028 C 
ATOM      8  C   UNL     1      29.536  58.110 139.385  1.00  0.00    -0.070 CG0
ATOM      9  C   UNL     1      30.870  57.414 139.277  1.00  0.00     0.039 C 
ATOM     10  G   UNL     1      29.324  59.114 140.502  1.00  0.00     0.000 G0
ENDBRANCH   6   7
ENDBRANCH   5   6
ENDBRANCH   3   5
ENDBRANCH   1   3
BRANCH   1  11
ATOM     11  C   UNL     1      26.937  56.955 142.297  1.00  0.00     0.087 C 
BRANCH  11  12
ATOM     12  C   UNL     1      27.459  58.413 142.214  1.00  0.00     0.066 C 
BRANCH  12  13
ATOM     13  C   UNL     1      28.918  58.445 141.796  1.00  0.00     0.140 C 
ATOM     14  O   UNL     1      29.770  57.955 142.524  1.00  0.00    -0.299 OA
BRANCH  13  15
ATOM     15  C   UNL     1      29.355  59.122 140.523  1.00  0.00     0.106 CG0
ATOM     16  G   UNL     1      29.536  58.111 139.407  1.00  0.00     0.000 G0
ENDBRANCH  13  15
ENDBRANCH  12  13
BRANCH  12  17
ATOM     17  C   UNL     1      27.252  59.223 143.532  1.00  0.00    -0.006 C 
ATOM     18  C   UNL     1      26.328  58.533 144.551  1.00  0.00     0.008 C 
ATOM     19  C   UNL     1      26.751  60.650 143.251  1.00  0.00     0.008 C 
ENDBRANCH  12  17
ENDBRANCH  11  12
ENDBRANCH   1  11
TORSDOF 1
ENDMDL
MODEL 7
REMARK VINA RESULT:    -4.577      2.288      4.010
REMARK INTER + INTRA:          -7.194
REMARK INTER:                  -7.302
REMARK INTRA:                   0.108
REMARK UNBOUND:                -0.208
REMARK SMILES CC1=CCC[C@H](C)C(=O)C[C@@H](C(C)C)C(=O)C1
REMARK SMILES IDX 8 1 9 2 6 3 7 4 5 5 4 6 3 7 2 8 1 9 10 11 11 12 15 13 16 14
REMARK SMILES IDX 17 15 12 17 13 18 14 19
REMARK H PARENT
REMARK Flexibility Score: 70.00
ROOT
ATOM      1  C   UNL     1      28.056  59.849 139.905  1.00  0.00     0.136 C 
ATOM      2  O   UNL     1      28.465  60.924 140.324  1.00  0.00    -0.299 OA
ENDROOT
BRANCH   1   3
ATOM      3  C   UNL     1      28.552  59.319 138.576  1.00  0.00     0.053 C 
ATOM      4  C   UNL     1      29.399  58.065 138.815  1.00  0.00     0.016 C 
BRANCH   3   5
ATOM      5  C   UNL     1      27.386  59.002 137.612  1.00  0.00     0.015 C 
BRANCH   5   6
ATOM      6  C   UNL     1      27.111  57.497 137.465  1.00  0.00     0.028 C 
BRANCH   6   7
ATOM      7  C   UNL     1      25.721  57.145 137.940  1.00  0.00    -0.028 C 
ATOM      8  C   UNL     1      25.426  56.386 139.021  1.00  0.00    -0.070 CG0
ATOM      9  C   UNL     1      23.971  56.141 139.335  1.00  0.00     0.039 C 
ATOM     10  G   UNL     1      26.480  55.807 139.943  1.00  0.00     0.000 G0
ENDBRANCH   6   7
ENDBRANCH   5   6
ENDBRANCH   3   5
ENDBRANCH   1   3
BRANCH   1  11
ATOM     11  C   UNL     1      27.046  59.084 140.721  1.00  0.00     0.087 C 
BRANCH  11  12
ATOM     12  C   UNL     1      27.634  57.762 141.277  1.00  0.00     0.066 C 
BRANCH  12  13
ATOM     13  C   UNL     1      26.618  56.636 141.192  1.00  0.00     0.140 C 
ATOM     14  O   UNL     1      25.933  56.360 142.167  1.00  0.00    -0.299 OA
BRANCH  13  15
ATOM     15  C   UNL     1      26.471  55.805 139.944  1.00  0.00     0.106 CG0
ATOM     16  G   UNL     1      25.409  56.385 139.030  1.00  0.00     0.000 G0
ENDBRANCH  13  15
ENDBRANCH  12  13
BRANCH  12  17
ATOM     17  C   UNL     1      28.185  57.888 142.732  1.00  0.00    -0.006 C 
ATOM     18  C   UNL     1      27.466  58.952 143.580  1.00  0.00     0.008 C 
ATOM     19  C   UNL     1      29.702  58.142 142.747  1.00  0.00     0.008 C 
ENDBRANCH  12  17
ENDBRANCH  11  12
ENDBRANCH   1  11
TORSDOF 1
ENDMDL
MODEL 8
REMARK VINA RESULT:    -4.558      2.153      5.015
REMARK INTER + INTRA:          -7.164
REMARK INTER:                  -7.933
REMARK INTRA:                   0.769
REMARK UNBOUND:                -0.208
REMARK SMILES CC1=CCC[C@H](C)C(=O)C[C@@H](C(C)C)C(=O)C1
REMARK SMILES IDX 8 1 9 2 6 3 7 4 5 5 4 6 3 7 2 8 1 9 10 11 11 12 15 13 16 14
REMARK SMILES IDX 17 15 12 17 13 18 14 19
REMARK H PARENT
REMARK Flexibility Score: 70.00
ROOT
ATOM      1  C   UNL     1      28.456  59.975 140.385  1.00  0.00     0.136 C 
ATOM      2  O   UNL     1      29.009  61.033 140.116  1.00  0.00    -0.299 OA
ENDROOT
BRANCH   1   3
ATOM      3  C   UNL     1      29.284  58.773 140.792  1.00  0.00     0.053 C 
ATOM      4  C   UNL     1      30.740  58.995 140.369  1.00  0.00     0.016 C 
BRANCH   3   5
ATOM      5  C   UNL     1      29.203  58.509 142.313  1.00  0.00     0.015 C 
BRANCH   5   6
ATOM      6  C   UNL     1      28.142  57.463 142.692  1.00  0.00     0.028 C 
BRANCH   6   7
ATOM      7  C   UNL     1      28.019  56.398 141.627  1.00  0.00    -0.028 C 
ATOM      8  C   UNL     1      26.996  56.276 140.749  1.00  0.00    -0.070 CG0
ATOM      9  C   UNL     1      27.048  55.141 139.758  1.00  0.00     0.039 C 
ATOM     10  G   UNL     1      25.829  57.242 140.693  1.00  0.00     0.000 G0
ENDBRANCH   6   7
ENDBRANCH   5   6
ENDBRANCH   3   5
ENDBRANCH   1   3
BRANCH   1  11
ATOM     11  C   UNL     1      26.955  59.889 140.284  1.00  0.00     0.087 C 
BRANCH  11  12
ATOM     12  C   UNL     1      26.503  59.161 138.992  1.00  0.00     0.066 C 
BRANCH  12  13
ATOM     13  C   UNL     1      25.730  57.896 139.323  1.00  0.00     0.140 C 
ATOM     14  O   UNL     1      24.978  57.408 138.491  1.00  0.00    -0.299 OA
BRANCH  13  15
ATOM     15  C   UNL     1      25.823  57.253 140.682  1.00  0.00     0.106 CG0
ATOM     16  G   UNL     1      26.996  56.294 140.747  1.00  0.00     0.000 G0
ENDBRANCH  13  15
ENDBRANCH  12  13
BRANCH  12  17
ATOM     17  C   UNL     1      27.677  58.841 138.015  1.00  0.00    -0.006 C 
ATOM     18  C   UNL     1      28.008  59.986 137.041  1.00  0.00     0.008 C 
ATOM     19  C   UNL     1      27.429  57.541 137.232  1.00  0.00     0.008 C 
ENDBRANCH  12  17
ENDBRANCH  11  12
ENDBRANCH   1  11
TORSDOF 1
ENDMDL
MODEL 9
REMARK VINA RESULT:    -4.555      1.766      4.053
REMARK INTER + INTRA:          -7.160
REMARK INTER:                  -7.627
REMARK INTRA:                   0.468
REMARK UNBOUND:                -0.208
REMARK SMILES CC1=CCC[C@H](C)C(=O)C[C@@H](C(C)C)C(=O)C1
REMARK SMILES IDX 8 1 9 2 6 3 7 4 5 5 4 6 3 7 2 8 1 9 10 11 11 12 15 13 16 14
REMARK SMILES IDX 17 15 12 17 13 18 14 19
REMARK H PARENT
REMARK Flexibility Score: 70.00
ROOT
ATOM      1  C   UNL     1      25.440  57.411 139.529  1.00  0.00     0.136 C 
ATOM      2  O   UNL     1      24.394  57.204 138.929  1.00  0.00    -0.299 OA
ENDROOT
BRANCH   1   3
ATOM      3  C   UNL     1      25.913  56.429 140.581  1.00  0.00     0.053 C 
ATOM      4  C   UNL     1      26.823  55.385 139.926  1.00  0.00     0.016 C 
BRANCH   3   5
ATOM      5  C   UNL     1      26.657  57.139 141.735  1.00  0.00     0.015 C 
BRANCH   5   6
ATOM      6  C   UNL     1      28.111  56.670 141.901  1.00  0.00     0.028 C 
BRANCH   6   7
ATOM      7  C   UNL     1      28.990  57.784 142.418  1.00  0.00    -0.028 C 
ATOM      8  C   UNL     1      29.792  58.570 141.663  1.00  0.00    -0.070 CG0
ATOM      9  C   UNL     1      30.601  59.633 142.364  1.00  0.00     0.039 C 
ATOM     10  G   UNL     1      29.885  58.458 140.154  1.00  0.00     0.000 G0
ENDBRANCH   6   7
ENDBRANCH   5   6
ENDBRANCH   3   5
ENDBRANCH   1   3
BRANCH   1  11
ATOM     11  C   UNL     1      26.226  58.659 139.217  1.00  0.00     0.087 C 
BRANCH  11  12
ATOM     12  C   UNL     1      27.662  58.330 138.733  1.00  0.00     0.066 C 
BRANCH  12  13
ATOM     13  C   UNL     1      28.692  59.138 139.503  1.00  0.00     0.140 C 
ATOM     14  O   UNL     1      28.592  60.356 139.560  1.00  0.00    -0.299 OA
BRANCH  13  15
ATOM     15  C   UNL     1      29.879  58.478 140.156  1.00  0.00     0.106 CG0
ATOM     16  G   UNL     1      29.782  58.565 141.667  1.00  0.00     0.000 G0
ENDBRANCH  13  15
ENDBRANCH  12  13
BRANCH  12  17
ATOM     17  C   UNL     1      27.860  58.519 137.196  1.00  0.00    -0.006 C 
ATOM     18  C   UNL     1      27.499  59.927 136.690  1.00  0.00     0.008 C 
ATOM     19  C   UNL     1      27.095  57.458 136.389  1.00  0.00     0.008 C 
ENDBRANCH  12  17
ENDBRANCH  11  12
ENDBRANCH   1  11
TORSDOF 1
ENDMDL
