MODEL 1
REMARK VINA RESULT:    -5.824      0.000      0.000
REMARK INTER + INTRA:          -6.682
REMARK INTER:                  -6.335
REMARK INTRA:                  -0.347
REMARK UNBOUND:                -0.347
REMARK SMILES CC1=C[C@@H]2[C@@H](C(C)C)CC[C@@](C)(O)[C@H]2CC1
REMARK SMILES IDX 1 1 2 2 3 3 4 4 5 5 9 6 10 7 11 8 14 9 15 10 16 11 12 12
REMARK SMILES IDX 6 13 7 14 8 15 13 16
REMARK H PARENT 13 17
REMARK Flexibility Score: inf
ROOT
ATOM      1  C   UNL     1     114.379 120.915 133.738  1.00  0.00     0.039 C 
ATOM      2  C   UNL     1     114.641 121.019 132.259  1.00  0.00    -0.077 C 
ATOM      3  C   UNL     1     115.272 122.113 131.781  1.00  0.00    -0.024 C 
ATOM      4  C   UNL     1     115.627 122.304 130.312  1.00  0.00     0.021 C 
ATOM      5  C   UNL     1     115.493 123.808 129.900  1.00  0.00    -0.001 C 
ATOM      6  C   UNL     1     115.224 123.986 128.375  1.00  0.00     0.007 C 
ATOM      7  C   UNL     1     115.826 122.854 127.534  1.00  0.00     0.035 C 
ATOM      8  C   UNL     1     115.229 121.460 127.897  1.00  0.00     0.065 C 
ATOM      9  C   UNL     1     114.757 121.402 129.397  1.00  0.00     0.028 C 
ATOM     10  C   UNL     1     114.727 119.967 129.960  1.00  0.00     0.011 C 
ATOM     11  C   UNL     1     114.076 119.956 131.344  1.00  0.00     0.031 C 
ATOM     12  C   UNL     1     114.025 121.177 126.975  1.00  0.00     0.042 C 
ENDROOT
BRANCH   5  13
ATOM     13  C   UNL     1     116.683 124.683 130.429  1.00  0.00    -0.014 C 
ATOM     14  C   UNL     1     118.072 124.051 130.226  1.00  0.00     0.007 C 
ATOM     15  C   UNL     1     116.656 126.098 129.828  1.00  0.00     0.007 C 
ENDBRANCH   5  13
BRANCH   8  16
ATOM     16  O   UNL     1     116.195 120.467 127.634  1.00  0.00    -0.390 OA
ATOM     17  H   UNL     1     116.993 120.909 127.242  1.00  0.00     0.211 HD
ENDBRANCH   8  16
TORSDOF 2
ENDMDL
MODEL 2
REMARK VINA RESULT:    -5.693      2.090      4.165
REMARK INTER + INTRA:          -6.538
REMARK INTER:                  -6.247
REMARK INTRA:                  -0.291
REMARK UNBOUND:                -0.347
REMARK SMILES CC1=C[C@@H]2[C@@H](C(C)C)CC[C@@](C)(O)[C@H]2CC1
REMARK SMILES IDX 1 1 2 2 3 3 4 4 5 5 9 6 10 7 11 8 14 9 15 10 16 11 12 12
REMARK SMILES IDX 6 13 7 14 8 15 13 16
REMARK H PARENT 13 17
REMARK Flexibility Score: inf
ROOT
ATOM      1  C   UNL     1     113.631 121.178 125.779  1.00  0.00     0.039 C 
ATOM      2  C   UNL     1     114.256 121.714 127.040  1.00  0.00    -0.077 C 
ATOM      3  C   UNL     1     115.136 122.733 126.953  1.00  0.00    -0.024 C 
ATOM      4  C   UNL     1     115.794 123.381 128.165  1.00  0.00     0.021 C 
ATOM      5  C   UNL     1     117.264 123.807 127.837  1.00  0.00    -0.001 C 
ATOM      6  C   UNL     1     118.162 123.878 129.109  1.00  0.00     0.007 C 
ATOM      7  C   UNL     1     117.365 124.226 130.373  1.00  0.00     0.035 C 
ATOM      8  C   UNL     1     116.273 123.162 130.700  1.00  0.00     0.065 C 
ATOM      9  C   UNL     1     115.755 122.443 129.400  1.00  0.00     0.028 C 
ATOM     10  C   UNL     1     114.337 121.859 129.564  1.00  0.00     0.011 C 
ATOM     11  C   UNL     1     113.971 121.008 128.347  1.00  0.00     0.031 C 
ATOM     12  C   UNL     1     116.870 122.112 131.658  1.00  0.00     0.042 C 
ENDROOT
BRANCH   5  13
ATOM     13  C   UNL     1     117.330 125.102 126.954  1.00  0.00    -0.014 C 
ATOM     14  C   UNL     1     116.629 126.325 127.572  1.00  0.00     0.007 C 
ATOM     15  C   UNL     1     118.779 125.459 126.579  1.00  0.00     0.007 C 
ENDBRANCH   5  13
BRANCH   8  16
ATOM     16  O   UNL     1     115.213 123.792 131.384  1.00  0.00    -0.390 OA
ATOM     17  H   UNL     1     114.794 123.124 131.986  1.00  0.00     0.211 HD
ENDBRANCH   8  16
TORSDOF 2
ENDMDL
MODEL 3
REMARK VINA RESULT:    -5.591      2.240      5.126
REMARK INTER + INTRA:          -6.428
REMARK INTER:                  -6.081
REMARK INTRA:                  -0.347
REMARK UNBOUND:                -0.347
REMARK SMILES CC1=C[C@@H]2[C@@H](C(C)C)CC[C@@](C)(O)[C@H]2CC1
REMARK SMILES IDX 1 1 2 2 3 3 4 4 5 5 9 6 10 7 11 8 14 9 15 10 16 11 12 12
REMARK SMILES IDX 6 13 7 14 8 15 13 16
REMARK H PARENT 13 17
REMARK Flexibility Score: inf
ROOT
ATOM      1  C   UNL     1     118.134 124.491 126.337  1.00  0.00     0.039 C 
ATOM      2  C   UNL     1     117.262 123.966 127.446  1.00  0.00    -0.077 C 
ATOM      3  C   UNL     1     117.178 122.633 127.640  1.00  0.00    -0.024 C 
ATOM      4  C   UNL     1     116.363 121.994 128.756  1.00  0.00     0.021 C 
ATOM      5  C   UNL     1     115.725 120.647 128.278  1.00  0.00    -0.001 C 
ATOM      6  C   UNL     1     114.440 120.279 129.078  1.00  0.00     0.007 C 
ATOM      7  C   UNL     1     114.461 120.828 130.511  1.00  0.00     0.035 C 
ATOM      8  C   UNL     1     114.538 122.385 130.551  1.00  0.00     0.065 C 
ATOM      9  C   UNL     1     115.272 122.963 129.285  1.00  0.00     0.028 C 
ATOM     10  C   UNL     1     115.889 124.354 129.535  1.00  0.00     0.011 C 
ATOM     11  C   UNL     1     116.410 124.944 128.224  1.00  0.00     0.031 C 
ATOM     12  C   UNL     1     113.106 122.954 130.613  1.00  0.00     0.042 C 
ENDROOT
BRANCH   5  13
ATOM     13  C   UNL     1     116.772 119.481 128.209  1.00  0.00    -0.014 C 
ATOM     14  C   UNL     1     117.771 119.457 129.379  1.00  0.00     0.007 C 
ATOM     15  C   UNL     1     116.085 118.111 128.074  1.00  0.00     0.007 C 
ENDBRANCH   5  13
BRANCH   8  16
ATOM     16  O   UNL     1     115.191 122.778 131.737  1.00  0.00    -0.390 OA
ATOM     17  H   UNL     1     114.841 123.669 132.001  1.00  0.00     0.211 HD
ENDBRANCH   8  16
TORSDOF 2
ENDMDL
MODEL 4
REMARK VINA RESULT:    -5.567      1.867      3.820
REMARK INTER + INTRA:          -6.402
REMARK INTER:                  -6.108
REMARK INTRA:                  -0.295
REMARK UNBOUND:                -0.347
REMARK SMILES CC1=C[C@@H]2[C@@H](C(C)C)CC[C@@](C)(O)[C@H]2CC1
REMARK SMILES IDX 1 1 2 2 3 3 4 4 5 5 9 6 10 7 11 8 14 9 15 10 16 11 12 12
REMARK SMILES IDX 6 13 7 14 8 15 13 16
REMARK H PARENT 13 17
REMARK Flexibility Score: inf
ROOT
ATOM      1  C   UNL     1     113.969 120.126 132.118  1.00  0.00     0.039 C 
ATOM      2  C   UNL     1     114.673 121.235 131.384  1.00  0.00    -0.077 C 
ATOM      3  C   UNL     1     114.279 121.544 130.130  1.00  0.00    -0.024 C 
ATOM      4  C   UNL     1     114.890 122.674 129.311  1.00  0.00     0.021 C 
ATOM      5  C   UNL     1     114.954 122.291 127.795  1.00  0.00    -0.001 C 
ATOM      6  C   UNL     1     116.074 123.059 127.032  1.00  0.00     0.007 C 
ATOM      7  C   UNL     1     116.366 124.435 127.644  1.00  0.00     0.035 C 
ATOM      8  C   UNL     1     116.865 124.338 129.118  1.00  0.00     0.065 C 
ATOM      9  C   UNL     1     116.297 123.061 129.841  1.00  0.00     0.028 C 
ATOM     10  C   UNL     1     116.250 123.213 131.375  1.00  0.00     0.011 C 
ATOM     11  C   UNL     1     115.880 121.880 132.027  1.00  0.00     0.031 C 
ATOM     12  C   UNL     1     118.406 124.280 129.121  1.00  0.00     0.042 C 
ENDROOT
BRANCH   5  13
ATOM     13  C   UNL     1     113.552 122.377 127.097  1.00  0.00    -0.014 C 
ATOM     14  C   UNL     1     112.875 123.755 127.203  1.00  0.00     0.007 C 
ATOM     15  C   UNL     1     113.625 121.939 125.624  1.00  0.00     0.007 C 
ENDBRANCH   5  13
BRANCH   8  16
ATOM     16  O   UNL     1     116.494 125.513 129.804  1.00  0.00    -0.390 OA
ATOM     17  H   UNL     1     115.639 125.838 129.419  1.00  0.00     0.211 HD
ENDBRANCH   8  16
TORSDOF 2
ENDMDL
MODEL 5
REMARK VINA RESULT:    -5.479      2.024      4.067
REMARK INTER + INTRA:          -6.306
REMARK INTER:                  -5.958
REMARK INTRA:                  -0.348
REMARK UNBOUND:                -0.347
REMARK SMILES CC1=C[C@@H]2[C@@H](C(C)C)CC[C@@](C)(O)[C@H]2CC1
REMARK SMILES IDX 1 1 2 2 3 3 4 4 5 5 9 6 10 7 11 8 14 9 15 10 16 11 12 12
REMARK SMILES IDX 6 13 7 14 8 15 13 16
REMARK H PARENT 13 17
REMARK Flexibility Score: inf
ROOT
ATOM      1  C   UNL     1     116.420 117.494 127.609  1.00  0.00     0.039 C 
ATOM      2  C   UNL     1     115.931 118.874 127.959  1.00  0.00    -0.077 C 
ATOM      3  C   UNL     1     116.063 119.313 129.229  1.00  0.00    -0.024 C 
ATOM      4  C   UNL     1     115.644 120.705 129.685  1.00  0.00     0.021 C 
ATOM      5  C   UNL     1     115.074 120.664 131.142  1.00  0.00    -0.001 C 
ATOM      6  C   UNL     1     114.091 121.838 131.431  1.00  0.00     0.007 C 
ATOM      7  C   UNL     1     114.412 123.091 130.605  1.00  0.00     0.035 C 
ATOM      8  C   UNL     1     114.307 122.836 129.070  1.00  0.00     0.065 C 
ATOM      9  C   UNL     1     114.616 121.336 128.708  1.00  0.00     0.028 C 
ATOM     10  C   UNL     1     115.104 121.159 127.256  1.00  0.00     0.011 C 
ATOM     11  C   UNL     1     115.196 119.673 126.907  1.00  0.00     0.031 C 
ATOM     12  C   UNL     1     112.881 123.188 128.601  1.00  0.00     0.042 C 
ENDROOT
BRANCH   5  13
ATOM     13  C   UNL     1     116.201 120.514 132.223  1.00  0.00    -0.014 C 
ATOM     14  C   UNL     1     117.431 121.408 131.982  1.00  0.00     0.007 C 
ATOM     15  C   UNL     1     115.657 120.739 133.644  1.00  0.00     0.007 C 
ENDBRANCH   5  13
BRANCH   8  16
ATOM     16  O   UNL     1     115.190 123.708 128.402  1.00  0.00    -0.390 OA
ATOM     17  H   UNL     1     116.107 123.337 128.477  1.00  0.00     0.211 HD
ENDBRANCH   8  16
TORSDOF 2
ENDMDL
MODEL 6
REMARK VINA RESULT:    -5.469      0.998      1.103
REMARK INTER + INTRA:          -6.295
REMARK INTER:                  -5.946
REMARK INTRA:                  -0.349
REMARK UNBOUND:                -0.347
REMARK SMILES CC1=C[C@@H]2[C@@H](C(C)C)CC[C@@](C)(O)[C@H]2CC1
REMARK SMILES IDX 1 1 2 2 3 3 4 4 5 5 9 6 10 7 11 8 14 9 15 10 16 11 12 12
REMARK SMILES IDX 6 13 7 14 8 15 13 16
REMARK H PARENT 13 17
REMARK Flexibility Score: inf
ROOT
ATOM      1  C   UNL     1     115.241 120.672 133.891  1.00  0.00     0.039 C 
ATOM      2  C   UNL     1     115.191 121.031 132.430  1.00  0.00    -0.077 C 
ATOM      3  C   UNL     1     116.083 121.920 131.943  1.00  0.00    -0.024 C 
ATOM      4  C   UNL     1     116.153 122.324 130.476  1.00  0.00     0.021 C 
ATOM      5  C   UNL     1     116.540 123.833 130.332  1.00  0.00    -0.001 C 
ATOM      6  C   UNL     1     116.036 124.454 128.995  1.00  0.00     0.007 C 
ATOM      7  C   UNL     1     115.938 123.420 127.866  1.00  0.00     0.035 C 
ATOM      8  C   UNL     1     114.931 122.274 128.193  1.00  0.00     0.065 C 
ATOM      9  C   UNL     1     114.818 122.025 129.743  1.00  0.00     0.028 C 
ATOM     10  C   UNL     1     114.344 120.599 130.086  1.00  0.00     0.011 C 
ATOM     11  C   UNL     1     114.064 120.481 131.585  1.00  0.00     0.031 C 
ATOM     12  C   UNL     1     113.544 122.655 127.637  1.00  0.00     0.042 C 
ENDROOT
BRANCH   5  13
ATOM     13  C   UNL     1     118.065 124.088 130.602  1.00  0.00    -0.014 C 
ATOM     14  C   UNL     1     119.003 123.056 129.953  1.00  0.00     0.007 C 
ATOM     15  C   UNL     1     118.482 125.511 130.192  1.00  0.00     0.007 C 
ENDBRANCH   5  13
BRANCH   8  16
ATOM     16  O   UNL     1     115.339 121.103 127.522  1.00  0.00    -0.390 OA
ATOM     17  H   UNL     1     115.520 121.337 126.575  1.00  0.00     0.211 HD
ENDBRANCH   8  16
TORSDOF 2
ENDMDL
MODEL 7
REMARK VINA RESULT:    -5.468      2.804      5.743
REMARK INTER + INTRA:          -6.294
REMARK INTER:                  -6.095
REMARK INTRA:                  -0.199
REMARK UNBOUND:                -0.347
REMARK SMILES CC1=C[C@@H]2[C@@H](C(C)C)CC[C@@](C)(O)[C@H]2CC1
REMARK SMILES IDX 1 1 2 2 3 3 4 4 5 5 9 6 10 7 11 8 14 9 15 10 16 11 12 12
REMARK SMILES IDX 6 13 7 14 8 15 13 16
REMARK H PARENT 13 17
REMARK Flexibility Score: inf
ROOT
ATOM      1  C   UNL     1     116.718 128.030 131.621  1.00  0.00     0.039 C 
ATOM      2  C   UNL     1     117.296 127.344 130.412  1.00  0.00    -0.077 C 
ATOM      3  C   UNL     1     116.625 126.310 129.862  1.00  0.00    -0.024 C 
ATOM      4  C   UNL     1     117.094 125.572 128.614  1.00  0.00     0.021 C 
ATOM      5  C   UNL     1     116.747 124.049 128.707  1.00  0.00    -0.001 C 
ATOM      6  C   UNL     1     117.694 123.168 127.838  1.00  0.00     0.007 C 
ATOM      7  C   UNL     1     118.231 123.915 126.610  1.00  0.00     0.035 C 
ATOM      8  C   UNL     1     119.075 125.168 126.997  1.00  0.00     0.065 C 
ATOM      9  C   UNL     1     118.613 125.778 128.372  1.00  0.00     0.028 C 
ATOM     10  C   UNL     1     118.963 127.273 128.511  1.00  0.00     0.011 C 
ATOM     11  C   UNL     1     118.671 127.755 129.932  1.00  0.00     0.031 C 
ATOM     12  C   UNL     1     120.559 124.759 127.096  1.00  0.00     0.042 C 
ENDROOT
BRANCH   5  13
ATOM     13  C   UNL     1     115.225 123.765 128.453  1.00  0.00    -0.014 C 
ATOM     14  C   UNL     1     114.941 122.892 127.218  1.00  0.00     0.007 C 
ATOM     15  C   UNL     1     114.548 123.158 129.694  1.00  0.00     0.007 C 
ENDBRANCH   5  13
BRANCH   8  16
ATOM     16  O   UNL     1     118.976 126.121 125.963  1.00  0.00    -0.390 OA
ATOM     17  H   UNL     1     118.120 125.969 125.484  1.00  0.00     0.211 HD
ENDBRANCH   8  16
TORSDOF 2
ENDMDL
MODEL 8
REMARK VINA RESULT:    -5.455      1.379      4.891
REMARK INTER + INTRA:          -6.280
REMARK INTER:                  -6.081
REMARK INTRA:                  -0.199
REMARK UNBOUND:                -0.347
REMARK SMILES CC1=C[C@@H]2[C@@H](C(C)C)CC[C@@](C)(O)[C@H]2CC1
REMARK SMILES IDX 1 1 2 2 3 3 4 4 5 5 9 6 10 7 11 8 14 9 15 10 16 11 12 12
REMARK SMILES IDX 6 13 7 14 8 15 13 16
REMARK H PARENT 13 17
REMARK Flexibility Score: inf
ROOT
ATOM      1  C   UNL     1     116.238 126.834 127.955  1.00  0.00     0.039 C 
ATOM      2  C   UNL     1     116.246 125.484 128.622  1.00  0.00    -0.077 C 
ATOM      3  C   UNL     1     115.692 124.433 127.981  1.00  0.00    -0.024 C 
ATOM      4  C   UNL     1     115.683 123.016 128.540  1.00  0.00     0.021 C 
ATOM      5  C   UNL     1     114.358 122.276 128.157  1.00  0.00    -0.001 C 
ATOM      6  C   UNL     1     114.001 121.137 129.159  1.00  0.00     0.007 C 
ATOM      7  C   UNL     1     115.242 120.518 129.814  1.00  0.00     0.035 C 
ATOM      8  C   UNL     1     116.057 121.555 130.645  1.00  0.00     0.065 C 
ATOM      9  C   UNL     1     115.890 123.014 130.078  1.00  0.00     0.028 C 
ATOM     10  C   UNL     1     117.071 123.936 130.445  1.00  0.00     0.011 C 
ATOM     11  C   UNL     1     116.761 125.378 130.040  1.00  0.00     0.031 C 
ATOM     12  C   UNL     1     115.566 121.520 132.107  1.00  0.00     0.042 C 
ENDROOT
BRANCH   5  13
ATOM     13  C   UNL     1     114.342 121.816 126.657  1.00  0.00    -0.014 C 
ATOM     14  C   UNL     1     114.262 120.291 126.464  1.00  0.00     0.007 C 
ATOM     15  C   UNL     1     113.218 122.506 125.866  1.00  0.00     0.007 C 
ENDBRANCH   5  13
BRANCH   8  16
ATOM     16  O   UNL     1     117.413 121.169 130.654  1.00  0.00    -0.390 OA
ATOM     17  H   UNL     1     117.626 120.810 131.555  1.00  0.00     0.211 HD
ENDBRANCH   8  16
TORSDOF 2
ENDMDL
MODEL 9
REMARK VINA RESULT:    -5.294      1.592      4.303
REMARK INTER + INTRA:          -6.105
REMARK INTER:                  -5.908
REMARK INTRA:                  -0.197
REMARK UNBOUND:                -0.347
REMARK SMILES CC1=C[C@@H]2[C@@H](C(C)C)CC[C@@](C)(O)[C@H]2CC1
REMARK SMILES IDX 1 1 2 2 3 3 4 4 5 5 9 6 10 7 11 8 14 9 15 10 16 11 12 12
REMARK SMILES IDX 6 13 7 14 8 15 13 16
REMARK H PARENT 13 17
REMARK Flexibility Score: inf
ROOT
ATOM      1  C   UNL     1     118.792 125.489 130.616  1.00  0.00     0.039 C 
ATOM      2  C   UNL     1     117.603 124.867 129.934  1.00  0.00    -0.077 C 
ATOM      3  C   UNL     1     116.902 123.912 130.581  1.00  0.00    -0.024 C 
ATOM      4  C   UNL     1     115.658 123.246 130.005  1.00  0.00     0.021 C 
ATOM      5  C   UNL     1     115.591 121.739 130.423  1.00  0.00    -0.001 C 
ATOM      6  C   UNL     1     114.764 120.879 129.421  1.00  0.00     0.007 C 
ATOM      7  C   UNL     1     113.665 121.687 128.718  1.00  0.00     0.035 C 
ATOM      8  C   UNL     1     114.240 122.864 127.873  1.00  0.00     0.065 C 
ATOM      9  C   UNL     1     115.601 123.393 128.461  1.00  0.00     0.028 C 
ATOM     10  C   UNL     1     115.895 124.854 128.067  1.00  0.00     0.011 C 
ATOM     11  C   UNL     1     117.310 125.243 128.498  1.00  0.00     0.031 C 
ATOM     12  C   UNL     1     114.468 122.376 126.427  1.00  0.00     0.042 C 
ENDROOT
BRANCH   5  13
ATOM     13  C   UNL     1     115.151 121.551 131.917  1.00  0.00    -0.014 C 
ATOM     14  C   UNL     1     114.020 120.527 132.120  1.00  0.00     0.007 C 
ATOM     15  C   UNL     1     116.346 121.201 132.819  1.00  0.00     0.007 C 
ENDBRANCH   5  13
BRANCH   8  16
ATOM     16  O   UNL     1     113.281 123.895 127.815  1.00  0.00    -0.390 OA
ATOM     17  H   UNL     1     113.679 124.661 127.324  1.00  0.00     0.211 HD
ENDBRANCH   8  16
TORSDOF 2
ENDMDL
