MODEL 1
REMARK VINA RESULT:    -1.646      0.000      0.000
REMARK INTER + INTRA:          -1.646
REMARK INTER:                  -1.646
REMARK INTRA:                   0.000
REMARK UNBOUND:                 0.000
REMARK SMILES CC(C)=C1CC[C@@H](C)CC1=O
REMARK SMILES IDX 8 1 7 2 6 3 5 4 4 5 2 6 1 7 3 8 10 9 11 10 9 11
REMARK H PARENT
REMARK Flexibility Score: inf
ROOT
ATOM      1  C   UNL     1       7.949  -9.348 -19.760  1.00  0.00     0.008 C 
ATOM      2  C   UNL     1       7.862  -8.764 -21.174  1.00  0.00    -0.006 C 
ATOM      3  C   UNL     1       9.125  -7.952 -21.502  1.00  0.00     0.008 C 
ATOM      4  C   UNL     1       9.102  -7.444 -22.950  1.00  0.00     0.039 C 
ATOM      5  C   UNL     1       7.820  -6.693 -23.285  1.00  0.00    -0.006 C 
ATOM      6  C   UNL     1       7.814  -5.665 -24.183  1.00  0.00    -0.070 C 
ATOM      7  C   UNL     1       6.560  -4.875 -24.482  1.00  0.00     0.039 C 
ATOM      8  C   UNL     1       9.077  -5.242 -24.898  1.00  0.00     0.039 C 
ATOM      9  C   UNL     1       6.569  -7.222 -22.665  1.00  0.00     0.159 C 
ATOM     10  O   UNL     1       5.459  -7.139 -23.256  1.00  0.00    -0.295 OA
ATOM     11  C   UNL     1       6.617  -7.876 -21.314  1.00  0.00     0.084 C 
ENDROOT
TORSDOF 0
ENDMDL
MODEL 2
REMARK VINA RESULT:    -1.351      1.566      2.380
REMARK INTER + INTRA:          -1.351
REMARK INTER:                  -1.351
REMARK INTRA:                   0.000
REMARK UNBOUND:                 0.000
REMARK SMILES CC(C)=C1CC[C@@H](C)CC1=O
REMARK SMILES IDX 8 1 7 2 6 3 5 4 4 5 2 6 1 7 3 8 10 9 11 10 9 11
REMARK H PARENT
REMARK Flexibility Score: inf
ROOT
ATOM      1  C   UNL     1       8.726  -9.391 -19.887  1.00  0.00     0.008 C 
ATOM      2  C   UNL     1       8.088  -8.219 -20.640  1.00  0.00    -0.006 C 
ATOM      3  C   UNL     1       6.898  -8.700 -21.485  1.00  0.00     0.008 C 
ATOM      4  C   UNL     1       6.184  -7.525 -22.166  1.00  0.00     0.039 C 
ATOM      5  C   UNL     1       7.139  -6.639 -22.953  1.00  0.00    -0.006 C 
ATOM      6  C   UNL     1       6.735  -5.987 -24.083  1.00  0.00    -0.070 C 
ATOM      7  C   UNL     1       7.689  -5.150 -24.904  1.00  0.00     0.039 C 
ATOM      8  C   UNL     1       5.315  -6.106 -24.589  1.00  0.00     0.039 C 
ATOM      9  C   UNL     1       8.492  -6.437 -22.353  1.00  0.00     0.159 C 
ATOM     10  O   UNL     1       9.123  -5.358 -22.509  1.00  0.00    -0.295 OA
ATOM     11  C   UNL     1       9.124  -7.529 -21.540  1.00  0.00     0.084 C 
ENDROOT
TORSDOF 0
ENDMDL
MODEL 3
REMARK VINA RESULT:    -0.745      1.671      4.599
REMARK INTER + INTRA:          -0.745
REMARK INTER:                  -0.745
REMARK INTRA:                   0.000
REMARK UNBOUND:                 0.000
REMARK SMILES CC(C)=C1CC[C@@H](C)CC1=O
REMARK SMILES IDX 8 1 7 2 6 3 5 4 4 5 2 6 1 7 3 8 10 9 11 10 9 11
REMARK H PARENT
REMARK Flexibility Score: inf
ROOT
ATOM      1  C   UNL     1       8.384  -4.890 -25.115  1.00  0.00     0.008 C 
ATOM      2  C   UNL     1       7.958  -6.129 -24.321  1.00  0.00    -0.006 C 
ATOM      3  C   UNL     1       7.469  -5.731 -22.919  1.00  0.00     0.008 C 
ATOM      4  C   UNL     1       6.943  -6.947 -22.145  1.00  0.00     0.039 C 
ATOM      5  C   UNL     1       7.942  -8.095 -22.111  1.00  0.00    -0.006 C 
ATOM      6  C   UNL     1       8.011  -8.946 -21.046  1.00  0.00    -0.070 C 
ATOM      7  C   UNL     1       9.036 -10.054 -20.976  1.00  0.00     0.039 C 
ATOM      8  C   UNL     1       7.083  -8.793 -19.862  1.00  0.00     0.039 C 
ATOM      9  C   UNL     1       8.749  -8.299 -23.352  1.00  0.00     0.159 C 
ATOM     10  O   UNL     1       9.125  -9.448 -23.708  1.00  0.00    -0.295 OA
ATOM     11  C   UNL     1       9.124  -7.123 -24.207  1.00  0.00     0.084 C 
ENDROOT
TORSDOF 0
ENDMDL
