MODEL 1
REMARK VINA RESULT:    -4.122      0.000      0.000
REMARK INTER + INTRA:          -9.715
REMARK INTER:                  -7.737
REMARK INTRA:                  -1.978
REMARK UNBOUND:                -1.978
REMARK SMILES CCCCCCCCC=CCCCCCCCC(=O)[O-]
REMARK SMILES IDX 10 1 9 2 11 3 12 4 13 5 14 6 15 7 16 8 17 9 18 10 19 11
REMARK SMILES IDX 20 12 8 13 7 14 6 15 5 16 4 17 3 18 2 19 1 20
REMARK H PARENT
REMARK Flexibility Score: inf
ROOT
ATOM      1  C   UNL     1      28.269 167.335 158.382  1.00  0.00    -0.031 C 
ATOM      2  C   UNL     1      27.805 167.803 157.209  1.00  0.00    -0.031 C 
ENDROOT
BRANCH   1   3
ATOM      3  C   UNL     1      29.517 166.502 158.528  1.00  0.00     0.027 C 
BRANCH   3   4
ATOM      4  C   UNL     1      30.538 167.211 159.423  1.00  0.00     0.004 C 
BRANCH   4   5
ATOM      5  C   UNL     1      30.722 166.462 160.751  1.00  0.00     0.000 C 
BRANCH   5   6
ATOM      6  C   UNL     1      29.451 166.454 161.618  1.00  0.00     0.000 C 
BRANCH   6   7
ATOM      7  C   UNL     1      29.244 167.713 162.479  1.00  0.00     0.000 C 
BRANCH   7   8
ATOM      8  C   UNL     1      28.436 168.806 161.758  1.00  0.00     0.006 C 
BRANCH   8   9
ATOM      9  C   UNL     1      28.718 170.204 162.325  1.00  0.00     0.053 C 
BRANCH   9  10
ATOM     10  C   UNL     1      27.456 170.985 162.526  1.00  0.00     0.041 C 
ATOM     11  O   UNL     1      26.417 170.687 161.880  1.00  0.00    -0.550 OA
ATOM     12  O   UNL     1      27.417 172.016 163.457  1.00  0.00    -0.550 OA
ENDBRANCH   9  10
ENDBRANCH   8   9
ENDBRANCH   7   8
ENDBRANCH   6   7
ENDBRANCH   5   6
ENDBRANCH   4   5
ENDBRANCH   3   4
ENDBRANCH   1   3
BRANCH   2  13
ATOM     13  C   UNL     1      28.518 167.608 155.892  1.00  0.00     0.027 C 
BRANCH  13  14
ATOM     14  C   UNL     1      29.319 168.851 155.461  1.00  0.00     0.004 C 
BRANCH  14  15
ATOM     15  C   UNL     1      30.829 168.587 155.295  1.00  0.00     0.000 C 
BRANCH  15  16
ATOM     16  C   UNL     1      31.207 167.132 154.959  1.00  0.00     0.000 C 
BRANCH  16  17
ATOM     17  C   UNL     1      31.976 166.387 156.068  1.00  0.00    -0.000 C 
BRANCH  17  18
ATOM     18  C   UNL     1      33.208 167.163 156.565  1.00  0.00    -0.000 C 
BRANCH  18  19
ATOM     19  C   UNL     1      33.721 166.646 157.918  1.00  0.00    -0.003 C 
ATOM     20  C   UNL     1      33.678 165.122 158.026  1.00  0.00     0.004 C 
ENDBRANCH  18  19
ENDBRANCH  17  18
ENDBRANCH  16  17
ENDBRANCH  15  16
ENDBRANCH  14  15
ENDBRANCH  13  14
ENDBRANCH   2  13
TORSDOF 15
ENDMDL
MODEL 2
REMARK VINA RESULT:    -4.066      1.067      2.004
REMARK INTER + INTRA:          -9.610
REMARK INTER:                  -7.420
REMARK INTRA:                  -2.191
REMARK UNBOUND:                -1.978
REMARK SMILES CCCCCCCCC=CCCCCCCCC(=O)[O-]
REMARK SMILES IDX 10 1 9 2 11 3 12 4 13 5 14 6 15 7 16 8 17 9 18 10 19 11
REMARK SMILES IDX 20 12 8 13 7 14 6 15 5 16 4 17 3 18 2 19 1 20
REMARK H PARENT
REMARK Flexibility Score: inf
ROOT
ATOM      1  C   UNL     1      30.397 167.233 160.305  1.00  0.00    -0.031 C 
ATOM      2  C   UNL     1      29.550 167.174 159.262  1.00  0.00    -0.031 C 
ENDROOT
BRANCH   1   3
ATOM      3  C   UNL     1      31.164 166.051 160.842  1.00  0.00     0.027 C 
BRANCH   3   4
ATOM      4  C   UNL     1      31.029 165.967 162.366  1.00  0.00     0.004 C 
BRANCH   4   5
ATOM      5  C   UNL     1      29.568 166.152 162.802  1.00  0.00     0.000 C 
BRANCH   5   6
ATOM      6  C   UNL     1      29.405 167.175 163.940  1.00  0.00     0.000 C 
BRANCH   6   7
ATOM      7  C   UNL     1      28.343 168.261 163.688  1.00  0.00     0.000 C 
BRANCH   7   8
ATOM      8  C   UNL     1      28.956 169.630 163.344  1.00  0.00     0.006 C 
BRANCH   8   9
ATOM      9  C   UNL     1      28.274 170.280 162.133  1.00  0.00     0.053 C 
BRANCH   9  10
ATOM     10  C   UNL     1      27.215 171.254 162.549  1.00  0.00     0.041 C 
ATOM     11  O   UNL     1      26.256 171.515 161.776  1.00  0.00    -0.550 OA
ATOM     12  O   UNL     1      27.264 171.840 163.807  1.00  0.00    -0.550 OA
ENDBRANCH   9  10
ENDBRANCH   8   9
ENDBRANCH   7   8
ENDBRANCH   6   7
ENDBRANCH   5   6
ENDBRANCH   4   5
ENDBRANCH   3   4
ENDBRANCH   1   3
BRANCH   2  13
ATOM     13  C   UNL     1      29.311 165.923 158.451  1.00  0.00     0.027 C 
BRANCH  13  14
ATOM     14  C   UNL     1      29.696 166.093 156.969  1.00  0.00     0.004 C 
BRANCH  14  15
ATOM     15  C   UNL     1      29.646 167.554 156.481  1.00  0.00     0.000 C 
BRANCH  15  16
ATOM     16  C   UNL     1      30.961 168.093 155.886  1.00  0.00     0.000 C 
BRANCH  16  17
ATOM     17  C   UNL     1      32.030 167.022 155.596  1.00  0.00    -0.000 C 
BRANCH  17  18
ATOM     18  C   UNL     1      33.339 167.258 156.368  1.00  0.00    -0.000 C 
BRANCH  18  19
ATOM     19  C   UNL     1      33.231 166.855 157.847  1.00  0.00    -0.003 C 
ATOM     20  C   UNL     1      33.592 165.390 158.090  1.00  0.00     0.004 C 
ENDBRANCH  18  19
ENDBRANCH  17  18
ENDBRANCH  16  17
ENDBRANCH  15  16
ENDBRANCH  14  15
ENDBRANCH  13  14
ENDBRANCH   2  13
TORSDOF 15
ENDMDL
MODEL 3
REMARK VINA RESULT:    -4.017      1.063      3.168
REMARK INTER + INTRA:          -9.518
REMARK INTER:                  -7.768
REMARK INTRA:                  -1.750
REMARK UNBOUND:                -1.978
REMARK SMILES CCCCCCCCC=CCCCCCCCC(=O)[O-]
REMARK SMILES IDX 10 1 9 2 11 3 12 4 13 5 14 6 15 7 16 8 17 9 18 10 19 11
REMARK SMILES IDX 20 12 8 13 7 14 6 15 5 16 4 17 3 18 2 19 1 20
REMARK H PARENT
REMARK Flexibility Score: inf
ROOT
ATOM      1  C   UNL     1      30.711 167.213 160.083  1.00  0.00    -0.031 C 
ATOM      2  C   UNL     1      31.357 167.256 158.903  1.00  0.00    -0.031 C 
ENDROOT
BRANCH   1   3
ATOM      3  C   UNL     1      30.470 165.951 160.871  1.00  0.00     0.027 C 
BRANCH   3   4
ATOM      4  C   UNL     1      31.515 165.799 161.982  1.00  0.00     0.004 C 
BRANCH   4   5
ATOM      5  C   UNL     1      30.904 166.097 163.359  1.00  0.00     0.000 C 
BRANCH   5   6
ATOM      6  C   UNL     1      29.421 166.503 163.284  1.00  0.00     0.000 C 
BRANCH   6   7
ATOM      7  C   UNL     1      29.134 167.978 163.618  1.00  0.00     0.000 C 
BRANCH   7   8
ATOM      8  C   UNL     1      28.161 168.638 162.626  1.00  0.00     0.006 C 
BRANCH   8   9
ATOM      9  C   UNL     1      28.625 170.038 162.204  1.00  0.00     0.053 C 
BRANCH   9  10
ATOM     10  C   UNL     1      27.685 171.102 162.681  1.00  0.00     0.041 C 
ATOM     11  O   UNL     1      26.744 171.493 161.940  1.00  0.00    -0.550 OA
ATOM     12  O   UNL     1      27.822 171.631 163.957  1.00  0.00    -0.550 OA
ENDBRANCH   9  10
ENDBRANCH   8   9
ENDBRANCH   7   8
ENDBRANCH   6   7
ENDBRANCH   5   6
ENDBRANCH   4   5
ENDBRANCH   3   4
ENDBRANCH   1   3
BRANCH   2  13
ATOM     13  C   UNL     1      31.982 166.047 158.251  1.00  0.00     0.027 C 
BRANCH  13  14
ATOM     14  C   UNL     1      33.270 166.389 157.478  1.00  0.00     0.004 C 
BRANCH  14  15
ATOM     15  C   UNL     1      33.055 167.397 156.332  1.00  0.00     0.000 C 
BRANCH  15  16
ATOM     16  C   UNL     1      32.007 166.982 155.281  1.00  0.00     0.000 C 
BRANCH  16  17
ATOM     17  C   UNL     1      30.858 167.987 155.076  1.00  0.00    -0.000 C 
BRANCH  17  18
ATOM     18  C   UNL     1      29.471 167.369 155.324  1.00  0.00    -0.000 C 
BRANCH  18  19
ATOM     19  C   UNL     1      28.556 168.289 156.147  1.00  0.00    -0.003 C 
ATOM     20  C   UNL     1      27.929 167.581 157.347  1.00  0.00     0.004 C 
ENDBRANCH  18  19
ENDBRANCH  17  18
ENDBRANCH  16  17
ENDBRANCH  15  16
ENDBRANCH  14  15
ENDBRANCH  13  14
ENDBRANCH   2  13
TORSDOF 15
ENDMDL
MODEL 4
REMARK VINA RESULT:    -3.974      1.346      3.616
REMARK INTER + INTRA:          -9.437
REMARK INTER:                  -7.925
REMARK INTRA:                  -1.512
REMARK UNBOUND:                -1.978
REMARK SMILES CCCCCCCCC=CCCCCCCCC(=O)[O-]
REMARK SMILES IDX 10 1 9 2 11 3 12 4 13 5 14 6 15 7 16 8 17 9 18 10 19 11
REMARK SMILES IDX 20 12 8 13 7 14 6 15 5 16 4 17 3 18 2 19 1 20
REMARK H PARENT
REMARK Flexibility Score: inf
ROOT
ATOM      1  C   UNL     1      31.439 165.890 160.369  1.00  0.00    -0.031 C 
ATOM      2  C   UNL     1      32.153 165.000 159.656  1.00  0.00    -0.031 C 
ENDROOT
BRANCH   1   3
ATOM      3  C   UNL     1      30.844 167.151 159.797  1.00  0.00     0.027 C 
BRANCH   3   4
ATOM      4  C   UNL     1      29.402 167.337 160.281  1.00  0.00     0.004 C 
BRANCH   4   5
ATOM      5  C   UNL     1      29.331 167.332 161.815  1.00  0.00     0.000 C 
BRANCH   5   6
ATOM      6  C   UNL     1      28.044 167.978 162.359  1.00  0.00     0.000 C 
BRANCH   6   7
ATOM      7  C   UNL     1      27.704 169.354 161.758  1.00  0.00     0.000 C 
BRANCH   7   8
ATOM      8  C   UNL     1      28.527 170.497 162.377  1.00  0.00     0.006 C 
BRANCH   8   9
ATOM      9  C   UNL     1      27.659 171.454 163.204  1.00  0.00     0.053 C 
BRANCH   9  10
ATOM     10  C   UNL     1      27.763 171.168 164.671  1.00  0.00     0.041 C 
ATOM     11  O   UNL     1      26.855 171.550 165.456  1.00  0.00    -0.550 OA
ATOM     12  O   UNL     1      28.841 170.445 165.165  1.00  0.00    -0.550 OA
ENDBRANCH   9  10
ENDBRANCH   8   9
ENDBRANCH   7   8
ENDBRANCH   6   7
ENDBRANCH   5   6
ENDBRANCH   4   5
ENDBRANCH   3   4
ENDBRANCH   1   3
BRANCH   2  13
ATOM     13  C   UNL     1      32.393 165.121 158.170  1.00  0.00     0.027 C 
BRANCH  13  14
ATOM     14  C   UNL     1      33.716 165.837 157.839  1.00  0.00     0.004 C 
BRANCH  14  15
ATOM     15  C   UNL     1      33.535 167.099 156.972  1.00  0.00     0.000 C 
BRANCH  15  16
ATOM     16  C   UNL     1      32.342 167.060 155.997  1.00  0.00     0.000 C 
BRANCH  16  17
ATOM     17  C   UNL     1      31.229 168.084 156.290  1.00  0.00    -0.000 C 
BRANCH  17  18
ATOM     18  C   UNL     1      30.416 168.458 155.038  1.00  0.00    -0.000 C 
BRANCH  18  19
ATOM     19  C   UNL     1      28.904 168.496 155.309  1.00  0.00    -0.003 C 
ATOM     20  C   UNL     1      28.531 167.910 156.670  1.00  0.00     0.004 C 
ENDBRANCH  18  19
ENDBRANCH  17  18
ENDBRANCH  16  17
ENDBRANCH  15  16
ENDBRANCH  14  15
ENDBRANCH  13  14
ENDBRANCH   2  13
TORSDOF 15
ENDMDL
MODEL 5
REMARK VINA RESULT:    -3.936      1.858      3.148
REMARK INTER + INTRA:          -9.366
REMARK INTER:                  -7.758
REMARK INTRA:                  -1.608
REMARK UNBOUND:                -1.978
REMARK SMILES CCCCCCCCC=CCCCCCCCC(=O)[O-]
REMARK SMILES IDX 10 1 9 2 11 3 12 4 13 5 14 6 15 7 16 8 17 9 18 10 19 11
REMARK SMILES IDX 20 12 8 13 7 14 6 15 5 16 4 17 3 18 2 19 1 20
REMARK H PARENT
REMARK Flexibility Score: inf
ROOT
ATOM      1  C   UNL     1      30.507 167.283 160.551  1.00  0.00    -0.031 C 
ATOM      2  C   UNL     1      30.446 167.131 159.215  1.00  0.00    -0.031 C 
ENDROOT
BRANCH   1   3
ATOM      3  C   UNL     1      29.569 166.617 161.524  1.00  0.00     0.027 C 
BRANCH   3   4
ATOM      4  C   UNL     1      28.931 167.654 162.455  1.00  0.00     0.004 C 
BRANCH   4   5
ATOM      5  C   UNL     1      28.454 168.883 161.667  1.00  0.00     0.000 C 
BRANCH   5   6
ATOM      6  C   UNL     1      28.860 170.214 162.326  1.00  0.00     0.000 C 
BRANCH   6   7
ATOM      7  C   UNL     1      27.687 171.147 162.680  1.00  0.00     0.000 C 
BRANCH   7   8
ATOM      8  C   UNL     1      27.605 171.463 164.183  1.00  0.00     0.006 C 
BRANCH   8   9
ATOM      9  C   UNL     1      28.480 170.522 165.021  1.00  0.00     0.053 C 
BRANCH   9  10
ATOM     10  C   UNL     1      28.293 170.751 166.489  1.00  0.00     0.041 C 
ATOM     11  O   UNL     1      28.738 169.918 167.322  1.00  0.00    -0.550 OA
ATOM     12  O   UNL     1      27.665 171.906 166.939  1.00  0.00    -0.550 OA
ENDBRANCH   9  10
ENDBRANCH   8   9
ENDBRANCH   7   8
ENDBRANCH   6   7
ENDBRANCH   5   6
ENDBRANCH   4   5
ENDBRANCH   3   4
ENDBRANCH   1   3
BRANCH   2  13
ATOM     13  C   UNL     1      29.464 166.215 158.525  1.00  0.00     0.027 C 
BRANCH  13  14
ATOM     14  C   UNL     1      29.374 166.475 157.009  1.00  0.00     0.004 C 
BRANCH  14  15
ATOM     15  C   UNL     1      30.353 165.623 156.177  1.00  0.00     0.000 C 
BRANCH  15  16
ATOM     16  C   UNL     1      31.311 166.421 155.272  1.00  0.00     0.000 C 
BRANCH  16  17
ATOM     17  C   UNL     1      32.107 167.530 155.986  1.00  0.00    -0.000 C 
BRANCH  17  18
ATOM     18  C   UNL     1      33.523 167.084 156.389  1.00  0.00    -0.000 C 
BRANCH  18  19
ATOM     19  C   UNL     1      33.617 166.693 157.872  1.00  0.00    -0.003 C 
ATOM     20  C   UNL     1      33.548 165.183 158.093  1.00  0.00     0.004 C 
ENDBRANCH  18  19
ENDBRANCH  17  18
ENDBRANCH  16  17
ENDBRANCH  15  16
ENDBRANCH  14  15
ENDBRANCH  13  14
ENDBRANCH   2  13
TORSDOF 15
ENDMDL
MODEL 6
REMARK VINA RESULT:    -3.801      1.598      3.755
REMARK INTER + INTRA:          -9.112
REMARK INTER:                  -7.681
REMARK INTRA:                  -1.431
REMARK UNBOUND:                -1.978
REMARK SMILES CCCCCCCCC=CCCCCCCCC(=O)[O-]
REMARK SMILES IDX 10 1 9 2 11 3 12 4 13 5 14 6 15 7 16 8 17 9 18 10 19 11
REMARK SMILES IDX 20 12 8 13 7 14 6 15 5 16 4 17 3 18 2 19 1 20
REMARK H PARENT
REMARK Flexibility Score: inf
ROOT
ATOM      1  C   UNL     1      30.580 166.887 160.350  1.00  0.00    -0.031 C 
ATOM      2  C   UNL     1      31.497 165.952 160.043  1.00  0.00    -0.031 C 
ENDROOT
BRANCH   1   3
ATOM      3  C   UNL     1      29.318 167.127 159.561  1.00  0.00     0.027 C 
BRANCH   3   4
ATOM      4  C   UNL     1      28.232 167.739 160.452  1.00  0.00     0.004 C 
BRANCH   4   5
ATOM      5  C   UNL     1      28.682 167.780 161.920  1.00  0.00     0.000 C 
BRANCH   5   6
ATOM      6  C   UNL     1      27.966 168.870 162.739  1.00  0.00     0.000 C 
BRANCH   6   7
ATOM      7  C   UNL     1      27.966 170.268 162.096  1.00  0.00     0.000 C 
BRANCH   7   8
ATOM      8  C   UNL     1      27.775 171.399 163.121  1.00  0.00     0.006 C 
BRANCH   8   9
ATOM      9  C   UNL     1      28.209 170.980 164.532  1.00  0.00     0.053 C 
BRANCH   9  10
ATOM     10  C   UNL     1      27.113 171.182 165.533  1.00  0.00     0.041 C 
ATOM     11  O   UNL     1      27.382 171.596 166.692  1.00  0.00    -0.550 OA
ATOM     12  O   UNL     1      25.791 170.954 165.173  1.00  0.00    -0.550 OA
ENDBRANCH   9  10
ENDBRANCH   8   9
ENDBRANCH   7   8
ENDBRANCH   6   7
ENDBRANCH   5   6
ENDBRANCH   4   5
ENDBRANCH   3   4
ENDBRANCH   1   3
BRANCH   2  13
ATOM     13  C   UNL     1      31.343 164.975 158.902  1.00  0.00     0.027 C 
BRANCH  13  14
ATOM     14  C   UNL     1      32.544 164.993 157.938  1.00  0.00     0.004 C 
BRANCH  14  15
ATOM     15  C   UNL     1      33.420 166.256 158.065  1.00  0.00     0.000 C 
BRANCH  15  16
ATOM     16  C   UNL     1      33.498 167.129 156.798  1.00  0.00     0.000 C 
BRANCH  16  17
ATOM     17  C   UNL     1      32.302 166.989 155.837  1.00  0.00    -0.000 C 
BRANCH  17  18
ATOM     18  C   UNL     1      31.168 167.982 156.144  1.00  0.00    -0.000 C 
BRANCH  18  19
ATOM     19  C   UNL     1      30.445 168.460 154.875  1.00  0.00    -0.003 C 
ATOM     20  C   UNL     1      29.720 169.791 155.072  1.00  0.00     0.004 C 
ENDBRANCH  18  19
ENDBRANCH  17  18
ENDBRANCH  16  17
ENDBRANCH  15  16
ENDBRANCH  14  15
ENDBRANCH  13  14
ENDBRANCH   2  13
TORSDOF 15
ENDMDL
MODEL 7
REMARK VINA RESULT:    -3.791      2.137      4.002
REMARK INTER + INTRA:          -9.093
REMARK INTER:                  -7.121
REMARK INTRA:                  -1.971
REMARK UNBOUND:                -1.978
REMARK SMILES CCCCCCCCC=CCCCCCCCC(=O)[O-]
REMARK SMILES IDX 10 1 9 2 11 3 12 4 13 5 14 6 15 7 16 8 17 9 18 10 19 11
REMARK SMILES IDX 20 12 8 13 7 14 6 15 5 16 4 17 3 18 2 19 1 20
REMARK H PARENT
REMARK Flexibility Score: inf
ROOT
ATOM      1  C   UNL     1      30.318 166.539 160.708  1.00  0.00    -0.031 C 
ATOM      2  C   UNL     1      31.230 166.216 159.773  1.00  0.00    -0.031 C 
ENDROOT
BRANCH   1   3
ATOM      3  C   UNL     1      29.698 167.906 160.851  1.00  0.00     0.027 C 
BRANCH   3   4
ATOM      4  C   UNL     1      28.172 167.821 160.744  1.00  0.00     0.004 C 
BRANCH   4   5
ATOM      5  C   UNL     1      27.499 168.943 161.548  1.00  0.00     0.000 C 
BRANCH   5   6
ATOM      6  C   UNL     1      28.486 170.036 161.998  1.00  0.00     0.000 C 
BRANCH   6   7
ATOM      7  C   UNL     1      28.137 170.715 163.334  1.00  0.00     0.000 C 
BRANCH   7   8
ATOM      8  C   UNL     1      28.030 169.720 164.502  1.00  0.00     0.006 C 
BRANCH   8   9
ATOM      9  C   UNL     1      29.383 169.083 164.846  1.00  0.00     0.053 C 
BRANCH   9  10
ATOM     10  C   UNL     1      29.392 167.613 164.563  1.00  0.00     0.041 C 
ATOM     11  O   UNL     1      30.482 166.982 164.520  1.00  0.00    -0.550 OA
ATOM     12  O   UNL     1      28.195 166.930 164.386  1.00  0.00    -0.550 OA
ENDBRANCH   9  10
ENDBRANCH   8   9
ENDBRANCH   7   8
ENDBRANCH   6   7
ENDBRANCH   5   6
ENDBRANCH   4   5
ENDBRANCH   3   4
ENDBRANCH   1   3
BRANCH   2  13
ATOM     13  C   UNL     1      31.698 167.170 158.700  1.00  0.00     0.027 C 
BRANCH  13  14
ATOM     14  C   UNL     1      32.742 166.540 157.759  1.00  0.00     0.004 C 
BRANCH  14  15
ATOM     15  C   UNL     1      32.940 167.320 156.445  1.00  0.00     0.000 C 
BRANCH  15  16
ATOM     16  C   UNL     1      31.892 167.038 155.350  1.00  0.00     0.000 C 
BRANCH  16  17
ATOM     17  C   UNL     1      31.067 168.263 154.910  1.00  0.00    -0.000 C 
BRANCH  17  18
ATOM     18  C   UNL     1      29.551 167.999 154.927  1.00  0.00    -0.000 C 
BRANCH  18  19
ATOM     19  C   UNL     1      29.140 167.001 156.021  1.00  0.00    -0.003 C 
ATOM     20  C   UNL     1      28.306 167.646 157.128  1.00  0.00     0.004 C 
ENDBRANCH  18  19
ENDBRANCH  17  18
ENDBRANCH  16  17
ENDBRANCH  15  16
ENDBRANCH  14  15
ENDBRANCH  13  14
ENDBRANCH   2  13
TORSDOF 15
ENDMDL
MODEL 8
REMARK VINA RESULT:    -3.790      1.328      3.231
REMARK INTER + INTRA:          -9.092
REMARK INTER:                  -6.829
REMARK INTRA:                  -2.263
REMARK UNBOUND:                -1.978
REMARK SMILES CCCCCCCCC=CCCCCCCCC(=O)[O-]
REMARK SMILES IDX 10 1 9 2 11 3 12 4 13 5 14 6 15 7 16 8 17 9 18 10 19 11
REMARK SMILES IDX 20 12 8 13 7 14 6 15 5 16 4 17 3 18 2 19 1 20
REMARK H PARENT
REMARK Flexibility Score: inf
ROOT
ATOM      1  C   UNL     1      32.155 166.836 158.582  1.00  0.00    -0.031 C 
ATOM      2  C   UNL     1      32.230 166.978 157.246  1.00  0.00    -0.031 C 
ENDROOT
BRANCH   1   3
ATOM      3  C   UNL     1      31.420 165.717 159.275  1.00  0.00     0.027 C 
BRANCH   3   4
ATOM      4  C   UNL     1      30.941 166.162 160.661  1.00  0.00     0.004 C 
BRANCH   4   5
ATOM      5  C   UNL     1      30.221 167.517 160.587  1.00  0.00     0.000 C 
BRANCH   5   6
ATOM      6  C   UNL     1      29.149 167.689 161.678  1.00  0.00     0.000 C 
BRANCH   6   7
ATOM      7  C   UNL     1      27.962 168.586 161.286  1.00  0.00     0.000 C 
BRANCH   7   8
ATOM      8  C   UNL     1      27.991 169.958 161.982  1.00  0.00     0.006 C 
BRANCH   8   9
ATOM      9  C   UNL     1      28.855 169.944 163.251  1.00  0.00     0.053 C 
BRANCH   9  10
ATOM     10  C   UNL     1      28.058 170.300 164.468  1.00  0.00     0.041 C 
ATOM     11  O   UNL     1      27.822 169.429 165.347  1.00  0.00    -0.550 OA
ATOM     12  O   UNL     1      27.610 171.602 164.650  1.00  0.00    -0.550 OA
ENDBRANCH   9  10
ENDBRANCH   8   9
ENDBRANCH   7   8
ENDBRANCH   6   7
ENDBRANCH   5   6
ENDBRANCH   4   5
ENDBRANCH   3   4
ENDBRANCH   1   3
BRANCH   2  13
ATOM     13  C   UNL     1      31.641 165.990 156.268  1.00  0.00     0.027 C 
BRANCH  13  14
ATOM     14  C   UNL     1      31.070 166.669 155.009  1.00  0.00     0.004 C 
BRANCH  14  15
ATOM     15  C   UNL     1      31.248 168.200 154.998  1.00  0.00     0.000 C 
BRANCH  15  16
ATOM     16  C   UNL     1      29.943 169.013 155.100  1.00  0.00     0.000 C 
BRANCH  16  17
ATOM     17  C   UNL     1      28.650 168.186 154.967  1.00  0.00    -0.000 C 
BRANCH  17  18
ATOM     18  C   UNL     1      27.759 168.262 156.219  1.00  0.00    -0.000 C 
BRANCH  18  19
ATOM     19  C   UNL     1      28.417 167.617 157.449  1.00  0.00    -0.003 C 
ATOM     20  C   UNL     1      28.089 166.131 157.585  1.00  0.00     0.004 C 
ENDBRANCH  18  19
ENDBRANCH  17  18
ENDBRANCH  16  17
ENDBRANCH  15  16
ENDBRANCH  14  15
ENDBRANCH  13  14
ENDBRANCH   2  13
TORSDOF 15
ENDMDL
MODEL 9
REMARK VINA RESULT:    -3.779      1.570      2.145
REMARK INTER + INTRA:          -9.071
REMARK INTER:                  -6.770
REMARK INTRA:                  -2.301
REMARK UNBOUND:                -1.978
REMARK SMILES CCCCCCCCC=CCCCCCCCC(=O)[O-]
REMARK SMILES IDX 10 1 9 2 11 3 12 4 13 5 14 6 15 7 16 8 17 9 18 10 19 11
REMARK SMILES IDX 20 12 8 13 7 14 6 15 5 16 4 17 3 18 2 19 1 20
REMARK H PARENT
REMARK Flexibility Score: inf
ROOT
ATOM      1  C   UNL     1      27.985 167.486 158.507  1.00  0.00    -0.031 C 
ATOM      2  C   UNL     1      27.432 167.717 157.302  1.00  0.00    -0.031 C 
ENDROOT
BRANCH   1   3
ATOM      3  C   UNL     1      29.399 167.007 158.712  1.00  0.00     0.027 C 
BRANCH   3   4
ATOM      4  C   UNL     1      29.450 165.476 158.758  1.00  0.00     0.004 C 
BRANCH   4   5
ATOM      5  C   UNL     1      30.633 164.989 159.607  1.00  0.00     0.000 C 
BRANCH   5   6
ATOM      6  C   UNL     1      31.245 166.100 160.481  1.00  0.00     0.000 C 
BRANCH   6   7
ATOM      7  C   UNL     1      31.361 165.758 161.977  1.00  0.00     0.000 C 
BRANCH   7   8
ATOM      8  C   UNL     1      30.046 165.975 162.745  1.00  0.00     0.006 C 
BRANCH   8   9
ATOM      9  C   UNL     1      29.407 167.333 162.427  1.00  0.00     0.053 C 
BRANCH   9  10
ATOM     10  C   UNL     1      28.915 168.018 163.664  1.00  0.00     0.041 C 
ATOM     11  O   UNL     1      28.318 169.124 163.581  1.00  0.00    -0.550 OA
ATOM     12  O   UNL     1      29.078 167.416 164.905  1.00  0.00    -0.550 OA
ENDBRANCH   9  10
ENDBRANCH   8   9
ENDBRANCH   7   8
ENDBRANCH   6   7
ENDBRANCH   5   6
ENDBRANCH   4   5
ENDBRANCH   3   4
ENDBRANCH   1   3
BRANCH   2  13
ATOM     13  C   UNL     1      28.185 167.587 156.000  1.00  0.00     0.027 C 
BRANCH  13  14
ATOM     14  C   UNL     1      28.860 168.903 155.571  1.00  0.00     0.004 C 
BRANCH  14  15
ATOM     15  C   UNL     1      30.389 168.789 155.405  1.00  0.00     0.000 C 
BRANCH  15  16
ATOM     16  C   UNL     1      30.921 167.357 155.203  1.00  0.00     0.000 C 
BRANCH  16  17
ATOM     17  C   UNL     1      32.360 167.122 155.700  1.00  0.00    -0.000 C 
BRANCH  17  18
ATOM     18  C   UNL     1      32.509 167.326 157.218  1.00  0.00    -0.000 C 
BRANCH  18  19
ATOM     19  C   UNL     1      33.829 166.757 157.761  1.00  0.00    -0.003 C 
ATOM     20  C   UNL     1      33.796 165.238 157.928  1.00  0.00     0.004 C 
ENDBRANCH  18  19
ENDBRANCH  17  18
ENDBRANCH  16  17
ENDBRANCH  15  16
ENDBRANCH  14  15
ENDBRANCH  13  14
ENDBRANCH   2  13
TORSDOF 15
ENDMDL
