MODEL 1
REMARK VINA RESULT:    -2.589      0.000      0.000
REMARK INTER + INTRA:          -2.910
REMARK INTER:                  -2.892
REMARK INTRA:                  -0.018
REMARK UNBOUND:                -0.018
REMARK SMILES CCCC(=O)[O-]
REMARK SMILES IDX 3 1 4 2 5 3 6 4 2 5 1 6
REMARK H PARENT
REMARK Flexibility Score: inf
ROOT
ATOM      1  C   UNL     1       5.606  -1.434  -2.266  1.00  0.00     0.052 C 
ENDROOT
BRANCH   1   2
ATOM      2  C   UNL     1       5.188  -2.046  -0.966  1.00  0.00     0.041 C 
ATOM      3  O   UNL     1       4.980  -3.286  -0.889  1.00  0.00    -0.550 OA
ATOM      4  O   UNL     1       4.982  -1.243   0.147  1.00  0.00    -0.550 OA
ENDBRANCH   1   2
BRANCH   1   5
ATOM      5  C   UNL     1       5.616   0.094  -2.159  1.00  0.00     0.003 C 
ATOM      6  C   UNL     1       7.028   0.621  -1.922  1.00  0.00     0.004 C 
ENDBRANCH   1   5
TORSDOF 2
ENDMDL
MODEL 2
REMARK VINA RESULT:    -2.534      9.910     10.524
REMARK INTER + INTRA:          -2.848
REMARK INTER:                  -2.818
REMARK INTRA:                  -0.030
REMARK UNBOUND:                -0.018
REMARK SMILES CCCC(=O)[O-]
REMARK SMILES IDX 3 1 4 2 5 3 6 4 2 5 1 6
REMARK H PARENT
REMARK Flexibility Score: inf
ROOT
ATOM      1  C   UNL     1      -4.758  -0.820  -1.784  1.00  0.00     0.052 C 
ENDROOT
BRANCH   1   2
ATOM      2  C   UNL     1      -4.829  -0.188  -0.430  1.00  0.00     0.041 C 
ATOM      3  O   UNL     1      -4.282  -0.745   0.559  1.00  0.00    -0.550 OA
ATOM      4  O   UNL     1      -5.540   0.991  -0.249  1.00  0.00    -0.550 OA
ENDBRANCH   1   2
BRANCH   1   5
ATOM      5  C   UNL     1      -4.765  -2.347  -1.663  1.00  0.00     0.003 C 
ATOM      6  C   UNL     1      -3.694  -2.974  -2.549  1.00  0.00     0.004 C 
ENDBRANCH   1   5
TORSDOF 2
ENDMDL
MODEL 3
REMARK VINA RESULT:    -2.501      2.086      3.316
REMARK INTER + INTRA:          -2.811
REMARK INTER:                  -2.803
REMARK INTRA:                  -0.008
REMARK UNBOUND:                -0.018
REMARK SMILES CCCC(=O)[O-]
REMARK SMILES IDX 3 1 4 2 5 3 6 4 2 5 1 6
REMARK H PARENT
REMARK Flexibility Score: inf
ROOT
ATOM      1  C   UNL     1       5.274  -1.152  -0.402  1.00  0.00     0.052 C 
ENDROOT
BRANCH   1   2
ATOM      2  C   UNL     1       5.696  -0.319  -1.571  1.00  0.00     0.041 C 
ATOM      3  O   UNL     1       4.952  -0.226  -2.583  1.00  0.00    -0.550 OA
ATOM      4  O   UNL     1       6.931   0.316  -1.564  1.00  0.00    -0.550 OA
ENDBRANCH   1   2
BRANCH   1   5
ATOM      5  C   UNL     1       5.099  -2.615  -0.821  1.00  0.00     0.003 C 
ATOM      6  C   UNL     1       4.471  -3.437   0.299  1.00  0.00     0.004 C 
ENDBRANCH   1   5
TORSDOF 2
ENDMDL
MODEL 4
REMARK VINA RESULT:    -2.486      2.114      2.967
REMARK INTER + INTRA:          -2.794
REMARK INTER:                  -2.764
REMARK INTRA:                  -0.029
REMARK UNBOUND:                -0.018
REMARK SMILES CCCC(=O)[O-]
REMARK SMILES IDX 3 1 4 2 5 3 6 4 2 5 1 6
REMARK H PARENT
REMARK Flexibility Score: inf
ROOT
ATOM      1  C   UNL     1       5.147  -1.556   0.356  1.00  0.00     0.052 C 
ENDROOT
BRANCH   1   2
ATOM      2  C   UNL     1       5.324  -1.448  -1.126  1.00  0.00     0.041 C 
ATOM      3  O   UNL     1       5.103  -0.355  -1.712  1.00  0.00    -0.550 OA
ATOM      4  O   UNL     1       5.684  -2.566  -1.867  1.00  0.00    -0.550 OA
ENDBRANCH   1   2
BRANCH   1   5
ATOM      5  C   UNL     1       6.474  -1.918   1.029  1.00  0.00     0.003 C 
ATOM      6  C   UNL     1       7.109  -0.698   1.688  1.00  0.00     0.004 C 
ENDBRANCH   1   5
TORSDOF 2
ENDMDL
MODEL 5
REMARK VINA RESULT:    -2.421     10.384     10.807
REMARK INTER + INTRA:          -2.722
REMARK INTER:                  -2.671
REMARK INTRA:                  -0.051
REMARK UNBOUND:                -0.018
REMARK SMILES CCCC(=O)[O-]
REMARK SMILES IDX 3 1 4 2 5 3 6 4 2 5 1 6
REMARK H PARENT
REMARK Flexibility Score: inf
ROOT
ATOM      1  C   UNL     1      -4.695  -0.972  -1.587  1.00  0.00     0.052 C 
ENDROOT
BRANCH   1   2
ATOM      2  C   UNL     1      -4.848  -1.174  -0.113  1.00  0.00     0.041 C 
ATOM      3  O   UNL     1      -4.277  -0.395   0.696  1.00  0.00    -0.550 OA
ATOM      4  O   UNL     1      -5.582  -2.249   0.370  1.00  0.00    -0.550 OA
ENDBRANCH   1   2
BRANCH   1   5
ATOM      5  C   UNL     1      -4.748   0.520  -1.932  1.00  0.00     0.003 C 
ATOM      6  C   UNL     1      -6.188   1.016  -2.009  1.00  0.00     0.004 C 
ENDBRANCH   1   5
TORSDOF 2
ENDMDL
MODEL 6
REMARK VINA RESULT:    -2.366      4.578      6.245
REMARK INTER + INTRA:          -2.661
REMARK INTER:                  -2.623
REMARK INTRA:                  -0.038
REMARK UNBOUND:                -0.018
REMARK SMILES CCCC(=O)[O-]
REMARK SMILES IDX 3 1 4 2 5 3 6 4 2 5 1 6
REMARK H PARENT
REMARK Flexibility Score: inf
ROOT
ATOM      1  C   UNL     1       3.009  -4.531   2.497  1.00  0.00     0.052 C 
ENDROOT
BRANCH   1   2
ATOM      2  C   UNL     1       3.412  -3.990   1.163  1.00  0.00     0.041 C 
ATOM      3  O   UNL     1       4.308  -3.107   1.081  1.00  0.00    -0.550 OA
ATOM      4  O   UNL     1       2.767  -4.423   0.012  1.00  0.00    -0.550 OA
ENDBRANCH   1   2
BRANCH   1   5
ATOM      5  C   UNL     1       1.484  -4.636   2.594  1.00  0.00     0.003 C 
ATOM      6  C   UNL     1       1.036  -6.092   2.674  1.00  0.00     0.004 C 
ENDBRANCH   1   5
TORSDOF 2
ENDMDL
MODEL 7
REMARK VINA RESULT:    -2.360      3.358      4.299
REMARK INTER + INTRA:          -2.654
REMARK INTER:                  -2.636
REMARK INTRA:                  -0.018
REMARK UNBOUND:                -0.018
REMARK SMILES CCCC(=O)[O-]
REMARK SMILES IDX 3 1 4 2 5 3 6 4 2 5 1 6
REMARK H PARENT
REMARK Flexibility Score: inf
ROOT
ATOM      1  C   UNL     1       4.093  -3.984   1.335  1.00  0.00     0.052 C 
ENDROOT
BRANCH   1   2
ATOM      2  C   UNL     1       2.616  -4.210   1.261  1.00  0.00     0.041 C 
ATOM      3  O   UNL     1       1.905  -4.090   2.294  1.00  0.00    -0.550 OA
ATOM      4  O   UNL     1       2.030  -4.599   0.064  1.00  0.00    -0.550 OA
ENDBRANCH   1   2
BRANCH   1   5
ATOM      5  C   UNL     1       4.582  -3.228   0.095  1.00  0.00     0.003 C 
ATOM      6  C   UNL     1       5.106  -1.844   0.465  1.00  0.00     0.004 C 
ENDBRANCH   1   5
TORSDOF 2
ENDMDL
MODEL 8
REMARK VINA RESULT:    -2.344      7.796      8.384
REMARK INTER + INTRA:          -2.636
REMARK INTER:                  -2.612
REMARK INTRA:                  -0.023
REMARK UNBOUND:                -0.018
REMARK SMILES CCCC(=O)[O-]
REMARK SMILES IDX 3 1 4 2 5 3 6 4 2 5 1 6
REMARK H PARENT
REMARK Flexibility Score: inf
ROOT
ATOM      1  C   UNL     1       5.074   4.079  -7.082  1.00  0.00     0.052 C 
ENDROOT
BRANCH   1   2
ATOM      2  C   UNL     1       3.949   4.093  -8.068  1.00  0.00     0.041 C 
ATOM      3  O   UNL     1       3.416   3.012  -8.435  1.00  0.00    -0.550 OA
ATOM      4  O   UNL     1       3.522   5.293  -8.619  1.00  0.00    -0.550 OA
ENDBRANCH   1   2
BRANCH   1   5
ATOM      5  C   UNL     1       4.625   4.686  -5.748  1.00  0.00     0.003 C 
ATOM      6  C   UNL     1       4.577   3.628  -4.650  1.00  0.00     0.004 C 
ENDBRANCH   1   5
TORSDOF 2
ENDMDL
MODEL 9
REMARK VINA RESULT:    -2.311      4.446      5.650
REMARK INTER + INTRA:          -2.599
REMARK INTER:                  -2.529
REMARK INTRA:                  -0.070
REMARK UNBOUND:                -0.018
REMARK SMILES CCCC(=O)[O-]
REMARK SMILES IDX 3 1 4 2 5 3 6 4 2 5 1 6
REMARK H PARENT
REMARK Flexibility Score: inf
ROOT
ATOM      1  C   UNL     1       1.916  -4.756   0.072  1.00  0.00     0.052 C 
ENDROOT
BRANCH   1   2
ATOM      2  C   UNL     1       3.410  -4.748   0.007  1.00  0.00     0.041 C 
ATOM      3  O   UNL     1       4.055  -5.824   0.119  1.00  0.00    -0.550 OA
ATOM      4  O   UNL     1       4.095  -3.547  -0.129  1.00  0.00    -0.550 OA
ENDBRANCH   1   2
BRANCH   1   5
ATOM      5  C   UNL     1       1.439  -5.437   1.358  1.00  0.00     0.003 C 
ATOM      6  C   UNL     1       1.780  -4.597   2.585  1.00  0.00     0.004 C 
ENDBRANCH   1   5
TORSDOF 2
ENDMDL
