MODEL 1
REMARK VINA RESULT:    -7.482      0.000      0.000
REMARK INTER + INTRA:          -9.833
REMARK INTER:                  -9.450
REMARK INTRA:                  -0.383
REMARK UNBOUND:                -0.383
REMARK SMILES Oc1ccc(CCc2cc(O)cc(O)c2)cc1
REMARK SMILES IDX 6 1 5 2 4 3 3 4 2 5 16 6 17 7 1 8 7 10 8 11 15 12 9 13 13 14
REMARK SMILES IDX 10 15 12 16 14 17 11 19
REMARK H PARENT 1 9 14 18 11 20
REMARK Flexibility Score: inf
ROOT
ATOM      1  C   UNL     1     -36.124  72.690 -18.643  1.00  0.00     0.040 C 
ENDROOT
BRANCH   1   2
ATOM      2  C   UNL     1     -35.699  71.247 -18.719  1.00  0.00    -0.047 A 
ATOM      3  C   UNL     1     -36.591  70.226 -18.356  1.00  0.00     0.007 A 
ATOM      4  C   UNL     1     -36.186  68.889 -18.395  1.00  0.00     0.046 A 
ATOM      5  C   UNL     1     -34.881  68.560 -18.788  1.00  0.00     0.115 A 
ATOM      6  C   UNL     1     -34.389  70.914 -19.099  1.00  0.00     0.007 A 
ATOM      7  C   UNL     1     -33.985  69.576 -19.138  1.00  0.00     0.046 A 
BRANCH   5   8
ATOM      8  O   UNL     1     -34.466  67.231 -18.831  1.00  0.00    -0.508 OA
ATOM      9  H   UNL     1     -34.777  66.556 -18.143  1.00  0.00     0.293 HD
ENDBRANCH   5   8
ENDBRANCH   1   2
BRANCH   1  10
ATOM     10  C   UNL     1     -37.504  72.879 -19.277  1.00  0.00     0.040 C 
BRANCH  10  11
ATOM     11  C   UNL     1     -37.999  74.284 -19.058  1.00  0.00    -0.040 A 
ATOM     12  C   UNL     1     -37.710  74.956 -17.860  1.00  0.00     0.050 A 
ATOM     13  C   UNL     1     -38.704  74.952 -20.072  1.00  0.00     0.050 A 
ATOM     14  C   UNL     1     -38.142  76.276 -17.667  1.00  0.00     0.119 A 
ATOM     15  C   UNL     1     -39.137  76.272 -19.880  1.00  0.00     0.119 A 
ATOM     16  C   UNL     1     -38.857  76.929 -18.677  1.00  0.00     0.092 A 
BRANCH  14  17
ATOM     17  O   UNL     1     -37.866  76.948 -16.478  1.00  0.00    -0.508 OA
ATOM     18  H   UNL     1     -37.023  77.498 -16.366  1.00  0.00     0.293 HD
ENDBRANCH  14  17
BRANCH  15  19
ATOM     19  O   UNL     1     -39.843  76.939 -20.878  1.00  0.00    -0.508 OA
ATOM     20  H   UNL     1     -40.856  76.973 -20.878  1.00  0.00     0.293 HD
ENDBRANCH  15  19
ENDBRANCH  10  11
ENDBRANCH   1  10
TORSDOF 6
ENDMDL
MODEL 2
REMARK VINA RESULT:    -7.449      0.033      2.030
REMARK INTER + INTRA:          -9.791
REMARK INTER:                  -9.415
REMARK INTRA:                  -0.377
REMARK UNBOUND:                -0.383
REMARK SMILES Oc1ccc(CCc2cc(O)cc(O)c2)cc1
REMARK SMILES IDX 6 1 5 2 4 3 3 4 2 5 16 6 17 7 1 8 7 10 8 11 15 12 9 13 13 14
REMARK SMILES IDX 10 15 12 16 14 17 11 19
REMARK H PARENT 1 9 14 18 11 20
REMARK Flexibility Score: inf
ROOT
ATOM      1  C   UNL     1     -36.089  72.684 -18.647  1.00  0.00     0.040 C 
ENDROOT
BRANCH   1   2
ATOM      2  C   UNL     1     -35.677  71.238 -18.721  1.00  0.00    -0.047 A 
ATOM      3  C   UNL     1     -36.578  70.225 -18.356  1.00  0.00     0.007 A 
ATOM      4  C   UNL     1     -36.184  68.884 -18.394  1.00  0.00     0.046 A 
ATOM      5  C   UNL     1     -34.883  68.543 -18.787  1.00  0.00     0.115 A 
ATOM      6  C   UNL     1     -34.370  70.892 -19.101  1.00  0.00     0.007 A 
ATOM      7  C   UNL     1     -33.978  69.551 -19.138  1.00  0.00     0.046 A 
BRANCH   5   8
ATOM      8  O   UNL     1     -34.479  67.211 -18.828  1.00  0.00    -0.508 OA
ATOM      9  H   UNL     1     -33.850  66.870 -19.545  1.00  0.00     0.293 HD
ENDBRANCH   5   8
ENDBRANCH   1   2
BRANCH   1  10
ATOM     10  C   UNL     1     -37.496  72.873 -19.219  1.00  0.00     0.040 C 
BRANCH  10  11
ATOM     11  C   UNL     1     -37.954  74.296 -19.038  1.00  0.00    -0.040 A 
ATOM     12  C   UNL     1     -38.686  74.937 -20.050  1.00  0.00     0.050 A 
ATOM     13  C   UNL     1     -37.703  74.972 -17.833  1.00  0.00     0.050 A 
ATOM     14  C   UNL     1     -39.142  76.251 -19.870  1.00  0.00     0.119 A 
ATOM     15  C   UNL     1     -38.158  76.286 -17.652  1.00  0.00     0.119 A 
ATOM     16  C   UNL     1     -38.874  76.922 -18.671  1.00  0.00     0.092 A 
BRANCH  14  17
ATOM     17  O   UNL     1     -39.862  76.897 -20.872  1.00  0.00    -0.508 OA
ATOM     18  H   UNL     1     -39.482  77.016 -21.803  1.00  0.00     0.293 HD
ENDBRANCH  14  17
BRANCH  15  19
ATOM     19  O   UNL     1     -37.907  76.966 -16.462  1.00  0.00    -0.508 OA
ATOM     20  H   UNL     1     -37.417  77.853 -16.453  1.00  0.00     0.293 HD
ENDBRANCH  15  19
ENDBRANCH  10  11
ENDBRANCH   1  10
TORSDOF 6
ENDMDL
MODEL 3
REMARK VINA RESULT:    -5.653      7.984      9.374
REMARK INTER + INTRA:          -7.523
REMARK INTER:                  -7.012
REMARK INTRA:                  -0.510
REMARK UNBOUND:                -0.383
REMARK SMILES Oc1ccc(CCc2cc(O)cc(O)c2)cc1
REMARK SMILES IDX 6 1 5 2 4 3 3 4 2 5 16 6 17 7 1 8 7 10 8 11 15 12 9 13 13 14
REMARK SMILES IDX 10 15 12 16 14 17 11 19
REMARK H PARENT 1 9 14 18 11 20
REMARK Flexibility Score: inf
ROOT
ATOM      1  C   UNL     1     -36.638  74.091 -28.386  1.00  0.00     0.040 C 
ENDROOT
BRANCH   1   2
ATOM      2  C   UNL     1     -35.242  74.618 -28.179  1.00  0.00    -0.047 A 
ATOM      3  C   UNL     1     -34.524  74.285 -27.019  1.00  0.00     0.007 A 
ATOM      4  C   UNL     1     -33.241  74.801 -26.812  1.00  0.00     0.046 A 
ATOM      5  C   UNL     1     -32.669  75.663 -27.756  1.00  0.00     0.115 A 
ATOM      6  C   UNL     1     -34.670  75.494 -29.115  1.00  0.00     0.007 A 
ATOM      7  C   UNL     1     -33.387  76.009 -28.906  1.00  0.00     0.046 A 
BRANCH   5   8
ATOM      8  O   UNL     1     -31.392  76.184 -27.561  1.00  0.00    -0.508 OA
ATOM      9  H   UNL     1     -30.920  76.715 -28.282  1.00  0.00     0.293 HD
ENDBRANCH   5   8
ENDBRANCH   1   2
BRANCH   1  10
ATOM     10  C   UNL     1     -37.618  75.243 -28.624  1.00  0.00     0.040 C 
BRANCH  10  11
ATOM     11  C   UNL     1     -38.468  75.474 -27.404  1.00  0.00    -0.040 A 
ATOM     12  C   UNL     1     -37.871  75.601 -26.139  1.00  0.00     0.050 A 
ATOM     13  C   UNL     1     -39.859  75.623 -27.529  1.00  0.00     0.050 A 
ATOM     14  C   UNL     1     -38.660  75.849 -25.006  1.00  0.00     0.119 A 
ATOM     15  C   UNL     1     -40.648  75.871 -26.396  1.00  0.00     0.119 A 
ATOM     16  C   UNL     1     -40.046  75.981 -25.139  1.00  0.00     0.092 A 
BRANCH  14  17
ATOM     17  O   UNL     1     -38.076  75.968 -23.747  1.00  0.00    -0.508 OA
ATOM     18  H   UNL     1     -37.944  76.872 -23.308  1.00  0.00     0.293 HD
ENDBRANCH  14  17
BRANCH  15  19
ATOM     19  O   UNL     1     -42.029  76.013 -26.511  1.00  0.00    -0.508 OA
ATOM     20  H   UNL     1     -42.441  76.695 -27.138  1.00  0.00     0.293 HD
ENDBRANCH  15  19
ENDBRANCH  10  11
ENDBRANCH   1  10
TORSDOF 6
ENDMDL
MODEL 4
REMARK VINA RESULT:    -5.647      7.983      9.570
REMARK INTER + INTRA:          -7.515
REMARK INTER:                  -7.000
REMARK INTRA:                  -0.516
REMARK UNBOUND:                -0.383
REMARK SMILES Oc1ccc(CCc2cc(O)cc(O)c2)cc1
REMARK SMILES IDX 6 1 5 2 4 3 3 4 2 5 16 6 17 7 1 8 7 10 8 11 15 12 9 13 13 14
REMARK SMILES IDX 10 15 12 16 14 17 11 19
REMARK H PARENT 1 9 14 18 11 20
REMARK Flexibility Score: inf
ROOT
ATOM      1  C   UNL     1     -36.636  74.138 -28.386  1.00  0.00     0.040 C 
ENDROOT
BRANCH   1   2
ATOM      2  C   UNL     1     -35.242  74.659 -28.160  1.00  0.00    -0.047 A 
ATOM      3  C   UNL     1     -34.514  74.268 -27.025  1.00  0.00     0.007 A 
ATOM      4  C   UNL     1     -33.232  74.778 -26.799  1.00  0.00     0.046 A 
ATOM      5  C   UNL     1     -32.670  75.692 -27.700  1.00  0.00     0.115 A 
ATOM      6  C   UNL     1     -34.680  75.587 -29.052  1.00  0.00     0.007 A 
ATOM      7  C   UNL     1     -33.397  76.095 -28.825  1.00  0.00     0.046 A 
BRANCH   5   8
ATOM      8  O   UNL     1     -31.393  76.207 -27.485  1.00  0.00    -0.508 OA
ATOM      9  H   UNL     1     -31.253  77.126 -27.082  1.00  0.00     0.293 HD
ENDBRANCH   5   8
ENDBRANCH   1   2
BRANCH   1  10
ATOM     10  C   UNL     1     -37.606  75.293 -28.651  1.00  0.00     0.040 C 
BRANCH  10  11
ATOM     11  C   UNL     1     -38.465  75.551 -27.442  1.00  0.00    -0.040 A 
ATOM     12  C   UNL     1     -39.861  75.629 -27.570  1.00  0.00     0.050 A 
ATOM     13  C   UNL     1     -37.881  75.658 -26.170  1.00  0.00     0.050 A 
ATOM     14  C   UNL     1     -40.664  75.837 -26.440  1.00  0.00     0.119 A 
ATOM     15  C   UNL     1     -38.684  75.866 -25.039  1.00  0.00     0.119 A 
ATOM     16  C   UNL     1     -40.072  75.957 -25.178  1.00  0.00     0.092 A 
BRANCH  14  17
ATOM     17  O   UNL     1     -42.049  75.923 -26.559  1.00  0.00    -0.508 OA
ATOM     18  H   UNL     1     -42.582  76.620 -26.053  1.00  0.00     0.293 HD
ENDBRANCH  14  17
BRANCH  15  19
ATOM     19  O   UNL     1     -38.112  75.980 -23.773  1.00  0.00    -0.508 OA
ATOM     20  H   UNL     1     -37.980  76.882 -23.331  1.00  0.00     0.293 HD
ENDBRANCH  15  19
ENDBRANCH  10  11
ENDBRANCH   1  10
TORSDOF 6
ENDMDL
MODEL 5
REMARK VINA RESULT:    -5.307      8.160      9.000
REMARK INTER + INTRA:          -7.085
REMARK INTER:                  -6.569
REMARK INTRA:                  -0.517
REMARK UNBOUND:                -0.383
REMARK SMILES Oc1ccc(CCc2cc(O)cc(O)c2)cc1
REMARK SMILES IDX 6 1 5 2 4 3 3 4 2 5 16 6 17 7 1 8 7 10 8 11 15 12 9 13 13 14
REMARK SMILES IDX 10 15 12 16 14 17 11 19
REMARK H PARENT 1 9 14 18 11 20
REMARK Flexibility Score: inf
ROOT
ATOM      1  C   UNL     1     -37.332  74.113 -27.116  1.00  0.00     0.040 C 
ENDROOT
BRANCH   1   2
ATOM      2  C   UNL     1     -35.931  74.663 -27.100  1.00  0.00    -0.047 A 
ATOM      3  C   UNL     1     -34.828  73.797 -27.167  1.00  0.00     0.007 A 
ATOM      4  C   UNL     1     -33.527  74.306 -27.119  1.00  0.00     0.046 A 
ATOM      5  C   UNL     1     -33.316  75.686 -26.994  1.00  0.00     0.115 A 
ATOM      6  C   UNL     1     -35.714  76.044 -26.961  1.00  0.00     0.007 A 
ATOM      7  C   UNL     1     -34.412  76.552 -26.914  1.00  0.00     0.046 A 
BRANCH   5   8
ATOM      8  O   UNL     1     -32.024  76.205 -26.946  1.00  0.00    -0.508 OA
ATOM      9  H   UNL     1     -31.351  76.018 -27.679  1.00  0.00     0.293 HD
ENDBRANCH   5   8
ENDBRANCH   1   2
BRANCH   1  10
ATOM     10  C   UNL     1     -38.290  75.099 -27.791  1.00  0.00     0.040 C 
BRANCH  10  11
ATOM     11  C   UNL     1     -39.491  75.351 -26.919  1.00  0.00    -0.040 A 
ATOM     12  C   UNL     1     -39.356  76.067 -25.719  1.00  0.00     0.050 A 
ATOM     13  C   UNL     1     -40.764  74.922 -27.328  1.00  0.00     0.050 A 
ATOM     14  C   UNL     1     -40.479  76.332 -24.922  1.00  0.00     0.119 A 
ATOM     15  C   UNL     1     -41.888  75.186 -26.532  1.00  0.00     0.119 A 
ATOM     16  C   UNL     1     -41.742  75.887 -25.331  1.00  0.00     0.092 A 
BRANCH  14  17
ATOM     17  O   UNL     1     -40.352  77.035 -23.727  1.00  0.00    -0.508 OA
ATOM     18  H   UNL     1     -40.180  78.034 -23.717  1.00  0.00     0.293 HD
ENDBRANCH  14  17
BRANCH  15  19
ATOM     19  O   UNL     1     -43.153  74.758 -26.927  1.00  0.00    -0.508 OA
ATOM     20  H   UNL     1     -43.426  73.784 -26.864  1.00  0.00     0.293 HD
ENDBRANCH  15  19
ENDBRANCH  10  11
ENDBRANCH   1  10
TORSDOF 6
ENDMDL
MODEL 6
REMARK VINA RESULT:    -5.155      8.464     10.507
REMARK INTER + INTRA:          -6.894
REMARK INTER:                  -6.300
REMARK INTRA:                  -0.594
REMARK UNBOUND:                -0.383
REMARK SMILES Oc1ccc(CCc2cc(O)cc(O)c2)cc1
REMARK SMILES IDX 6 1 5 2 4 3 3 4 2 5 16 6 17 7 1 8 7 10 8 11 15 12 9 13 13 14
REMARK SMILES IDX 10 15 12 16 14 17 11 19
REMARK H PARENT 1 9 14 18 11 20
REMARK Flexibility Score: inf
ROOT
ATOM      1  C   UNL     1     -42.042  71.871 -10.416  1.00  0.00     0.040 C 
ENDROOT
BRANCH   1   2
ATOM      2  C   UNL     1     -42.618  72.801 -11.451  1.00  0.00    -0.047 A 
ATOM      3  C   UNL     1     -42.811  72.361 -12.770  1.00  0.00     0.007 A 
ATOM      4  C   UNL     1     -43.316  73.235 -13.738  1.00  0.00     0.046 A 
ATOM      5  C   UNL     1     -43.622  74.560 -13.399  1.00  0.00     0.115 A 
ATOM      6  C   UNL     1     -42.913  74.133 -11.119  1.00  0.00     0.007 A 
ATOM      7  C   UNL     1     -43.418  75.006 -12.088  1.00  0.00     0.046 A 
BRANCH   5   8
ATOM      8  O   UNL     1     -44.125  75.439 -14.355  1.00  0.00    -0.508 OA
ATOM      9  H   UNL     1     -44.714  75.117 -15.113  1.00  0.00     0.293 HD
ENDBRANCH   5   8
ENDBRANCH   1   2
BRANCH   1  10
ATOM     10  C   UNL     1     -41.524  72.662  -9.212  1.00  0.00     0.040 C 
BRANCH  10  11
ATOM     11  C   UNL     1     -40.119  73.142  -9.460  1.00  0.00    -0.040 A 
ATOM     12  C   UNL     1     -39.153  72.267  -9.982  1.00  0.00     0.050 A 
ATOM     13  C   UNL     1     -39.779  74.484  -9.226  1.00  0.00     0.050 A 
ATOM     14  C   UNL     1     -37.853  72.722 -10.244  1.00  0.00     0.119 A 
ATOM     15  C   UNL     1     -38.479  74.940  -9.488  1.00  0.00     0.119 A 
ATOM     16  C   UNL     1     -37.520  74.057  -9.994  1.00  0.00     0.092 A 
BRANCH  14  17
ATOM     17  O   UNL     1     -36.888  71.857 -10.755  1.00  0.00    -0.508 OA
ATOM     18  H   UNL     1     -35.964  72.187 -11.009  1.00  0.00     0.293 HD
ENDBRANCH  14  17
BRANCH  15  19
ATOM     19  O   UNL     1     -38.132  76.269  -9.251  1.00  0.00    -0.508 OA
ATOM     20  H   UNL     1     -37.296  76.677  -9.653  1.00  0.00     0.293 HD
ENDBRANCH  15  19
ENDBRANCH  10  11
ENDBRANCH   1  10
TORSDOF 6
ENDMDL
MODEL 7
REMARK VINA RESULT:    -5.011      8.334     10.470
REMARK INTER + INTRA:          -6.711
REMARK INTER:                  -6.105
REMARK INTRA:                  -0.607
REMARK UNBOUND:                -0.383
REMARK SMILES Oc1ccc(CCc2cc(O)cc(O)c2)cc1
REMARK SMILES IDX 6 1 5 2 4 3 3 4 2 5 16 6 17 7 1 8 7 10 8 11 15 12 9 13 13 14
REMARK SMILES IDX 10 15 12 16 14 17 11 19
REMARK H PARENT 1 9 14 18 11 20
REMARK Flexibility Score: inf
ROOT
ATOM      1  C   UNL     1     -42.039  71.786 -10.699  1.00  0.00     0.040 C 
ENDROOT
BRANCH   1   2
ATOM      2  C   UNL     1     -42.615  72.837 -11.610  1.00  0.00    -0.047 A 
ATOM      3  C   UNL     1     -42.735  72.592 -12.987  1.00  0.00     0.007 A 
ATOM      4  C   UNL     1     -43.240  73.581 -13.837  1.00  0.00     0.046 A 
ATOM      5  C   UNL     1     -43.619  74.827 -13.320  1.00  0.00     0.115 A 
ATOM      6  C   UNL     1     -42.984  74.092 -11.099  1.00  0.00     0.007 A 
ATOM      7  C   UNL     1     -43.488  75.079 -11.950  1.00  0.00     0.046 A 
BRANCH   5   8
ATOM      8  O   UNL     1     -44.124  75.820 -14.157  1.00  0.00    -0.508 OA
ATOM      9  H   UNL     1     -44.225  76.777 -13.843  1.00  0.00     0.293 HD
ENDBRANCH   5   8
ENDBRANCH   1   2
BRANCH   1  10
ATOM     10  C   UNL     1     -41.477  72.426  -9.427  1.00  0.00     0.040 C 
BRANCH  10  11
ATOM     11  C   UNL     1     -40.081  72.939  -9.665  1.00  0.00    -0.040 A 
ATOM     12  C   UNL     1     -39.761  74.276  -9.377  1.00  0.00     0.050 A 
ATOM     13  C   UNL     1     -39.077  72.071 -10.122  1.00  0.00     0.050 A 
ATOM     14  C   UNL     1     -38.453  74.746  -9.568  1.00  0.00     0.119 A 
ATOM     15  C   UNL     1     -37.769  72.541 -10.313  1.00  0.00     0.119 A 
ATOM     16  C   UNL     1     -37.463  73.877 -10.037  1.00  0.00     0.092 A 
BRANCH  14  17
ATOM     17  O   UNL     1     -38.129  76.072  -9.291  1.00  0.00    -0.508 OA
ATOM     18  H   UNL     1     -37.649  76.333  -8.438  1.00  0.00     0.293 HD
ENDBRANCH  14  17
BRANCH  15  19
ATOM     19  O   UNL     1     -36.769  71.687 -10.772  1.00  0.00    -0.508 OA
ATOM     20  H   UNL     1     -36.562  71.598 -11.760  1.00  0.00     0.293 HD
ENDBRANCH  15  19
ENDBRANCH  10  11
ENDBRANCH   1  10
TORSDOF 6
ENDMDL
MODEL 8
REMARK VINA RESULT:    -4.905      8.029      9.115
REMARK INTER + INTRA:          -6.578
REMARK INTER:                  -6.163
REMARK INTRA:                  -0.415
REMARK UNBOUND:                -0.383
REMARK SMILES Oc1ccc(CCc2cc(O)cc(O)c2)cc1
REMARK SMILES IDX 6 1 5 2 4 3 3 4 2 5 16 6 17 7 1 8 7 10 8 11 15 12 9 13 13 14
REMARK SMILES IDX 10 15 12 16 14 17 11 19
REMARK H PARENT 1 9 14 18 11 20
REMARK Flexibility Score: inf
ROOT
ATOM      1  C   UNL     1     -37.616  74.766 -26.019  1.00  0.00     0.040 C 
ENDROOT
BRANCH   1   2
ATOM      2  C   UNL     1     -36.220  75.214 -26.359  1.00  0.00    -0.047 A 
ATOM      3  C   UNL     1     -35.610  74.793 -27.552  1.00  0.00     0.007 A 
ATOM      4  C   UNL     1     -34.301  75.183 -27.850  1.00  0.00     0.046 A 
ATOM      5  C   UNL     1     -33.585  75.988 -26.954  1.00  0.00     0.115 A 
ATOM      6  C   UNL     1     -35.493  76.010 -25.458  1.00  0.00     0.007 A 
ATOM      7  C   UNL     1     -34.184  76.399 -25.758  1.00  0.00     0.046 A 
BRANCH   5   8
ATOM      8  O   UNL     1     -32.280  76.383 -27.241  1.00  0.00    -0.508 OA
ATOM      9  H   UNL     1     -31.514  76.177 -26.612  1.00  0.00     0.293 HD
ENDBRANCH   5   8
ENDBRANCH   1   2
BRANCH   1  10
ATOM     10  C   UNL     1     -38.606  75.234 -27.090  1.00  0.00     0.040 C 
BRANCH  10  11
ATOM     11  C   UNL     1     -39.954  75.512 -26.478  1.00  0.00    -0.040 A 
ATOM     12  C   UNL     1     -41.122  75.041 -27.099  1.00  0.00     0.050 A 
ATOM     13  C   UNL     1     -40.049  76.193 -25.255  1.00  0.00     0.050 A 
ATOM     14  C   UNL     1     -42.376  75.270 -26.514  1.00  0.00     0.119 A 
ATOM     15  C   UNL     1     -41.302  76.423 -24.669  1.00  0.00     0.119 A 
ATOM     16  C   UNL     1     -42.461  75.963 -25.301  1.00  0.00     0.092 A 
BRANCH  14  17
ATOM     17  O   UNL     1     -43.540  74.813 -27.127  1.00  0.00    -0.508 OA
ATOM     18  H   UNL     1     -44.108  74.086 -26.708  1.00  0.00     0.293 HD
ENDBRANCH  14  17
BRANCH  15  19
ATOM     19  O   UNL     1     -41.405  77.104 -23.458  1.00  0.00    -0.508 OA
ATOM     20  H   UNL     1     -42.046  77.880 -23.340  1.00  0.00     0.293 HD
ENDBRANCH  15  19
ENDBRANCH  10  11
ENDBRANCH   1  10
TORSDOF 6
ENDMDL
MODEL 9
REMARK VINA RESULT:    -4.747      8.013     10.368
REMARK INTER + INTRA:          -6.378
REMARK INTER:                  -6.355
REMARK INTRA:                  -0.023
REMARK UNBOUND:                -0.383
REMARK SMILES Oc1ccc(CCc2cc(O)cc(O)c2)cc1
REMARK SMILES IDX 6 1 5 2 4 3 3 4 2 5 16 6 17 7 1 8 7 10 8 11 15 12 9 13 13 14
REMARK SMILES IDX 10 15 12 16 14 17 11 19
REMARK H PARENT 1 9 14 18 11 20
REMARK Flexibility Score: inf
ROOT
ATOM      1  C   UNL     1     -36.871  73.452 -27.276  1.00  0.00     0.040 C 
ENDROOT
BRANCH   1   2
ATOM      2  C   UNL     1     -37.966  74.392 -26.846  1.00  0.00    -0.047 A 
ATOM      3  C   UNL     1     -37.802  75.198 -25.708  1.00  0.00     0.007 A 
ATOM      4  C   UNL     1     -38.833  76.046 -25.291  1.00  0.00     0.046 A 
ATOM      5  C   UNL     1     -40.040  76.088 -26.001  1.00  0.00     0.115 A 
ATOM      6  C   UNL     1     -39.183  74.427 -27.546  1.00  0.00     0.007 A 
ATOM      7  C   UNL     1     -40.212  75.276 -27.128  1.00  0.00     0.046 A 
BRANCH   5   8
ATOM      8  O   UNL     1     -41.074  76.929 -25.595  1.00  0.00    -0.508 OA
ATOM      9  H   UNL     1     -41.373  77.713 -26.163  1.00  0.00     0.293 HD
ENDBRANCH   5   8
ENDBRANCH   1   2
BRANCH   1  10
ATOM     10  C   UNL     1     -36.057  74.062 -28.421  1.00  0.00     0.040 C 
BRANCH  10  11
ATOM     11  C   UNL     1     -34.902  74.862 -27.881  1.00  0.00    -0.040 A 
ATOM     12  C   UNL     1     -33.975  75.446 -28.760  1.00  0.00     0.050 A 
ATOM     13  C   UNL     1     -34.775  75.079 -26.500  1.00  0.00     0.050 A 
ATOM     14  C   UNL     1     -32.917  76.219 -28.261  1.00  0.00     0.119 A 
ATOM     15  C   UNL     1     -33.717  75.852 -26.000  1.00  0.00     0.119 A 
ATOM     16  C   UNL     1     -32.790  76.417 -26.881  1.00  0.00     0.092 A 
BRANCH  14  17
ATOM     17  O   UNL     1     -31.989  76.795 -29.125  1.00  0.00    -0.508 OA
ATOM     18  H   UNL     1     -31.217  76.260 -29.506  1.00  0.00     0.293 HD
ENDBRANCH  14  17
BRANCH  15  19
ATOM     19  O   UNL     1     -33.581  76.066 -24.630  1.00  0.00    -0.508 OA
ATOM     20  H   UNL     1     -34.088  76.804 -24.156  1.00  0.00     0.293 HD
ENDBRANCH  15  19
ENDBRANCH  10  11
ENDBRANCH   1  10
TORSDOF 6
ENDMDL
