MODEL 1
REMARK VINA RESULT:    -3.229      0.000      0.000
REMARK INTER + INTRA:          -6.423
REMARK INTER:                  -5.495
REMARK INTRA:                  -0.928
REMARK UNBOUND:                -0.928
REMARK SMILES CCCCCCCCCCCCCC(=O)[O-]
REMARK SMILES IDX 8 1 9 2 10 3 11 4 12 5 13 6 14 7 15 8 16 9 7 10 6 11 5 12
REMARK SMILES IDX 4 13 3 14 2 15 1 16
REMARK H PARENT
REMARK Flexibility Score: inf
ROOT
ATOM      1  C   UNL     1      -4.183   9.484   4.219  1.00  0.00     0.000 C 
ENDROOT
BRANCH   1   2
ATOM      2  C   UNL     1      -4.652   8.198   3.521  1.00  0.00     0.000 C 
BRANCH   2   3
ATOM      3  C   UNL     1      -4.216   8.126   2.050  1.00  0.00     0.000 C 
BRANCH   3   4
ATOM      4  C   UNL     1      -3.197   7.001   1.834  1.00  0.00     0.000 C 
BRANCH   4   5
ATOM      5  C   UNL     1      -3.454   5.832   2.796  1.00  0.00     0.006 C 
BRANCH   5   6
ATOM      6  C   UNL     1      -3.569   4.490   2.063  1.00  0.00     0.053 C 
BRANCH   6   7
ATOM      7  C   UNL     1      -3.631   3.337   3.018  1.00  0.00     0.041 C 
ATOM      8  O   UNL     1      -4.012   3.518   4.205  1.00  0.00    -0.550 OA
ATOM      9  O   UNL     1      -3.300   2.059   2.589  1.00  0.00    -0.550 OA
ENDBRANCH   6   7
ENDBRANCH   5   6
ENDBRANCH   4   5
ENDBRANCH   3   4
ENDBRANCH   2   3
ENDBRANCH   1   2
BRANCH   1  10
ATOM     10  C   UNL     1      -3.387   9.201   5.507  1.00  0.00     0.000 C 
BRANCH  10  11
ATOM     11  C   UNL     1      -3.491   7.735   5.955  1.00  0.00    -0.000 C 
BRANCH  11  12
ATOM     12  C   UNL     1      -3.349   7.570   7.478  1.00  0.00    -0.000 C 
BRANCH  12  13
ATOM     13  C   UNL     1      -1.920   7.850   7.972  1.00  0.00    -0.000 C 
BRANCH  13  14
ATOM     14  C   UNL     1      -1.174   6.573   8.386  1.00  0.00    -0.000 C 
BRANCH  14  15
ATOM     15  C   UNL     1      -2.159   5.468   8.784  1.00  0.00    -0.003 C 
ATOM     16  C   UNL     1      -1.434   4.287   9.426  1.00  0.00     0.004 C 
ENDBRANCH  14  15
ENDBRANCH  13  14
ENDBRANCH  12  13
ENDBRANCH  11  12
ENDBRANCH  10  11
ENDBRANCH   1  10
TORSDOF 12
ENDMDL
MODEL 2
REMARK VINA RESULT:    -3.037      4.204      7.296
REMARK INTER + INTRA:          -6.096
REMARK INTER:                  -5.226
REMARK INTRA:                  -0.870
REMARK UNBOUND:                -0.928
REMARK SMILES CCCCCCCCCCCCCC(=O)[O-]
REMARK SMILES IDX 8 1 9 2 10 3 11 4 12 5 13 6 14 7 15 8 16 9 7 10 6 11 5 12
REMARK SMILES IDX 4 13 3 14 2 15 1 16
REMARK H PARENT
REMARK Flexibility Score: inf
ROOT
ATOM      1  C   UNL     1      -5.962   5.410   1.187  1.00  0.00     0.000 C 
ENDROOT
BRANCH   1   2
ATOM      2  C   UNL     1      -4.671   5.920   0.526  1.00  0.00     0.000 C 
BRANCH   2   3
ATOM      3  C   UNL     1      -3.507   6.052   1.519  1.00  0.00     0.000 C 
BRANCH   3   4
ATOM      4  C   UNL     1      -3.689   5.100   2.707  1.00  0.00     0.000 C 
BRANCH   4   5
ATOM      5  C   UNL     1      -3.020   3.744   2.435  1.00  0.00     0.006 C 
BRANCH   5   6
ATOM      6  C   UNL     1      -3.848   2.570   2.972  1.00  0.00     0.053 C 
BRANCH   6   7
ATOM      7  C   UNL     1      -3.357   2.108   4.310  1.00  0.00     0.041 C 
ATOM      8  O   UNL     1      -3.824   2.613   5.364  1.00  0.00    -0.550 OA
ATOM      9  O   UNL     1      -2.407   1.097   4.392  1.00  0.00    -0.550 OA
ENDBRANCH   6   7
ENDBRANCH   5   6
ENDBRANCH   4   5
ENDBRANCH   3   4
ENDBRANCH   2   3
ENDBRANCH   1   2
BRANCH   1  10
ATOM     10  C   UNL     1      -7.189   6.270   0.831  1.00  0.00     0.000 C 
BRANCH  10  11
ATOM     11  C   UNL     1      -8.350   5.436   0.266  1.00  0.00    -0.000 C 
BRANCH  11  12
ATOM     12  C   UNL     1      -7.952   3.974  -0.002  1.00  0.00    -0.000 C 
BRANCH  12  13
ATOM     13  C   UNL     1      -9.145   3.108  -0.440  1.00  0.00    -0.000 C 
BRANCH  13  14
ATOM     14  C   UNL     1      -9.509   2.032   0.594  1.00  0.00    -0.000 C 
BRANCH  14  15
ATOM     15  C   UNL     1     -10.911   2.272   1.165  1.00  0.00    -0.003 C 
ATOM     16  C   UNL     1     -10.890   3.349   2.247  1.00  0.00     0.004 C 
ENDBRANCH  14  15
ENDBRANCH  13  14
ENDBRANCH  12  13
ENDBRANCH  11  12
ENDBRANCH  10  11
ENDBRANCH   1  10
TORSDOF 12
ENDMDL
MODEL 3
REMARK VINA RESULT:    -3.023      1.190      2.273
REMARK INTER + INTRA:          -6.072
REMARK INTER:                  -5.191
REMARK INTRA:                  -0.881
REMARK UNBOUND:                -0.928
REMARK SMILES CCCCCCCCCCCCCC(=O)[O-]
REMARK SMILES IDX 8 1 9 2 10 3 11 4 12 5 13 6 14 7 15 8 16 9 7 10 6 11 5 12
REMARK SMILES IDX 4 13 3 14 2 15 1 16
REMARK H PARENT
REMARK Flexibility Score: inf
ROOT
ATOM      1  C   UNL     1      -4.713   8.309   2.473  1.00  0.00     0.000 C 
ENDROOT
BRANCH   1   2
ATOM      2  C   UNL     1      -3.417   7.641   1.986  1.00  0.00     0.000 C 
BRANCH   2   3
ATOM      3  C   UNL     1      -3.209   6.242   2.585  1.00  0.00     0.000 C 
BRANCH   3   4
ATOM      4  C   UNL     1      -3.711   5.155   1.627  1.00  0.00     0.000 C 
BRANCH   4   5
ATOM      5  C   UNL     1      -4.267   3.951   2.401  1.00  0.00     0.006 C 
BRANCH   5   6
ATOM      6  C   UNL     1      -3.159   3.010   2.888  1.00  0.00     0.053 C 
BRANCH   6   7
ATOM      7  C   UNL     1      -3.647   2.078   3.955  1.00  0.00     0.041 C 
ATOM      8  O   UNL     1      -3.956   2.523   5.092  1.00  0.00    -0.550 OA
ATOM      9  O   UNL     1      -3.793   0.724   3.682  1.00  0.00    -0.550 OA
ENDBRANCH   6   7
ENDBRANCH   5   6
ENDBRANCH   4   5
ENDBRANCH   3   4
ENDBRANCH   2   3
ENDBRANCH   1   2
BRANCH   1  10
ATOM     10  C   UNL     1      -4.452   9.431   3.495  1.00  0.00     0.000 C 
BRANCH  10  11
ATOM     11  C   UNL     1      -2.979   9.505   3.926  1.00  0.00    -0.000 C 
BRANCH  11  12
ATOM     12  C   UNL     1      -2.798   9.342   5.445  1.00  0.00    -0.000 C 
BRANCH  12  13
ATOM     13  C   UNL     1      -3.776   8.320   6.050  1.00  0.00    -0.000 C 
BRANCH  13  14
ATOM     14  C   UNL     1      -3.112   7.405   7.089  1.00  0.00    -0.000 C 
BRANCH  14  15
ATOM     15  C   UNL     1      -1.779   7.994   7.565  1.00  0.00    -0.003 C 
ATOM     16  C   UNL     1      -1.035   7.015   8.471  1.00  0.00     0.004 C 
ENDBRANCH  14  15
ENDBRANCH  13  14
ENDBRANCH  12  13
ENDBRANCH  11  12
ENDBRANCH  10  11
ENDBRANCH   1  10
TORSDOF 12
ENDMDL
MODEL 4
REMARK VINA RESULT:    -3.007      4.221      7.782
REMARK INTER + INTRA:          -6.045
REMARK INTER:                  -5.089
REMARK INTRA:                  -0.956
REMARK UNBOUND:                -0.928
REMARK SMILES CCCCCCCCCCCCCC(=O)[O-]
REMARK SMILES IDX 8 1 9 2 10 3 11 4 12 5 13 6 14 7 15 8 16 9 7 10 6 11 5 12
REMARK SMILES IDX 4 13 3 14 2 15 1 16
REMARK H PARENT
REMARK Flexibility Score: inf
ROOT
ATOM      1  C   UNL     1      -6.500   7.085   0.312  1.00  0.00     0.000 C 
ENDROOT
BRANCH   1   2
ATOM      2  C   UNL     1      -5.468   6.257  -0.471  1.00  0.00     0.000 C 
BRANCH   2   3
ATOM      3  C   UNL     1      -4.091   6.229   0.207  1.00  0.00     0.000 C 
BRANCH   3   4
ATOM      4  C   UNL     1      -4.223   5.938   1.707  1.00  0.00     0.000 C 
BRANCH   4   5
ATOM      5  C   UNL     1      -4.334   4.429   1.969  1.00  0.00     0.006 C 
BRANCH   5   6
ATOM      6  C   UNL     1      -3.258   3.926   2.938  1.00  0.00     0.053 C 
BRANCH   6   7
ATOM      7  C   UNL     1      -3.644   2.624   3.572  1.00  0.00     0.041 C 
ATOM      8  O   UNL     1      -3.546   1.550   2.922  1.00  0.00    -0.550 OA
ATOM      9  O   UNL     1      -4.080   2.594   4.890  1.00  0.00    -0.550 OA
ENDBRANCH   6   7
ENDBRANCH   5   6
ENDBRANCH   4   5
ENDBRANCH   3   4
ENDBRANCH   2   3
ENDBRANCH   1   2
BRANCH   1  10
ATOM     10  C   UNL     1      -7.835   6.340   0.502  1.00  0.00     0.000 C 
BRANCH  10  11
ATOM     11  C   UNL     1      -7.638   4.867   0.894  1.00  0.00    -0.000 C 
BRANCH  11  12
ATOM     12  C   UNL     1      -8.580   3.921   0.129  1.00  0.00    -0.000 C 
BRANCH  12  13
ATOM     13  C   UNL     1      -8.095   3.634  -1.302  1.00  0.00    -0.000 C 
BRANCH  13  14
ATOM     14  C   UNL     1      -8.998   2.640  -2.047  1.00  0.00    -0.000 C 
BRANCH  14  15
ATOM     15  C   UNL     1      -8.716   1.201  -1.600  1.00  0.00    -0.003 C 
ATOM     16  C   UNL     1      -7.833   0.472  -2.609  1.00  0.00     0.004 C 
ENDBRANCH  14  15
ENDBRANCH  13  14
ENDBRANCH  12  13
ENDBRANCH  11  12
ENDBRANCH  10  11
ENDBRANCH   1  10
TORSDOF 12
ENDMDL
MODEL 5
REMARK VINA RESULT:    -2.983      3.633      6.365
REMARK INTER + INTRA:          -6.003
REMARK INTER:                  -4.563
REMARK INTRA:                  -1.440
REMARK UNBOUND:                -0.928
REMARK SMILES CCCCCCCCCCCCCC(=O)[O-]
REMARK SMILES IDX 8 1 9 2 10 3 11 4 12 5 13 6 14 7 15 8 16 9 7 10 6 11 5 12
REMARK SMILES IDX 4 13 3 14 2 15 1 16
REMARK H PARENT
REMARK Flexibility Score: inf
ROOT
ATOM      1  C   UNL     1      -3.116   4.591   9.745  1.00  0.00     0.000 C 
ENDROOT
BRANCH   1   2
ATOM      2  C   UNL     1      -2.201   5.106   8.622  1.00  0.00     0.000 C 
BRANCH   2   3
ATOM      3  C   UNL     1      -1.041   5.964   9.147  1.00  0.00     0.000 C 
BRANCH   3   4
ATOM      4  C   UNL     1      -0.877   7.237   8.307  1.00  0.00     0.000 C 
BRANCH   4   5
ATOM      5  C   UNL     1      -2.099   8.156   8.454  1.00  0.00     0.006 C 
BRANCH   5   6
ATOM      6  C   UNL     1      -2.673   8.581   7.097  1.00  0.00     0.053 C 
BRANCH   6   7
ATOM      7  C   UNL     1      -3.870   7.763   6.718  1.00  0.00     0.041 C 
ATOM      8  O   UNL     1      -3.902   7.161   5.613  1.00  0.00    -0.550 OA
ATOM      9  O   UNL     1      -4.936   7.639   7.600  1.00  0.00    -0.550 OA
ENDBRANCH   6   7
ENDBRANCH   5   6
ENDBRANCH   4   5
ENDBRANCH   3   4
ENDBRANCH   2   3
ENDBRANCH   1   2
BRANCH   1  10
ATOM     10  C   UNL     1      -2.600   4.965  11.147  1.00  0.00     0.000 C 
BRANCH  10  11
ATOM     11  C   UNL     1      -2.237   3.733  11.991  1.00  0.00    -0.000 C 
BRANCH  11  12
ATOM     12  C   UNL     1      -0.721   3.476  12.041  1.00  0.00    -0.000 C 
BRANCH  12  13
ATOM     13  C   UNL     1      -0.307   2.225  11.250  1.00  0.00    -0.000 C 
BRANCH  13  14
ATOM     14  C   UNL     1       0.501   2.560   9.988  1.00  0.00    -0.000 C 
BRANCH  14  15
ATOM     15  C   UNL     1       1.315   3.844  10.184  1.00  0.00    -0.003 C 
ATOM     16  C   UNL     1       2.648   3.771   9.443  1.00  0.00     0.004 C 
ENDBRANCH  14  15
ENDBRANCH  13  14
ENDBRANCH  12  13
ENDBRANCH  11  12
ENDBRANCH  10  11
ENDBRANCH   1  10
TORSDOF 12
ENDMDL
MODEL 6
REMARK VINA RESULT:    -2.911      3.725      7.387
REMARK INTER + INTRA:          -5.882
REMARK INTER:                  -4.918
REMARK INTRA:                  -0.964
REMARK UNBOUND:                -0.928
REMARK SMILES CCCCCCCCCCCCCC(=O)[O-]
REMARK SMILES IDX 8 1 9 2 10 3 11 4 12 5 13 6 14 7 15 8 16 9 7 10 6 11 5 12
REMARK SMILES IDX 4 13 3 14 2 15 1 16
REMARK H PARENT
REMARK Flexibility Score: inf
ROOT
ATOM      1  C   UNL     1       0.027   3.911  10.160  1.00  0.00     0.000 C 
ENDROOT
BRANCH   1   2
ATOM      2  C   UNL     1      -1.497   4.065  10.031  1.00  0.00     0.000 C 
BRANCH   2   3
ATOM      3  C   UNL     1      -1.904   5.050   8.925  1.00  0.00     0.000 C 
BRANCH   3   4
ATOM      4  C   UNL     1      -0.917   6.220   8.843  1.00  0.00     0.000 C 
BRANCH   4   5
ATOM      5  C   UNL     1      -1.528   7.404   8.078  1.00  0.00     0.006 C 
BRANCH   5   6
ATOM      6  C   UNL     1      -3.048   7.275   7.924  1.00  0.00     0.053 C 
BRANCH   6   7
ATOM      7  C   UNL     1      -3.543   7.963   6.689  1.00  0.00     0.041 C 
ATOM      8  O   UNL     1      -3.506   9.219   6.605  1.00  0.00    -0.550 OA
ATOM      9  O   UNL     1      -4.016   7.216   5.618  1.00  0.00    -0.550 OA
ENDBRANCH   6   7
ENDBRANCH   5   6
ENDBRANCH   4   5
ENDBRANCH   3   4
ENDBRANCH   2   3
ENDBRANCH   1   2
BRANCH   1  10
ATOM     10  C   UNL     1       0.437   2.536  10.719  1.00  0.00     0.000 C 
BRANCH  10  11
ATOM     11  C   UNL     1       1.024   1.612   9.640  1.00  0.00    -0.000 C 
BRANCH  11  12
ATOM     12  C   UNL     1       2.317   0.916  10.098  1.00  0.00    -0.000 C 
BRANCH  12  13
ATOM     13  C   UNL     1       3.557   1.411   9.334  1.00  0.00    -0.000 C 
BRANCH  13  14
ATOM     14  C   UNL     1       3.247   2.588   8.398  1.00  0.00    -0.000 C 
BRANCH  14  15
ATOM     15  C   UNL     1       4.176   3.774   8.682  1.00  0.00    -0.003 C 
ATOM     16  C   UNL     1       3.401   4.957   9.257  1.00  0.00     0.004 C 
ENDBRANCH  14  15
ENDBRANCH  13  14
ENDBRANCH  12  13
ENDBRANCH  11  12
ENDBRANCH  10  11
ENDBRANCH   1  10
TORSDOF 12
ENDMDL
MODEL 7
REMARK VINA RESULT:    -2.846      5.798      7.701
REMARK INTER + INTRA:          -5.771
REMARK INTER:                  -3.855
REMARK INTRA:                  -1.916
REMARK UNBOUND:                -0.928
REMARK SMILES CCCCCCCCCCCCCC(=O)[O-]
REMARK SMILES IDX 8 1 9 2 10 3 11 4 12 5 13 6 14 7 15 8 16 9 7 10 6 11 5 12
REMARK SMILES IDX 4 13 3 14 2 15 1 16
REMARK H PARENT
REMARK Flexibility Score: inf
ROOT
ATOM      1  C   UNL     1      -3.201   4.321  11.005  1.00  0.00     0.000 C 
ENDROOT
BRANCH   1   2
ATOM      2  C   UNL     1      -3.263   4.805   9.547  1.00  0.00     0.000 C 
BRANCH   2   3
ATOM      3  C   UNL     1      -1.873   4.998   8.924  1.00  0.00     0.000 C 
BRANCH   3   4
ATOM      4  C   UNL     1      -1.687   6.438   8.432  1.00  0.00     0.000 C 
BRANCH   4   5
ATOM      5  C   UNL     1      -0.341   7.012   8.899  1.00  0.00     0.006 C 
BRANCH   5   6
ATOM      6  C   UNL     1       0.560   5.942   9.528  1.00  0.00     0.053 C 
BRANCH   6   7
ATOM      7  C   UNL     1       1.130   6.395  10.837  1.00  0.00     0.041 C 
ATOM      8  O   UNL     1       2.197   5.887  11.272  1.00  0.00    -0.550 OA
ATOM      9  O   UNL     1       0.500   7.399  11.561  1.00  0.00    -0.550 OA
ENDBRANCH   6   7
ENDBRANCH   5   6
ENDBRANCH   4   5
ENDBRANCH   3   4
ENDBRANCH   2   3
ENDBRANCH   1   2
BRANCH   1  10
ATOM     10  C   UNL     1      -2.307   5.214  11.886  1.00  0.00     0.000 C 
BRANCH  10  11
ATOM     11  C   UNL     1      -1.244   4.412  12.653  1.00  0.00    -0.000 C 
BRANCH  11  12
ATOM     12  C   UNL     1      -1.024   3.008  12.062  1.00  0.00    -0.000 C 
BRANCH  12  13
ATOM     13  C   UNL     1       0.414   2.798  11.558  1.00  0.00    -0.000 C 
BRANCH  13  14
ATOM     14  C   UNL     1       0.467   2.285  10.111  1.00  0.00    -0.000 C 
BRANCH  14  15
ATOM     15  C   UNL     1       1.887   1.841   9.739  1.00  0.00    -0.003 C 
ATOM     16  C   UNL     1       2.676   2.986   9.110  1.00  0.00     0.004 C 
ENDBRANCH  14  15
ENDBRANCH  13  14
ENDBRANCH  12  13
ENDBRANCH  11  12
ENDBRANCH  10  11
ENDBRANCH   1  10
TORSDOF 12
ENDMDL
MODEL 8
REMARK VINA RESULT:    -2.836      5.405      7.567
REMARK INTER + INTRA:          -5.754
REMARK INTER:                  -4.069
REMARK INTRA:                  -1.685
REMARK UNBOUND:                -0.928
REMARK SMILES CCCCCCCCCCCCCC(=O)[O-]
REMARK SMILES IDX 8 1 9 2 10 3 11 4 12 5 13 6 14 7 15 8 16 9 7 10 6 11 5 12
REMARK SMILES IDX 4 13 3 14 2 15 1 16
REMARK H PARENT
REMARK Flexibility Score: inf
ROOT
ATOM      1  C   UNL     1       0.616   6.559   9.995  1.00  0.00     0.000 C 
ENDROOT
BRANCH   1   2
ATOM      2  C   UNL     1       2.003   6.058   9.563  1.00  0.00     0.000 C 
BRANCH   2   3
ATOM      3  C   UNL     1       2.252   4.592   9.947  1.00  0.00     0.000 C 
BRANCH   3   4
ATOM      4  C   UNL     1       0.988   3.748   9.741  1.00  0.00     0.000 C 
BRANCH   4   5
ATOM      5  C   UNL     1       0.972   2.538  10.687  1.00  0.00     0.006 C 
BRANCH   5   6
ATOM      6  C   UNL     1       1.081   1.208   9.931  1.00  0.00     0.053 C 
BRANCH   6   7
ATOM      7  C   UNL     1       2.474   0.659   9.969  1.00  0.00     0.041 C 
ATOM      8  O   UNL     1       3.377   1.173   9.259  1.00  0.00    -0.550 OA
ATOM      9  O   UNL     1       2.782  -0.401  10.813  1.00  0.00    -0.550 OA
ENDBRANCH   6   7
ENDBRANCH   5   6
ENDBRANCH   4   5
ENDBRANCH   3   4
ENDBRANCH   2   3
ENDBRANCH   1   2
BRANCH   1  10
ATOM     10  C   UNL     1      -0.205   7.117   8.818  1.00  0.00     0.000 C 
BRANCH  10  11
ATOM     11  C   UNL     1      -1.720   7.032   9.062  1.00  0.00    -0.000 C 
BRANCH  11  12
ATOM     12  C   UNL     1      -2.405   5.985   8.167  1.00  0.00    -0.000 C 
BRANCH  12  13
ATOM     13  C   UNL     1      -2.454   4.592   8.817  1.00  0.00    -0.000 C 
BRANCH  13  14
ATOM     14  C   UNL     1      -3.245   4.579  10.134  1.00  0.00    -0.000 C 
BRANCH  14  15
ATOM     15  C   UNL     1      -2.465   3.850  11.234  1.00  0.00    -0.003 C 
ATOM     16  C   UNL     1      -1.807   4.839  12.192  1.00  0.00     0.004 C 
ENDBRANCH  14  15
ENDBRANCH  13  14
ENDBRANCH  12  13
ENDBRANCH  11  12
ENDBRANCH  10  11
ENDBRANCH   1  10
TORSDOF 12
ENDMDL
MODEL 9
REMARK VINA RESULT:    -2.822      5.502      8.136
REMARK INTER + INTRA:          -5.731
REMARK INTER:                  -3.700
REMARK INTRA:                  -2.030
REMARK UNBOUND:                -0.928
REMARK SMILES CCCCCCCCCCCCCC(=O)[O-]
REMARK SMILES IDX 8 1 9 2 10 3 11 4 12 5 13 6 14 7 15 8 16 9 7 10 6 11 5 12
REMARK SMILES IDX 4 13 3 14 2 15 1 16
REMARK H PARENT
REMARK Flexibility Score: inf
ROOT
ATOM      1  C   UNL     1      -1.777   5.139  12.275  1.00  0.00     0.000 C 
ENDROOT
BRANCH   1   2
ATOM      2  C   UNL     1      -0.286   4.895  12.560  1.00  0.00     0.000 C 
BRANCH   2   3
ATOM      3  C   UNL     1       0.212   3.548  12.015  1.00  0.00     0.000 C 
BRANCH   3   4
ATOM      4  C   UNL     1       1.555   3.711  11.293  1.00  0.00     0.000 C 
BRANCH   4   5
ATOM      5  C   UNL     1       1.523   3.042   9.911  1.00  0.00     0.006 C 
BRANCH   5   6
ATOM      6  C   UNL     1       0.831   1.674   9.943  1.00  0.00     0.053 C 
BRANCH   6   7
ATOM      7  C   UNL     1       1.732   0.607  10.485  1.00  0.00     0.041 C 
ATOM      8  O   UNL     1       2.700   0.187   9.798  1.00  0.00    -0.550 OA
ATOM      9  O   UNL     1       1.522   0.100  11.761  1.00  0.00    -0.550 OA
ENDBRANCH   6   7
ENDBRANCH   5   6
ENDBRANCH   4   5
ENDBRANCH   3   4
ENDBRANCH   2   3
ENDBRANCH   1   2
BRANCH   1  10
ATOM     10  C   UNL     1      -2.433   3.967  11.521  1.00  0.00     0.000 C 
BRANCH  10  11
ATOM     11  C   UNL     1      -3.039   4.396  10.176  1.00  0.00    -0.000 C 
BRANCH  11  12
ATOM     12  C   UNL     1      -1.969   4.662   9.103  1.00  0.00    -0.000 C 
BRANCH  12  13
ATOM     13  C   UNL     1      -2.244   5.944   8.299  1.00  0.00    -0.000 C 
BRANCH  13  14
ATOM     14  C   UNL     1      -1.134   6.994   8.456  1.00  0.00    -0.000 C 
BRANCH  14  15
ATOM     15  C   UNL     1       0.093   6.395   9.154  1.00  0.00    -0.003 C 
ATOM     16  C   UNL     1       0.809   7.440  10.005  1.00  0.00     0.004 C 
ENDBRANCH  14  15
ENDBRANCH  13  14
ENDBRANCH  12  13
ENDBRANCH  11  12
ENDBRANCH  10  11
ENDBRANCH   1  10
TORSDOF 12
ENDMDL
