MODEL 1
REMARK VINA RESULT:     0.066      0.000      0.000
REMARK INTER + INTRA:          -0.938
REMARK INTER:                   0.144
REMARK INTRA:                  -1.082
REMARK UNBOUND:                -1.082
REMARK SMILES CCCCCCCCCCCCCCCCCCCCCC(=O)[O-]
REMARK SMILES IDX 12 1 11 2 10 3 9 4 8 5 7 6 6 7 5 8 4 9 3 10 2 11 1 12 13 13
REMARK SMILES IDX 14 14 15 15 16 16 17 17 18 18 19 19 20 20 21 21 22 22 23 23
REMARK SMILES IDX 24 24
REMARK H PARENT
REMARK Flexibility Score: inf
ROOT
ATOM      1  C   UNL     1      46.596  22.792  16.891  1.00  0.00     0.000 C 
ENDROOT
BRANCH   1   2
ATOM      2  C   UNL     1      46.846  21.418  16.244  1.00  0.00     0.000 C 
BRANCH   2   3
ATOM      3  C   UNL     1      47.922  21.404  15.139  1.00  0.00     0.000 C 
BRANCH   3   4
ATOM      4  C   UNL     1      49.378  21.470  15.642  1.00  0.00    -0.000 C 
BRANCH   4   5
ATOM      5  C   UNL     1      50.394  20.671  14.803  1.00  0.00    -0.000 C 
BRANCH   5   6
ATOM      6  C   UNL     1      51.831  21.228  14.821  1.00  0.00    -0.000 C 
BRANCH   6   7
ATOM      7  C   UNL     1      52.147  22.171  15.999  1.00  0.00    -0.000 C 
BRANCH   7   8
ATOM      8  C   UNL     1      52.676  21.476  17.269  1.00  0.00    -0.000 C 
BRANCH   8   9
ATOM      9  C   UNL     1      52.460  22.256  18.580  1.00  0.00    -0.000 C 
BRANCH   9  10
ATOM     10  C   UNL     1      51.086  22.944  18.644  1.00  0.00    -0.000 C 
BRANCH  10  11
ATOM     11  C   UNL     1      50.405  22.768  20.012  1.00  0.00    -0.003 C 
ATOM     12  C   UNL     1      50.819  21.476  20.717  1.00  0.00     0.004 C 
ENDBRANCH  10  11
ENDBRANCH   9  10
ENDBRANCH   8   9
ENDBRANCH   7   8
ENDBRANCH   6   7
ENDBRANCH   5   6
ENDBRANCH   4   5
ENDBRANCH   3   4
ENDBRANCH   2   3
ENDBRANCH   1   2
BRANCH   1  13
ATOM     13  C   UNL     1      45.123  23.019  17.257  1.00  0.00     0.000 C 
BRANCH  13  14
ATOM     14  C   UNL     1      44.216  22.809  16.038  1.00  0.00     0.000 C 
BRANCH  14  15
ATOM     15  C   UNL     1      42.752  23.125  16.380  1.00  0.00     0.000 C 
BRANCH  15  16
ATOM     16  C   UNL     1      41.833  23.089  15.149  1.00  0.00     0.000 C 
BRANCH  16  17
ATOM     17  C   UNL     1      40.342  23.125  15.520  1.00  0.00     0.000 C 
BRANCH  17  18
ATOM     18  C   UNL     1      39.516  22.264  14.554  1.00  0.00     0.000 C 
BRANCH  18  19
ATOM     19  C   UNL     1      38.390  23.052  13.860  1.00  0.00     0.000 C 
BRANCH  19  20
ATOM     20  C   UNL     1      37.036  22.319  13.776  1.00  0.00     0.006 C 
BRANCH  20  21
ATOM     21  C   UNL     1      36.757  21.359  14.943  1.00  0.00     0.053 C 
BRANCH  21  22
ATOM     22  C   UNL     1      35.361  20.820  14.904  1.00  0.00     0.041 C 
ATOM     23  O   UNL     1      34.973  20.001  15.779  1.00  0.00    -0.550 OA
ATOM     24  O   UNL     1      34.498  21.195  13.883  1.00  0.00    -0.550 OA
ENDBRANCH  21  22
ENDBRANCH  20  21
ENDBRANCH  19  20
ENDBRANCH  18  19
ENDBRANCH  17  18
ENDBRANCH  16  17
ENDBRANCH  15  16
ENDBRANCH  14  15
ENDBRANCH  13  14
ENDBRANCH   1  13
TORSDOF 20
ENDMDL
MODEL 2
REMARK VINA RESULT:     0.207      5.287     13.233
REMARK INTER + INTRA:          -0.633
REMARK INTER:                   0.200
REMARK INTRA:                  -0.833
REMARK UNBOUND:                -1.082
REMARK SMILES CCCCCCCCCCCCCCCCCCCCCC(=O)[O-]
REMARK SMILES IDX 12 1 11 2 10 3 9 4 8 5 7 6 6 7 5 8 4 9 3 10 2 11 1 12 13 13
REMARK SMILES IDX 14 14 15 15 16 16 17 17 18 18 19 19 20 20 21 21 22 22 23 23
REMARK SMILES IDX 24 24
REMARK H PARENT
REMARK Flexibility Score: inf
ROOT
ATOM      1  C   UNL     1      44.494  22.666  16.761  1.00  0.00     0.000 C 
ENDROOT
BRANCH   1   2
ATOM      2  C   UNL     1      43.556  23.092  15.618  1.00  0.00     0.000 C 
BRANCH   2   3
ATOM      3  C   UNL     1      42.058  23.124  15.980  1.00  0.00     0.000 C 
BRANCH   3   4
ATOM      4  C   UNL     1      41.093  22.968  14.787  1.00  0.00    -0.000 C 
BRANCH   4   5
ATOM      5  C   UNL     1      39.596  23.054  15.145  1.00  0.00    -0.000 C 
BRANCH   5   6
ATOM      6  C   UNL     1      38.728  21.912  14.582  1.00  0.00    -0.000 C 
BRANCH   6   7
ATOM      7  C   UNL     1      37.226  22.014  14.915  1.00  0.00    -0.000 C 
BRANCH   7   8
ATOM      8  C   UNL     1      36.390  22.846  13.921  1.00  0.00    -0.000 C 
BRANCH   8   9
ATOM      9  C   UNL     1      35.109  22.161  13.411  1.00  0.00    -0.000 C 
BRANCH   9  10
ATOM     10  C   UNL     1      35.243  20.631  13.329  1.00  0.00    -0.000 C 
BRANCH  10  11
ATOM     11  C   UNL     1      33.886  19.932  13.141  1.00  0.00    -0.003 C 
ATOM     12  C   UNL     1      33.533  19.002  14.302  1.00  0.00     0.004 C 
ENDBRANCH  10  11
ENDBRANCH   9  10
ENDBRANCH   8   9
ENDBRANCH   7   8
ENDBRANCH   6   7
ENDBRANCH   5   6
ENDBRANCH   4   5
ENDBRANCH   3   4
ENDBRANCH   2   3
ENDBRANCH   1   2
BRANCH   1  13
ATOM     13  C   UNL     1      45.740  21.920  16.265  1.00  0.00     0.000 C 
BRANCH  13  14
ATOM     14  C   UNL     1      46.989  22.803  16.377  1.00  0.00     0.000 C 
BRANCH  14  15
ATOM     15  C   UNL     1      48.197  21.988  16.862  1.00  0.00     0.000 C 
BRANCH  15  16
ATOM     16  C   UNL     1      49.169  21.633  15.725  1.00  0.00     0.000 C 
BRANCH  16  17
ATOM     17  C   UNL     1      50.634  21.931  16.082  1.00  0.00     0.000 C 
BRANCH  17  18
ATOM     18  C   UNL     1      50.723  23.004  17.177  1.00  0.00     0.000 C 
BRANCH  18  19
ATOM     19  C   UNL     1      51.410  22.499  18.459  1.00  0.00     0.000 C 
BRANCH  19  20
ATOM     20  C   UNL     1      50.611  22.720  19.759  1.00  0.00     0.006 C 
BRANCH  20  21
ATOM     21  C   UNL     1      51.468  22.775  21.033  1.00  0.00     0.053 C 
BRANCH  21  22
ATOM     22  C   UNL     1      51.492  21.460  21.750  1.00  0.00     0.041 C 
ATOM     23  O   UNL     1      50.704  20.539  21.410  1.00  0.00    -0.550 OA
ATOM     24  O   UNL     1      52.361  21.264  22.816  1.00  0.00    -0.550 OA
ENDBRANCH  21  22
ENDBRANCH  20  21
ENDBRANCH  19  20
ENDBRANCH  18  19
ENDBRANCH  17  18
ENDBRANCH  16  17
ENDBRANCH  15  16
ENDBRANCH  14  15
ENDBRANCH  13  14
ENDBRANCH   1  13
TORSDOF 20
ENDMDL
MODEL 3
REMARK VINA RESULT:     0.499      6.219     11.042
REMARK INTER + INTRA:           0.001
REMARK INTER:                   1.945
REMARK INTRA:                  -1.944
REMARK UNBOUND:                -1.082
REMARK SMILES CCCCCCCCCCCCCCCCCCCCCC(=O)[O-]
REMARK SMILES IDX 12 1 11 2 10 3 9 4 8 5 7 6 6 7 5 8 4 9 3 10 2 11 1 12 13 13
REMARK SMILES IDX 14 14 15 15 16 16 17 17 18 18 19 19 20 20 21 21 22 22 23 23
REMARK SMILES IDX 24 24
REMARK H PARENT
REMARK Flexibility Score: inf
ROOT
ATOM      1  C   UNL     1      47.973  22.965  20.491  1.00  0.00     0.000 C 
ENDROOT
BRANCH   1   2
ATOM      2  C   UNL     1      48.826  22.250  19.429  1.00  0.00     0.000 C 
BRANCH   2   3
ATOM      3  C   UNL     1      49.243  23.125  18.230  1.00  0.00     0.000 C 
BRANCH   3   4
ATOM      4  C   UNL     1      48.274  23.097  17.031  1.00  0.00    -0.000 C 
BRANCH   4   5
ATOM      5  C   UNL     1      48.054  21.705  16.404  1.00  0.00    -0.000 C 
BRANCH   5   6
ATOM      6  C   UNL     1      46.763  20.990  16.849  1.00  0.00    -0.000 C 
BRANCH   6   7
ATOM      7  C   UNL     1      45.655  20.925  15.779  1.00  0.00    -0.000 C 
BRANCH   7   8
ATOM      8  C   UNL     1      44.745  22.167  15.703  1.00  0.00    -0.000 C 
BRANCH   8   9
ATOM      9  C   UNL     1      44.842  23.124  16.905  1.00  0.00    -0.000 C 
BRANCH   9  10
ATOM     10  C   UNL     1      43.572  23.122  17.773  1.00  0.00    -0.000 C 
BRANCH  10  11
ATOM     11  C   UNL     1      43.887  23.001  19.273  1.00  0.00    -0.003 C 
ATOM     12  C   UNL     1      42.641  23.122  20.151  1.00  0.00     0.004 C 
ENDBRANCH  10  11
ENDBRANCH   9  10
ENDBRANCH   8   9
ENDBRANCH   7   8
ENDBRANCH   6   7
ENDBRANCH   5   6
ENDBRANCH   4   5
ENDBRANCH   3   4
ENDBRANCH   2   3
ENDBRANCH   1   2
BRANCH   1  13
ATOM     13  C   UNL     1      48.140  22.365  21.894  1.00  0.00     0.000 C 
BRANCH  13  14
ATOM     14  C   UNL     1      49.570  22.564  22.410  1.00  0.00     0.000 C 
BRANCH  14  15
ATOM     15  C   UNL     1      50.238  21.215  22.715  1.00  0.00     0.000 C 
BRANCH  15  16
ATOM     16  C   UNL     1      51.772  21.308  22.759  1.00  0.00     0.000 C 
BRANCH  16  17
ATOM     17  C   UNL     1      52.279  22.757  22.725  1.00  0.00     0.000 C 
BRANCH  17  18
ATOM     18  C   UNL     1      53.123  23.013  21.467  1.00  0.00     0.000 C 
BRANCH  18  19
ATOM     19  C   UNL     1      53.029  21.873  20.438  1.00  0.00     0.000 C 
BRANCH  19  20
ATOM     20  C   UNL     1      53.124  22.314  18.964  1.00  0.00     0.006 C 
BRANCH  20  21
ATOM     21  C   UNL     1      52.792  21.213  17.945  1.00  0.00     0.053 C 
BRANCH  21  22
ATOM     22  C   UNL     1      52.246  21.775  16.669  1.00  0.00     0.041 C 
ATOM     23  O   UNL     1      51.989  23.004  16.577  1.00  0.00    -0.550 OA
ATOM     24  O   UNL     1      51.989  20.936  15.592  1.00  0.00    -0.550 OA
ENDBRANCH  21  22
ENDBRANCH  20  21
ENDBRANCH  19  20
ENDBRANCH  18  19
ENDBRANCH  17  18
ENDBRANCH  16  17
ENDBRANCH  15  16
ENDBRANCH  14  15
ENDBRANCH  13  14
ENDBRANCH   1  13
TORSDOF 20
ENDMDL
MODEL 4
REMARK VINA RESULT:     0.728      5.113     12.283
REMARK INTER + INTRA:           0.498
REMARK INTER:                   1.436
REMARK INTRA:                  -0.938
REMARK UNBOUND:                -1.082
REMARK SMILES CCCCCCCCCCCCCCCCCCCCCC(=O)[O-]
REMARK SMILES IDX 12 1 11 2 10 3 9 4 8 5 7 6 6 7 5 8 4 9 3 10 2 11 1 12 13 13
REMARK SMILES IDX 14 14 15 15 16 16 17 17 18 18 19 19 20 20 21 21 22 22 23 23
REMARK SMILES IDX 24 24
REMARK H PARENT
REMARK Flexibility Score: inf
ROOT
ATOM      1  C   UNL     1      45.614  20.921  16.317  1.00  0.00     0.000 C 
ENDROOT
BRANCH   1   2
ATOM      2  C   UNL     1      45.583  22.431  16.607  1.00  0.00     0.000 C 
BRANCH   2   3
ATOM      3  C   UNL     1      44.179  23.020  16.856  1.00  0.00     0.000 C 
BRANCH   3   4
ATOM      4  C   UNL     1      43.265  23.077  15.615  1.00  0.00    -0.000 C 
BRANCH   4   5
ATOM      5  C   UNL     1      41.755  23.125  15.921  1.00  0.00    -0.000 C 
BRANCH   5   6
ATOM      6  C   UNL     1      40.839  22.926  14.698  1.00  0.00    -0.000 C 
BRANCH   6   7
ATOM      7  C   UNL     1      39.369  22.603  15.033  1.00  0.00    -0.000 C 
BRANCH   7   8
ATOM      8  C   UNL     1      38.377  22.783  13.867  1.00  0.00    -0.000 C 
BRANCH   8   9
ATOM      9  C   UNL     1      36.971  22.205  14.109  1.00  0.00    -0.000 C 
BRANCH   9  10
ATOM     10  C   UNL     1      36.966  21.063  15.140  1.00  0.00    -0.000 C 
BRANCH  10  11
ATOM     11  C   UNL     1      35.582  20.855  15.778  1.00  0.00    -0.003 C 
ATOM     12  C   UNL     1      34.986  19.482  15.465  1.00  0.00     0.004 C 
ENDBRANCH  10  11
ENDBRANCH   9  10
ENDBRANCH   8   9
ENDBRANCH   7   8
ENDBRANCH   6   7
ENDBRANCH   5   6
ENDBRANCH   4   5
ENDBRANCH   3   4
ENDBRANCH   2   3
ENDBRANCH   1   2
BRANCH   1  13
ATOM     13  C   UNL     1      46.598  20.547  15.200  1.00  0.00     0.000 C 
BRANCH  13  14
ATOM     14  C   UNL     1      48.030  20.451  15.740  1.00  0.00     0.000 C 
BRANCH  14  15
ATOM     15  C   UNL     1      48.919  21.552  15.141  1.00  0.00     0.000 C 
BRANCH  15  16
ATOM     16  C   UNL     1      50.260  21.698  15.877  1.00  0.00     0.000 C 
BRANCH  16  17
ATOM     17  C   UNL     1      50.268  22.873  16.868  1.00  0.00     0.000 C 
BRANCH  17  18
ATOM     18  C   UNL     1      49.284  22.624  18.021  1.00  0.00     0.000 C 
BRANCH  18  19
ATOM     19  C   UNL     1      49.951  22.696  19.406  1.00  0.00     0.000 C 
BRANCH  19  20
ATOM     20  C   UNL     1      51.251  21.879  19.549  1.00  0.00     0.006 C 
BRANCH  20  21
ATOM     21  C   UNL     1      52.020  22.127  20.856  1.00  0.00     0.053 C 
BRANCH  21  22
ATOM     22  C   UNL     1      51.143  21.975  22.060  1.00  0.00     0.041 C 
ATOM     23  O   UNL     1      51.221  22.801  23.008  1.00  0.00    -0.550 OA
ATOM     24  O   UNL     1      50.265  20.903  22.151  1.00  0.00    -0.550 OA
ENDBRANCH  21  22
ENDBRANCH  20  21
ENDBRANCH  19  20
ENDBRANCH  18  19
ENDBRANCH  17  18
ENDBRANCH  16  17
ENDBRANCH  15  16
ENDBRANCH  14  15
ENDBRANCH  13  14
ENDBRANCH   1  13
TORSDOF 20
ENDMDL
MODEL 5
REMARK VINA RESULT:     1.075      1.052      2.741
REMARK INTER + INTRA:           1.250
REMARK INTER:                   1.275
REMARK INTRA:                  -0.025
REMARK UNBOUND:                -1.082
REMARK SMILES CCCCCCCCCCCCCCCCCCCCCC(=O)[O-]
REMARK SMILES IDX 12 1 11 2 10 3 9 4 8 5 7 6 6 7 5 8 4 9 3 10 2 11 1 12 13 13
REMARK SMILES IDX 14 14 15 15 16 16 17 17 18 18 19 19 20 20 21 21 22 22 23 23
REMARK SMILES IDX 24 24
REMARK H PARENT
REMARK Flexibility Score: inf
ROOT
ATOM      1  C   UNL     1      45.239  20.895  15.534  1.00  0.00     0.000 C 
ENDROOT
BRANCH   1   2
ATOM      2  C   UNL     1      46.672  21.329  15.888  1.00  0.00     0.000 C 
BRANCH   2   3
ATOM      3  C   UNL     1      46.784  22.296  17.084  1.00  0.00     0.000 C 
BRANCH   3   4
ATOM      4  C   UNL     1      48.190  22.881  17.323  1.00  0.00    -0.000 C 
BRANCH   4   5
ATOM      5  C   UNL     1      49.006  22.186  18.431  1.00  0.00    -0.000 C 
BRANCH   5   6
ATOM      6  C   UNL     1      49.898  23.125  19.266  1.00  0.00    -0.000 C 
BRANCH   6   7
ATOM      7  C   UNL     1      51.349  22.640  19.458  1.00  0.00    -0.000 C 
BRANCH   7   8
ATOM      8  C   UNL     1      51.937  21.847  18.274  1.00  0.00    -0.000 C 
BRANCH   8   9
ATOM      9  C   UNL     1      51.519  22.348  16.879  1.00  0.00    -0.000 C 
BRANCH   9  10
ATOM     10  C   UNL     1      52.495  21.912  15.773  1.00  0.00    -0.000 C 
BRANCH  10  11
ATOM     11  C   UNL     1      51.770  21.478  14.488  1.00  0.00    -0.003 C 
ATOM     12  C   UNL     1      50.575  20.565  14.763  1.00  0.00     0.004 C 
ENDBRANCH  10  11
ENDBRANCH   9  10
ENDBRANCH   8   9
ENDBRANCH   7   8
ENDBRANCH   6   7
ENDBRANCH   5   6
ENDBRANCH   4   5
ENDBRANCH   3   4
ENDBRANCH   2   3
ENDBRANCH   1   2
BRANCH   1  13
ATOM     13  C   UNL     1      44.204  21.351  16.571  1.00  0.00     0.000 C 
BRANCH  13  14
ATOM     14  C   UNL     1      43.885  22.843  16.409  1.00  0.00     0.000 C 
BRANCH  14  15
ATOM     15  C   UNL     1      42.936  23.077  15.224  1.00  0.00     0.000 C 
BRANCH  15  16
ATOM     16  C   UNL     1      41.457  23.093  15.642  1.00  0.00     0.000 C 
BRANCH  16  17
ATOM     17  C   UNL     1      40.501  23.121  14.440  1.00  0.00     0.000 C 
BRANCH  17  18
ATOM     18  C   UNL     1      39.426  22.032  14.569  1.00  0.00     0.000 C 
BRANCH  18  19
ATOM     19  C   UNL     1      38.004  22.604  14.714  1.00  0.00     0.000 C 
BRANCH  19  20
ATOM     20  C   UNL     1      36.992  21.670  15.408  1.00  0.00     0.006 C 
BRANCH  20  21
ATOM     21  C   UNL     1      35.824  21.220  14.516  1.00  0.00     0.053 C 
BRANCH  21  22
ATOM     22  C   UNL     1      34.768  20.501  15.296  1.00  0.00     0.041 C 
ATOM     23  O   UNL     1      34.982  20.163  16.490  1.00  0.00    -0.550 OA
ATOM     24  O   UNL     1      33.560  20.173  14.694  1.00  0.00    -0.550 OA
ENDBRANCH  21  22
ENDBRANCH  20  21
ENDBRANCH  19  20
ENDBRANCH  18  19
ENDBRANCH  17  18
ENDBRANCH  16  17
ENDBRANCH  15  16
ENDBRANCH  14  15
ENDBRANCH  13  14
ENDBRANCH   1  13
TORSDOF 20
ENDMDL
MODEL 6
REMARK VINA RESULT:     1.301      1.694      3.163
REMARK INTER + INTRA:           1.741
REMARK INTER:                   2.134
REMARK INTRA:                  -0.393
REMARK UNBOUND:                -1.082
REMARK SMILES CCCCCCCCCCCCCCCCCCCCCC(=O)[O-]
REMARK SMILES IDX 12 1 11 2 10 3 9 4 8 5 7 6 6 7 5 8 4 9 3 10 2 11 1 12 13 13
REMARK SMILES IDX 14 14 15 15 16 16 17 17 18 18 19 19 20 20 21 21 22 22 23 23
REMARK SMILES IDX 24 24
REMARK H PARENT
REMARK Flexibility Score: inf
ROOT
ATOM      1  C   UNL     1      45.198  20.827  15.501  1.00  0.00     0.000 C 
ENDROOT
BRANCH   1   2
ATOM      2  C   UNL     1      46.645  21.243  15.819  1.00  0.00     0.000 C 
BRANCH   2   3
ATOM      3  C   UNL     1      46.796  22.231  16.994  1.00  0.00     0.000 C 
BRANCH   3   4
ATOM      4  C   UNL     1      48.223  22.775  17.211  1.00  0.00    -0.000 C 
BRANCH   4   5
ATOM      5  C   UNL     1      49.016  22.088  18.340  1.00  0.00    -0.000 C 
BRANCH   5   6
ATOM      6  C   UNL     1      49.470  23.026  19.476  1.00  0.00    -0.000 C 
BRANCH   6   7
ATOM      7  C   UNL     1      50.909  22.789  19.977  1.00  0.00    -0.000 C 
BRANCH   7   8
ATOM      8  C   UNL     1      51.880  22.207  18.930  1.00  0.00    -0.000 C 
BRANCH   8   9
ATOM      9  C   UNL     1      51.917  22.956  17.585  1.00  0.00    -0.000 C 
BRANCH   9  10
ATOM     10  C   UNL     1      52.592  22.142  16.468  1.00  0.00    -0.000 C 
BRANCH  10  11
ATOM     11  C   UNL     1      51.615  21.180  15.771  1.00  0.00    -0.003 C 
ATOM     12  C   UNL     1      51.732  21.220  14.247  1.00  0.00     0.004 C 
ENDBRANCH  10  11
ENDBRANCH   9  10
ENDBRANCH   8   9
ENDBRANCH   7   8
ENDBRANCH   6   7
ENDBRANCH   5   6
ENDBRANCH   4   5
ENDBRANCH   3   4
ENDBRANCH   2   3
ENDBRANCH   1   2
BRANCH   1  13
ATOM     13  C   UNL     1      44.194  21.303  16.560  1.00  0.00     0.000 C 
BRANCH  13  14
ATOM     14  C   UNL     1      43.877  22.794  16.386  1.00  0.00     0.000 C 
BRANCH  14  15
ATOM     15  C   UNL     1      42.881  23.014  15.238  1.00  0.00     0.000 C 
BRANCH  15  16
ATOM     16  C   UNL     1      41.425  23.098  15.723  1.00  0.00     0.000 C 
BRANCH  16  17
ATOM     17  C   UNL     1      40.414  23.120  14.566  1.00  0.00     0.000 C 
BRANCH  17  18
ATOM     18  C   UNL     1      39.283  22.111  14.807  1.00  0.00     0.000 C 
BRANCH  18  19
ATOM     19  C   UNL     1      37.915  22.781  15.028  1.00  0.00     0.000 C 
BRANCH  19  20
ATOM     20  C   UNL     1      36.896  22.577  13.888  1.00  0.00     0.006 C 
BRANCH  20  21
ATOM     21  C   UNL     1      37.427  22.924  12.488  1.00  0.00     0.053 C 
BRANCH  21  22
ATOM     22  C   UNL     1      36.515  22.435  11.406  1.00  0.00     0.041 C 
ATOM     23  O   UNL     1      36.965  21.716  10.475  1.00  0.00    -0.550 OA
ATOM     24  O   UNL     1      35.175  22.801  11.406  1.00  0.00    -0.550 OA
ENDBRANCH  21  22
ENDBRANCH  20  21
ENDBRANCH  19  20
ENDBRANCH  18  19
ENDBRANCH  17  18
ENDBRANCH  16  17
ENDBRANCH  15  16
ENDBRANCH  14  15
ENDBRANCH  13  14
ENDBRANCH   1  13
TORSDOF 20
ENDMDL
MODEL 7
REMARK VINA RESULT:     1.510      1.555      2.268
REMARK INTER + INTRA:           2.193
REMARK INTER:                   3.214
REMARK INTRA:                  -1.021
REMARK UNBOUND:                -1.082
REMARK SMILES CCCCCCCCCCCCCCCCCCCCCC(=O)[O-]
REMARK SMILES IDX 12 1 11 2 10 3 9 4 8 5 7 6 6 7 5 8 4 9 3 10 2 11 1 12 13 13
REMARK SMILES IDX 14 14 15 15 16 16 17 17 18 18 19 19 20 20 21 21 22 22 23 23
REMARK SMILES IDX 24 24
REMARK H PARENT
REMARK Flexibility Score: inf
ROOT
ATOM      1  C   UNL     1      45.907  20.942  15.994  1.00  0.00     0.000 C 
ENDROOT
BRANCH   1   2
ATOM      2  C   UNL     1      47.407  21.266  16.106  1.00  0.00     0.000 C 
BRANCH   2   3
ATOM      3  C   UNL     1      47.836  21.914  17.438  1.00  0.00     0.000 C 
BRANCH   3   4
ATOM      4  C   UNL     1      49.088  22.811  17.354  1.00  0.00    -0.000 C 
BRANCH   4   5
ATOM      5  C   UNL     1      50.398  22.145  17.818  1.00  0.00    -0.000 C 
BRANCH   5   6
ATOM      6  C   UNL     1      51.519  23.125  18.215  1.00  0.00    -0.000 C 
BRANCH   6   7
ATOM      7  C   UNL     1      52.618  22.525  19.114  1.00  0.00    -0.000 C 
BRANCH   7   8
ATOM      8  C   UNL     1      52.423  22.751  20.627  1.00  0.00    -0.000 C 
BRANCH   8   9
ATOM      9  C   UNL     1      52.792  21.553  21.521  1.00  0.00    -0.000 C 
BRANCH   9  10
ATOM     10  C   UNL     1      51.597  21.029  22.336  1.00  0.00    -0.000 C 
BRANCH  10  11
ATOM     11  C   UNL     1      50.270  21.133  21.566  1.00  0.00    -0.003 C 
ATOM     12  C   UNL     1      49.088  21.485  22.469  1.00  0.00     0.004 C 
ENDBRANCH  10  11
ENDBRANCH   9  10
ENDBRANCH   8   9
ENDBRANCH   7   8
ENDBRANCH   6   7
ENDBRANCH   5   6
ENDBRANCH   4   5
ENDBRANCH   3   4
ENDBRANCH   2   3
ENDBRANCH   1   2
BRANCH   1  13
ATOM     13  C   UNL     1      45.026  21.908  16.797  1.00  0.00     0.000 C 
BRANCH  13  14
ATOM     14  C   UNL     1      44.622  23.119  15.947  1.00  0.00     0.000 C 
BRANCH  14  15
ATOM     15  C   UNL     1      43.454  22.770  15.012  1.00  0.00     0.000 C 
BRANCH  15  16
ATOM     16  C   UNL     1      42.083  23.099  15.626  1.00  0.00     0.000 C 
BRANCH  16  17
ATOM     17  C   UNL     1      40.954  23.107  14.585  1.00  0.00     0.000 C 
BRANCH  17  18
ATOM     18  C   UNL     1      39.754  22.281  15.070  1.00  0.00     0.000 C 
BRANCH  18  19
ATOM     19  C   UNL     1      38.403  22.972  14.811  1.00  0.00     0.000 C 
BRANCH  19  20
ATOM     20  C   UNL     1      37.291  22.050  14.272  1.00  0.00     0.006 C 
BRANCH  20  21
ATOM     21  C   UNL     1      36.105  21.854  15.229  1.00  0.00     0.053 C 
BRANCH  21  22
ATOM     22  C   UNL     1      34.870  21.412  14.508  1.00  0.00     0.041 C 
ATOM     23  O   UNL     1      34.594  21.885  13.374  1.00  0.00    -0.550 OA
ATOM     24  O   UNL     1      34.004  20.502  15.102  1.00  0.00    -0.550 OA
ENDBRANCH  21  22
ENDBRANCH  20  21
ENDBRANCH  19  20
ENDBRANCH  18  19
ENDBRANCH  17  18
ENDBRANCH  16  17
ENDBRANCH  15  16
ENDBRANCH  14  15
ENDBRANCH  13  14
ENDBRANCH   1  13
TORSDOF 20
ENDMDL
