MODEL 1
REMARK VINA RESULT:    -5.937      0.000      0.000
REMARK INTER + INTRA:          -5.937
REMARK INTER:                  -5.937
REMARK INTRA:                   0.000
REMARK UNBOUND:                 0.000
REMARK SMILES C=C1c2ccccc2-c2ccccc21
REMARK SMILES IDX 1 1 2 2 3 3 4 4 5 5 6 6 7 7 8 8 9 9 10 10 11 11 12 12 13 13
REMARK SMILES IDX 14 14
REMARK H PARENT
REMARK Flexibility Score: inf
ROOT
ATOM      1  C   UNL     1     141.958 186.338 157.364  1.00  0.00     0.018 C 
ATOM      2  C   UNL     1     142.613 185.180 157.332  1.00  0.00    -0.017 C 
ATOM      3  C   UNL     1     142.846 184.258 158.453  1.00  0.00    -0.010 A 
ATOM      4  C   UNL     1     142.457 184.351 159.791  1.00  0.00     0.009 A 
ATOM      5  C   UNL     1     142.818 183.310 160.665  1.00  0.00     0.001 A 
ATOM      6  C   UNL     1     143.554 182.203 160.192  1.00  0.00     0.001 A 
ATOM      7  C   UNL     1     143.937 182.126 158.843  1.00  0.00     0.009 A 
ATOM      8  C   UNL     1     143.569 183.169 157.993  1.00  0.00    -0.010 A 
ATOM      9  C   UNL     1     143.824 183.353 156.568  1.00  0.00    -0.010 A 
ATOM     10  C   UNL     1     144.508 182.536 155.667  1.00  0.00     0.009 A 
ATOM     11  C   UNL     1     144.607 182.959 154.332  1.00  0.00     0.001 A 
ATOM     12  C   UNL     1     144.029 184.178 153.923  1.00  0.00     0.001 A 
ATOM     13  C   UNL     1     143.345 184.987 154.846  1.00  0.00     0.009 A 
ATOM     14  C   UNL     1     143.256 184.551 156.171  1.00  0.00    -0.010 A 
ENDROOT
TORSDOF 0
ENDMDL
MODEL 2
REMARK VINA RESULT:    -5.900      0.096      4.268
REMARK INTER + INTRA:          -5.900
REMARK INTER:                  -5.900
REMARK INTRA:                   0.000
REMARK UNBOUND:                 0.000
REMARK SMILES C=C1c2ccccc2-c2ccccc21
REMARK SMILES IDX 1 1 2 2 3 3 4 4 5 5 6 6 7 7 8 8 9 9 10 10 11 11 12 12 13 13
REMARK SMILES IDX 14 14
REMARK H PARENT
REMARK Flexibility Score: inf
ROOT
ATOM      1  C   UNL     1     141.965 186.289 157.491  1.00  0.00     0.018 C 
ATOM      2  C   UNL     1     142.624 185.134 157.428  1.00  0.00    -0.017 C 
ATOM      3  C   UNL     1     143.264 184.538 156.247  1.00  0.00    -0.010 A 
ATOM      4  C   UNL     1     143.346 185.007 154.934  1.00  0.00     0.009 A 
ATOM      5  C   UNL     1     144.029 184.225 153.987  1.00  0.00     0.001 A 
ATOM      6  C   UNL     1     144.614 182.997 154.362  1.00  0.00     0.001 A 
ATOM      7  C   UNL     1     144.522 182.540 155.688  1.00  0.00     0.009 A 
ATOM      8  C   UNL     1     143.840 183.332 156.612  1.00  0.00    -0.010 A 
ATOM      9  C   UNL     1     143.591 183.112 158.032  1.00  0.00    -0.010 A 
ATOM     10  C   UNL     1     143.967 182.049 158.855  1.00  0.00     0.009 A 
ATOM     11  C   UNL     1     143.590 182.092 160.207  1.00  0.00     0.001 A 
ATOM     12  C   UNL     1     142.852 183.182 160.710  1.00  0.00     0.001 A 
ATOM     13  C   UNL     1     142.483 184.243 159.865  1.00  0.00     0.009 A 
ATOM     14  C   UNL     1     142.866 184.185 158.523  1.00  0.00    -0.010 A 
ENDROOT
TORSDOF 0
ENDMDL
MODEL 3
REMARK VINA RESULT:    -5.808      3.739      5.727
REMARK INTER + INTRA:          -5.808
REMARK INTER:                  -5.808
REMARK INTRA:                   0.000
REMARK UNBOUND:                 0.000
REMARK SMILES C=C1c2ccccc2-c2ccccc21
REMARK SMILES IDX 1 1 2 2 3 3 4 4 5 5 6 6 7 7 8 8 9 9 10 10 11 11 12 12 13 13
REMARK SMILES IDX 14 14
REMARK H PARENT
REMARK Flexibility Score: inf
ROOT
ATOM      1  C   UNL     1     142.125 189.764 158.185  1.00  0.00     0.018 C 
ATOM      2  C   UNL     1     142.727 188.823 158.909  1.00  0.00    -0.017 C 
ATOM      3  C   UNL     1     142.431 187.383 158.921  1.00  0.00    -0.010 A 
ATOM      4  C   UNL     1     141.478 186.654 158.206  1.00  0.00     0.009 A 
ATOM      5  C   UNL     1     141.408 185.266 158.412  1.00  0.00     0.001 A 
ATOM      6  C   UNL     1     142.283 184.633 159.320  1.00  0.00     0.001 A 
ATOM      7  C   UNL     1     143.235 185.382 160.031  1.00  0.00     0.009 A 
ATOM      8  C   UNL     1     143.288 186.758 159.812  1.00  0.00    -0.010 A 
ATOM      9  C   UNL     1     144.161 187.768 160.400  1.00  0.00    -0.010 A 
ATOM     10  C   UNL     1     145.181 187.634 161.343  1.00  0.00     0.009 A 
ATOM     11  C   UNL     1     145.873 188.790 161.741  1.00  0.00     0.001 A 
ATOM     12  C   UNL     1     145.538 190.046 161.197  1.00  0.00     0.001 A 
ATOM     13  C   UNL     1     144.508 190.161 160.248  1.00  0.00     0.009 A 
ATOM     14  C   UNL     1     143.829 189.001 159.864  1.00  0.00    -0.010 A 
ENDROOT
TORSDOF 0
ENDMDL
MODEL 4
REMARK VINA RESULT:    -5.797      3.706      5.361
REMARK INTER + INTRA:          -5.797
REMARK INTER:                  -5.797
REMARK INTRA:                   0.000
REMARK UNBOUND:                 0.000
REMARK SMILES C=C1c2ccccc2-c2ccccc21
REMARK SMILES IDX 1 1 2 2 3 3 4 4 5 5 6 6 7 7 8 8 9 9 10 10 11 11 12 12 13 13
REMARK SMILES IDX 14 14
REMARK H PARENT
REMARK Flexibility Score: inf
ROOT
ATOM      1  C   UNL     1     142.123 189.760 158.182  1.00  0.00     0.018 C 
ATOM      2  C   UNL     1     142.714 188.806 158.898  1.00  0.00    -0.017 C 
ATOM      3  C   UNL     1     143.817 188.966 159.856  1.00  0.00    -0.010 A 
ATOM      4  C   UNL     1     144.508 190.115 160.250  1.00  0.00     0.009 A 
ATOM      5  C   UNL     1     145.536 189.982 161.199  1.00  0.00     0.001 A 
ATOM      6  C   UNL     1     145.857 188.717 161.734  1.00  0.00     0.001 A 
ATOM      7  C   UNL     1     145.152 187.572 161.326  1.00  0.00     0.009 A 
ATOM      8  C   UNL     1     144.135 187.725 160.384  1.00  0.00    -0.010 A 
ATOM      9  C   UNL     1     143.252 186.730 159.788  1.00  0.00    -0.010 A 
ATOM     10  C   UNL     1     143.183 185.351 159.995  1.00  0.00     0.009 A 
ATOM     11  C   UNL     1     142.223 184.619 159.278  1.00  0.00     0.001 A 
ATOM     12  C   UNL     1     141.357 185.268 158.375  1.00  0.00     0.001 A 
ATOM     13  C   UNL     1     141.442 186.657 158.180  1.00  0.00     0.009 A 
ATOM     14  C   UNL     1     142.403 187.370 158.901  1.00  0.00    -0.010 A 
ENDROOT
TORSDOF 0
ENDMDL
MODEL 5
REMARK VINA RESULT:    -5.777      1.025      3.025
REMARK INTER + INTRA:          -5.777
REMARK INTER:                  -5.777
REMARK INTRA:                   0.000
REMARK UNBOUND:                 0.000
REMARK SMILES C=C1c2ccccc2-c2ccccc21
REMARK SMILES IDX 1 1 2 2 3 3 4 4 5 5 6 6 7 7 8 8 9 9 10 10 11 11 12 12 13 13
REMARK SMILES IDX 14 14
REMARK H PARENT
REMARK Flexibility Score: inf
ROOT
ATOM      1  C   UNL     1     144.203 182.379 158.906  1.00  0.00     0.018 C 
ATOM      2  C   UNL     1     143.954 183.425 158.121  1.00  0.00    -0.017 C 
ATOM      3  C   UNL     1     143.539 184.772 158.539  1.00  0.00    -0.010 A 
ATOM      4  C   UNL     1     143.306 185.286 159.816  1.00  0.00     0.009 A 
ATOM      5  C   UNL     1     142.911 186.631 159.932  1.00  0.00     0.001 A 
ATOM      6  C   UNL     1     142.758 187.432 158.782  1.00  0.00     0.001 A 
ATOM      7  C   UNL     1     142.998 186.898 157.504  1.00  0.00     0.009 A 
ATOM      8  C   UNL     1     143.388 185.562 157.411  1.00  0.00    -0.010 A 
ATOM      9  C   UNL     1     143.699 184.756 156.236  1.00  0.00    -0.010 A 
ATOM     10  C   UNL     1     143.690 185.100 154.884  1.00  0.00     0.009 A 
ATOM     11  C   UNL     1     144.036 184.114 153.946  1.00  0.00     0.001 A 
ATOM     12  C   UNL     1     144.382 182.815 154.370  1.00  0.00     0.001 A 
ATOM     13  C   UNL     1     144.385 182.488 155.736  1.00  0.00     0.009 A 
ATOM     14  C   UNL     1     144.037 183.480 156.656  1.00  0.00    -0.010 A 
ENDROOT
TORSDOF 0
ENDMDL
MODEL 6
REMARK VINA RESULT:    -5.773      1.024      4.795
REMARK INTER + INTRA:          -5.773
REMARK INTER:                  -5.773
REMARK INTRA:                   0.000
REMARK UNBOUND:                 0.000
REMARK SMILES C=C1c2ccccc2-c2ccccc21
REMARK SMILES IDX 1 1 2 2 3 3 4 4 5 5 6 6 7 7 8 8 9 9 10 10 11 11 12 12 13 13
REMARK SMILES IDX 14 14
REMARK H PARENT
REMARK Flexibility Score: inf
ROOT
ATOM      1  C   UNL     1     144.202 182.380 158.896  1.00  0.00     0.018 C 
ATOM      2  C   UNL     1     143.946 183.434 158.123  1.00  0.00    -0.017 C 
ATOM      3  C   UNL     1     144.020 183.502 156.657  1.00  0.00    -0.010 A 
ATOM      4  C   UNL     1     144.364 182.520 155.726  1.00  0.00     0.009 A 
ATOM      5  C   UNL     1     144.353 182.859 154.363  1.00  0.00     0.001 A 
ATOM      6  C   UNL     1     144.001 184.163 153.953  1.00  0.00     0.001 A 
ATOM      7  C   UNL     1     143.657 185.139 154.903  1.00  0.00     0.009 A 
ATOM      8  C   UNL     1     143.674 184.781 156.251  1.00  0.00    -0.010 A 
ATOM      9  C   UNL     1     143.368 185.575 157.436  1.00  0.00    -0.010 A 
ATOM     10  C   UNL     1     142.975 186.910 157.545  1.00  0.00     0.009 A 
ATOM     11  C   UNL     1     142.742 187.430 158.828  1.00  0.00     0.001 A 
ATOM     12  C   UNL     1     142.904 186.619 159.969  1.00  0.00     0.001 A 
ATOM     13  C   UNL     1     143.301 185.277 159.839  1.00  0.00     0.009 A 
ATOM     14  C   UNL     1     143.529 184.775 158.555  1.00  0.00    -0.010 A 
ENDROOT
TORSDOF 0
ENDMDL
MODEL 7
REMARK VINA RESULT:    -5.664      2.227      4.348
REMARK INTER + INTRA:          -5.664
REMARK INTER:                  -5.664
REMARK INTRA:                   0.000
REMARK UNBOUND:                 0.000
REMARK SMILES C=C1c2ccccc2-c2ccccc21
REMARK SMILES IDX 1 1 2 2 3 3 4 4 5 5 6 6 7 7 8 8 9 9 10 10 11 11 12 12 13 13
REMARK SMILES IDX 14 14
REMARK H PARENT
REMARK Flexibility Score: inf
ROOT
ATOM      1  C   UNL     1     140.920 185.336 158.375  1.00  0.00     0.018 C 
ATOM      2  C   UNL     1     142.240 185.241 158.237  1.00  0.00    -0.017 C 
ATOM      3  C   UNL     1     142.977 184.423 157.263  1.00  0.00    -0.010 A 
ATOM      4  C   UNL     1     142.504 183.564 156.268  1.00  0.00     0.009 A 
ATOM      5  C   UNL     1     143.442 182.894 155.464  1.00  0.00     0.001 A 
ATOM      6  C   UNL     1     144.824 183.091 155.663  1.00  0.00     0.001 A 
ATOM      7  C   UNL     1     145.282 183.959 156.668  1.00  0.00     0.009 A 
ATOM      8  C   UNL     1     144.335 184.614 157.455  1.00  0.00    -0.010 A 
ATOM      9  C   UNL     1     144.519 185.556 158.554  1.00  0.00    -0.010 A 
ATOM     10  C   UNL     1     145.692 186.060 159.118  1.00  0.00     0.009 A 
ATOM     11  C   UNL     1     145.579 186.968 160.183  1.00  0.00     0.001 A 
ATOM     12  C   UNL     1     144.311 187.354 160.662  1.00  0.00     0.001 A 
ATOM     13  C   UNL     1     143.141 186.836 160.081  1.00  0.00     0.009 A 
ATOM     14  C   UNL     1     143.271 185.933 159.022  1.00  0.00    -0.010 A 
ENDROOT
TORSDOF 0
ENDMDL
MODEL 8
REMARK VINA RESULT:    -5.643      2.239      2.721
REMARK INTER + INTRA:          -5.643
REMARK INTER:                  -5.643
REMARK INTRA:                   0.000
REMARK UNBOUND:                 0.000
REMARK SMILES C=C1c2ccccc2-c2ccccc21
REMARK SMILES IDX 1 1 2 2 3 3 4 4 5 5 6 6 7 7 8 8 9 9 10 10 11 11 12 12 13 13
REMARK SMILES IDX 14 14
REMARK H PARENT
REMARK Flexibility Score: inf
ROOT
ATOM      1  C   UNL     1     140.935 185.355 158.382  1.00  0.00     0.018 C 
ATOM      2  C   UNL     1     142.256 185.268 158.240  1.00  0.00    -0.017 C 
ATOM      3  C   UNL     1     143.284 185.949 159.039  1.00  0.00    -0.010 A 
ATOM      4  C   UNL     1     143.151 186.833 160.113  1.00  0.00     0.009 A 
ATOM      5  C   UNL     1     144.318 187.346 160.704  1.00  0.00     0.001 A 
ATOM      6  C   UNL     1     145.589 186.972 160.218  1.00  0.00     0.001 A 
ATOM      7  C   UNL     1     145.705 186.082 159.137  1.00  0.00     0.009 A 
ATOM      8  C   UNL     1     144.534 185.585 158.565  1.00  0.00    -0.010 A 
ATOM      9  C   UNL     1     144.354 184.661 157.451  1.00  0.00    -0.010 A 
ATOM     10  C   UNL     1     145.303 184.023 156.652  1.00  0.00     0.009 A 
ATOM     11  C   UNL     1     144.848 183.171 155.632  1.00  0.00     0.001 A 
ATOM     12  C   UNL     1     143.467 182.973 155.429  1.00  0.00     0.001 A 
ATOM     13  C   UNL     1     142.527 183.625 156.244  1.00  0.00     0.009 A 
ATOM     14  C   UNL     1     142.996 184.469 157.254  1.00  0.00    -0.010 A 
ENDROOT
TORSDOF 0
ENDMDL
MODEL 9
REMARK VINA RESULT:    -5.625      3.728      6.228
REMARK INTER + INTRA:          -5.625
REMARK INTER:                  -5.625
REMARK INTRA:                   0.000
REMARK UNBOUND:                 0.000
REMARK SMILES C=C1c2ccccc2-c2ccccc21
REMARK SMILES IDX 1 1 2 2 3 3 4 4 5 5 6 6 7 7 8 8 9 9 10 10 11 11 12 12 13 13
REMARK SMILES IDX 14 14
REMARK H PARENT
REMARK Flexibility Score: inf
ROOT
ATOM      1  C   UNL     1     145.117 187.590 161.688  1.00  0.00     0.018 C 
ATOM      2  C   UNL     1     144.292 187.837 160.673  1.00  0.00    -0.017 C 
ATOM      3  C   UNL     1     144.047 189.131 160.020  1.00  0.00    -0.010 A 
ATOM      4  C   UNL     1     144.591 190.390 160.284  1.00  0.00     0.009 A 
ATOM      5  C   UNL     1     144.174 191.475 159.495  1.00  0.00     0.001 A 
ATOM      6  C   UNL     1     143.228 191.289 158.464  1.00  0.00     0.001 A 
ATOM      7  C   UNL     1     142.691 190.015 158.213  1.00  0.00     0.009 A 
ATOM      8  C   UNL     1     143.118 188.951 159.007  1.00  0.00    -0.010 A 
ATOM      9  C   UNL     1     142.738 187.544 158.974  1.00  0.00    -0.010 A 
ATOM     10  C   UNL     1     141.841 186.876 158.138  1.00  0.00     0.009 A 
ATOM     11  C   UNL     1     141.660 185.497 158.326  1.00  0.00     0.001 A 
ATOM     12  C   UNL     1     142.370 184.813 159.334  1.00  0.00     0.001 A 
ATOM     13  C   UNL     1     143.268 185.503 160.166  1.00  0.00     0.009 A 
ATOM     14  C   UNL     1     143.436 186.876 159.966  1.00  0.00    -0.010 A 
ENDROOT
TORSDOF 0
ENDMDL
