MODEL 1
REMARK VINA RESULT:    -4.881      0.000      0.000
REMARK INTER + INTRA:          -9.703
REMARK INTER:                  -8.590
REMARK INTRA:                  -1.113
REMARK UNBOUND:                -1.113
REMARK SMILES CCCCCCCCCCCCCCC(=O)[O-]
REMARK SMILES IDX 9 1 10 2 11 3 12 4 13 5 14 6 15 7 16 8 17 9 8 10 7 11 6 12
REMARK SMILES IDX 5 13 4 14 3 15 2 16 1 17
REMARK H PARENT
REMARK Flexibility Score: inf
ROOT
ATOM      1  C   UNL     1     -12.666 -12.677  15.486  1.00  0.00     0.000 C 
ENDROOT
BRANCH   1   2
ATOM      2  C   UNL     1     -11.218 -12.879  15.956  1.00  0.00     0.000 C 
BRANCH   2   3
ATOM      3  C   UNL     1     -10.414 -13.799  15.021  1.00  0.00     0.000 C 
BRANCH   3   4
ATOM      4  C   UNL     1      -9.368 -13.032  14.194  1.00  0.00     0.000 C 
BRANCH   4   5
ATOM      5  C   UNL     1      -8.958 -11.702  14.849  1.00  0.00     0.006 C 
BRANCH   5   6
ATOM      6  C   UNL     1      -8.362 -10.706  13.845  1.00  0.00     0.053 C 
BRANCH   6   7
ATOM      7  C   UNL     1      -6.872 -10.829  13.813  1.00  0.00     0.041 C 
ATOM      8  O   UNL     1      -6.150  -9.798  13.847  1.00  0.00    -0.550 OA
ATOM      9  O   UNL     1      -6.278 -12.086  13.795  1.00  0.00    -0.550 OA
ENDBRANCH   6   7
ENDBRANCH   5   6
ENDBRANCH   4   5
ENDBRANCH   3   4
ENDBRANCH   2   3
ENDBRANCH   1   2
BRANCH   1  10
ATOM     10  C   UNL     1     -12.821 -13.057  14.008  1.00  0.00     0.000 C 
BRANCH  10  11
ATOM     11  C   UNL     1     -13.612 -11.985  13.243  1.00  0.00    -0.000 C 
BRANCH  11  12
ATOM     12  C   UNL     1     -15.033 -12.445  12.879  1.00  0.00    -0.000 C 
BRANCH  12  13
ATOM     13  C   UNL     1     -15.236 -13.957  13.081  1.00  0.00    -0.000 C 
BRANCH  13  14
ATOM     14  C   UNL     1     -16.605 -14.279  13.717  1.00  0.00    -0.000 C 
BRANCH  14  15
ATOM     15  C   UNL     1     -16.856 -13.545  15.046  1.00  0.00    -0.000 C 
BRANCH  15  16
ATOM     16  C   UNL     1     -15.951 -14.042  16.181  1.00  0.00    -0.003 C 
ATOM     17  C   UNL     1     -16.228 -13.284  17.476  1.00  0.00     0.004 C 
ENDBRANCH  15  16
ENDBRANCH  14  15
ENDBRANCH  13  14
ENDBRANCH  12  13
ENDBRANCH  11  12
ENDBRANCH  10  11
ENDBRANCH   1  10
TORSDOF 13
ENDMDL
MODEL 2
REMARK VINA RESULT:    -4.760      3.418      7.544
REMARK INTER + INTRA:          -9.491
REMARK INTER:                  -8.209
REMARK INTRA:                  -1.282
REMARK UNBOUND:                -1.113
REMARK SMILES CCCCCCCCCCCCCCC(=O)[O-]
REMARK SMILES IDX 9 1 10 2 11 3 12 4 13 5 14 6 15 7 16 8 17 9 8 10 7 11 6 12
REMARK SMILES IDX 5 13 4 14 3 15 2 16 1 17
REMARK H PARENT
REMARK Flexibility Score: inf
ROOT
ATOM      1  C   UNL     1     -13.007 -12.366  14.698  1.00  0.00     0.000 C 
ENDROOT
BRANCH   1   2
ATOM      2  C   UNL     1     -13.851 -12.330  15.980  1.00  0.00     0.000 C 
BRANCH   2   3
ATOM      3  C   UNL     1     -14.569 -13.661  16.257  1.00  0.00     0.000 C 
BRANCH   3   4
ATOM      4  C   UNL     1     -16.094 -13.496  16.378  1.00  0.00     0.000 C 
BRANCH   4   5
ATOM      5  C   UNL     1     -16.841 -13.988  15.127  1.00  0.00     0.006 C 
BRANCH   5   6
ATOM      6  C   UNL     1     -16.867 -12.942  14.004  1.00  0.00     0.053 C 
BRANCH   6   7
ATOM      7  C   UNL     1     -15.869 -13.290  12.946  1.00  0.00     0.041 C 
ATOM      8  O   UNL     1     -15.463 -14.475  12.823  1.00  0.00    -0.550 OA
ATOM      9  O   UNL     1     -15.422 -12.313  12.063  1.00  0.00    -0.550 OA
ENDBRANCH   6   7
ENDBRANCH   5   6
ENDBRANCH   4   5
ENDBRANCH   3   4
ENDBRANCH   2   3
ENDBRANCH   1   2
BRANCH   1  10
ATOM     10  C   UNL     1     -12.394 -13.756  14.485  1.00  0.00     0.000 C 
BRANCH  10  11
ATOM     11  C   UNL     1     -10.875 -13.662  14.271  1.00  0.00    -0.000 C 
BRANCH  11  12
ATOM     12  C   UNL     1     -10.102 -13.474  15.586  1.00  0.00    -0.000 C 
BRANCH  12  13
ATOM     13  C   UNL     1      -9.185 -12.239  15.564  1.00  0.00    -0.000 C 
BRANCH  13  14
ATOM     14  C   UNL     1      -9.406 -11.374  14.306  1.00  0.00    -0.000 C 
BRANCH  14  15
ATOM     15  C   UNL     1      -8.141 -10.636  13.835  1.00  0.00    -0.000 C 
BRANCH  15  16
ATOM     16  C   UNL     1      -6.873 -11.102  14.562  1.00  0.00    -0.003 C 
ATOM     17  C   UNL     1      -5.686 -11.176  13.605  1.00  0.00     0.004 C 
ENDBRANCH  15  16
ENDBRANCH  14  15
ENDBRANCH  13  14
ENDBRANCH  12  13
ENDBRANCH  11  12
ENDBRANCH  10  11
ENDBRANCH   1  10
TORSDOF 13
ENDMDL
MODEL 3
REMARK VINA RESULT:    -4.711      1.046      2.721
REMARK INTER + INTRA:          -9.405
REMARK INTER:                  -8.437
REMARK INTRA:                  -0.968
REMARK UNBOUND:                -1.113
REMARK SMILES CCCCCCCCCCCCCCC(=O)[O-]
REMARK SMILES IDX 9 1 10 2 11 3 12 4 13 5 14 6 15 7 16 8 17 9 8 10 7 11 6 12
REMARK SMILES IDX 5 13 4 14 3 15 2 16 1 17
REMARK H PARENT
REMARK Flexibility Score: inf
ROOT
ATOM      1  C   UNL     1     -12.597 -13.404  15.526  1.00  0.00     0.000 C 
ENDROOT
BRANCH   1   2
ATOM      2  C   UNL     1     -11.184 -12.809  15.622  1.00  0.00     0.000 C 
BRANCH   2   3
ATOM      3  C   UNL     1     -10.660 -12.303  14.268  1.00  0.00     0.000 C 
BRANCH   3   4
ATOM      4  C   UNL     1      -9.406 -11.423  14.412  1.00  0.00     0.000 C 
BRANCH   4   5
ATOM      5  C   UNL     1      -8.311 -12.091  15.261  1.00  0.00     0.006 C 
BRANCH   5   6
ATOM      6  C   UNL     1      -7.112 -11.167  15.514  1.00  0.00     0.053 C 
BRANCH   6   7
ATOM      7  C   UNL     1      -6.328 -10.976  14.255  1.00  0.00     0.041 C 
ATOM      8  O   UNL     1      -5.790 -11.963  13.687  1.00  0.00    -0.550 OA
ATOM      9  O   UNL     1      -6.230  -9.714  13.680  1.00  0.00    -0.550 OA
ENDBRANCH   6   7
ENDBRANCH   5   6
ENDBRANCH   4   5
ENDBRANCH   3   4
ENDBRANCH   2   3
ENDBRANCH   1   2
BRANCH   1  10
ATOM     10  C   UNL     1     -13.440 -13.012  16.746  1.00  0.00     0.000 C 
BRANCH  10  11
ATOM     11  C   UNL     1     -14.852 -12.575  16.323  1.00  0.00    -0.000 C 
BRANCH  11  12
ATOM     12  C   UNL     1     -15.819 -13.760  16.178  1.00  0.00    -0.000 C 
BRANCH  12  13
ATOM     13  C   UNL     1     -16.862 -13.542  15.067  1.00  0.00    -0.000 C 
BRANCH  13  14
ATOM     14  C   UNL     1     -16.371 -14.062  13.700  1.00  0.00    -0.000 C 
BRANCH  14  15
ATOM     15  C   UNL     1     -16.144 -12.949  12.662  1.00  0.00    -0.000 C 
BRANCH  15  16
ATOM     16  C   UNL     1     -14.748 -12.319  12.760  1.00  0.00    -0.003 C 
ATOM     17  C   UNL     1     -14.479 -11.393  11.577  1.00  0.00     0.004 C 
ENDBRANCH  15  16
ENDBRANCH  14  15
ENDBRANCH  13  14
ENDBRANCH  12  13
ENDBRANCH  11  12
ENDBRANCH  10  11
ENDBRANCH   1  10
TORSDOF 13
ENDMDL
MODEL 4
REMARK VINA RESULT:    -4.688      1.559      3.233
REMARK INTER + INTRA:          -9.364
REMARK INTER:                  -8.232
REMARK INTRA:                  -1.132
REMARK UNBOUND:                -1.113
REMARK SMILES CCCCCCCCCCCCCCC(=O)[O-]
REMARK SMILES IDX 9 1 10 2 11 3 12 4 13 5 14 6 15 7 16 8 17 9 8 10 7 11 6 12
REMARK SMILES IDX 5 13 4 14 3 15 2 16 1 17
REMARK H PARENT
REMARK Flexibility Score: inf
ROOT
ATOM      1  C   UNL     1     -14.262 -11.933  12.949  1.00  0.00     0.000 C 
ENDROOT
BRANCH   1   2
ATOM      2  C   UNL     1     -12.978 -11.843  13.786  1.00  0.00     0.000 C 
BRANCH   2   3
ATOM      3  C   UNL     1     -12.586 -13.190  14.417  1.00  0.00     0.000 C 
BRANCH   3   4
ATOM      4  C   UNL     1     -12.159 -13.051  15.889  1.00  0.00     0.000 C 
BRANCH   4   5
ATOM      5  C   UNL     1     -10.685 -12.639  16.039  1.00  0.00     0.006 C 
BRANCH   5   6
ATOM      6  C   UNL     1      -9.794 -13.214  14.930  1.00  0.00     0.053 C 
BRANCH   6   7
ATOM      7  C   UNL     1      -8.810 -12.187  14.468  1.00  0.00     0.041 C 
ATOM      8  O   UNL     1      -7.580 -12.456  14.437  1.00  0.00    -0.550 OA
ATOM      9  O   UNL     1      -9.255 -10.947  14.025  1.00  0.00    -0.550 OA
ENDBRANCH   6   7
ENDBRANCH   5   6
ENDBRANCH   4   5
ENDBRANCH   3   4
ENDBRANCH   2   3
ENDBRANCH   1   2
BRANCH   1  10
ATOM     10  C   UNL     1     -15.112 -13.136  13.376  1.00  0.00     0.000 C 
BRANCH  10  11
ATOM     11  C   UNL     1     -16.272 -12.697  14.284  1.00  0.00    -0.000 C 
BRANCH  11  12
ATOM     12  C   UNL     1     -16.593 -13.731  15.374  1.00  0.00    -0.000 C 
BRANCH  12  13
ATOM     13  C   UNL     1     -15.624 -13.657  16.567  1.00  0.00    -0.000 C 
BRANCH  13  14
ATOM     14  C   UNL     1     -16.308 -13.110  17.838  1.00  0.00    -0.000 C 
BRANCH  14  15
ATOM     15  C   UNL     1     -15.376 -12.269  18.727  1.00  0.00    -0.000 C 
BRANCH  15  16
ATOM     16  C   UNL     1     -15.963 -11.999  20.118  1.00  0.00    -0.003 C 
ATOM     17  C   UNL     1     -17.486 -11.919  20.066  1.00  0.00     0.004 C 
ENDBRANCH  15  16
ENDBRANCH  14  15
ENDBRANCH  13  14
ENDBRANCH  12  13
ENDBRANCH  11  12
ENDBRANCH  10  11
ENDBRANCH   1  10
TORSDOF 13
ENDMDL
MODEL 5
REMARK VINA RESULT:    -4.650      1.363      2.399
REMARK INTER + INTRA:          -9.296
REMARK INTER:                  -8.340
REMARK INTRA:                  -0.956
REMARK UNBOUND:                -1.113
REMARK SMILES CCCCCCCCCCCCCCC(=O)[O-]
REMARK SMILES IDX 9 1 10 2 11 3 12 4 13 5 14 6 15 7 16 8 17 9 8 10 7 11 6 12
REMARK SMILES IDX 5 13 4 14 3 15 2 16 1 17
REMARK H PARENT
REMARK Flexibility Score: inf
ROOT
ATOM      1  C   UNL     1     -13.458 -12.503  13.976  1.00  0.00     0.000 C 
ENDROOT
BRANCH   1   2
ATOM      2  C   UNL     1     -11.931 -12.615  14.099  1.00  0.00     0.000 C 
BRANCH   2   3
ATOM      3  C   UNL     1     -11.475 -12.954  15.528  1.00  0.00     0.000 C 
BRANCH   3   4
ATOM      4  C   UNL     1      -9.944 -12.929  15.680  1.00  0.00     0.000 C 
BRANCH   4   5
ATOM      5  C   UNL     1      -9.227 -12.567  14.369  1.00  0.00     0.006 C 
BRANCH   5   6
ATOM      6  C   UNL     1      -8.577 -11.177  14.413  1.00  0.00     0.053 C 
BRANCH   6   7
ATOM      7  C   UNL     1      -7.128 -11.292  14.763  1.00  0.00     0.041 C 
ATOM      8  O   UNL     1      -6.724 -10.960  15.909  1.00  0.00    -0.550 OA
ATOM      9  O   UNL     1      -6.228 -11.811  13.839  1.00  0.00    -0.550 OA
ENDBRANCH   6   7
ENDBRANCH   5   6
ENDBRANCH   4   5
ENDBRANCH   3   4
ENDBRANCH   2   3
ENDBRANCH   1   2
BRANCH   1  10
ATOM     10  C   UNL     1     -14.085 -13.870  13.672  1.00  0.00     0.000 C 
BRANCH  10  11
ATOM     11  C   UNL     1     -15.616 -13.812  13.784  1.00  0.00    -0.000 C 
BRANCH  11  12
ATOM     12  C   UNL     1     -16.090 -12.937  14.956  1.00  0.00    -0.000 C 
BRANCH  12  13
ATOM     13  C   UNL     1     -16.126 -13.701  16.290  1.00  0.00    -0.000 C 
BRANCH  13  14
ATOM     14  C   UNL     1     -14.980 -13.276  17.233  1.00  0.00    -0.000 C 
BRANCH  14  15
ATOM     15  C   UNL     1     -15.433 -12.354  18.378  1.00  0.00    -0.000 C 
BRANCH  15  16
ATOM     16  C   UNL     1     -16.812 -12.731  18.937  1.00  0.00    -0.003 C 
ATOM     17  C   UNL     1     -16.928 -12.358  20.412  1.00  0.00     0.004 C 
ENDBRANCH  15  16
ENDBRANCH  14  15
ENDBRANCH  13  14
ENDBRANCH  12  13
ENDBRANCH  11  12
ENDBRANCH  10  11
ENDBRANCH   1  10
TORSDOF 13
ENDMDL
MODEL 6
REMARK VINA RESULT:    -4.588      3.606      7.632
REMARK INTER + INTRA:          -9.188
REMARK INTER:                  -8.004
REMARK INTRA:                  -1.184
REMARK UNBOUND:                -1.113
REMARK SMILES CCCCCCCCCCCCCCC(=O)[O-]
REMARK SMILES IDX 9 1 10 2 11 3 12 4 13 5 14 6 15 7 16 8 17 9 8 10 7 11 6 12
REMARK SMILES IDX 5 13 4 14 3 15 2 16 1 17
REMARK H PARENT
REMARK Flexibility Score: inf
ROOT
ATOM      1  C   UNL     1     -13.053 -12.092  13.697  1.00  0.00     0.000 C 
ENDROOT
BRANCH   1   2
ATOM      2  C   UNL     1     -14.359 -12.026  12.891  1.00  0.00     0.000 C 
BRANCH   2   3
ATOM      3  C   UNL     1     -14.984 -13.412  12.659  1.00  0.00     0.000 C 
BRANCH   3   4
ATOM      4  C   UNL     1     -16.491 -13.439  12.965  1.00  0.00     0.000 C 
BRANCH   4   5
ATOM      5  C   UNL     1     -16.818 -12.899  14.367  1.00  0.00     0.006 C 
BRANCH   5   6
ATOM      6  C   UNL     1     -16.414 -13.870  15.485  1.00  0.00     0.053 C 
BRANCH   6   7
ATOM      7  C   UNL     1     -15.961 -13.113  16.693  1.00  0.00     0.041 C 
ATOM      8  O   UNL     1     -15.082 -12.218  16.587  1.00  0.00    -0.550 OA
ATOM      9  O   UNL     1     -16.547 -13.362  17.929  1.00  0.00    -0.550 OA
ENDBRANCH   6   7
ENDBRANCH   5   6
ENDBRANCH   4   5
ENDBRANCH   3   4
ENDBRANCH   2   3
ENDBRANCH   1   2
BRANCH   1  10
ATOM     10  C   UNL     1     -12.830 -13.499  14.264  1.00  0.00     0.000 C 
BRANCH  10  11
ATOM     11  C   UNL     1     -11.933 -13.455  15.511  1.00  0.00    -0.000 C 
BRANCH  11  12
ATOM     12  C   UNL     1     -10.617 -12.699  15.267  1.00  0.00    -0.000 C 
BRANCH  12  13
ATOM     13  C   UNL     1      -9.770 -13.328  14.148  1.00  0.00    -0.000 C 
BRANCH  13  14
ATOM     14  C   UNL     1      -8.522 -12.482  13.819  1.00  0.00    -0.000 C 
BRANCH  14  15
ATOM     15  C   UNL     1      -8.187 -11.433  14.893  1.00  0.00    -0.000 C 
BRANCH  15  16
ATOM     16  C   UNL     1      -6.689 -11.110  14.964  1.00  0.00    -0.003 C 
ATOM     17  C   UNL     1      -6.280 -10.149  13.851  1.00  0.00     0.004 C 
ENDBRANCH  15  16
ENDBRANCH  14  15
ENDBRANCH  13  14
ENDBRANCH  12  13
ENDBRANCH  11  12
ENDBRANCH  10  11
ENDBRANCH   1  10
TORSDOF 13
ENDMDL
MODEL 7
REMARK VINA RESULT:    -4.473      4.489      7.778
REMARK INTER + INTRA:          -8.986
REMARK INTER:                  -8.066
REMARK INTRA:                  -0.920
REMARK UNBOUND:                -1.113
REMARK SMILES CCCCCCCCCCCCCCC(=O)[O-]
REMARK SMILES IDX 9 1 10 2 11 3 12 4 13 5 14 6 15 7 16 8 17 9 8 10 7 11 6 12
REMARK SMILES IDX 5 13 4 14 3 15 2 16 1 17
REMARK H PARENT
REMARK Flexibility Score: inf
ROOT
ATOM      1  C   UNL     1     -14.774 -13.596  13.673  1.00  0.00     0.000 C 
ENDROOT
BRANCH   1   2
ATOM      2  C   UNL     1     -16.214 -13.280  14.105  1.00  0.00     0.000 C 
BRANCH   2   3
ATOM      3  C   UNL     1     -16.548 -13.826  15.503  1.00  0.00     0.000 C 
BRANCH   3   4
ATOM      4  C   UNL     1     -15.589 -13.302  16.586  1.00  0.00     0.000 C 
BRANCH   4   5
ATOM      5  C   UNL     1     -16.276 -13.142  17.953  1.00  0.00     0.006 C 
BRANCH   5   6
ATOM      6  C   UNL     1     -15.600 -12.084  18.835  1.00  0.00     0.053 C 
BRANCH   6   7
ATOM      7  C   UNL     1     -16.563 -11.566  19.856  1.00  0.00     0.041 C 
ATOM      8  O   UNL     1     -17.785 -11.857  19.779  1.00  0.00    -0.550 OA
ATOM      9  O   UNL     1     -16.102 -10.801  20.921  1.00  0.00    -0.550 OA
ENDBRANCH   6   7
ENDBRANCH   5   6
ENDBRANCH   4   5
ENDBRANCH   3   4
ENDBRANCH   2   3
ENDBRANCH   1   2
BRANCH   1  10
ATOM     10  C   UNL     1     -14.025 -12.315  13.284  1.00  0.00     0.000 C 
BRANCH  10  11
ATOM     11  C   UNL     1     -12.686 -12.211  14.029  1.00  0.00    -0.000 C 
BRANCH  11  12
ATOM     12  C   UNL     1     -12.373 -13.465  14.862  1.00  0.00    -0.000 C 
BRANCH  12  13
ATOM     13  C   UNL     1     -10.866 -13.762  14.944  1.00  0.00    -0.000 C 
BRANCH  13  14
ATOM     14  C   UNL     1     -10.122 -12.745  15.834  1.00  0.00    -0.000 C 
BRANCH  14  15
ATOM     15  C   UNL     1      -9.210 -11.787  15.048  1.00  0.00    -0.000 C 
BRANCH  15  16
ATOM     16  C   UNL     1      -7.905 -12.450  14.587  1.00  0.00    -0.003 C 
ATOM     17  C   UNL     1      -7.816 -12.489  13.064  1.00  0.00     0.004 C 
ENDBRANCH  15  16
ENDBRANCH  14  15
ENDBRANCH  13  14
ENDBRANCH  12  13
ENDBRANCH  11  12
ENDBRANCH  10  11
ENDBRANCH   1  10
TORSDOF 13
ENDMDL
MODEL 8
REMARK VINA RESULT:    -4.424      6.060      8.574
REMARK INTER + INTRA:          -8.899
REMARK INTER:                  -7.816
REMARK INTRA:                  -1.083
REMARK UNBOUND:                -1.113
REMARK SMILES CCCCCCCCCCCCCCC(=O)[O-]
REMARK SMILES IDX 9 1 10 2 11 3 12 4 13 5 14 6 15 7 16 8 17 9 8 10 7 11 6 12
REMARK SMILES IDX 5 13 4 14 3 15 2 16 1 17
REMARK H PARENT
REMARK Flexibility Score: inf
ROOT
ATOM      1  C   UNL     1     -15.759 -13.655  16.845  1.00  0.00     0.000 C 
ENDROOT
BRANCH   1   2
ATOM      2  C   UNL     1     -16.485 -13.096  18.078  1.00  0.00     0.000 C 
BRANCH   2   3
ATOM      3  C   UNL     1     -15.684 -11.994  18.790  1.00  0.00     0.000 C 
BRANCH   3   4
ATOM      4  C   UNL     1     -16.109 -11.809  20.257  1.00  0.00     0.000 C 
BRANCH   4   5
ATOM      5  C   UNL     1     -17.636 -11.726  20.422  1.00  0.00     0.006 C 
BRANCH   5   6
ATOM      6  C   UNL     1     -18.084 -10.450  21.149  1.00  0.00     0.053 C 
BRANCH   6   7
ATOM      7  C   UNL     1     -19.539 -10.529  21.488  1.00  0.00     0.041 C 
ATOM      8  O   UNL     1     -20.395 -10.002  20.730  1.00  0.00    -0.550 OA
ATOM      9  O   UNL     1     -19.953 -11.227  22.616  1.00  0.00    -0.550 OA
ENDBRANCH   6   7
ENDBRANCH   5   6
ENDBRANCH   4   5
ENDBRANCH   3   4
ENDBRANCH   2   3
ENDBRANCH   1   2
BRANCH   1  10
ATOM     10  C   UNL     1     -14.638 -12.710  16.394  1.00  0.00     0.000 C 
BRANCH  10  11
ATOM     11  C   UNL     1     -13.384 -13.498  15.985  1.00  0.00    -0.000 C 
BRANCH  11  12
ATOM     12  C   UNL     1     -12.935 -13.190  14.548  1.00  0.00    -0.000 C 
BRANCH  12  13
ATOM     13  C   UNL     1     -13.470 -11.842  14.035  1.00  0.00    -0.000 C 
BRANCH  13  14
ATOM     14  C   UNL     1     -14.422 -12.014  12.833  1.00  0.00    -0.000 C 
BRANCH  14  15
ATOM     15  C   UNL     1     -15.153 -13.367  12.813  1.00  0.00    -0.000 C 
BRANCH  15  16
ATOM     16  C   UNL     1     -16.626 -13.254  13.226  1.00  0.00    -0.003 C 
ATOM     17  C   UNL     1     -17.363 -14.572  13.000  1.00  0.00     0.004 C 
ENDBRANCH  15  16
ENDBRANCH  14  15
ENDBRANCH  13  14
ENDBRANCH  12  13
ENDBRANCH  11  12
ENDBRANCH  10  11
ENDBRANCH   1  10
TORSDOF 13
ENDMDL
MODEL 9
REMARK VINA RESULT:    -4.419      2.566      4.578
REMARK INTER + INTRA:          -8.890
REMARK INTER:                  -7.817
REMARK INTRA:                  -1.072
REMARK UNBOUND:                -1.113
REMARK SMILES CCCCCCCCCCCCCCC(=O)[O-]
REMARK SMILES IDX 9 1 10 2 11 3 12 4 13 5 14 6 15 7 16 8 17 9 8 10 7 11 6 12
REMARK SMILES IDX 5 13 4 14 3 15 2 16 1 17
REMARK H PARENT
REMARK Flexibility Score: inf
ROOT
ATOM      1  C   UNL     1     -15.506 -12.657  14.881  1.00  0.00     0.000 C 
ENDROOT
BRANCH   1   2
ATOM      2  C   UNL     1     -15.077 -13.359  13.584  1.00  0.00     0.000 C 
BRANCH   2   3
ATOM      3  C   UNL     1     -13.823 -14.229  13.767  1.00  0.00     0.000 C 
BRANCH   3   4
ATOM      4  C   UNL     1     -12.840 -13.641  14.794  1.00  0.00     0.000 C 
BRANCH   4   5
ATOM      5  C   UNL     1     -11.853 -12.646  14.162  1.00  0.00     0.006 C 
BRANCH   5   6
ATOM      6  C   UNL     1     -10.418 -13.187  14.111  1.00  0.00     0.053 C 
BRANCH   6   7
ATOM      7  C   UNL     1      -9.566 -12.498  15.130  1.00  0.00     0.041 C 
ATOM      8  O   UNL     1      -9.959 -12.400  16.322  1.00  0.00    -0.550 OA
ATOM      9  O   UNL     1      -8.315 -12.008  14.774  1.00  0.00    -0.550 OA
ENDBRANCH   6   7
ENDBRANCH   5   6
ENDBRANCH   4   5
ENDBRANCH   3   4
ENDBRANCH   2   3
ENDBRANCH   1   2
BRANCH   1  10
ATOM     10  C   UNL     1     -16.503 -13.517  15.666  1.00  0.00     0.000 C 
BRANCH  10  11
ATOM     11  C   UNL     1     -16.032 -13.725  17.114  1.00  0.00    -0.000 C 
BRANCH  11  12
ATOM     12  C   UNL     1     -15.144 -12.575  17.617  1.00  0.00    -0.000 C 
BRANCH  12  13
ATOM     13  C   UNL     1     -15.597 -12.030  18.983  1.00  0.00    -0.000 C 
BRANCH  13  14
ATOM     14  C   UNL     1     -16.995 -12.548  19.380  1.00  0.00    -0.000 C 
BRANCH  14  15
ATOM     15  C   UNL     1     -17.783 -11.575  20.273  1.00  0.00    -0.000 C 
BRANCH  15  16
ATOM     16  C   UNL     1     -16.956 -10.356  20.701  1.00  0.00    -0.003 C 
ATOM     17  C   UNL     1     -16.958 -10.195  22.219  1.00  0.00     0.004 C 
ENDBRANCH  15  16
ENDBRANCH  14  15
ENDBRANCH  13  14
ENDBRANCH  12  13
ENDBRANCH  11  12
ENDBRANCH  10  11
ENDBRANCH   1  10
TORSDOF 13
ENDMDL
