MODEL 1
REMARK VINA RESULT:    13.530      0.000      0.000
REMARK INTER + INTRA:          15.268
REMARK INTER:                  15.507
REMARK INTRA:                  -0.239
REMARK UNBOUND:                -0.239
REMARK SMILES C=C(C)[C@@H]1CC[C@]2(C(=O)[O-])CC[C@@]3(C)[C@H](CC[C@@H]4[C@]5(C)CC[C@@H](O)C(C)(C)[C@@H]5CC[C@]43C)[C@@H]12
REMARK SMILES IDX 7 1 6 2 33 3 11 4 5 5 15 6 4 7 12 8 16 9 13 10 17 11 31 12
REMARK SMILES IDX 14 13 18 14 30 15 32 16 19 17 29 18 21 19 20 20 28 21 22 22
REMARK SMILES IDX 25 23 23 24 26 25 27 26 8 27 9 28 10 29 2 30 3 31 1 32 24 33
REMARK H PARENT 24 34
REMARK Flexibility Score: inf
ROOT
ATOM      1  C   UNL     1     -12.623  14.889 -29.653  1.00  0.00     0.014 C 
ATOM      2  C   UNL     1     -12.174  15.410 -28.288  1.00  0.00     0.014 C 
ATOM      3  C   UNL     1     -13.066  13.464 -29.314  1.00  0.00     0.012 C 
ATOM      4  C   UNL     1     -13.846  15.601 -30.250  1.00  0.00     0.014 C 
ATOM      5  C   UNL     1     -11.430  14.223 -27.661  1.00  0.00     0.009 C 
ATOM      6  C   UNL     1     -13.477  12.640 -30.585  1.00  0.00     0.000 C 
ATOM      7  C   UNL     1     -11.968  12.945 -28.355  1.00  0.00     0.018 C 
ATOM      8  C   UNL     1     -14.194  14.958 -31.605  1.00  0.00     0.008 C 
ATOM      9  C   UNL     1     -14.025  11.263 -30.190  1.00  0.00     0.005 C 
ATOM     10  C   UNL     1     -14.481  13.384 -31.602  1.00  0.00    -0.024 C 
ATOM     11  C   UNL     1     -15.410  11.309 -29.516  1.00  0.00     0.005 C 
ATOM     12  C   UNL     1     -16.068  12.981 -31.354  1.00  0.00    -0.024 C 
ATOM     13  C   UNL     1     -14.052  12.939 -33.040  1.00  0.00     0.012 C 
ATOM     14  C   UNL     1     -16.295  12.549 -29.875  1.00  0.00     0.002 C 
ATOM     15  C   UNL     1     -16.995  14.198 -31.608  1.00  0.00     0.008 C 
ATOM     16  C   UNL     1     -16.540  11.809 -32.286  1.00  0.00     0.012 C 
ATOM     17  C   UNL     1     -17.796  12.486 -29.269  1.00  0.00    -0.026 C 
ATOM     18  C   UNL     1     -18.470  13.883 -31.460  1.00  0.00     0.005 C 
ATOM     19  C   UNL     1     -18.326  11.023 -29.136  1.00  0.00     0.010 C 
ATOM     20  C   UNL     1     -17.641  13.032 -27.805  1.00  0.00     0.012 C 
ATOM     21  C   UNL     1     -18.879  13.384 -30.047  1.00  0.00     0.003 C 
ATOM     22  C   UNL     1     -19.729  10.876 -28.506  1.00  0.00     0.033 C 
ATOM     23  C   UNL     1     -20.381  12.832 -30.068  1.00  0.00    -0.006 C 
ATOM     24  C   UNL     1     -20.717  12.029 -28.779  1.00  0.00     0.120 C 
ATOM     25  C   UNL     1     -21.369  14.030 -30.155  1.00  0.00     0.014 C 
ATOM     26  C   UNL     1     -20.696  11.917 -31.295  1.00  0.00     0.014 C 
ENDROOT
BRANCH   1  27
ATOM     27  C   UNL     1     -11.420  15.009 -30.599  1.00  0.00     0.048 C 
ATOM     28  O   UNL     1     -10.946  16.125 -30.937  1.00  0.00    -0.550 OA
ATOM     29  O   UNL     1     -10.875  13.858 -31.156  1.00  0.00    -0.550 OA
ENDBRANCH   1  27
BRANCH   7  30
ATOM     30  C   UNL     1     -12.447  11.918 -27.326  1.00  0.00    -0.077 C 
ATOM     31  C   UNL     1     -13.836  12.021 -26.749  1.00  0.00     0.039 C 
ATOM     32  C   UNL     1     -11.680  10.876 -26.960  1.00  0.00     0.008 C 
ENDBRANCH   7  30
BRANCH  24  33
ATOM     33  O   UNL     1     -20.778  12.888 -27.663  1.00  0.00    -0.393 OA
ATOM     34  H   UNL     1     -20.403  13.770 -27.926  1.00  0.00     0.210 HD
ENDBRANCH  24  33
TORSDOF 3
ENDMDL
MODEL 2
REMARK VINA RESULT:    14.919      1.751      3.961
REMARK INTER + INTRA:          16.860
REMARK INTER:                  15.191
REMARK INTRA:                   1.669
REMARK UNBOUND:                -0.239
REMARK SMILES C=C(C)[C@@H]1CC[C@]2(C(=O)[O-])CC[C@@]3(C)[C@H](CC[C@@H]4[C@]5(C)CC[C@@H](O)C(C)(C)[C@@H]5CC[C@]43C)[C@@H]12
REMARK SMILES IDX 7 1 6 2 33 3 11 4 5 5 15 6 4 7 12 8 16 9 13 10 17 11 31 12
REMARK SMILES IDX 14 13 18 14 30 15 32 16 19 17 29 18 21 19 20 20 28 21 22 22
REMARK SMILES IDX 25 23 23 24 26 25 27 26 8 27 9 28 10 29 2 30 3 31 1 32 24 33
REMARK H PARENT 24 34
REMARK Flexibility Score: inf
ROOT
ATOM      1  C   UNL     1     -12.880  12.640 -31.381  1.00  0.00     0.014 C 
ATOM      2  C   UNL     1     -12.597  13.199 -32.773  1.00  0.00     0.014 C 
ATOM      3  C   UNL     1     -13.608  13.811 -30.715  1.00  0.00     0.012 C 
ATOM      4  C   UNL     1     -13.844  11.444 -31.343  1.00  0.00     0.014 C 
ATOM      5  C   UNL     1     -12.182  14.654 -32.516  1.00  0.00     0.009 C 
ATOM      6  C   UNL     1     -13.922  13.546 -29.200  1.00  0.00     0.000 C 
ATOM      7  C   UNL     1     -12.796  15.055 -31.149  1.00  0.00     0.018 C 
ATOM      8  C   UNL     1     -14.052  11.007 -29.882  1.00  0.00     0.008 C 
ATOM      9  C   UNL     1     -14.752  14.689 -28.606  1.00  0.00     0.005 C 
ATOM     10  C   UNL     1     -14.594  12.119 -28.868  1.00  0.00    -0.024 C 
ATOM     11  C   UNL     1     -16.206  14.739 -29.113  1.00  0.00     0.005 C 
ATOM     12  C   UNL     1     -16.244  12.194 -28.755  1.00  0.00    -0.024 C 
ATOM     13  C   UNL     1     -14.000  11.668 -27.492  1.00  0.00     0.012 C 
ATOM     14  C   UNL     1     -16.796  13.376 -29.606  1.00  0.00     0.002 C 
ATOM     15  C   UNL     1     -16.896  10.902 -29.314  1.00  0.00     0.008 C 
ATOM     16  C   UNL     1     -16.735  12.384 -27.276  1.00  0.00     0.012 C 
ATOM     17  C   UNL     1     -18.369  13.437 -29.989  1.00  0.00    -0.026 C 
ATOM     18  C   UNL     1     -18.406  10.875 -29.184  1.00  0.00     0.005 C 
ATOM     19  C   UNL     1     -19.149  14.488 -29.139  1.00  0.00     0.010 C 
ATOM     20  C   UNL     1     -18.383  13.968 -31.467  1.00  0.00     0.012 C 
ATOM     21  C   UNL     1     -19.134  12.024 -29.937  1.00  0.00     0.003 C 
ATOM     22  C   UNL     1     -20.645  14.650 -29.488  1.00  0.00     0.033 C 
ATOM     23  C   UNL     1     -20.679  12.064 -29.524  1.00  0.00    -0.006 C 
ATOM     24  C   UNL     1     -21.364  13.381 -29.990  1.00  0.00     0.120 C 
ATOM     25  C   UNL     1     -21.423  10.875 -30.198  1.00  0.00     0.014 C 
ATOM     26  C   UNL     1     -20.923  11.916 -27.988  1.00  0.00     0.014 C 
ENDROOT
BRANCH   1  27
ATOM     27  C   UNL     1     -11.528  12.255 -30.765  1.00  0.00     0.048 C 
ATOM     28  O   UNL     1     -10.880  11.249 -31.156  1.00  0.00    -0.550 OA
ATOM     29  O   UNL     1     -11.030  12.994 -29.699  1.00  0.00    -0.550 OA
ENDBRANCH   1  27
BRANCH   7  30
ATOM     30  C   UNL     1     -13.612  16.345 -31.267  1.00  0.00    -0.077 C 
ATOM     31  C   UNL     1     -13.472  17.215 -32.489  1.00  0.00     0.039 C 
ATOM     32  C   UNL     1     -14.509  16.700 -30.329  1.00  0.00     0.008 C 
ENDBRANCH   7  30
BRANCH  24  33
ATOM     33  O   UNL     1     -21.476  13.411 -31.395  1.00  0.00    -0.393 OA
ATOM     34  H   UNL     1     -21.397  14.355 -31.694  1.00  0.00     0.210 HD
ENDBRANCH  24  33
TORSDOF 3
ENDMDL
