MODEL 1
REMARK VINA RESULT:    -6.424      0.000      0.000
REMARK INTER + INTRA:          -7.946
REMARK INTER:                  -7.739
REMARK INTRA:                  -0.207
REMARK UNBOUND:                -0.207
REMARK SMILES Oc1cc(O)c2c(c1)O[C@H](c1ccc(O)c(O)c1)[C@@H](O)C2
REMARK SMILES IDX 21 1 19 2 10 3 9 4 7 5 8 6 2 7 3 8 4 9 6 10 20 11 11 13
REMARK SMILES IDX 18 14 12 15 16 16 13 17 14 18 17 19 15 21 5 23 1 25
REMARK H PARENT 20 12 17 20 15 22 5 24 1 26
REMARK Flexibility Score: inf
ROOT
ATOM      1  C   UNL     1      16.856  14.256  12.711  1.00  0.00     0.079 C 
ATOM      2  C   UNL     1      15.608  14.595  11.874  1.00  0.00     0.164 C 
ATOM      3  C   UNL     1      15.196  16.056  12.118  1.00  0.00     0.232 C 
ATOM      4  O   UNL     1      14.973  16.270  13.512  1.00  0.00    -0.482 OA
ATOM      5  C   UNL     1      15.779  15.685  14.495  1.00  0.00     0.131 A 
ATOM      6  C   UNL     1      15.625  16.085  15.825  1.00  0.00     0.093 A 
ATOM      7  C   UNL     1      16.424  15.532  16.826  1.00  0.00     0.122 A 
ATOM      8  C   UNL     1      17.394  14.578  16.493  1.00  0.00     0.092 A 
ATOM      9  C   UNL     1      17.562  14.166  15.166  1.00  0.00     0.126 A 
ATOM     10  C   UNL     1      16.723  14.692  14.155  1.00  0.00     0.039 A 
ENDROOT
BRANCH   2  11
ATOM     11  O   UNL     1      15.883  14.401  10.511  1.00  0.00    -0.389 OA
ATOM     12  H   UNL     1      16.850  14.591  10.385  1.00  0.00     0.211 HD
ENDBRANCH   2  11
BRANCH   3  13
ATOM     13  C   UNL     1      13.945  16.407  11.346  1.00  0.00    -0.001 A 
ATOM     14  C   UNL     1      14.034  16.948  10.051  1.00  0.00     0.057 A 
ATOM     15  C   UNL     1      12.681  16.242  11.933  1.00  0.00     0.012 A 
ATOM     16  C   UNL     1      12.879  17.299   9.344  1.00  0.00     0.157 A 
ATOM     17  C   UNL     1      11.526  16.591  11.231  1.00  0.00     0.050 A 
ATOM     18  C   UNL     1      11.617  17.118   9.936  1.00  0.00     0.157 A 
BRANCH  16  19
ATOM     19  O   UNL     1      13.004  17.826   8.059  1.00  0.00    -0.504 OA
ATOM     20  H   UNL     1      13.294  18.782   7.895  1.00  0.00     0.293 HD
ENDBRANCH  16  19
BRANCH  18  21
ATOM     21  O   UNL     1      10.461  17.466   9.237  1.00  0.00    -0.504 OA
ATOM     22  H   UNL     1       9.619  16.905   9.293  1.00  0.00     0.293 HD
ENDBRANCH  18  21
ENDBRANCH   3  13
BRANCH   9  23
ATOM     23  O   UNL     1      18.576  13.245  14.889  1.00  0.00    -0.507 OA
ATOM     24  H   UNL     1      18.796  12.926  13.955  1.00  0.00     0.293 HD
ENDBRANCH   9  23
BRANCH   7  25
ATOM     25  O   UNL     1      16.256  15.942  18.146  1.00  0.00    -0.508 OA
ATOM     26  H   UNL     1      15.372  15.828  18.628  1.00  0.00     0.293 HD
ENDBRANCH   7  25
TORSDOF 6
ENDMDL
MODEL 2
REMARK VINA RESULT:    -6.339      1.259      6.924
REMARK INTER + INTRA:          -7.843
REMARK INTER:                  -7.522
REMARK INTRA:                  -0.322
REMARK UNBOUND:                -0.207
REMARK SMILES Oc1cc(O)c2c(c1)O[C@H](c1ccc(O)c(O)c1)[C@@H](O)C2
REMARK SMILES IDX 21 1 19 2 10 3 9 4 7 5 8 6 2 7 3 8 4 9 6 10 20 11 11 13
REMARK SMILES IDX 18 14 12 15 16 16 13 17 14 18 17 19 15 21 5 23 1 25
REMARK H PARENT 20 12 17 20 15 22 5 24 1 26
REMARK Flexibility Score: inf
ROOT
ATOM      1  C   UNL     1      15.700  16.666  10.874  1.00  0.00     0.079 C 
ATOM      2  C   UNL     1      16.360  16.443  12.248  1.00  0.00     0.164 C 
ATOM      3  C   UNL     1      15.725  15.227  12.942  1.00  0.00     0.232 C 
ATOM      4  O   UNL     1      14.315  15.418  13.057  1.00  0.00    -0.482 OA
ATOM      5  C   UNL     1      13.557  16.013  12.043  1.00  0.00     0.131 A 
ATOM      6  C   UNL     1      12.164  15.996  12.139  1.00  0.00     0.093 A 
ATOM      7  C   UNL     1      11.380  16.568  11.136  1.00  0.00     0.122 A 
ATOM      8  C   UNL     1      11.994  17.152  10.022  1.00  0.00     0.092 A 
ATOM      9  C   UNL     1      13.390  17.177   9.909  1.00  0.00     0.126 A 
ATOM     10  C   UNL     1      14.188  16.638  10.945  1.00  0.00     0.039 A 
ENDROOT
BRANCH   2  11
ATOM     11  O   UNL     1      17.739  16.229  12.084  1.00  0.00    -0.389 OA
ATOM     12  H   UNL     1      17.911  15.280  12.326  1.00  0.00     0.211 HD
ENDBRANCH   2  11
BRANCH   3  13
ATOM     13  C   UNL     1      16.321  15.009  14.314  1.00  0.00    -0.001 A 
ATOM     14  C   UNL     1      17.247  13.974  14.534  1.00  0.00     0.057 A 
ATOM     15  C   UNL     1      15.918  15.807  15.396  1.00  0.00     0.012 A 
ATOM     16  C   UNL     1      17.779  13.753  15.809  1.00  0.00     0.157 A 
ATOM     17  C   UNL     1      16.447  15.591  16.670  1.00  0.00     0.050 A 
ATOM     18  C   UNL     1      17.378  14.566  16.884  1.00  0.00     0.157 A 
BRANCH  16  19
ATOM     19  O   UNL     1      18.700  12.722  15.990  1.00  0.00    -0.504 OA
ATOM     20  H   UNL     1      19.041  12.459  16.907  1.00  0.00     0.293 HD
ENDBRANCH  16  19
BRANCH  18  21
ATOM     21  O   UNL     1      17.905  14.351  18.157  1.00  0.00    -0.504 OA
ATOM     22  H   UNL     1      17.497  14.782  18.979  1.00  0.00     0.293 HD
ENDBRANCH  18  21
ENDBRANCH   3  13
BRANCH   9  23
ATOM     23  O   UNL     1      13.943  17.733   8.753  1.00  0.00    -0.507 OA
ATOM     24  H   UNL     1      13.926  18.724   8.551  1.00  0.00     0.293 HD
ENDBRANCH   9  23
BRANCH   7  25
ATOM     25  O   UNL     1       9.992  16.543  11.249  1.00  0.00    -0.508 OA
ATOM     26  H   UNL     1       9.432  17.370  11.083  1.00  0.00     0.293 HD
ENDBRANCH   7  25
TORSDOF 6
ENDMDL
MODEL 3
REMARK VINA RESULT:    -6.221      2.228      6.981
REMARK INTER + INTRA:          -7.701
REMARK INTER:                  -7.413
REMARK INTRA:                  -0.288
REMARK UNBOUND:                -0.207
REMARK SMILES Oc1cc(O)c2c(c1)O[C@H](c1ccc(O)c(O)c1)[C@@H](O)C2
REMARK SMILES IDX 21 1 19 2 10 3 9 4 7 5 8 6 2 7 3 8 4 9 6 10 20 11 11 13
REMARK SMILES IDX 18 14 12 15 16 16 13 17 14 18 17 19 15 21 5 23 1 25
REMARK H PARENT 20 12 17 20 15 22 5 24 1 26
REMARK Flexibility Score: inf
ROOT
ATOM      1  C   UNL     1      17.856  16.931  10.023  1.00  0.00     0.079 C 
ATOM      2  C   UNL     1      17.730  16.907  11.558  1.00  0.00     0.164 C 
ATOM      3  C   UNL     1      16.741  15.810  11.984  1.00  0.00     0.232 C 
ATOM      4  O   UNL     1      15.479  16.025  11.353  1.00  0.00    -0.482 OA
ATOM      5  C   UNL     1      15.371  16.471  10.031  1.00  0.00     0.131 A 
ATOM      6  C   UNL     1      14.117  16.478   9.417  1.00  0.00     0.093 A 
ATOM      7  C   UNL     1      13.980  16.902   8.094  1.00  0.00     0.122 A 
ATOM      8  C   UNL     1      15.109  17.313   7.376  1.00  0.00     0.092 A 
ATOM      9  C   UNL     1      16.375  17.311   7.975  1.00  0.00     0.126 A 
ATOM     10  C   UNL     1      16.510  16.924   9.330  1.00  0.00     0.039 A 
ENDROOT
BRANCH   2  11
ATOM     11  O   UNL     1      18.987  16.661  12.134  1.00  0.00    -0.389 OA
ATOM     12  H   UNL     1      19.345  17.541  12.426  1.00  0.00     0.211 HD
ENDBRANCH   2  11
BRANCH   3  13
ATOM     13  C   UNL     1      16.560  15.791  13.485  1.00  0.00    -0.001 A 
ATOM     14  C   UNL     1      17.243  14.849  14.274  1.00  0.00     0.057 A 
ATOM     15  C   UNL     1      15.669  16.683  14.102  1.00  0.00     0.012 A 
ATOM     16  C   UNL     1      17.057  14.812  15.660  1.00  0.00     0.157 A 
ATOM     17  C   UNL     1      15.480  16.649  15.485  1.00  0.00     0.050 A 
ATOM     18  C   UNL     1      16.172  15.718  16.271  1.00  0.00     0.157 A 
BRANCH  16  19
ATOM     19  O   UNL     1      17.756  13.870  16.414  1.00  0.00    -0.504 OA
ATOM     20  H   UNL     1      18.291  14.126  17.234  1.00  0.00     0.293 HD
ENDBRANCH  16  19
BRANCH  18  21
ATOM     21  O   UNL     1      15.982  15.686  17.651  1.00  0.00    -0.504 OA
ATOM     22  H   UNL     1      15.523  16.446  18.141  1.00  0.00     0.293 HD
ENDBRANCH  18  21
ENDBRANCH   3  13
BRANCH   9  23
ATOM     23  O   UNL     1      17.470  17.688   7.194  1.00  0.00    -0.507 OA
ATOM     24  H   UNL     1      18.014  18.524   7.367  1.00  0.00     0.293 HD
ENDBRANCH   9  23
BRANCH   7  25
ATOM     25  O   UNL     1      12.721  16.904   7.499  1.00  0.00    -0.508 OA
ATOM     26  H   UNL     1      12.424  17.656   6.889  1.00  0.00     0.293 HD
ENDBRANCH   7  25
TORSDOF 6
ENDMDL
MODEL 4
REMARK VINA RESULT:    -6.187      1.263      1.880
REMARK INTER + INTRA:          -7.660
REMARK INTER:                  -7.309
REMARK INTRA:                  -0.352
REMARK UNBOUND:                -0.207
REMARK SMILES Oc1cc(O)c2c(c1)O[C@H](c1ccc(O)c(O)c1)[C@@H](O)C2
REMARK SMILES IDX 21 1 19 2 10 3 9 4 7 5 8 6 2 7 3 8 4 9 6 10 20 11 11 13
REMARK SMILES IDX 18 14 12 15 16 16 13 17 14 18 17 19 15 21 5 23 1 25
REMARK H PARENT 20 12 17 20 15 22 5 24 1 26
REMARK Flexibility Score: inf
ROOT
ATOM      1  C   UNL     1      17.746  14.067  12.512  1.00  0.00     0.079 C 
ATOM      2  C   UNL     1      16.758  14.441  11.391  1.00  0.00     0.164 C 
ATOM      3  C   UNL     1      16.365  15.923  11.513  1.00  0.00     0.232 C 
ATOM      4  O   UNL     1      15.817  16.172  12.807  1.00  0.00    -0.482 OA
ATOM      5  C   UNL     1      16.329  15.575  13.964  1.00  0.00     0.131 A 
ATOM      6  C   UNL     1      15.872  16.007  15.211  1.00  0.00     0.093 A 
ATOM      7  C   UNL     1      16.376  15.440  16.383  1.00  0.00     0.122 A 
ATOM      8  C   UNL     1      17.353  14.441  16.307  1.00  0.00     0.092 A 
ATOM      9  C   UNL     1      17.823  13.996  15.065  1.00  0.00     0.126 A 
ATOM     10  C   UNL     1      17.283  14.537  13.875  1.00  0.00     0.039 A 
ENDROOT
BRANCH   2  11
ATOM     11  O   UNL     1      17.350  14.210  10.138  1.00  0.00    -0.389 OA
ATOM     12  H   UNL     1      18.110  13.588  10.292  1.00  0.00     0.211 HD
ENDBRANCH   2  11
BRANCH   3  13
ATOM     13  C   UNL     1      15.359  16.311  10.454  1.00  0.00    -0.001 A 
ATOM     14  C   UNL     1      14.048  15.804  10.494  1.00  0.00     0.057 A 
ATOM     15  C   UNL     1      15.738  17.143   9.389  1.00  0.00     0.012 A 
ATOM     16  C   UNL     1      13.123  16.141   9.499  1.00  0.00     0.157 A 
ATOM     17  C   UNL     1      14.818  17.482   8.395  1.00  0.00     0.050 A 
ATOM     18  C   UNL     1      13.509  16.985   8.444  1.00  0.00     0.157 A 
BRANCH  16  19
ATOM     19  O   UNL     1      11.829  15.626   9.574  1.00  0.00    -0.504 OA
ATOM     20  H   UNL     1      11.597  14.838  10.165  1.00  0.00     0.293 HD
ENDBRANCH  16  19
BRANCH  18  21
ATOM     21  O   UNL     1      12.592  17.325   7.450  1.00  0.00    -0.504 OA
ATOM     22  H   UNL     1      12.791  17.166   6.469  1.00  0.00     0.293 HD
ENDBRANCH  18  21
ENDBRANCH   3  13
BRANCH   9  23
ATOM     23  O   UNL     1      18.831  13.028  15.055  1.00  0.00    -0.507 OA
ATOM     24  H   UNL     1      19.299  12.705  15.891  1.00  0.00     0.293 HD
ENDBRANCH   9  23
BRANCH   7  25
ATOM     25  O   UNL     1      15.907  15.882  17.617  1.00  0.00    -0.508 OA
ATOM     26  H   UNL     1      15.705  15.236  18.370  1.00  0.00     0.293 HD
ENDBRANCH   7  25
TORSDOF 6
ENDMDL
MODEL 5
REMARK VINA RESULT:    -6.186      1.864      6.874
REMARK INTER + INTRA:          -7.658
REMARK INTER:                  -7.350
REMARK INTRA:                  -0.308
REMARK UNBOUND:                -0.207
REMARK SMILES Oc1cc(O)c2c(c1)O[C@H](c1ccc(O)c(O)c1)[C@@H](O)C2
REMARK SMILES IDX 21 1 19 2 10 3 9 4 7 5 8 6 2 7 3 8 4 9 6 10 20 11 11 13
REMARK SMILES IDX 18 14 12 15 16 16 13 17 14 18 17 19 15 21 5 23 1 25
REMARK H PARENT 20 12 17 20 15 22 5 24 1 26
REMARK Flexibility Score: inf
ROOT
ATOM      1  C   UNL     1      14.894  16.190   9.449  1.00  0.00     0.079 C 
ATOM      2  C   UNL     1      15.957  15.722  10.462  1.00  0.00     0.164 C 
ATOM      3  C   UNL     1      15.429  14.515  11.255  1.00  0.00     0.232 C 
ATOM      4  O   UNL     1      14.201  14.858  11.896  1.00  0.00    -0.482 OA
ATOM      5  C   UNL     1      13.234  15.660  11.280  1.00  0.00     0.131 A 
ATOM      6  C   UNL     1      11.982  15.799  11.884  1.00  0.00     0.093 A 
ATOM      7  C   UNL     1      10.992  16.580  11.285  1.00  0.00     0.122 A 
ATOM      8  C   UNL     1      11.253  17.219  10.067  1.00  0.00     0.092 A 
ATOM      9  C   UNL     1      12.502  17.090   9.447  1.00  0.00     0.126 A 
ATOM     10  C   UNL     1      13.523  16.335  10.073  1.00  0.00     0.039 A 
ENDROOT
BRANCH   2  11
ATOM     11  O   UNL     1      17.135  15.365   9.784  1.00  0.00    -0.389 OA
ATOM     12  H   UNL     1      16.908  14.587   9.209  1.00  0.00     0.211 HD
ENDBRANCH   2  11
BRANCH   3  13
ATOM     13  C   UNL     1      16.431  14.060  12.289  1.00  0.00    -0.001 A 
ATOM     14  C   UNL     1      17.232  12.927  12.058  1.00  0.00     0.057 A 
ATOM     15  C   UNL     1      16.540  14.735  13.515  1.00  0.00     0.012 A 
ATOM     16  C   UNL     1      18.142  12.488  13.026  1.00  0.00     0.157 A 
ATOM     17  C   UNL     1      17.448  14.301  14.483  1.00  0.00     0.050 A 
ATOM     18  C   UNL     1      18.252  13.178  14.245  1.00  0.00     0.157 A 
BRANCH  16  19
ATOM     19  O   UNL     1      18.924  11.364  12.761  1.00  0.00    -0.504 OA
ATOM     20  H   UNL     1      19.359  11.211  11.859  1.00  0.00     0.293 HD
ENDBRANCH  16  19
BRANCH  18  21
ATOM     21  O   UNL     1      19.157  12.746  15.214  1.00  0.00    -0.504 OA
ATOM     22  H   UNL     1      19.383  13.317  16.020  1.00  0.00     0.293 HD
ENDBRANCH  18  21
ENDBRANCH   3  13
BRANCH   9  23
ATOM     23  O   UNL     1      12.688  17.713   8.211  1.00  0.00    -0.507 OA
ATOM     24  H   UNL     1      13.594  18.002   7.865  1.00  0.00     0.293 HD
ENDBRANCH   9  23
BRANCH   7  25
ATOM     25  O   UNL     1       9.751  16.709  11.902  1.00  0.00    -0.508 OA
ATOM     26  H   UNL     1       8.888  16.555  11.394  1.00  0.00     0.293 HD
ENDBRANCH   7  25
TORSDOF 6
ENDMDL
MODEL 6
REMARK VINA RESULT:    -6.172      1.957      2.486
REMARK INTER + INTRA:          -7.642
REMARK INTER:                  -7.383
REMARK INTRA:                  -0.259
REMARK UNBOUND:                -0.207
REMARK SMILES Oc1cc(O)c2c(c1)O[C@H](c1ccc(O)c(O)c1)[C@@H](O)C2
REMARK SMILES IDX 21 1 19 2 10 3 9 4 7 5 8 6 2 7 3 8 4 9 6 10 20 11 11 13
REMARK SMILES IDX 18 14 12 15 16 16 13 17 14 18 17 19 15 21 5 23 1 25
REMARK H PARENT 20 12 17 20 15 22 5 24 1 26
REMARK Flexibility Score: inf
ROOT
ATOM      1  C   UNL     1      14.586  12.123  13.167  1.00  0.00     0.079 C 
ATOM      2  C   UNL     1      13.605  13.109  12.504  1.00  0.00     0.164 C 
ATOM      3  C   UNL     1      14.358  14.372  12.053  1.00  0.00     0.232 C 
ATOM      4  O   UNL     1      15.028  14.960  13.168  1.00  0.00    -0.482 OA
ATOM      5  C   UNL     1      15.654  14.190  14.154  1.00  0.00     0.131 A 
ATOM      6  C   UNL     1      16.449  14.828  15.109  1.00  0.00     0.093 A 
ATOM      7  C   UNL     1      17.098  14.085  16.097  1.00  0.00     0.122 A 
ATOM      8  C   UNL     1      16.961  12.693  16.123  1.00  0.00     0.092 A 
ATOM      9  C   UNL     1      16.168  12.037  15.172  1.00  0.00     0.126 A 
ATOM     10  C   UNL     1      15.472  12.791  14.197  1.00  0.00     0.039 A 
ENDROOT
BRANCH   2  11
ATOM     11  O   UNL     1      12.995  12.500  11.396  1.00  0.00    -0.389 OA
ATOM     12  H   UNL     1      13.708  12.001  10.916  1.00  0.00     0.211 HD
ENDBRANCH   2  11
BRANCH   3  13
ATOM     13  C   UNL     1      13.414  15.380  11.439  1.00  0.00    -0.001 A 
ATOM     14  C   UNL     1      12.142  15.599  11.996  1.00  0.00     0.057 A 
ATOM     15  C   UNL     1      13.780  16.075  10.276  1.00  0.00     0.012 A 
ATOM     16  C   UNL     1      11.257  16.513  11.414  1.00  0.00     0.157 A 
ATOM     17  C   UNL     1      12.900  16.988   9.692  1.00  0.00     0.050 A 
ATOM     18  C   UNL     1      11.637  17.213  10.256  1.00  0.00     0.157 A 
BRANCH  16  19
ATOM     19  O   UNL     1      10.005  16.711  11.997  1.00  0.00    -0.504 OA
ATOM     20  H   UNL     1       9.205  17.021  11.461  1.00  0.00     0.293 HD
ENDBRANCH  16  19
BRANCH  18  21
ATOM     21  O   UNL     1      10.760  18.125   9.671  1.00  0.00    -0.504 OA
ATOM     22  H   UNL     1      10.391  17.982   8.737  1.00  0.00     0.293 HD
ENDBRANCH  18  21
ENDBRANCH   3  13
BRANCH   9  23
ATOM     23  O   UNL     1      16.105  10.642  15.221  1.00  0.00    -0.507 OA
ATOM     24  H   UNL     1      15.875  10.126  16.061  1.00  0.00     0.293 HD
ENDBRANCH   9  23
BRANCH   7  25
ATOM     25  O   UNL     1      17.886  14.738  17.042  1.00  0.00    -0.508 OA
ATOM     26  H   UNL     1      18.593  14.245  17.574  1.00  0.00     0.293 HD
ENDBRANCH   7  25
TORSDOF 6
ENDMDL
MODEL 7
REMARK VINA RESULT:    -6.089      1.250      2.946
REMARK INTER + INTRA:          -7.541
REMARK INTER:                  -7.216
REMARK INTRA:                  -0.326
REMARK UNBOUND:                -0.207
REMARK SMILES Oc1cc(O)c2c(c1)O[C@H](c1ccc(O)c(O)c1)[C@@H](O)C2
REMARK SMILES IDX 21 1 19 2 10 3 9 4 7 5 8 6 2 7 3 8 4 9 6 10 20 11 11 13
REMARK SMILES IDX 18 14 12 15 16 16 13 17 14 18 17 19 15 21 5 23 1 25
REMARK H PARENT 20 12 17 20 15 22 5 24 1 26
REMARK Flexibility Score: inf
ROOT
ATOM      1  C   UNL     1      15.583  16.402  14.858  1.00  0.00     0.079 C 
ATOM      2  C   UNL     1      15.130  16.963  13.497  1.00  0.00     0.164 C 
ATOM      3  C   UNL     1      14.334  15.895  12.729  1.00  0.00     0.232 C 
ATOM      4  O   UNL     1      15.126  14.717  12.579  1.00  0.00    -0.482 OA
ATOM      5  C   UNL     1      15.966  14.247  13.595  1.00  0.00     0.131 A 
ATOM      6  C   UNL     1      16.565  12.993  13.454  1.00  0.00     0.093 A 
ATOM      7  C   UNL     1      17.395  12.490  14.457  1.00  0.00     0.122 A 
ATOM      8  C   UNL     1      17.621  13.244  15.615  1.00  0.00     0.092 A 
ATOM      9  C   UNL     1      17.029  14.504  15.773  1.00  0.00     0.126 A 
ATOM     10  C   UNL     1      16.222  15.035  14.739  1.00  0.00     0.039 A 
ENDROOT
BRANCH   2  11
ATOM     11  O   UNL     1      14.329  18.100  13.695  1.00  0.00    -0.389 OA
ATOM     12  H   UNL     1      14.067  18.102  14.653  1.00  0.00     0.211 HD
ENDBRANCH   2  11
BRANCH   3  13
ATOM     13  C   UNL     1      13.914  16.400  11.368  1.00  0.00    -0.001 A 
ATOM     14  C   UNL     1      12.581  16.779  11.128  1.00  0.00     0.057 A 
ATOM     15  C   UNL     1      14.840  16.450  10.315  1.00  0.00     0.012 A 
ATOM     16  C   UNL     1      12.183  17.221   9.862  1.00  0.00     0.157 A 
ATOM     17  C   UNL     1      14.447  16.891   9.050  1.00  0.00     0.050 A 
ATOM     18  C   UNL     1      13.121  17.279   8.816  1.00  0.00     0.157 A 
BRANCH  16  19
ATOM     19  O   UNL     1      10.855  17.595   9.660  1.00  0.00    -0.504 OA
ATOM     20  H   UNL     1      10.343  17.333   8.827  1.00  0.00     0.293 HD
ENDBRANCH  16  19
BRANCH  18  21
ATOM     21  O   UNL     1      12.732  17.719   7.552  1.00  0.00    -0.504 OA
ATOM     22  H   UNL     1      13.249  18.437   7.057  1.00  0.00     0.293 HD
ENDBRANCH  18  21
ENDBRANCH   3  13
BRANCH   9  23
ATOM     23  O   UNL     1      17.255  15.189  16.969  1.00  0.00    -0.507 OA
ATOM     24  H   UNL     1      17.105  14.778  17.881  1.00  0.00     0.293 HD
ENDBRANCH   9  23
BRANCH   7  25
ATOM     25  O   UNL     1      17.984  11.238  14.299  1.00  0.00    -0.508 OA
ATOM     26  H   UNL     1      17.502  10.388  14.565  1.00  0.00     0.293 HD
ENDBRANCH   7  25
TORSDOF 6
ENDMDL
MODEL 8
REMARK VINA RESULT:    -5.967      1.789      3.430
REMARK INTER + INTRA:          -7.394
REMARK INTER:                  -7.023
REMARK INTRA:                  -0.372
REMARK UNBOUND:                -0.207
REMARK SMILES Oc1cc(O)c2c(c1)O[C@H](c1ccc(O)c(O)c1)[C@@H](O)C2
REMARK SMILES IDX 21 1 19 2 10 3 9 4 7 5 8 6 2 7 3 8 4 9 6 10 20 11 11 13
REMARK SMILES IDX 18 14 12 15 16 16 13 17 14 18 17 19 15 21 5 23 1 25
REMARK H PARENT 20 12 17 20 15 22 5 24 1 26
REMARK Flexibility Score: inf
ROOT
ATOM      1  C   UNL     1      16.400  14.770  14.090  1.00  0.00     0.079 C 
ATOM      2  C   UNL     1      15.413  15.614  13.261  1.00  0.00     0.164 C 
ATOM      3  C   UNL     1      14.363  14.699  12.609  1.00  0.00     0.232 C 
ATOM      4  O   UNL     1      15.012  13.709  11.812  1.00  0.00    -0.482 OA
ATOM      5  C   UNL     1      16.203  13.092  12.211  1.00  0.00     0.131 A 
ATOM      6  C   UNL     1      16.680  12.002  11.480  1.00  0.00     0.093 A 
ATOM      7  C   UNL     1      17.857  11.356  11.862  1.00  0.00     0.122 A 
ATOM      8  C   UNL     1      18.556  11.796  12.992  1.00  0.00     0.092 A 
ATOM      9  C   UNL     1      18.092  12.887  13.738  1.00  0.00     0.126 A 
ATOM     10  C   UNL     1      16.923  13.572  13.327  1.00  0.00     0.039 A 
ENDROOT
BRANCH   2  11
ATOM     11  O   UNL     1      14.776  16.551  14.091  1.00  0.00    -0.389 OA
ATOM     12  H   UNL     1      14.002  16.906  13.578  1.00  0.00     0.211 HD
ENDBRANCH   2  11
BRANCH   3  13
ATOM     13  C   UNL     1      13.405  15.493  11.750  1.00  0.00    -0.001 A 
ATOM     14  C   UNL     1      13.877  16.237  10.655  1.00  0.00     0.057 A 
ATOM     15  C   UNL     1      12.039  15.533  12.067  1.00  0.00     0.012 A 
ATOM     16  C   UNL     1      12.996  16.994   9.875  1.00  0.00     0.157 A 
ATOM     17  C   UNL     1      11.156  16.287  11.291  1.00  0.00     0.050 A 
ATOM     18  C   UNL     1      11.627  17.019  10.193  1.00  0.00     0.157 A 
BRANCH  16  19
ATOM     19  O   UNL     1      13.498  17.715   8.792  1.00  0.00    -0.504 OA
ATOM     20  H   UNL     1      13.574  18.725   8.806  1.00  0.00     0.293 HD
ENDBRANCH  16  19
BRANCH  18  21
ATOM     21  O   UNL     1      10.744  17.770   9.419  1.00  0.00    -0.504 OA
ATOM     22  H   UNL     1      10.344  17.403   8.563  1.00  0.00     0.293 HD
ENDBRANCH  18  21
ENDBRANCH   3  13
BRANCH   9  23
ATOM     23  O   UNL     1      18.807  13.252  14.881  1.00  0.00    -0.507 OA
ATOM     24  H   UNL     1      18.693  12.795  15.776  1.00  0.00     0.293 HD
ENDBRANCH   9  23
BRANCH   7  25
ATOM     25  O   UNL     1      18.319  10.271  11.120  1.00  0.00    -0.508 OA
ATOM     26  H   UNL     1      19.096   9.704  11.437  1.00  0.00     0.293 HD
ENDBRANCH   7  25
TORSDOF 6
ENDMDL
MODEL 9
REMARK VINA RESULT:    -5.934      2.086      6.937
REMARK INTER + INTRA:          -7.355
REMARK INTER:                  -7.197
REMARK INTRA:                  -0.158
REMARK UNBOUND:                -0.207
REMARK SMILES Oc1cc(O)c2c(c1)O[C@H](c1ccc(O)c(O)c1)[C@@H](O)C2
REMARK SMILES IDX 21 1 19 2 10 3 9 4 7 5 8 6 2 7 3 8 4 9 6 10 20 11 11 13
REMARK SMILES IDX 18 14 12 15 16 16 13 17 14 18 17 19 15 21 5 23 1 25
REMARK H PARENT 20 12 17 20 15 22 5 24 1 26
REMARK Flexibility Score: inf
ROOT
ATOM      1  C   UNL     1      18.101  16.230  10.224  1.00  0.00     0.079 C 
ATOM      2  C   UNL     1      18.179  15.935  11.734  1.00  0.00     0.164 C 
ATOM      3  C   UNL     1      17.051  14.970  12.137  1.00  0.00     0.232 C 
ATOM      4  O   UNL     1      15.788  15.524  11.770  1.00  0.00    -0.482 OA
ATOM      5  C   UNL     1      15.599  16.227  10.575  1.00  0.00     0.131 A 
ATOM      6  C   UNL     1      14.302  16.575  10.191  1.00  0.00     0.093 A 
ATOM      7  C   UNL     1      14.080  17.263   8.996  1.00  0.00     0.122 A 
ATOM      8  C   UNL     1      15.163  17.596   8.174  1.00  0.00     0.092 A 
ATOM      9  C   UNL     1      16.470  17.254   8.544  1.00  0.00     0.126 A 
ATOM     10  C   UNL     1      16.702  16.596   9.775  1.00  0.00     0.039 A 
ENDROOT
BRANCH   2  11
ATOM     11  O   UNL     1      19.424  15.363  12.042  1.00  0.00    -0.389 OA
ATOM     12  H   UNL     1      19.891  16.002  12.643  1.00  0.00     0.211 HD
ENDBRANCH   2  11
BRANCH   3  13
ATOM     13  C   UNL     1      17.072  14.696  13.623  1.00  0.00    -0.001 A 
ATOM     14  C   UNL     1      16.318  15.489  14.506  1.00  0.00     0.057 A 
ATOM     15  C   UNL     1      17.883  13.675  14.142  1.00  0.00     0.012 A 
ATOM     16  C   UNL     1      16.357  15.253  15.884  1.00  0.00     0.157 A 
ATOM     17  C   UNL     1      17.924  13.437  15.517  1.00  0.00     0.050 A 
ATOM     18  C   UNL     1      17.163  14.221  16.394  1.00  0.00     0.157 A 
BRANCH  16  19
ATOM     19  O   UNL     1      15.592  16.055  16.731  1.00  0.00    -0.504 OA
ATOM     20  H   UNL     1      15.978  16.864  17.201  1.00  0.00     0.293 HD
ENDBRANCH  16  19
BRANCH  18  21
ATOM     21  O   UNL     1      17.206  13.981  17.767  1.00  0.00    -0.504 OA
ATOM     22  H   UNL     1      17.926  13.400  18.182  1.00  0.00     0.293 HD
ENDBRANCH  18  21
ENDBRANCH   3  13
BRANCH   9  23
ATOM     23  O   UNL     1      17.505  17.573   7.662  1.00  0.00    -0.507 OA
ATOM     24  H   UNL     1      17.514  18.412   7.097  1.00  0.00     0.293 HD
ENDBRANCH   9  23
BRANCH   7  25
ATOM     25  O   UNL     1      12.780  17.603   8.630  1.00  0.00    -0.508 OA
ATOM     26  H   UNL     1      12.577  18.461   8.131  1.00  0.00     0.293 HD
ENDBRANCH   7  25
TORSDOF 6
ENDMDL
