MODEL 1
REMARK VINA RESULT:    -3.908      0.000      0.000
REMARK INTER + INTRA:          -6.392
REMARK INTER:                  -5.622
REMARK INTRA:                  -0.771
REMARK UNBOUND:                -0.771
REMARK SMILES O=C(CO)[C@@H](O)[C@H](O)[C@H](O)CO
REMARK SMILES IDX 7 1 9 2 11 3 12 4 10 6 5 8 2 9 1 10 3 11 4 12 6 14 8 16
REMARK H PARENT 12 5 10 7 4 13 6 15 8 17
REMARK Flexibility Score: inf
ROOT
ATOM      1  C   UNL     1      -8.129   6.166   0.583  1.00  0.00     0.181 C 
ENDROOT
BRANCH   1   2
ATOM      2  C   UNL     1      -7.571   5.825  -0.829  1.00  0.00     0.171 C 
BRANCH   2   3
ATOM      3  C   UNL     1      -7.549   7.024  -1.797  1.00  0.00     0.190 C 
BRANCH   3   4
ATOM      4  O   UNL     1      -6.254   7.253  -2.276  1.00  0.00    -0.394 OA
ATOM      5  H   UNL     1      -6.353   7.495  -3.233  1.00  0.00     0.210 HD
ENDBRANCH   3   4
ENDBRANCH   2   3
BRANCH   2   6
ATOM      6  O   UNL     1      -6.255   5.352  -0.695  1.00  0.00    -0.388 OA
ATOM      7  H   UNL     1      -5.947   5.603   0.215  1.00  0.00     0.211 HD
ENDBRANCH   2   6
ENDBRANCH   1   2
BRANCH   1   8
ATOM      8  C   UNL     1      -7.468   7.398   1.247  1.00  0.00     0.214 C 
BRANCH   8   9
ATOM      9  C   UNL     1      -7.931   7.575   2.678  1.00  0.00     0.189 C 
ATOM     10  O   UNL     1      -9.089   7.320   2.976  1.00  0.00    -0.294 OA
BRANCH   9  11
ATOM     11  C   UNL     1      -6.977   8.026   3.745  1.00  0.00     0.234 C 
BRANCH  11  12
ATOM     12  O   UNL     1      -6.001   7.043   3.945  1.00  0.00    -0.388 OA
ATOM     13  H   UNL     1      -5.270   7.481   4.455  1.00  0.00     0.211 HD
ENDBRANCH  11  12
ENDBRANCH   9  11
ENDBRANCH   8   9
BRANCH   8  14
ATOM     14  O   UNL     1      -6.074   7.229   1.242  1.00  0.00    -0.382 OA
ATOM     15  H   UNL     1      -5.772   7.286   2.187  1.00  0.00     0.211 HD
ENDBRANCH   8  14
ENDBRANCH   1   8
BRANCH   1  16
ATOM     16  O   UNL     1      -7.998   5.043   1.421  1.00  0.00    -0.387 OA
ATOM     17  H   UNL     1      -7.192   5.186   1.982  1.00  0.00     0.211 HD
ENDBRANCH   1  16
TORSDOF 10
ENDMDL
MODEL 2
REMARK VINA RESULT:    -3.884      1.207      4.451
REMARK INTER + INTRA:          -6.357
REMARK INTER:                  -5.459
REMARK INTRA:                  -0.898
REMARK UNBOUND:                -0.771
REMARK SMILES O=C(CO)[C@@H](O)[C@H](O)[C@H](O)CO
REMARK SMILES IDX 7 1 9 2 11 3 12 4 10 6 5 8 2 9 1 10 3 11 4 12 6 14 8 16
REMARK H PARENT 12 5 10 7 4 13 6 15 8 17
REMARK Flexibility Score: inf
ROOT
ATOM      1  C   UNL     1      -6.998   7.858   1.860  1.00  0.00     0.181 C 
ENDROOT
BRANCH   1   2
ATOM      2  C   UNL     1      -6.985   8.082   3.399  1.00  0.00     0.171 C 
BRANCH   2   3
ATOM      3  C   UNL     1      -8.378   8.007   4.053  1.00  0.00     0.190 C 
BRANCH   3   4
ATOM      4  O   UNL     1      -8.526   6.818   4.776  1.00  0.00    -0.394 OA
ATOM      5  H   UNL     1      -8.868   7.079   5.670  1.00  0.00     0.210 HD
ENDBRANCH   3   4
ENDBRANCH   2   3
BRANCH   2   6
ATOM      6  O   UNL     1      -6.174   7.100   3.994  1.00  0.00    -0.388 OA
ATOM      7  H   UNL     1      -5.999   6.410   3.303  1.00  0.00     0.211 HD
ENDBRANCH   2   6
ENDBRANCH   1   2
BRANCH   1   8
ATOM      8  C   UNL     1      -8.115   6.905   1.366  1.00  0.00     0.214 C 
BRANCH   8   9
ATOM      9  C   UNL     1      -8.114   6.781  -0.143  1.00  0.00     0.189 C 
ATOM     10  O   UNL     1      -8.458   7.732  -0.829  1.00  0.00    -0.294 OA
BRANCH   9  11
ATOM     11  C   UNL     1      -7.660   5.516  -0.810  1.00  0.00     0.234 C 
BRANCH  11  12
ATOM     12  O   UNL     1      -6.281   5.360  -0.628  1.00  0.00    -0.388 OA
ATOM     13  H   UNL     1      -6.053   5.869   0.194  1.00  0.00     0.211 HD
ENDBRANCH  11  12
ENDBRANCH   9  11
ENDBRANCH   8   9
BRANCH   8  14
ATOM     14  O   UNL     1      -7.911   5.632   1.924  1.00  0.00    -0.382 OA
ATOM     15  H   UNL     1      -8.458   4.994   1.394  1.00  0.00     0.211 HD
ENDBRANCH   8  14
ENDBRANCH   1   8
BRANCH   1  16
ATOM     16  O   UNL     1      -5.742   7.377   1.446  1.00  0.00    -0.387 OA
ATOM     17  H   UNL     1      -5.806   6.388   1.396  1.00  0.00     0.211 HD
ENDBRANCH   1  16
TORSDOF 10
ENDMDL
MODEL 3
REMARK VINA RESULT:    -3.869      1.145      1.460
REMARK INTER + INTRA:          -6.337
REMARK INTER:                  -5.319
REMARK INTRA:                  -1.018
REMARK UNBOUND:                -0.771
REMARK SMILES O=C(CO)[C@@H](O)[C@H](O)[C@H](O)CO
REMARK SMILES IDX 7 1 9 2 11 3 12 4 10 6 5 8 2 9 1 10 3 11 4 12 6 14 8 16
REMARK H PARENT 12 5 10 7 4 13 6 15 8 17
REMARK Flexibility Score: inf
ROOT
ATOM      1  C   UNL     1      -8.181   6.709   1.090  1.00  0.00     0.181 C 
ENDROOT
BRANCH   1   2
ATOM      2  C   UNL     1      -7.931   6.795  -0.443  1.00  0.00     0.171 C 
BRANCH   2   3
ATOM      3  C   UNL     1      -7.282   5.531  -1.041  1.00  0.00     0.190 C 
BRANCH   3   4
ATOM      4  O   UNL     1      -5.933   5.446  -0.680  1.00  0.00    -0.394 OA
ATOM      5  H   UNL     1      -5.493   4.898  -1.380  1.00  0.00     0.210 HD
ENDBRANCH   3   4
ENDBRANCH   2   3
BRANCH   2   6
ATOM      6  O   UNL     1      -9.160   6.999  -1.093  1.00  0.00    -0.388 OA
ATOM      7  H   UNL     1      -9.646   6.133  -1.074  1.00  0.00     0.211 HD
ENDBRANCH   2   6
ENDBRANCH   1   2
BRANCH   1   8
ATOM      8  C   UNL     1      -7.317   7.682   1.930  1.00  0.00     0.214 C 
BRANCH   8   9
ATOM      9  C   UNL     1      -7.635   7.576   3.406  1.00  0.00     0.189 C 
ATOM     10  O   UNL     1      -8.668   7.030   3.766  1.00  0.00    -0.294 OA
BRANCH   9  11
ATOM     11  C   UNL     1      -6.680   8.101   4.438  1.00  0.00     0.234 C 
BRANCH  11  12
ATOM     12  O   UNL     1      -5.690   7.145   4.688  1.00  0.00    -0.388 OA
ATOM     13  H   UNL     1      -5.868   6.796   5.600  1.00  0.00     0.211 HD
ENDBRANCH  11  12
ENDBRANCH   9  11
ENDBRANCH   8   9
BRANCH   8  14
ATOM     14  O   UNL     1      -5.960   7.373   1.737  1.00  0.00    -0.382 OA
ATOM     15  H   UNL     1      -5.774   7.483   0.767  1.00  0.00     0.211 HD
ENDBRANCH   8  14
ENDBRANCH   1   8
BRANCH   1  16
ATOM     16  O   UNL     1      -7.972   5.387   1.525  1.00  0.00    -0.387 OA
ATOM     17  H   UNL     1      -8.264   4.785   0.792  1.00  0.00     0.211 HD
ENDBRANCH   1  16
TORSDOF 10
ENDMDL
MODEL 4
REMARK VINA RESULT:    -3.859      2.277      3.552
REMARK INTER + INTRA:          -6.322
REMARK INTER:                  -5.571
REMARK INTRA:                  -0.751
REMARK UNBOUND:                -0.771
REMARK SMILES O=C(CO)[C@@H](O)[C@H](O)[C@H](O)CO
REMARK SMILES IDX 7 1 9 2 11 3 12 4 10 6 5 8 2 9 1 10 3 11 4 12 6 14 8 16
REMARK H PARENT 12 5 10 7 4 13 6 15 8 17
REMARK Flexibility Score: inf
ROOT
ATOM      1  C   UNL     1      -8.704   5.144  -0.327  1.00  0.00     0.181 C 
ENDROOT
BRANCH   1   2
ATOM      2  C   UNL     1      -7.515   6.127  -0.527  1.00  0.00     0.171 C 
BRANCH   2   3
ATOM      3  C   UNL     1      -7.408   7.207   0.567  1.00  0.00     0.190 C 
BRANCH   3   4
ATOM      4  O   UNL     1      -6.146   7.180   1.171  1.00  0.00    -0.394 OA
ATOM      5  H   UNL     1      -6.152   6.406   1.792  1.00  0.00     0.210 HD
ENDBRANCH   3   4
ENDBRANCH   2   3
BRANCH   2   6
ATOM      6  O   UNL     1      -6.316   5.394  -0.531  1.00  0.00    -0.388 OA
ATOM      7  H   UNL     1      -5.703   5.837   0.112  1.00  0.00     0.211 HD
ENDBRANCH   2   6
ENDBRANCH   1   2
BRANCH   1   8
ATOM      8  C   UNL     1      -9.018   4.819   1.155  1.00  0.00     0.214 C 
BRANCH   8   9
ATOM      9  C   UNL     1     -10.420   4.270   1.319  1.00  0.00     0.189 C 
ATOM     10  O   UNL     1     -11.092   4.019   0.330  1.00  0.00    -0.294 OA
BRANCH   9  11
ATOM     11  C   UNL     1     -10.983   3.997   2.683  1.00  0.00     0.234 C 
BRANCH  11  12
ATOM     12  O   UNL     1      -9.945   3.971   3.621  1.00  0.00    -0.388 OA
ATOM     13  H   UNL     1      -9.527   3.074   3.544  1.00  0.00     0.211 HD
ENDBRANCH  11  12
ENDBRANCH   9  11
ENDBRANCH   8   9
BRANCH   8  14
ATOM     14  O   UNL     1      -8.101   3.862   1.618  1.00  0.00    -0.382 OA
ATOM     15  H   UNL     1      -8.337   3.670   2.565  1.00  0.00     0.211 HD
ENDBRANCH   8  14
ENDBRANCH   1   8
BRANCH   1  16
ATOM     16  O   UNL     1      -8.451   3.953  -1.033  1.00  0.00    -0.387 OA
ATOM     17  H   UNL     1      -7.737   4.148  -1.694  1.00  0.00     0.211 HD
ENDBRANCH   1  16
TORSDOF 10
ENDMDL
MODEL 5
REMARK VINA RESULT:    -3.851      3.655      5.904
REMARK INTER + INTRA:          -6.311
REMARK INTER:                  -5.571
REMARK INTRA:                  -0.739
REMARK UNBOUND:                -0.771
REMARK SMILES O=C(CO)[C@@H](O)[C@H](O)[C@H](O)CO
REMARK SMILES IDX 7 1 9 2 11 3 12 4 10 6 5 8 2 9 1 10 3 11 4 12 6 14 8 16
REMARK H PARENT 12 5 10 7 4 13 6 15 8 17
REMARK Flexibility Score: inf
ROOT
ATOM      1  C   UNL     1      -6.477   5.832  -5.433  1.00  0.00     0.181 C 
ENDROOT
BRANCH   1   2
ATOM      2  C   UNL     1      -5.964   6.732  -6.593  1.00  0.00     0.171 C 
BRANCH   2   3
ATOM      3  C   UNL     1      -6.194   8.238  -6.363  1.00  0.00     0.190 C 
BRANCH   3   4
ATOM      4  O   UNL     1      -5.028   8.966  -6.625  1.00  0.00    -0.394 OA
ATOM      5  H   UNL     1      -4.966   9.655  -5.913  1.00  0.00     0.210 HD
ENDBRANCH   3   4
ENDBRANCH   2   3
BRANCH   2   6
ATOM      6  O   UNL     1      -4.583   6.525  -6.752  1.00  0.00    -0.388 OA
ATOM      7  H   UNL     1      -4.445   6.187  -7.676  1.00  0.00     0.211 HD
ENDBRANCH   2   6
ENDBRANCH   1   2
BRANCH   1   8
ATOM      8  C   UNL     1      -5.965   6.247  -4.032  1.00  0.00     0.214 C 
BRANCH   8   9
ATOM      9  C   UNL     1      -6.885   5.755  -2.934  1.00  0.00     0.189 C 
ATOM     10  O   UNL     1      -7.769   4.953  -3.199  1.00  0.00    -0.294 OA
BRANCH   9  11
ATOM     11  C   UNL     1      -6.703   6.211  -1.516  1.00  0.00     0.234 C 
BRANCH  11  12
ATOM     12  O   UNL     1      -5.821   5.347  -0.857  1.00  0.00    -0.388 OA
ATOM     13  H   UNL     1      -6.382   4.782  -0.264  1.00  0.00     0.211 HD
ENDBRANCH  11  12
ENDBRANCH   9  11
ENDBRANCH   8   9
BRANCH   8  14
ATOM     14  O   UNL     1      -4.687   5.700  -3.830  1.00  0.00    -0.382 OA
ATOM     15  H   UNL     1      -4.734   5.155  -3.000  1.00  0.00     0.211 HD
ENDBRANCH   8  14
ENDBRANCH   1   8
BRANCH   1  16
ATOM     16  O   UNL     1      -6.129   4.493  -5.691  1.00  0.00    -0.387 OA
ATOM     17  H   UNL     1      -6.817   4.121  -6.302  1.00  0.00     0.211 HD
ENDBRANCH   1  16
TORSDOF 10
ENDMDL
MODEL 6
REMARK VINA RESULT:    -3.847     21.631     22.400
REMARK INTER + INTRA:          -6.305
REMARK INTER:                  -5.552
REMARK INTRA:                  -0.753
REMARK UNBOUND:                -0.771
REMARK SMILES O=C(CO)[C@@H](O)[C@H](O)[C@H](O)CO
REMARK SMILES IDX 7 1 9 2 11 3 12 4 10 6 5 8 2 9 1 10 3 11 4 12 6 14 8 16
REMARK H PARENT 12 5 10 7 4 13 6 15 8 17
REMARK Flexibility Score: inf
ROOT
ATOM      1  C   UNL     1       7.139 -10.198   6.135  1.00  0.00     0.181 C 
ENDROOT
BRANCH   1   2
ATOM      2  C   UNL     1       5.934 -11.064   5.668  1.00  0.00     0.171 C 
BRANCH   2   3
ATOM      3  C   UNL     1       4.568 -10.556   6.171  1.00  0.00     0.190 C 
BRANCH   3   4
ATOM      4  O   UNL     1       3.542 -10.943   5.302  1.00  0.00    -0.394 OA
ATOM      5  H   UNL     1       3.741 -10.513   4.430  1.00  0.00     0.210 HD
ENDBRANCH   3   4
ENDBRANCH   2   3
BRANCH   2   6
ATOM      6  O   UNL     1       5.900 -11.076   4.264  1.00  0.00    -0.388 OA
ATOM      7  H   UNL     1       6.841 -11.125   3.951  1.00  0.00     0.211 HD
ENDBRANCH   2   6
ENDBRANCH   1   2
BRANCH   1   8
ATOM      8  C   UNL     1       7.607  -9.148   5.098  1.00  0.00     0.214 C 
BRANCH   8   9
ATOM      9  C   UNL     1       8.308  -7.982   5.763  1.00  0.00     0.189 C 
ATOM     10  O   UNL     1       8.732  -8.101   6.903  1.00  0.00    -0.294 OA
BRANCH   9  11
ATOM     11  C   UNL     1       8.520  -6.692   5.027  1.00  0.00     0.234 C 
BRANCH  11  12
ATOM     12  O   UNL     1       8.835  -6.963   3.690  1.00  0.00    -0.388 OA
ATOM     13  H   UNL     1       8.446  -7.854   3.491  1.00  0.00     0.211 HD
ENDBRANCH  11  12
ENDBRANCH   9  11
ENDBRANCH   8   9
BRANCH   8  14
ATOM     14  O   UNL     1       8.498  -9.758   4.199  1.00  0.00    -0.382 OA
ATOM     15  H   UNL     1       8.010  -9.870   3.341  1.00  0.00     0.211 HD
ENDBRANCH   8  14
ENDBRANCH   1   8
BRANCH   1  16
ATOM     16  O   UNL     1       8.212 -11.039   6.482  1.00  0.00    -0.387 OA
ATOM     17  H   UNL     1       8.801 -11.110   5.687  1.00  0.00     0.211 HD
ENDBRANCH   1  16
TORSDOF 10
ENDMDL
MODEL 7
REMARK VINA RESULT:    -3.830      1.993      4.784
REMARK INTER + INTRA:          -6.280
REMARK INTER:                  -5.549
REMARK INTRA:                  -0.731
REMARK UNBOUND:                -0.771
REMARK SMILES O=C(CO)[C@@H](O)[C@H](O)[C@H](O)CO
REMARK SMILES IDX 7 1 9 2 11 3 12 4 10 6 5 8 2 9 1 10 3 11 4 12 6 14 8 16
REMARK H PARENT 12 5 10 7 4 13 6 15 8 17
REMARK Flexibility Score: inf
ROOT
ATOM      1  C   UNL     1      -7.978   6.688  -0.545  1.00  0.00     0.181 C 
ENDROOT
BRANCH   1   2
ATOM      2  C   UNL     1      -8.548   6.011   0.735  1.00  0.00     0.171 C 
BRANCH   2   3
ATOM      3  C   UNL     1      -8.821   4.503   0.574  1.00  0.00     0.190 C 
BRANCH   3   4
ATOM      4  O   UNL     1      -8.190   3.772   1.587  1.00  0.00    -0.394 OA
ATOM      5  H   UNL     1      -7.786   2.980   1.147  1.00  0.00     0.210 HD
ENDBRANCH   3   4
ENDBRANCH   2   3
BRANCH   2   6
ATOM      6  O   UNL     1      -7.629   6.176   1.784  1.00  0.00    -0.388 OA
ATOM      7  H   UNL     1      -8.147   6.159   2.631  1.00  0.00     0.211 HD
ENDBRANCH   2   6
ENDBRANCH   1   2
BRANCH   1   8
ATOM      8  C   UNL     1      -6.995   5.801  -1.348  1.00  0.00     0.214 C 
BRANCH   8   9
ATOM      9  C   UNL     1      -6.593   6.457  -2.652  1.00  0.00     0.189 C 
ATOM     10  O   UNL     1      -6.880   7.628  -2.856  1.00  0.00    -0.294 OA
BRANCH   9  11
ATOM     11  C   UNL     1      -5.813   5.699  -3.686  1.00  0.00     0.234 C 
BRANCH  11  12
ATOM     12  O   UNL     1      -4.454   5.713  -3.349  1.00  0.00    -0.388 OA
ATOM     13  H   UNL     1      -4.070   4.876  -3.721  1.00  0.00     0.211 HD
ENDBRANCH  11  12
ENDBRANCH   9  11
ENDBRANCH   8   9
BRANCH   8  14
ATOM     14  O   UNL     1      -5.842   5.582  -0.578  1.00  0.00    -0.382 OA
ATOM     15  H   UNL     1      -5.114   6.123  -0.986  1.00  0.00     0.211 HD
ENDBRANCH   8  14
ENDBRANCH   1   8
BRANCH   1  16
ATOM     16  O   UNL     1      -7.353   7.899  -0.194  1.00  0.00    -0.387 OA
ATOM     17  H   UNL     1      -7.804   8.239   0.621  1.00  0.00     0.211 HD
ENDBRANCH   1  16
TORSDOF 10
ENDMDL
MODEL 8
REMARK VINA RESULT:    -3.780     21.064     21.943
REMARK INTER + INTRA:          -6.208
REMARK INTER:                  -5.421
REMARK INTRA:                  -0.787
REMARK UNBOUND:                -0.771
REMARK SMILES O=C(CO)[C@@H](O)[C@H](O)[C@H](O)CO
REMARK SMILES IDX 7 1 9 2 11 3 12 4 10 6 5 8 2 9 1 10 3 11 4 12 6 14 8 16
REMARK H PARENT 12 5 10 7 4 13 6 15 8 17
REMARK Flexibility Score: inf
ROOT
ATOM      1  C   UNL     1       8.265  -7.208   5.147  1.00  0.00     0.181 C 
ENDROOT
BRANCH   1   2
ATOM      2  C   UNL     1       8.875  -6.388   6.320  1.00  0.00     0.171 C 
BRANCH   2   3
ATOM      3  C   UNL     1       8.840  -4.864   6.101  1.00  0.00     0.190 C 
BRANCH   3   4
ATOM      4  O   UNL     1       7.601  -4.463   5.588  1.00  0.00    -0.394 OA
ATOM      5  H   UNL     1       7.404  -3.581   5.998  1.00  0.00     0.210 HD
ENDBRANCH   3   4
ENDBRANCH   2   3
BRANCH   2   6
ATOM      6  O   UNL     1       8.158  -6.673   7.495  1.00  0.00    -0.388 OA
ATOM      7  H   UNL     1       7.690  -5.839   7.760  1.00  0.00     0.211 HD
ENDBRANCH   2   6
ENDBRANCH   1   2
BRANCH   1   8
ATOM      8  C   UNL     1       8.615  -8.716   5.176  1.00  0.00     0.214 C 
BRANCH   8   9
ATOM      9  C   UNL     1       7.412  -9.560   5.543  1.00  0.00     0.189 C 
ATOM     10  O   UNL     1       6.636  -9.167   6.402  1.00  0.00    -0.294 OA
BRANCH   9  11
ATOM     11  C   UNL     1       7.140 -10.858   4.841  1.00  0.00     0.234 C 
BRANCH  11  12
ATOM     12  O   UNL     1       6.716 -10.601   3.532  1.00  0.00    -0.388 OA
ATOM     13  H   UNL     1       5.883 -10.067   3.613  1.00  0.00     0.211 HD
ENDBRANCH  11  12
ENDBRANCH   9  11
ENDBRANCH   8   9
BRANCH   8  14
ATOM     14  O   UNL     1       9.068  -9.106   3.905  1.00  0.00    -0.382 OA
ATOM     15  H   UNL     1       9.235 -10.084   3.946  1.00  0.00     0.211 HD
ENDBRANCH   8  14
ENDBRANCH   1   8
BRANCH   1  16
ATOM     16  O   UNL     1       8.672  -6.646   3.923  1.00  0.00    -0.387 OA
ATOM     17  H   UNL     1       9.658  -6.741   3.868  1.00  0.00     0.211 HD
ENDBRANCH   1  16
TORSDOF 10
ENDMDL
MODEL 9
REMARK VINA RESULT:    -3.779      1.491      1.977
REMARK INTER + INTRA:          -6.206
REMARK INTER:                  -5.081
REMARK INTRA:                  -1.125
REMARK UNBOUND:                -0.771
REMARK SMILES O=C(CO)[C@@H](O)[C@H](O)[C@H](O)CO
REMARK SMILES IDX 7 1 9 2 11 3 12 4 10 6 5 8 2 9 1 10 3 11 4 12 6 14 8 16
REMARK H PARENT 12 5 10 7 4 13 6 15 8 17
REMARK Flexibility Score: inf
ROOT
ATOM      1  C   UNL     1      -7.779   5.562  -0.783  1.00  0.00     0.181 C 
ENDROOT
BRANCH   1   2
ATOM      2  C   UNL     1      -7.855   5.664  -2.334  1.00  0.00     0.171 C 
BRANCH   2   3
ATOM      3  C   UNL     1      -6.487   5.871  -3.013  1.00  0.00     0.190 C 
BRANCH   3   4
ATOM      4  O   UNL     1      -5.917   7.088  -2.625  1.00  0.00    -0.394 OA
ATOM      5  H   UNL     1      -5.648   6.978  -1.676  1.00  0.00     0.210 HD
ENDBRANCH   3   4
ENDBRANCH   2   3
BRANCH   2   6
ATOM      6  O   UNL     1      -8.415   4.480  -2.840  1.00  0.00    -0.388 OA
ATOM      7  H   UNL     1      -8.679   4.661  -3.780  1.00  0.00     0.211 HD
ENDBRANCH   2   6
ENDBRANCH   1   2
BRANCH   1   8
ATOM      8  C   UNL     1      -8.325   6.804  -0.037  1.00  0.00     0.214 C 
BRANCH   8   9
ATOM      9  C   UNL     1      -8.058   6.721   1.451  1.00  0.00     0.189 C 
ATOM     10  O   UNL     1      -8.555   5.816   2.106  1.00  0.00    -0.294 OA
BRANCH   9  11
ATOM     11  C   UNL     1      -7.162   7.716   2.129  1.00  0.00     0.234 C 
BRANCH  11  12
ATOM     12  O   UNL     1      -5.829   7.443   1.801  1.00  0.00    -0.388 OA
ATOM     13  H   UNL     1      -5.662   6.506   2.084  1.00  0.00     0.211 HD
ENDBRANCH  11  12
ENDBRANCH   9  11
ENDBRANCH   8   9
BRANCH   8  14
ATOM     14  O   UNL     1      -7.700   7.955  -0.544  1.00  0.00    -0.382 OA
ATOM     15  H   UNL     1      -8.040   8.084  -1.468  1.00  0.00     0.211 HD
ENDBRANCH   8  14
ENDBRANCH   1   8
BRANCH   1  16
ATOM     16  O   UNL     1      -6.449   5.317  -0.395  1.00  0.00    -0.387 OA
ATOM     17  H   UNL     1      -6.274   4.350  -0.531  1.00  0.00     0.211 HD
ENDBRANCH   1  16
TORSDOF 10
ENDMDL
