MODEL 1
REMARK VINA RESULT:    -3.896      0.000      0.000
REMARK INTER + INTRA:         -15.621
REMARK INTER:                  -9.817
REMARK INTRA:                  -5.803
REMARK UNBOUND:                -5.803
REMARK SMILES CCCCCCCCCCCCCCCCCCCCCCCCCCCC(=O)[O-]
REMARK SMILES IDX 15 1 16 2 17 3 18 4 19 5 20 6 21 7 22 8 23 9 24 10 25 11
REMARK SMILES IDX 26 12 27 13 28 14 29 15 30 16 14 17 13 18 12 19 11 20 10 21
REMARK SMILES IDX 9 22 8 23 7 24 6 25 5 26 4 27 3 28 2 29 1 30
REMARK H PARENT
REMARK Flexibility Score: inf
ROOT
ATOM      1  C   UNL     1      14.950   0.269  58.751  1.00  0.00     0.000 C 
ENDROOT
BRANCH   1   2
ATOM      2  C   UNL     1      15.249  -0.930  59.667  1.00  0.00     0.000 C 
BRANCH   2   3
ATOM      3  C   UNL     1      14.560  -0.815  61.038  1.00  0.00     0.000 C 
BRANCH   3   4
ATOM      4  C   UNL     1      15.077  -1.838  62.074  1.00  0.00     0.000 C 
BRANCH   4   5
ATOM      5  C   UNL     1      16.439  -2.429  61.670  1.00  0.00     0.000 C 
BRANCH   5   6
ATOM      6  C   UNL     1      17.584  -1.951  62.588  1.00  0.00     0.000 C 
BRANCH   6   7
ATOM      7  C   UNL     1      18.941  -1.826  61.873  1.00  0.00     0.000 C 
BRANCH   7   8
ATOM      8  C   UNL     1      18.826  -1.189  60.477  1.00  0.00     0.000 C 
BRANCH   8   9
ATOM      9  C   UNL     1      19.950  -0.181  60.189  1.00  0.00     0.000 C 
BRANCH   9  10
ATOM     10  C   UNL     1      19.413   1.198  59.768  1.00  0.00     0.000 C 
BRANCH  10  11
ATOM     11  C   UNL     1      18.002   1.473  60.310  1.00  0.00     0.000 C 
BRANCH  11  12
ATOM     12  C   UNL     1      18.016   2.233  61.646  1.00  0.00     0.006 C 
BRANCH  12  13
ATOM     13  C   UNL     1      17.007   1.630  62.629  1.00  0.00     0.053 C 
BRANCH  13  14
ATOM     14  C   UNL     1      16.082   2.686  63.144  1.00  0.00     0.041 C 
ATOM     15  O   UNL     1      16.541   3.775  63.577  1.00  0.00    -0.550 OA
ATOM     16  O   UNL     1      14.714   2.446  63.196  1.00  0.00    -0.550 OA
ENDBRANCH  13  14
ENDBRANCH  12  13
ENDBRANCH  11  12
ENDBRANCH  10  11
ENDBRANCH   9  10
ENDBRANCH   8   9
ENDBRANCH   7   8
ENDBRANCH   6   7
ENDBRANCH   5   6
ENDBRANCH   4   5
ENDBRANCH   3   4
ENDBRANCH   2   3
ENDBRANCH   1   2
BRANCH   1  17
ATOM     17  C   UNL     1      15.576   0.111  57.356  1.00  0.00     0.000 C 
BRANCH  17  18
ATOM     18  C   UNL     1      16.744  -0.892  57.340  1.00  0.00     0.000 C 
BRANCH  18  19
ATOM     19  C   UNL     1      17.970  -0.363  56.574  1.00  0.00     0.000 C 
BRANCH  19  20
ATOM     20  C   UNL     1      17.680   0.798  55.603  1.00  0.00     0.000 C 
BRANCH  20  21
ATOM     21  C   UNL     1      18.466   2.096  55.880  1.00  0.00     0.000 C 
BRANCH  21  22
ATOM     22  C   UNL     1      18.267   3.212  54.837  1.00  0.00    -0.000 C 
BRANCH  22  23
ATOM     23  C   UNL     1      18.990   4.535  55.152  1.00  0.00    -0.000 C 
BRANCH  23  24
ATOM     24  C   UNL     1      19.723   4.541  56.510  1.00  0.00    -0.000 C 
BRANCH  24  25
ATOM     25  C   UNL     1      19.103   5.535  57.510  1.00  0.00    -0.000 C 
BRANCH  25  26
ATOM     26  C   UNL     1      18.635   4.854  58.808  1.00  0.00    -0.000 C 
BRANCH  26  27
ATOM     27  C   UNL     1      17.103   4.848  58.950  1.00  0.00    -0.000 C 
BRANCH  27  28
ATOM     28  C   UNL     1      16.434   3.709  58.159  1.00  0.00    -0.000 C 
BRANCH  28  29
ATOM     29  C   UNL     1      15.220   4.131  57.312  1.00  0.00    -0.003 C 
ATOM     30  C   UNL     1      15.539   5.254  56.324  1.00  0.00     0.004 C 
ENDBRANCH  28  29
ENDBRANCH  27  28
ENDBRANCH  26  27
ENDBRANCH  25  26
ENDBRANCH  24  25
ENDBRANCH  23  24
ENDBRANCH  22  23
ENDBRANCH  21  22
ENDBRANCH  20  21
ENDBRANCH  19  20
ENDBRANCH  18  19
ENDBRANCH  17  18
ENDBRANCH   1  17
TORSDOF 26
ENDMDL
MODEL 2
REMARK VINA RESULT:    -3.853      2.042      6.022
REMARK INTER + INTRA:         -15.512
REMARK INTER:                  -9.539
REMARK INTRA:                  -5.972
REMARK UNBOUND:                -5.803
REMARK SMILES CCCCCCCCCCCCCCCCCCCCCCCCCCCC(=O)[O-]
REMARK SMILES IDX 15 1 16 2 17 3 18 4 19 5 20 6 21 7 22 8 23 9 24 10 25 11
REMARK SMILES IDX 26 12 27 13 28 14 29 15 30 16 14 17 13 18 12 19 11 20 10 21
REMARK SMILES IDX 9 22 8 23 7 24 6 25 5 26 4 27 3 28 2 29 1 30
REMARK H PARENT
REMARK Flexibility Score: inf
ROOT
ATOM      1  C   UNL     1      16.752   2.383  63.025  1.00  0.00     0.000 C 
ENDROOT
BRANCH   1   2
ATOM      2  C   UNL     1      15.261   2.383  62.648  1.00  0.00     0.000 C 
BRANCH   2   3
ATOM      3  C   UNL     1      14.865   1.163  61.799  1.00  0.00     0.000 C 
BRANCH   3   4
ATOM      4  C   UNL     1      14.861   1.446  60.280  1.00  0.00     0.000 C 
BRANCH   4   5
ATOM      5  C   UNL     1      14.977   0.154  59.453  1.00  0.00     0.000 C 
BRANCH   5   6
ATOM      6  C   UNL     1      15.436   0.421  58.003  1.00  0.00     0.000 C 
BRANCH   6   7
ATOM      7  C   UNL     1      16.332  -0.687  57.421  1.00  0.00     0.000 C 
BRANCH   7   8
ATOM      8  C   UNL     1      16.784  -0.397  55.980  1.00  0.00     0.000 C 
BRANCH   8   9
ATOM      9  C   UNL     1      18.027   0.504  55.917  1.00  0.00     0.000 C 
BRANCH   9  10
ATOM     10  C   UNL     1      17.802   1.761  55.059  1.00  0.00     0.000 C 
BRANCH  10  11
ATOM     11  C   UNL     1      18.723   2.924  55.462  1.00  0.00     0.000 C 
BRANCH  11  12
ATOM     12  C   UNL     1      17.996   4.276  55.492  1.00  0.00     0.006 C 
BRANCH  12  13
ATOM     13  C   UNL     1      16.482   4.081  55.621  1.00  0.00     0.053 C 
BRANCH  13  14
ATOM     14  C   UNL     1      15.978   4.706  56.883  1.00  0.00     0.041 C 
ATOM     15  O   UNL     1      16.277   5.897  57.164  1.00  0.00    -0.550 OA
ATOM     16  O   UNL     1      15.221   3.958  57.775  1.00  0.00    -0.550 OA
ENDBRANCH  13  14
ENDBRANCH  12  13
ENDBRANCH  11  12
ENDBRANCH  10  11
ENDBRANCH   9  10
ENDBRANCH   8   9
ENDBRANCH   7   8
ENDBRANCH   6   7
ENDBRANCH   5   6
ENDBRANCH   4   5
ENDBRANCH   3   4
ENDBRANCH   2   3
ENDBRANCH   1   2
BRANCH   1  17
ATOM     17  C   UNL     1      17.421   3.743  62.769  1.00  0.00     0.000 C 
BRANCH  17  18
ATOM     18  C   UNL     1      16.520   4.708  61.976  1.00  0.00     0.000 C 
BRANCH  18  19
ATOM     19  C   UNL     1      17.089   5.041  60.584  1.00  0.00     0.000 C 
BRANCH  19  20
ATOM     20  C   UNL     1      18.580   4.702  60.391  1.00  0.00     0.000 C 
BRANCH  20  21
ATOM     21  C   UNL     1      18.913   3.919  59.104  1.00  0.00     0.000 C 
BRANCH  21  22
ATOM     22  C   UNL     1      18.226   2.545  58.983  1.00  0.00    -0.000 C 
BRANCH  22  23
ATOM     23  C   UNL     1      18.622   1.520  60.061  1.00  0.00    -0.000 C 
BRANCH  23  24
ATOM     24  C   UNL     1      19.226   0.217  59.496  1.00  0.00    -0.000 C 
BRANCH  24  25
ATOM     25  C   UNL     1      18.875  -1.015  60.351  1.00  0.00    -0.000 C 
BRANCH  25  26
ATOM     26  C   UNL     1      17.969  -0.668  61.545  1.00  0.00    -0.000 C 
BRANCH  26  27
ATOM     27  C   UNL     1      17.263  -1.905  62.128  1.00  0.00    -0.000 C 
BRANCH  27  28
ATOM     28  C   UNL     1      17.088  -3.035  61.096  1.00  0.00    -0.000 C 
BRANCH  28  29
ATOM     29  C   UNL     1      15.703  -3.096  60.428  1.00  0.00    -0.003 C 
ATOM     30  C   UNL     1      14.549  -2.993  61.426  1.00  0.00     0.004 C 
ENDBRANCH  28  29
ENDBRANCH  27  28
ENDBRANCH  26  27
ENDBRANCH  25  26
ENDBRANCH  24  25
ENDBRANCH  23  24
ENDBRANCH  22  23
ENDBRANCH  21  22
ENDBRANCH  20  21
ENDBRANCH  19  20
ENDBRANCH  18  19
ENDBRANCH  17  18
ENDBRANCH   1  17
TORSDOF 26
ENDMDL
MODEL 3
REMARK VINA RESULT:    -3.712      1.414      6.567
REMARK INTER + INTRA:         -15.156
REMARK INTER:                 -10.591
REMARK INTRA:                  -4.566
REMARK UNBOUND:                -5.803
REMARK SMILES CCCCCCCCCCCCCCCCCCCCCCCCCCCC(=O)[O-]
REMARK SMILES IDX 15 1 16 2 17 3 18 4 19 5 20 6 21 7 22 8 23 9 24 10 25 11
REMARK SMILES IDX 26 12 27 13 28 14 29 15 30 16 14 17 13 18 12 19 11 20 10 21
REMARK SMILES IDX 9 22 8 23 7 24 6 25 5 26 4 27 3 28 2 29 1 30
REMARK H PARENT
REMARK Flexibility Score: inf
ROOT
ATOM      1  C   UNL     1      16.565  -0.872  57.902  1.00  0.00     0.000 C 
ENDROOT
BRANCH   1   2
ATOM      2  C   UNL     1      17.583  -0.833  56.750  1.00  0.00     0.000 C 
BRANCH   2   3
ATOM      3  C   UNL     1      16.916  -0.655  55.375  1.00  0.00     0.000 C 
BRANCH   3   4
ATOM      4  C   UNL     1      17.526   0.493  54.540  1.00  0.00     0.000 C 
BRANCH   4   5
ATOM      5  C   UNL     1      18.121   1.599  55.428  1.00  0.00     0.000 C 
BRANCH   5   6
ATOM      6  C   UNL     1      17.347   2.930  55.309  1.00  0.00     0.000 C 
BRANCH   6   7
ATOM      7  C   UNL     1      16.642   3.356  56.610  1.00  0.00     0.000 C 
BRANCH   7   8
ATOM      8  C   UNL     1      15.822   4.648  56.452  1.00  0.00     0.000 C 
BRANCH   8   9
ATOM      9  C   UNL     1      15.013   4.995  57.711  1.00  0.00     0.000 C 
BRANCH   9  10
ATOM     10  C   UNL     1      15.864   5.693  58.786  1.00  0.00     0.000 C 
BRANCH  10  11
ATOM     11  C   UNL     1      16.419   4.710  59.829  1.00  0.00     0.000 C 
BRANCH  11  12
ATOM     12  C   UNL     1      15.525   4.594  61.072  1.00  0.00     0.006 C 
BRANCH  12  13
ATOM     13  C   UNL     1      15.685   3.223  61.736  1.00  0.00     0.053 C 
BRANCH  13  14
ATOM     14  C   UNL     1      15.891   3.374  63.210  1.00  0.00     0.041 C 
ATOM     15  O   UNL     1      14.932   3.191  64.005  1.00  0.00    -0.550 OA
ATOM     16  O   UNL     1      17.128   3.769  63.702  1.00  0.00    -0.550 OA
ENDBRANCH  13  14
ENDBRANCH  12  13
ENDBRANCH  11  12
ENDBRANCH  10  11
ENDBRANCH   9  10
ENDBRANCH   8   9
ENDBRANCH   7   8
ENDBRANCH   6   7
ENDBRANCH   5   6
ENDBRANCH   4   5
ENDBRANCH   3   4
ENDBRANCH   2   3
ENDBRANCH   1   2
BRANCH   1  17
ATOM     17  C   UNL     1      15.521   0.252  57.799  1.00  0.00     0.000 C 
BRANCH  17  18
ATOM     18  C   UNL     1      14.922   0.631  59.166  1.00  0.00     0.000 C 
BRANCH  18  19
ATOM     19  C   UNL     1      15.204  -0.426  60.250  1.00  0.00     0.000 C 
BRANCH  19  20
ATOM     20  C   UNL     1      14.050  -0.664  61.244  1.00  0.00     0.000 C 
BRANCH  20  21
ATOM     21  C   UNL     1      14.048  -2.047  61.927  1.00  0.00     0.000 C 
BRANCH  21  22
ATOM     22  C   UNL     1      14.987  -3.088  61.290  1.00  0.00    -0.000 C 
BRANCH  22  23
ATOM     23  C   UNL     1      15.670  -4.045  62.285  1.00  0.00    -0.000 C 
BRANCH  23  24
ATOM     24  C   UNL     1      16.606  -3.340  63.290  1.00  0.00    -0.000 C 
BRANCH  24  25
ATOM     25  C   UNL     1      17.980  -3.004  62.681  1.00  0.00    -0.000 C 
BRANCH  25  26
ATOM     26  C   UNL     1      18.097  -1.529  62.262  1.00  0.00    -0.000 C 
BRANCH  26  27
ATOM     27  C   UNL     1      18.751  -1.360  60.880  1.00  0.00    -0.000 C 
BRANCH  27  28
ATOM     28  C   UNL     1      19.425   0.013  60.700  1.00  0.00    -0.000 C 
BRANCH  28  29
ATOM     29  C   UNL     1      18.464   1.172  60.378  1.00  0.00    -0.003 C 
ATOM     30  C   UNL     1      18.830   1.917  59.094  1.00  0.00     0.004 C 
ENDBRANCH  28  29
ENDBRANCH  27  28
ENDBRANCH  26  27
ENDBRANCH  25  26
ENDBRANCH  24  25
ENDBRANCH  23  24
ENDBRANCH  22  23
ENDBRANCH  21  22
ENDBRANCH  20  21
ENDBRANCH  19  20
ENDBRANCH  18  19
ENDBRANCH  17  18
ENDBRANCH   1  17
TORSDOF 26
ENDMDL
MODEL 4
REMARK VINA RESULT:    -3.710      1.822      6.298
REMARK INTER + INTRA:         -15.152
REMARK INTER:                 -10.218
REMARK INTRA:                  -4.934
REMARK UNBOUND:                -5.803
REMARK SMILES CCCCCCCCCCCCCCCCCCCCCCCCCCCC(=O)[O-]
REMARK SMILES IDX 15 1 16 2 17 3 18 4 19 5 20 6 21 7 22 8 23 9 24 10 25 11
REMARK SMILES IDX 26 12 27 13 28 14 29 15 30 16 14 17 13 18 12 19 11 20 10 21
REMARK SMILES IDX 9 22 8 23 7 24 6 25 5 26 4 27 3 28 2 29 1 30
REMARK H PARENT
REMARK Flexibility Score: inf
ROOT
ATOM      1  C   UNL     1      18.460   1.074  56.520  1.00  0.00     0.000 C 
ENDROOT
BRANCH   1   2
ATOM      2  C   UNL     1      17.866   1.717  55.255  1.00  0.00     0.000 C 
BRANCH   2   3
ATOM      3  C   UNL     1      18.030   3.246  55.234  1.00  0.00     0.000 C 
BRANCH   3   4
ATOM      4  C   UNL     1      16.728   4.009  55.566  1.00  0.00     0.000 C 
BRANCH   4   5
ATOM      5  C   UNL     1      16.646   4.389  57.055  1.00  0.00     0.000 C 
BRANCH   5   6
ATOM      6  C   UNL     1      15.259   4.941  57.447  1.00  0.00     0.000 C 
BRANCH   6   7
ATOM      7  C   UNL     1      15.261   5.752  58.756  1.00  0.00     0.000 C 
BRANCH   7   8
ATOM      8  C   UNL     1      16.666   5.904  59.364  1.00  0.00     0.000 C 
BRANCH   8   9
ATOM      9  C   UNL     1      16.731   5.450  60.830  1.00  0.00     0.000 C 
BRANCH   9  10
ATOM     10  C   UNL     1      15.361   5.010  61.373  1.00  0.00     0.000 C 
BRANCH  10  11
ATOM     11  C   UNL     1      15.409   4.630  62.862  1.00  0.00     0.000 C 
BRANCH  11  12
ATOM     12  C   UNL     1      16.760   4.030  63.278  1.00  0.00     0.006 C 
BRANCH  12  13
ATOM     13  C   UNL     1      17.197   4.562  64.647  1.00  0.00     0.053 C 
BRANCH  13  14
ATOM     14  C   UNL     1      17.832   5.909  64.507  1.00  0.00     0.041 C 
ATOM     15  O   UNL     1      17.227   6.939  64.906  1.00  0.00    -0.550 OA
ATOM     16  O   UNL     1      19.069   6.034  63.888  1.00  0.00    -0.550 OA
ENDBRANCH  13  14
ENDBRANCH  12  13
ENDBRANCH  11  12
ENDBRANCH  10  11
ENDBRANCH   9  10
ENDBRANCH   8   9
ENDBRANCH   7   8
ENDBRANCH   6   7
ENDBRANCH   5   6
ENDBRANCH   4   5
ENDBRANCH   3   4
ENDBRANCH   2   3
ENDBRANCH   1   2
BRANCH   1  17
ATOM     17  C   UNL     1      17.756  -0.240  56.895  1.00  0.00     0.000 C 
BRANCH  17  18
ATOM     18  C   UNL     1      16.253  -0.224  56.562  1.00  0.00     0.000 C 
BRANCH  18  19
ATOM     19  C   UNL     1      15.369  -0.111  57.817  1.00  0.00     0.000 C 
BRANCH  19  20
ATOM     20  C   UNL     1      14.902   1.317  58.159  1.00  0.00     0.000 C 
BRANCH  20  21
ATOM     21  C   UNL     1      15.290   1.814  59.567  1.00  0.00     0.000 C 
BRANCH  21  22
ATOM     22  C   UNL     1      16.803   1.978  59.805  1.00  0.00    -0.000 C 
BRANCH  22  23
ATOM     23  C   UNL     1      17.369   1.166  60.986  1.00  0.00    -0.000 C 
BRANCH  23  24
ATOM     24  C   UNL     1      18.820   0.683  60.775  1.00  0.00    -0.000 C 
BRANCH  24  25
ATOM     25  C   UNL     1      18.894  -0.802  60.373  1.00  0.00    -0.000 C 
BRANCH  25  26
ATOM     26  C   UNL     1      17.518  -1.489  60.390  1.00  0.00    -0.000 C 
BRANCH  26  27
ATOM     27  C   UNL     1      17.305  -2.350  61.647  1.00  0.00    -0.000 C 
BRANCH  27  28
ATOM     28  C   UNL     1      15.902  -2.181  62.259  1.00  0.00    -0.000 C 
BRANCH  28  29
ATOM     29  C   UNL     1      14.735  -2.408  61.282  1.00  0.00    -0.003 C 
ATOM     30  C   UNL     1      13.720  -3.434  61.787  1.00  0.00     0.004 C 
ENDBRANCH  28  29
ENDBRANCH  27  28
ENDBRANCH  26  27
ENDBRANCH  25  26
ENDBRANCH  24  25
ENDBRANCH  23  24
ENDBRANCH  22  23
ENDBRANCH  21  22
ENDBRANCH  20  21
ENDBRANCH  19  20
ENDBRANCH  18  19
ENDBRANCH  17  18
ENDBRANCH   1  17
TORSDOF 26
ENDMDL
MODEL 5
REMARK VINA RESULT:    -3.708      2.799      7.386
REMARK INTER + INTRA:         -15.146
REMARK INTER:                  -9.897
REMARK INTRA:                  -5.249
REMARK UNBOUND:                -5.803
REMARK SMILES CCCCCCCCCCCCCCCCCCCCCCCCCCCC(=O)[O-]
REMARK SMILES IDX 15 1 16 2 17 3 18 4 19 5 20 6 21 7 22 8 23 9 24 10 25 11
REMARK SMILES IDX 26 12 27 13 28 14 29 15 30 16 14 17 13 18 12 19 11 20 10 21
REMARK SMILES IDX 9 22 8 23 7 24 6 25 5 26 4 27 3 28 2 29 1 30
REMARK H PARENT
REMARK Flexibility Score: inf
ROOT
ATOM      1  C   UNL     1      18.261   0.197  56.412  1.00  0.00     0.000 C 
ENDROOT
BRANCH   1   2
ATOM      2  C   UNL     1      19.496  -0.317  57.170  1.00  0.00     0.000 C 
BRANCH   2   3
ATOM      3  C   UNL     1      19.785   0.488  58.448  1.00  0.00     0.000 C 
BRANCH   3   4
ATOM      4  C   UNL     1      19.327  -0.224  59.740  1.00  0.00     0.000 C 
BRANCH   4   5
ATOM      5  C   UNL     1      18.769   0.765  60.778  1.00  0.00     0.000 C 
BRANCH   5   6
ATOM      6  C   UNL     1      18.171   2.030  60.124  1.00  0.00     0.000 C 
BRANCH   6   7
ATOM      7  C   UNL     1      17.357   2.904  61.095  1.00  0.00     0.000 C 
BRANCH   7   8
ATOM      8  C   UNL     1      16.242   3.699  60.394  1.00  0.00     0.000 C 
BRANCH   8   9
ATOM      9  C   UNL     1      15.694   2.983  59.150  1.00  0.00     0.000 C 
BRANCH   9  10
ATOM     10  C   UNL     1      15.625   3.904  57.920  1.00  0.00     0.000 C 
BRANCH  10  11
ATOM     11  C   UNL     1      16.174   3.236  56.650  1.00  0.00     0.000 C 
BRANCH  11  12
ATOM     12  C   UNL     1      17.187   4.117  55.904  1.00  0.00     0.006 C 
BRANCH  12  13
ATOM     13  C   UNL     1      17.838   3.347  54.751  1.00  0.00     0.053 C 
BRANCH  13  14
ATOM     14  C   UNL     1      19.328   3.446  54.829  1.00  0.00     0.041 C 
ATOM     15  O   UNL     1      20.007   3.633  53.785  1.00  0.00    -0.550 OA
ATOM     16  O   UNL     1      19.973   3.280  56.048  1.00  0.00    -0.550 OA
ENDBRANCH  13  14
ENDBRANCH  12  13
ENDBRANCH  11  12
ENDBRANCH  10  11
ENDBRANCH   9  10
ENDBRANCH   8   9
ENDBRANCH   7   8
ENDBRANCH   6   7
ENDBRANCH   5   6
ENDBRANCH   4   5
ENDBRANCH   3   4
ENDBRANCH   2   3
ENDBRANCH   1   2
BRANCH   1  17
ATOM     17  C   UNL     1      17.081  -0.787  56.479  1.00  0.00     0.000 C 
BRANCH  17  18
ATOM     18  C   UNL     1      15.932  -0.274  57.366  1.00  0.00     0.000 C 
BRANCH  18  19
ATOM     19  C   UNL     1      15.930  -0.917  58.765  1.00  0.00     0.000 C 
BRANCH  19  20
ATOM     20  C   UNL     1      14.854  -0.380  59.729  1.00  0.00     0.000 C 
BRANCH  20  21
ATOM     21  C   UNL     1      15.333  -0.133  61.175  1.00  0.00     0.000 C 
BRANCH  21  22
ATOM     22  C   UNL     1      14.655  -1.011  62.243  1.00  0.00    -0.000 C 
BRANCH  22  23
ATOM     23  C   UNL     1      13.221  -1.459  61.905  1.00  0.00    -0.000 C 
BRANCH  23  24
ATOM     24  C   UNL     1      13.027  -2.991  61.900  1.00  0.00    -0.000 C 
BRANCH  24  25
ATOM     25  C   UNL     1      14.356  -3.753  62.060  1.00  0.00    -0.000 C 
BRANCH  25  26
ATOM     26  C   UNL     1      14.832  -4.394  60.745  1.00  0.00    -0.000 C 
BRANCH  26  27
ATOM     27  C   UNL     1      16.352  -4.627  60.721  1.00  0.00    -0.000 C 
BRANCH  27  28
ATOM     28  C   UNL     1      17.160  -3.330  60.916  1.00  0.00    -0.000 C 
BRANCH  28  29
ATOM     29  C   UNL     1      18.264  -3.406  61.985  1.00  0.00    -0.003 C 
ATOM     30  C   UNL     1      18.235  -2.231  62.963  1.00  0.00     0.004 C 
ENDBRANCH  28  29
ENDBRANCH  27  28
ENDBRANCH  26  27
ENDBRANCH  25  26
ENDBRANCH  24  25
ENDBRANCH  23  24
ENDBRANCH  22  23
ENDBRANCH  21  22
ENDBRANCH  20  21
ENDBRANCH  19  20
ENDBRANCH  18  19
ENDBRANCH  17  18
ENDBRANCH   1  17
TORSDOF 26
ENDMDL
MODEL 6
REMARK VINA RESULT:    -3.652      1.972      4.288
REMARK INTER + INTRA:         -15.006
REMARK INTER:                  -9.213
REMARK INTRA:                  -5.793
REMARK UNBOUND:                -5.803
REMARK SMILES CCCCCCCCCCCCCCCCCCCCCCCCCCCC(=O)[O-]
REMARK SMILES IDX 15 1 16 2 17 3 18 4 19 5 20 6 21 7 22 8 23 9 24 10 25 11
REMARK SMILES IDX 26 12 27 13 28 14 29 15 30 16 14 17 13 18 12 19 11 20 10 21
REMARK SMILES IDX 9 22 8 23 7 24 6 25 5 26 4 27 3 28 2 29 1 30
REMARK H PARENT
REMARK Flexibility Score: inf
ROOT
ATOM      1  C   UNL     1      19.236  -0.180  58.009  1.00  0.00     0.000 C 
ENDROOT
BRANCH   1   2
ATOM      2  C   UNL     1      19.780   1.221  58.331  1.00  0.00     0.000 C 
BRANCH   2   3
ATOM      3  C   UNL     1      19.144   1.829  59.593  1.00  0.00     0.000 C 
BRANCH   3   4
ATOM      4  C   UNL     1      18.618   0.769  60.588  1.00  0.00     0.000 C 
BRANCH   4   5
ATOM      5  C   UNL     1      17.240   1.147  61.157  1.00  0.00     0.000 C 
BRANCH   5   6
ATOM      6  C   UNL     1      17.342   1.889  62.507  1.00  0.00     0.000 C 
BRANCH   6   7
ATOM      7  C   UNL     1      16.059   2.645  62.898  1.00  0.00     0.000 C 
BRANCH   7   8
ATOM      8  C   UNL     1      15.300   3.205  61.683  1.00  0.00     0.000 C 
BRANCH   8   9
ATOM      9  C   UNL     1      15.451   4.727  61.538  1.00  0.00     0.000 C 
BRANCH   9  10
ATOM     10  C   UNL     1      16.619   5.120  60.617  1.00  0.00     0.000 C 
BRANCH  10  11
ATOM     11  C   UNL     1      17.634   6.043  61.310  1.00  0.00     0.000 C 
BRANCH  11  12
ATOM     12  C   UNL     1      18.779   5.270  61.981  1.00  0.00     0.006 C 
BRANCH  12  13
ATOM     13  C   UNL     1      18.634   5.292  63.506  1.00  0.00     0.053 C 
BRANCH  13  14
ATOM     14  C   UNL     1      17.842   6.484  63.941  1.00  0.00     0.041 C 
ATOM     15  O   UNL     1      16.695   6.335  64.440  1.00  0.00    -0.550 OA
ATOM     16  O   UNL     1      18.348   7.763  63.746  1.00  0.00    -0.550 OA
ENDBRANCH  13  14
ENDBRANCH  12  13
ENDBRANCH  11  12
ENDBRANCH  10  11
ENDBRANCH   9  10
ENDBRANCH   8   9
ENDBRANCH   7   8
ENDBRANCH   6   7
ENDBRANCH   5   6
ENDBRANCH   4   5
ENDBRANCH   3   4
ENDBRANCH   2   3
ENDBRANCH   1   2
BRANCH   1  17
ATOM     17  C   UNL     1      18.489  -0.224  56.666  1.00  0.00     0.000 C 
BRANCH  17  18
ATOM     18  C   UNL     1      17.179  -1.030  56.743  1.00  0.00     0.000 C 
BRANCH  18  19
ATOM     19  C   UNL     1      15.928  -0.135  56.673  1.00  0.00     0.000 C 
BRANCH  19  20
ATOM     20  C   UNL     1      15.300   0.216  58.036  1.00  0.00     0.000 C 
BRANCH  20  21
ATOM     21  C   UNL     1      14.910   1.698  58.216  1.00  0.00     0.000 C 
BRANCH  21  22
ATOM     22  C   UNL     1      16.055   2.703  57.992  1.00  0.00    -0.000 C 
BRANCH  22  23
ATOM     23  C   UNL     1      15.661   3.980  57.226  1.00  0.00    -0.000 C 
BRANCH  23  24
ATOM     24  C   UNL     1      16.288   4.087  55.820  1.00  0.00    -0.000 C 
BRANCH  24  25
ATOM     25  C   UNL     1      17.431   3.077  55.605  1.00  0.00    -0.000 C 
BRANCH  25  26
ATOM     26  C   UNL     1      18.590   3.661  54.780  1.00  0.00    -0.000 C 
BRANCH  26  27
ATOM     27  C   UNL     1      19.241   4.878  55.459  1.00  0.00    -0.000 C 
BRANCH  27  28
ATOM     28  C   UNL     1      19.731   4.576  56.887  1.00  0.00    -0.000 C 
BRANCH  28  29
ATOM     29  C   UNL     1      19.175   5.509  57.977  1.00  0.00    -0.003 C 
ATOM     30  C   UNL     1      18.392   6.694  57.412  1.00  0.00     0.004 C 
ENDBRANCH  28  29
ENDBRANCH  27  28
ENDBRANCH  26  27
ENDBRANCH  25  26
ENDBRANCH  24  25
ENDBRANCH  23  24
ENDBRANCH  22  23
ENDBRANCH  21  22
ENDBRANCH  20  21
ENDBRANCH  19  20
ENDBRANCH  18  19
ENDBRANCH  17  18
ENDBRANCH   1  17
TORSDOF 26
ENDMDL
MODEL 7
REMARK VINA RESULT:    -3.614      1.859      6.036
REMARK INTER + INTRA:         -14.912
REMARK INTER:                  -9.337
REMARK INTRA:                  -5.575
REMARK UNBOUND:                -5.803
REMARK SMILES CCCCCCCCCCCCCCCCCCCCCCCCCCCC(=O)[O-]
REMARK SMILES IDX 15 1 16 2 17 3 18 4 19 5 20 6 21 7 22 8 23 9 24 10 25 11
REMARK SMILES IDX 26 12 27 13 28 14 29 15 30 16 14 17 13 18 12 19 11 20 10 21
REMARK SMILES IDX 9 22 8 23 7 24 6 25 5 26 4 27 3 28 2 29 1 30
REMARK H PARENT
REMARK Flexibility Score: inf
ROOT
ATOM      1  C   UNL     1      16.261  -0.766  58.024  1.00  0.00     0.000 C 
ENDROOT
BRANCH   1   2
ATOM      2  C   UNL     1      17.549  -0.848  57.190  1.00  0.00     0.000 C 
BRANCH   2   3
ATOM      3  C   UNL     1      17.658   0.284  56.154  1.00  0.00     0.000 C 
BRANCH   3   4
ATOM      4  C   UNL     1      18.543   1.462  56.621  1.00  0.00     0.000 C 
BRANCH   4   5
ATOM      5  C   UNL     1      17.758   2.783  56.680  1.00  0.00     0.000 C 
BRANCH   5   6
ATOM      6  C   UNL     1      17.811   3.439  58.077  1.00  0.00     0.000 C 
BRANCH   6   7
ATOM      7  C   UNL     1      16.555   4.258  58.427  1.00  0.00     0.000 C 
BRANCH   7   8
ATOM      8  C   UNL     1      16.709   5.065  59.727  1.00  0.00     0.000 C 
BRANCH   8   9
ATOM      9  C   UNL     1      17.795   4.497  60.653  1.00  0.00     0.000 C 
BRANCH   9  10
ATOM     10  C   UNL     1      17.233   3.497  61.678  1.00  0.00     0.000 C 
BRANCH  10  11
ATOM     11  C   UNL     1      15.862   3.921  62.228  1.00  0.00     0.000 C 
BRANCH  11  12
ATOM     12  C   UNL     1      15.885   4.184  63.742  1.00  0.00     0.006 C 
BRANCH  12  13
ATOM     13  C   UNL     1      17.322   4.330  64.251  1.00  0.00     0.053 C 
BRANCH  13  14
ATOM     14  C   UNL     1      17.542   5.698  64.815  1.00  0.00     0.041 C 
ATOM     15  O   UNL     1      17.867   6.650  64.059  1.00  0.00    -0.550 OA
ATOM     16  O   UNL     1      17.441   5.910  66.184  1.00  0.00    -0.550 OA
ENDBRANCH  13  14
ENDBRANCH  12  13
ENDBRANCH  11  12
ENDBRANCH  10  11
ENDBRANCH   9  10
ENDBRANCH   8   9
ENDBRANCH   7   8
ENDBRANCH   6   7
ENDBRANCH   5   6
ENDBRANCH   4   5
ENDBRANCH   3   4
ENDBRANCH   2   3
ENDBRANCH   1   2
BRANCH   1  17
ATOM     17  C   UNL     1      15.201   0.142  57.378  1.00  0.00     0.000 C 
BRANCH  17  18
ATOM     18  C   UNL     1      14.666   1.212  58.348  1.00  0.00     0.000 C 
BRANCH  18  19
ATOM     19  C   UNL     1      15.270   1.088  59.759  1.00  0.00     0.000 C 
BRANCH  19  20
ATOM     20  C   UNL     1      14.245   0.868  60.889  1.00  0.00     0.000 C 
BRANCH  20  21
ATOM     21  C   UNL     1      14.525  -0.344  61.802  1.00  0.00     0.000 C 
BRANCH  21  22
ATOM     22  C   UNL     1      14.092  -1.705  61.227  1.00  0.00    -0.000 C 
BRANCH  22  23
ATOM     23  C   UNL     1      15.192  -2.783  61.201  1.00  0.00    -0.000 C 
BRANCH  23  24
ATOM     24  C   UNL     1      16.481  -2.380  61.948  1.00  0.00    -0.000 C 
BRANCH  24  25
ATOM     25  C   UNL     1      17.655  -2.102  60.991  1.00  0.00    -0.000 C 
BRANCH  25  26
ATOM     26  C   UNL     1      18.637  -1.057  61.547  1.00  0.00    -0.000 C 
BRANCH  26  27
ATOM     27  C   UNL     1      18.671   0.228  60.701  1.00  0.00    -0.000 C 
BRANCH  27  28
ATOM     28  C   UNL     1      20.057   0.507  60.091  1.00  0.00    -0.000 C 
BRANCH  28  29
ATOM     29  C   UNL     1      20.517   1.974  60.165  1.00  0.00    -0.003 C 
ATOM     30  C   UNL     1      21.310   2.418  58.936  1.00  0.00     0.004 C 
ENDBRANCH  28  29
ENDBRANCH  27  28
ENDBRANCH  26  27
ENDBRANCH  25  26
ENDBRANCH  24  25
ENDBRANCH  23  24
ENDBRANCH  22  23
ENDBRANCH  21  22
ENDBRANCH  20  21
ENDBRANCH  19  20
ENDBRANCH  18  19
ENDBRANCH  17  18
ENDBRANCH   1  17
TORSDOF 26
ENDMDL
MODEL 8
REMARK VINA RESULT:    -3.583      1.754      5.966
REMARK INTER + INTRA:         -14.831
REMARK INTER:                  -8.870
REMARK INTRA:                  -5.961
REMARK UNBOUND:                -5.803
REMARK SMILES CCCCCCCCCCCCCCCCCCCCCCCCCCCC(=O)[O-]
REMARK SMILES IDX 15 1 16 2 17 3 18 4 19 5 20 6 21 7 22 8 23 9 24 10 25 11
REMARK SMILES IDX 26 12 27 13 28 14 29 15 30 16 14 17 13 18 12 19 11 20 10 21
REMARK SMILES IDX 9 22 8 23 7 24 6 25 5 26 4 27 3 28 2 29 1 30
REMARK H PARENT
REMARK Flexibility Score: inf
ROOT
ATOM      1  C   UNL     1      15.411   4.441  57.535  1.00  0.00     0.000 C 
ENDROOT
BRANCH   1   2
ATOM      2  C   UNL     1      15.940   4.624  56.103  1.00  0.00     0.000 C 
BRANCH   2   3
ATOM      3  C   UNL     1      16.933   3.523  55.693  1.00  0.00     0.000 C 
BRANCH   3   4
ATOM      4  C   UNL     1      18.243   4.072  55.083  1.00  0.00     0.000 C 
BRANCH   4   5
ATOM      5  C   UNL     1      19.479   3.644  55.893  1.00  0.00     0.000 C 
BRANCH   5   6
ATOM      6  C   UNL     1      19.623   4.436  57.211  1.00  0.00     0.000 C 
BRANCH   6   7
ATOM      7  C   UNL     1      19.451   5.956  57.044  1.00  0.00     0.000 C 
BRANCH   7   8
ATOM      8  C   UNL     1      18.574   6.585  58.140  1.00  0.00     0.000 C 
BRANCH   8   9
ATOM      9  C   UNL     1      18.490   5.715  59.404  1.00  0.00     0.000 C 
BRANCH   9  10
ATOM     10  C   UNL     1      19.558   6.084  60.447  1.00  0.00     0.000 C 
BRANCH  10  11
ATOM     11  C   UNL     1      19.386   5.315  61.767  1.00  0.00     0.000 C 
BRANCH  11  12
ATOM     12  C   UNL     1      18.075   5.660  62.490  1.00  0.00     0.006 C 
BRANCH  12  13
ATOM     13  C   UNL     1      17.792   4.660  63.616  1.00  0.00     0.053 C 
BRANCH  13  14
ATOM     14  C   UNL     1      17.369   5.376  64.859  1.00  0.00     0.041 C 
ATOM     15  O   UNL     1      17.066   4.725  65.893  1.00  0.00    -0.550 OA
ATOM     16  O   UNL     1      17.257   6.761  64.859  1.00  0.00    -0.550 OA
ENDBRANCH  13  14
ENDBRANCH  12  13
ENDBRANCH  11  12
ENDBRANCH  10  11
ENDBRANCH   9  10
ENDBRANCH   8   9
ENDBRANCH   7   8
ENDBRANCH   6   7
ENDBRANCH   5   6
ENDBRANCH   4   5
ENDBRANCH   3   4
ENDBRANCH   2   3
ENDBRANCH   1   2
BRANCH   1  17
ATOM     17  C   UNL     1      16.121   3.300  58.281  1.00  0.00     0.000 C 
BRANCH  17  18
ATOM     18  C   UNL     1      15.701   3.206  59.759  1.00  0.00     0.000 C 
BRANCH  18  19
ATOM     19  C   UNL     1      16.754   2.497  60.631  1.00  0.00     0.000 C 
BRANCH  19  20
ATOM     20  C   UNL     1      18.074   2.158  59.912  1.00  0.00     0.000 C 
BRANCH  20  21
ATOM     21  C   UNL     1      18.879   0.998  60.533  1.00  0.00     0.000 C 
BRANCH  21  22
ATOM     22  C   UNL     1      19.699   0.165  59.529  1.00  0.00    -0.000 C 
BRANCH  22  23
ATOM     23  C   UNL     1      19.776   0.749  58.106  1.00  0.00    -0.000 C 
BRANCH  23  24
ATOM     24  C   UNL     1      19.247  -0.200  57.010  1.00  0.00    -0.000 C 
BRANCH  24  25
ATOM     25  C   UNL     1      17.932   0.298  56.383  1.00  0.00    -0.000 C 
BRANCH  25  26
ATOM     26  C   UNL     1      16.751  -0.649  56.656  1.00  0.00    -0.000 C 
BRANCH  26  27
ATOM     27  C   UNL     1      16.134  -0.435  58.049  1.00  0.00    -0.000 C 
BRANCH  27  28
ATOM     28  C   UNL     1      16.472  -1.569  59.035  1.00  0.00    -0.000 C 
BRANCH  28  29
ATOM     29  C   UNL     1      15.929  -1.374  60.462  1.00  0.00    -0.003 C 
ATOM     30  C   UNL     1      14.639  -0.555  60.507  1.00  0.00     0.004 C 
ENDBRANCH  28  29
ENDBRANCH  27  28
ENDBRANCH  26  27
ENDBRANCH  25  26
ENDBRANCH  24  25
ENDBRANCH  23  24
ENDBRANCH  22  23
ENDBRANCH  21  22
ENDBRANCH  20  21
ENDBRANCH  19  20
ENDBRANCH  18  19
ENDBRANCH  17  18
ENDBRANCH   1  17
TORSDOF 26
ENDMDL
MODEL 9
REMARK VINA RESULT:    -3.570      2.095      6.440
REMARK INTER + INTRA:         -14.799
REMARK INTER:                  -9.901
REMARK INTRA:                  -4.897
REMARK UNBOUND:                -5.803
REMARK SMILES CCCCCCCCCCCCCCCCCCCCCCCCCCCC(=O)[O-]
REMARK SMILES IDX 15 1 16 2 17 3 18 4 19 5 20 6 21 7 22 8 23 9 24 10 25 11
REMARK SMILES IDX 26 12 27 13 28 14 29 15 30 16 14 17 13 18 12 19 11 20 10 21
REMARK SMILES IDX 9 22 8 23 7 24 6 25 5 26 4 27 3 28 2 29 1 30
REMARK H PARENT
REMARK Flexibility Score: inf
ROOT
ATOM      1  C   UNL     1      14.867   1.037  59.283  1.00  0.00     0.000 C 
ENDROOT
BRANCH   1   2
ATOM      2  C   UNL     1      15.670   0.859  57.984  1.00  0.00     0.000 C 
BRANCH   2   3
ATOM      3  C   UNL     1      16.360   2.158  57.531  1.00  0.00     0.000 C 
BRANCH   3   4
ATOM      4  C   UNL     1      15.853   3.415  58.273  1.00  0.00     0.000 C 
BRANCH   4   5
ATOM      5  C   UNL     1      17.009   4.249  58.850  1.00  0.00     0.000 C 
BRANCH   5   6
ATOM      6  C   UNL     1      18.220   3.379  59.253  1.00  0.00     0.000 C 
BRANCH   6   7
ATOM      7  C   UNL     1      18.540   3.418  60.758  1.00  0.00     0.000 C 
BRANCH   7   8
ATOM      8  C   UNL     1      18.018   2.184  61.514  1.00  0.00     0.000 C 
BRANCH   8   9
ATOM      9  C   UNL     1      17.147   2.553  62.724  1.00  0.00     0.000 C 
BRANCH   9  10
ATOM     10  C   UNL     1      15.767   3.096  62.315  1.00  0.00     0.000 C 
BRANCH  10  11
ATOM     11  C   UNL     1      15.382   4.370  63.083  1.00  0.00     0.000 C 
BRANCH  11  12
ATOM     12  C   UNL     1      16.151   5.610  62.602  1.00  0.00     0.006 C 
BRANCH  12  13
ATOM     13  C   UNL     1      16.304   6.633  63.731  1.00  0.00     0.053 C 
BRANCH  13  14
ATOM     14  C   UNL     1      17.334   6.178  64.716  1.00  0.00     0.041 C 
ATOM     15  O   UNL     1      17.225   6.481  65.933  1.00  0.00    -0.550 OA
ATOM     16  O   UNL     1      18.443   5.463  64.281  1.00  0.00    -0.550 OA
ENDBRANCH  13  14
ENDBRANCH  12  13
ENDBRANCH  11  12
ENDBRANCH  10  11
ENDBRANCH   9  10
ENDBRANCH   8   9
ENDBRANCH   7   8
ENDBRANCH   6   7
ENDBRANCH   5   6
ENDBRANCH   4   5
ENDBRANCH   3   4
ENDBRANCH   2   3
ENDBRANCH   1   2
BRANCH   1  17
ATOM     17  C   UNL     1      15.323   0.074  60.390  1.00  0.00     0.000 C 
BRANCH  17  18
ATOM     18  C   UNL     1      15.351  -1.394  59.925  1.00  0.00     0.000 C 
BRANCH  18  19
ATOM     19  C   UNL     1      14.892  -2.372  61.022  1.00  0.00     0.000 C 
BRANCH  19  20
ATOM     20  C   UNL     1      15.362  -3.828  60.836  1.00  0.00     0.000 C 
BRANCH  20  21
ATOM     21  C   UNL     1      15.394  -4.676  62.124  1.00  0.00     0.000 C 
BRANCH  21  22
ATOM     22  C   UNL     1      16.721  -4.623  62.905  1.00  0.00    -0.000 C 
BRANCH  22  23
ATOM     23  C   UNL     1      17.978  -4.950  62.078  1.00  0.00    -0.000 C 
BRANCH  23  24
ATOM     24  C   UNL     1      19.059  -3.848  62.118  1.00  0.00    -0.000 C 
BRANCH  24  25
ATOM     25  C   UNL     1      18.491  -2.480  62.538  1.00  0.00    -0.000 C 
BRANCH  25  26
ATOM     26  C   UNL     1      18.609  -1.424  61.426  1.00  0.00    -0.000 C 
BRANCH  26  27
ATOM     27  C   UNL     1      20.067  -1.184  60.995  1.00  0.00    -0.000 C 
BRANCH  27  28
ATOM     28  C   UNL     1      20.189  -0.197  59.819  1.00  0.00    -0.000 C 
BRANCH  28  29
ATOM     29  C   UNL     1      19.030  -0.242  58.808  1.00  0.00    -0.003 C 
ATOM     30  C   UNL     1      19.502  -0.294  57.355  1.00  0.00     0.004 C 
ENDBRANCH  28  29
ENDBRANCH  27  28
ENDBRANCH  26  27
ENDBRANCH  25  26
ENDBRANCH  24  25
ENDBRANCH  23  24
ENDBRANCH  22  23
ENDBRANCH  21  22
ENDBRANCH  20  21
ENDBRANCH  19  20
ENDBRANCH  18  19
ENDBRANCH  17  18
ENDBRANCH   1  17
TORSDOF 26
ENDMDL
