MODEL 1
REMARK VINA RESULT:    -3.700      0.000      0.000
REMARK INTER + INTRA:          -8.457
REMARK INTER:                  -6.728
REMARK INTRA:                  -1.729
REMARK UNBOUND:                -1.729
REMARK SMILES CCCCCCCCCCCCCC[C@@H](C)C(=O)[O-]
REMARK SMILES IDX 9 1 10 2 11 3 12 4 13 5 14 6 15 7 16 8 17 9 18 10 19 11 8 12
REMARK SMILES IDX 7 13 6 14 5 15 4 16 3 17 2 18 1 19
REMARK H PARENT
REMARK Flexibility Score: inf
ROOT
ATOM      1  C   UNL     1      26.363  -9.323  29.544  1.00  0.00     0.000 C 
ENDROOT
BRANCH   1   2
ATOM      2  C   UNL     1      27.423  -9.848  28.554  1.00  0.00     0.000 C 
BRANCH   2   3
ATOM      3  C   UNL     1      28.440 -10.836  29.154  1.00  0.00     0.000 C 
BRANCH   3   4
ATOM      4  C   UNL     1      28.313 -10.973  30.678  1.00  0.00     0.000 C 
BRANCH   4   5
ATOM      5  C   UNL     1      29.625 -10.583  31.377  1.00  0.00     0.001 C 
BRANCH   5   6
ATOM      6  C   UNL     1      30.067  -9.144  31.031  1.00  0.00     0.009 C 
BRANCH   6   7
ATOM      7  C   UNL     1      31.342  -8.691  31.777  1.00  0.00     0.032 C 
ATOM      8  C   UNL     1      32.286  -7.874  30.887  1.00  0.00     0.014 C 
BRANCH   7   9
ATOM      9  C   UNL     1      30.966  -7.889  32.993  1.00  0.00     0.044 C 
ATOM     10  O   UNL     1      30.061  -7.016  32.930  1.00  0.00    -0.550 OA
ATOM     11  O   UNL     1      31.618  -8.113  34.201  1.00  0.00    -0.550 OA
ENDBRANCH   7   9
ENDBRANCH   6   7
ENDBRANCH   5   6
ENDBRANCH   4   5
ENDBRANCH   3   4
ENDBRANCH   2   3
ENDBRANCH   1   2
BRANCH   1  12
ATOM     12  C   UNL     1      24.977  -9.046  28.930  1.00  0.00     0.000 C 
BRANCH  12  13
ATOM     13  C   UNL     1      24.331  -7.715  29.362  1.00  0.00    -0.000 C 
BRANCH  13  14
ATOM     14  C   UNL     1      22.985  -7.853  30.102  1.00  0.00    -0.000 C 
BRANCH  14  15
ATOM     15  C   UNL     1      22.535  -9.301  30.361  1.00  0.00    -0.000 C 
BRANCH  15  16
ATOM     16  C   UNL     1      22.737  -9.736  31.824  1.00  0.00    -0.000 C 
BRANCH  16  17
ATOM     17  C   UNL     1      23.722 -10.907  31.961  1.00  0.00    -0.000 C 
BRANCH  17  18
ATOM     18  C   UNL     1      24.985 -10.525  32.747  1.00  0.00    -0.003 C 
ATOM     19  C   UNL     1      24.990  -9.038  33.090  1.00  0.00     0.004 C 
ENDBRANCH  17  18
ENDBRANCH  16  17
ENDBRANCH  15  16
ENDBRANCH  14  15
ENDBRANCH  13  14
ENDBRANCH  12  13
ENDBRANCH   1  12
TORSDOF 14
ENDMDL
MODEL 2
REMARK VINA RESULT:    -3.550      3.016      7.148
REMARK INTER + INTRA:          -8.185
REMARK INTER:                  -6.853
REMARK INTRA:                  -1.331
REMARK UNBOUND:                -1.729
REMARK SMILES CCCCCCCCCCCCCC[C@@H](C)C(=O)[O-]
REMARK SMILES IDX 9 1 10 2 11 3 12 4 13 5 14 6 15 7 16 8 17 9 18 10 19 11 8 12
REMARK SMILES IDX 7 13 6 14 5 15 4 16 3 17 2 18 1 19
REMARK H PARENT
REMARK Flexibility Score: inf
ROOT
ATOM      1  C   UNL     1      28.451 -11.817  30.610  1.00  0.00     0.000 C 
ENDROOT
BRANCH   1   2
ATOM      2  C   UNL     1      27.830 -10.569  31.269  1.00  0.00     0.000 C 
BRANCH   2   3
ATOM      3  C   UNL     1      27.256  -9.532  30.287  1.00  0.00     0.000 C 
BRANCH   3   4
ATOM      4  C   UNL     1      27.524  -9.890  28.817  1.00  0.00     0.000 C 
BRANCH   4   5
ATOM      5  C   UNL     1      26.238  -9.788  27.983  1.00  0.00     0.001 C 
BRANCH   5   6
ATOM      6  C   UNL     1      24.967  -9.811  28.861  1.00  0.00     0.009 C 
BRANCH   6   7
ATOM      7  C   UNL     1      24.019  -8.616  28.611  1.00  0.00     0.032 C 
ATOM      8  C   UNL     1      22.574  -9.056  28.348  1.00  0.00     0.014 C 
BRANCH   7   9
ATOM      9  C   UNL     1      24.060  -7.675  29.784  1.00  0.00     0.044 C 
ATOM     10  O   UNL     1      24.032  -8.119  30.962  1.00  0.00    -0.550 OA
ATOM     11  O   UNL     1      24.134  -6.303  29.571  1.00  0.00    -0.550 OA
ENDBRANCH   7   9
ENDBRANCH   6   7
ENDBRANCH   5   6
ENDBRANCH   4   5
ENDBRANCH   3   4
ENDBRANCH   2   3
ENDBRANCH   1   2
BRANCH   1  12
ATOM     12  C   UNL     1      29.990 -11.819  30.535  1.00  0.00     0.000 C 
BRANCH  12  13
ATOM     13  C   UNL     1      30.681 -10.698  31.337  1.00  0.00    -0.000 C 
BRANCH  13  14
ATOM     14  C   UNL     1      31.944 -10.108  30.678  1.00  0.00    -0.000 C 
BRANCH  14  15
ATOM     15  C   UNL     1      32.421  -8.773  31.274  1.00  0.00    -0.000 C 
BRANCH  15  16
ATOM     16  C   UNL     1      31.306  -7.715  31.335  1.00  0.00    -0.000 C 
BRANCH  16  17
ATOM     17  C   UNL     1      31.198  -7.050  32.716  1.00  0.00    -0.000 C 
BRANCH  17  18
ATOM     18  C   UNL     1      31.661  -7.973  33.852  1.00  0.00    -0.003 C 
ATOM     19  C   UNL     1      32.786  -7.330  34.659  1.00  0.00     0.004 C 
ENDBRANCH  17  18
ENDBRANCH  16  17
ENDBRANCH  15  16
ENDBRANCH  14  15
ENDBRANCH  13  14
ENDBRANCH  12  13
ENDBRANCH   1  12
TORSDOF 14
ENDMDL
MODEL 3
REMARK VINA RESULT:    -3.541      1.374      2.081
REMARK INTER + INTRA:          -8.167
REMARK INTER:                  -6.706
REMARK INTRA:                  -1.461
REMARK UNBOUND:                -1.729
REMARK SMILES CCCCCCCCCCCCCC[C@@H](C)C(=O)[O-]
REMARK SMILES IDX 9 1 10 2 11 3 12 4 13 5 14 6 15 7 16 8 17 9 18 10 19 11 8 12
REMARK SMILES IDX 7 13 6 14 5 15 4 16 3 17 2 18 1 19
REMARK H PARENT
REMARK Flexibility Score: inf
ROOT
ATOM      1  C   UNL     1      25.472  -9.089  29.145  1.00  0.00     0.000 C 
ENDROOT
BRANCH   1   2
ATOM      2  C   UNL     1      26.891  -9.693  29.115  1.00  0.00     0.000 C 
BRANCH   2   3
ATOM      3  C   UNL     1      27.587  -9.787  30.485  1.00  0.00     0.000 C 
BRANCH   3   4
ATOM      4  C   UNL     1      28.475 -11.033  30.619  1.00  0.00     0.000 C 
BRANCH   4   5
ATOM      5  C   UNL     1      29.916 -10.645  30.985  1.00  0.00     0.001 C 
BRANCH   5   6
ATOM      6  C   UNL     1      30.066  -9.130  31.243  1.00  0.00     0.009 C 
BRANCH   6   7
ATOM      7  C   UNL     1      31.407  -8.744  31.909  1.00  0.00     0.032 C 
ATOM      8  C   UNL     1      32.380  -8.077  30.929  1.00  0.00     0.014 C 
BRANCH   7   9
ATOM      9  C   UNL     1      31.154  -7.832  33.077  1.00  0.00     0.044 C 
ATOM     10  O   UNL     1      31.769  -7.998  34.164  1.00  0.00    -0.550 OA
ATOM     11  O   UNL     1      30.238  -6.792  32.961  1.00  0.00    -0.550 OA
ENDBRANCH   7   9
ENDBRANCH   6   7
ENDBRANCH   5   6
ENDBRANCH   4   5
ENDBRANCH   3   4
ENDBRANCH   2   3
ENDBRANCH   1   2
BRANCH   1  12
ATOM     12  C   UNL     1      24.345 -10.087  29.476  1.00  0.00     0.000 C 
BRANCH  12  13
ATOM     13  C   UNL     1      23.782  -9.980  30.906  1.00  0.00    -0.000 C 
BRANCH  13  14
ATOM     14  C   UNL     1      24.273  -8.760  31.711  1.00  0.00    -0.000 C 
BRANCH  14  15
ATOM     15  C   UNL     1      24.713  -9.070  33.153  1.00  0.00    -0.000 C 
BRANCH  15  16
ATOM     16  C   UNL     1      25.320 -10.476  33.302  1.00  0.00    -0.000 C 
BRANCH  16  17
ATOM     17  C   UNL     1      24.685 -11.274  34.451  1.00  0.00    -0.000 C 
BRANCH  17  18
ATOM     18  C   UNL     1      23.262 -10.800  34.782  1.00  0.00    -0.003 C 
ATOM     19  C   UNL     1      23.160 -10.341  36.234  1.00  0.00     0.004 C 
ENDBRANCH  17  18
ENDBRANCH  16  17
ENDBRANCH  15  16
ENDBRANCH  14  15
ENDBRANCH  13  14
ENDBRANCH  12  13
ENDBRANCH   1  12
TORSDOF 14
ENDMDL
MODEL 4
REMARK VINA RESULT:    -3.520      1.187      2.393
REMARK INTER + INTRA:          -8.130
REMARK INTER:                  -6.388
REMARK INTRA:                  -1.742
REMARK UNBOUND:                -1.729
REMARK SMILES CCCCCCCCCCCCCC[C@@H](C)C(=O)[O-]
REMARK SMILES IDX 9 1 10 2 11 3 12 4 13 5 14 6 15 7 16 8 17 9 18 10 19 11 8 12
REMARK SMILES IDX 7 13 6 14 5 15 4 16 3 17 2 18 1 19
REMARK H PARENT
REMARK Flexibility Score: inf
ROOT
ATOM      1  C   UNL     1      27.363  -9.851  28.597  1.00  0.00     0.000 C 
ENDROOT
BRANCH   1   2
ATOM      2  C   UNL     1      27.862 -11.043  29.439  1.00  0.00     0.000 C 
BRANCH   2   3
ATOM      3  C   UNL     1      28.225 -10.703  30.896  1.00  0.00     0.000 C 
BRANCH   3   4
ATOM      4  C   UNL     1      29.339 -11.599  31.458  1.00  0.00     0.000 C 
BRANCH   4   5
ATOM      5  C   UNL     1      30.714 -10.932  31.300  1.00  0.00     0.001 C 
BRANCH   5   6
ATOM      6  C   UNL     1      30.615  -9.391  31.253  1.00  0.00     0.009 C 
BRANCH   6   7
ATOM      7  C   UNL     1      31.853  -8.672  31.835  1.00  0.00     0.032 C 
ATOM      8  C   UNL     1      32.594  -7.834  30.787  1.00  0.00     0.014 C 
BRANCH   7   9
ATOM      9  C   UNL     1      31.443  -7.799  32.989  1.00  0.00     0.044 C 
ATOM     10  O   UNL     1      31.039  -6.623  32.791  1.00  0.00    -0.550 OA
ATOM     11  O   UNL     1      31.504  -8.292  34.288  1.00  0.00    -0.550 OA
ENDBRANCH   7   9
ENDBRANCH   6   7
ENDBRANCH   5   6
ENDBRANCH   4   5
ENDBRANCH   3   4
ENDBRANCH   2   3
ENDBRANCH   1   2
BRANCH   1  12
ATOM     12  C   UNL     1      25.970 -10.036  27.965  1.00  0.00     0.000 C 
BRANCH  12  13
ATOM     13  C   UNL     1      25.195 -11.277  28.452  1.00  0.00    -0.000 C 
BRANCH  13  14
ATOM     14  C   UNL     1      24.049 -10.983  29.440  1.00  0.00    -0.000 C 
BRANCH  14  15
ATOM     15  C   UNL     1      24.492 -10.744  30.894  1.00  0.00    -0.000 C 
BRANCH  15  16
ATOM     16  C   UNL     1      24.659  -9.251  31.228  1.00  0.00    -0.000 C 
BRANCH  16  17
ATOM     17  C   UNL     1      23.503  -8.393  30.692  1.00  0.00    -0.000 C 
BRANCH  17  18
ATOM     18  C   UNL     1      23.972  -7.345  29.671  1.00  0.00    -0.003 C 
ATOM     19  C   UNL     1      23.242  -7.509  28.341  1.00  0.00     0.004 C 
ENDBRANCH  17  18
ENDBRANCH  16  17
ENDBRANCH  15  16
ENDBRANCH  14  15
ENDBRANCH  13  14
ENDBRANCH  12  13
ENDBRANCH   1  12
TORSDOF 14
ENDMDL
MODEL 5
REMARK VINA RESULT:    -3.424      3.914      7.729
REMARK INTER + INTRA:          -7.955
REMARK INTER:                  -6.811
REMARK INTRA:                  -1.144
REMARK UNBOUND:                -1.729
REMARK SMILES CCCCCCCCCCCCCC[C@@H](C)C(=O)[O-]
REMARK SMILES IDX 9 1 10 2 11 3 12 4 13 5 14 6 15 7 16 8 17 9 18 10 19 11 8 12
REMARK SMILES IDX 7 13 6 14 5 15 4 16 3 17 2 18 1 19
REMARK H PARENT
REMARK Flexibility Score: inf
ROOT
ATOM      1  C   UNL     1      27.937  -9.510  31.164  1.00  0.00     0.000 C 
ENDROOT
BRANCH   1   2
ATOM      2  C   UNL     1      26.706  -9.746  30.265  1.00  0.00     0.000 C 
BRANCH   2   3
ATOM      3  C   UNL     1      26.946  -9.515  28.762  1.00  0.00     0.000 C 
BRANCH   3   4
ATOM      4  C   UNL     1      26.262 -10.570  27.879  1.00  0.00     0.000 C 
BRANCH   4   5
ATOM      5  C   UNL     1      24.775 -10.708  28.239  1.00  0.00     0.001 C 
BRANCH   5   6
ATOM      6  C   UNL     1      23.975  -9.425  27.922  1.00  0.00     0.009 C 
BRANCH   6   7
ATOM      7  C   UNL     1      23.231  -8.840  29.144  1.00  0.00     0.032 C 
ATOM      8  C   UNL     1      23.714  -7.431  29.507  1.00  0.00     0.014 C 
BRANCH   7   9
ATOM      9  C   UNL     1      21.750  -8.820  28.881  1.00  0.00     0.044 C 
ATOM     10  O   UNL     1      21.051  -7.834  29.233  1.00  0.00    -0.550 OA
ATOM     11  O   UNL     1      21.145  -9.896  28.241  1.00  0.00    -0.550 OA
ENDBRANCH   7   9
ENDBRANCH   6   7
ENDBRANCH   5   6
ENDBRANCH   4   5
ENDBRANCH   3   4
ENDBRANCH   2   3
ENDBRANCH   1   2
BRANCH   1  12
ATOM     12  C   UNL     1      29.280  -9.976  30.569  1.00  0.00     0.000 C 
BRANCH  12  13
ATOM     13  C   UNL     1      30.437 -10.082  31.582  1.00  0.00    -0.000 C 
BRANCH  13  14
ATOM     14  C   UNL     1      31.767  -9.453  31.121  1.00  0.00    -0.000 C 
BRANCH  14  15
ATOM     15  C   UNL     1      31.776  -7.916  31.077  1.00  0.00    -0.000 C 
BRANCH  15  16
ATOM     16  C   UNL     1      30.919  -7.283  32.188  1.00  0.00    -0.000 C 
BRANCH  16  17
ATOM     17  C   UNL     1      31.768  -6.703  33.330  1.00  0.00    -0.000 C 
BRANCH  17  18
ATOM     18  C   UNL     1      32.166  -7.766  34.365  1.00  0.00    -0.003 C 
ATOM     19  C   UNL     1      33.349  -7.295  35.207  1.00  0.00     0.004 C 
ENDBRANCH  17  18
ENDBRANCH  16  17
ENDBRANCH  15  16
ENDBRANCH  14  15
ENDBRANCH  13  14
ENDBRANCH  12  13
ENDBRANCH   1  12
TORSDOF 14
ENDMDL
MODEL 6
REMARK VINA RESULT:    -3.404      2.601      6.577
REMARK INTER + INTRA:          -7.919
REMARK INTER:                  -6.319
REMARK INTRA:                  -1.601
REMARK UNBOUND:                -1.729
REMARK SMILES CCCCCCCCCCCCCC[C@@H](C)C(=O)[O-]
REMARK SMILES IDX 9 1 10 2 11 3 12 4 13 5 14 6 15 7 16 8 17 9 18 10 19 11 8 12
REMARK SMILES IDX 7 13 6 14 5 15 4 16 3 17 2 18 1 19
REMARK H PARENT
REMARK Flexibility Score: inf
ROOT
ATOM      1  C   UNL     1      27.597  -9.877  28.800  1.00  0.00     0.000 C 
ENDROOT
BRANCH   1   2
ATOM      2  C   UNL     1      26.099  -9.538  28.659  1.00  0.00     0.000 C 
BRANCH   2   3
ATOM      3  C   UNL     1      25.496  -8.756  29.840  1.00  0.00     0.000 C 
BRANCH   3   4
ATOM      4  C   UNL     1      23.988  -8.996  30.008  1.00  0.00     0.000 C 
BRANCH   4   5
ATOM      5  C   UNL     1      23.669  -9.530  31.413  1.00  0.00     0.001 C 
BRANCH   5   6
ATOM      6  C   UNL     1      24.944  -9.890  32.206  1.00  0.00     0.009 C 
BRANCH   6   7
ATOM      7  C   UNL     1      24.842 -11.231  32.968  1.00  0.00     0.032 C 
ATOM      8  C   UNL     1      26.135 -12.052  32.891  1.00  0.00     0.014 C 
BRANCH   7   9
ATOM      9  C   UNL     1      24.484 -10.977  34.406  1.00  0.00     0.044 C 
ATOM     10  O   UNL     1      23.917 -11.869  35.092  1.00  0.00    -0.550 OA
ATOM     11  O   UNL     1      24.782  -9.751  34.989  1.00  0.00    -0.550 OA
ENDBRANCH   7   9
ENDBRANCH   6   7
ENDBRANCH   5   6
ENDBRANCH   4   5
ENDBRANCH   3   4
ENDBRANCH   2   3
ENDBRANCH   1   2
BRANCH   1  12
ATOM     12  C   UNL     1      27.948 -10.808  29.977  1.00  0.00     0.000 C 
BRANCH  12  13
ATOM     13  C   UNL     1      28.795 -10.158  31.089  1.00  0.00    -0.000 C 
BRANCH  13  14
ATOM     14  C   UNL     1      30.119 -10.882  31.407  1.00  0.00    -0.000 C 
BRANCH  14  15
ATOM     15  C   UNL     1      31.381 -10.014  31.273  1.00  0.00    -0.000 C 
BRANCH  15  16
ATOM     16  C   UNL     1      31.063  -8.546  30.935  1.00  0.00    -0.000 C 
BRANCH  16  17
ATOM     17  C   UNL     1      31.878  -7.555  31.779  1.00  0.00    -0.000 C 
BRANCH  17  18
ATOM     18  C   UNL     1      31.260  -7.312  33.164  1.00  0.00    -0.003 C 
ATOM     19  C   UNL     1      32.199  -7.776  34.274  1.00  0.00     0.004 C 
ENDBRANCH  17  18
ENDBRANCH  16  17
ENDBRANCH  15  16
ENDBRANCH  14  15
ENDBRANCH  13  14
ENDBRANCH  12  13
ENDBRANCH   1  12
TORSDOF 14
ENDMDL
MODEL 7
REMARK VINA RESULT:    -3.376      2.820      7.137
REMARK INTER + INTRA:          -7.869
REMARK INTER:                  -6.181
REMARK INTRA:                  -1.688
REMARK UNBOUND:                -1.729
REMARK SMILES CCCCCCCCCCCCCC[C@@H](C)C(=O)[O-]
REMARK SMILES IDX 9 1 10 2 11 3 12 4 13 5 14 6 15 7 16 8 17 9 18 10 19 11 8 12
REMARK SMILES IDX 7 13 6 14 5 15 4 16 3 17 2 18 1 19
REMARK H PARENT
REMARK Flexibility Score: inf
ROOT
ATOM      1  C   UNL     1      28.412  -9.694  30.411  1.00  0.00     0.000 C 
ENDROOT
BRANCH   1   2
ATOM      2  C   UNL     1      26.939  -9.478  30.010  1.00  0.00     0.000 C 
BRANCH   2   3
ATOM      3  C   UNL     1      26.601  -9.847  28.554  1.00  0.00     0.000 C 
BRANCH   3   4
ATOM      4  C   UNL     1      25.554 -10.965  28.449  1.00  0.00     0.000 C 
BRANCH   4   5
ATOM      5  C   UNL     1      24.686 -11.028  29.716  1.00  0.00     0.001 C 
BRANCH   5   6
ATOM      6  C   UNL     1      23.288 -10.409  29.498  1.00  0.00     0.009 C 
BRANCH   6   7
ATOM      7  C   UNL     1      23.061  -9.098  30.284  1.00  0.00     0.032 C 
ATOM      8  C   UNL     1      23.792  -9.085  31.632  1.00  0.00     0.014 C 
BRANCH   7   9
ATOM      9  C   UNL     1      23.498  -7.922  29.455  1.00  0.00     0.044 C 
ATOM     10  O   UNL     1      23.449  -7.971  28.197  1.00  0.00    -0.550 OA
ATOM     11  O   UNL     1      23.958  -6.767  30.077  1.00  0.00    -0.550 OA
ENDBRANCH   7   9
ENDBRANCH   6   7
ENDBRANCH   5   6
ENDBRANCH   4   5
ENDBRANCH   3   4
ENDBRANCH   2   3
ENDBRANCH   1   2
BRANCH   1  12
ATOM     12  C   UNL     1      28.898 -11.156  30.350  1.00  0.00     0.000 C 
BRANCH  12  13
ATOM     13  C   UNL     1      29.981 -11.524  31.382  1.00  0.00    -0.000 C 
BRANCH  13  14
ATOM     14  C   UNL     1      31.369 -11.837  30.788  1.00  0.00    -0.000 C 
BRANCH  14  15
ATOM     15  C   UNL     1      32.337 -10.642  30.738  1.00  0.00    -0.000 C 
BRANCH  15  16
ATOM     16  C   UNL     1      31.896  -9.480  31.646  1.00  0.00    -0.000 C 
BRANCH  16  17
ATOM     17  C   UNL     1      32.175  -8.104  31.021  1.00  0.00    -0.000 C 
BRANCH  17  18
ATOM     18  C   UNL     1      31.443  -6.968  31.751  1.00  0.00    -0.003 C 
ATOM     19  C   UNL     1      30.327  -7.513  32.637  1.00  0.00     0.004 C 
ENDBRANCH  17  18
ENDBRANCH  16  17
ENDBRANCH  15  16
ENDBRANCH  14  15
ENDBRANCH  13  14
ENDBRANCH  12  13
ENDBRANCH   1  12
TORSDOF 14
ENDMDL
MODEL 8
REMARK VINA RESULT:    -3.361      1.710      3.616
REMARK INTER + INTRA:          -7.840
REMARK INTER:                  -6.622
REMARK INTRA:                  -1.218
REMARK UNBOUND:                -1.729
REMARK SMILES CCCCCCCCCCCCCC[C@@H](C)C(=O)[O-]
REMARK SMILES IDX 9 1 10 2 11 3 12 4 13 5 14 6 15 7 16 8 17 9 18 10 19 11 8 12
REMARK SMILES IDX 7 13 6 14 5 15 4 16 3 17 2 18 1 19
REMARK H PARENT
REMARK Flexibility Score: inf
ROOT
ATOM      1  C   UNL     1      29.827 -12.003  28.911  1.00  0.00     0.000 C 
ENDROOT
BRANCH   1   2
ATOM      2  C   UNL     1      30.664 -12.029  30.206  1.00  0.00     0.000 C 
BRANCH   2   3
ATOM      3  C   UNL     1      32.102 -11.496  30.061  1.00  0.00     0.000 C 
BRANCH   3   4
ATOM      4  C   UNL     1      32.516 -10.575  31.218  1.00  0.00     0.000 C 
BRANCH   4   5
ATOM      5  C   UNL     1      32.337  -9.098  30.837  1.00  0.00     0.001 C 
BRANCH   5   6
ATOM      6  C   UNL     1      31.055  -8.488  31.446  1.00  0.00     0.009 C 
BRANCH   6   7
ATOM      7  C   UNL     1      31.327  -7.316  32.417  1.00  0.00     0.032 C 
ATOM      8  C   UNL     1      30.083  -6.453  32.660  1.00  0.00     0.014 C 
BRANCH   7   9
ATOM      9  C   UNL     1      31.844  -7.845  33.726  1.00  0.00     0.044 C 
ATOM     10  O   UNL     1      31.482  -8.975  34.148  1.00  0.00    -0.550 OA
ATOM     11  O   UNL     1      32.733  -7.086  34.478  1.00  0.00    -0.550 OA
ENDBRANCH   7   9
ENDBRANCH   6   7
ENDBRANCH   5   6
ENDBRANCH   4   5
ENDBRANCH   3   4
ENDBRANCH   2   3
ENDBRANCH   1   2
BRANCH   1  12
ATOM     12  C   UNL     1      28.434 -11.360  29.047  1.00  0.00     0.000 C 
BRANCH  12  13
ATOM     13  C   UNL     1      27.961 -11.135  30.497  1.00  0.00    -0.000 C 
BRANCH  13  14
ATOM     14  C   UNL     1      27.618  -9.675  30.853  1.00  0.00    -0.000 C 
BRANCH  14  15
ATOM     15  C   UNL     1      26.121  -9.328  30.793  1.00  0.00    -0.000 C 
BRANCH  15  16
ATOM     16  C   UNL     1      25.608  -9.144  29.354  1.00  0.00    -0.000 C 
BRANCH  16  17
ATOM     17  C   UNL     1      24.075  -9.085  29.276  1.00  0.00    -0.000 C 
BRANCH  17  18
ATOM     18  C   UNL     1      23.490  -7.907  30.069  1.00  0.00    -0.003 C 
ATOM     19  C   UNL     1      23.988  -6.573  29.519  1.00  0.00     0.004 C 
ENDBRANCH  17  18
ENDBRANCH  16  17
ENDBRANCH  15  16
ENDBRANCH  14  15
ENDBRANCH  13  14
ENDBRANCH  12  13
ENDBRANCH   1  12
TORSDOF 14
ENDMDL
MODEL 9
REMARK VINA RESULT:    -3.339      1.590      3.000
REMARK INTER + INTRA:          -7.801
REMARK INTER:                  -5.751
REMARK INTRA:                  -2.050
REMARK UNBOUND:                -1.729
REMARK SMILES CCCCCCCCCCCCCC[C@@H](C)C(=O)[O-]
REMARK SMILES IDX 9 1 10 2 11 3 12 4 13 5 14 6 15 7 16 8 17 9 18 10 19 11 8 12
REMARK SMILES IDX 7 13 6 14 5 15 4 16 3 17 2 18 1 19
REMARK H PARENT
REMARK Flexibility Score: inf
ROOT
ATOM      1  C   UNL     1      25.965  -9.455  32.051  1.00  0.00     0.000 C 
ENDROOT
BRANCH   1   2
ATOM      2  C   UNL     1      25.967 -10.867  31.430  1.00  0.00     0.000 C 
BRANCH   2   3
ATOM      3  C   UNL     1      26.653 -10.972  30.056  1.00  0.00     0.000 C 
BRANCH   3   4
ATOM      4  C   UNL     1      27.731  -9.899  29.843  1.00  0.00     0.000 C 
BRANCH   4   5
ATOM      5  C   UNL     1      29.125 -10.442  30.195  1.00  0.00     0.001 C 
BRANCH   5   6
ATOM      6  C   UNL     1      29.678  -9.831  31.501  1.00  0.00     0.009 C 
BRANCH   6   7
ATOM      7  C   UNL     1      30.497  -8.539  31.283  1.00  0.00     0.032 C 
ATOM      8  C   UNL     1      30.318  -7.530  32.424  1.00  0.00     0.014 C 
BRANCH   7   9
ATOM      9  C   UNL     1      31.954  -8.876  31.123  1.00  0.00     0.044 C 
ATOM     10  O   UNL     1      32.386 -10.015  31.443  1.00  0.00    -0.550 OA
ATOM     11  O   UNL     1      32.834  -7.927  30.616  1.00  0.00    -0.550 OA
ENDBRANCH   7   9
ENDBRANCH   6   7
ENDBRANCH   5   6
ENDBRANCH   4   5
ENDBRANCH   3   4
ENDBRANCH   2   3
ENDBRANCH   1   2
BRANCH   1  12
ATOM     12  C   UNL     1      24.723  -9.116  32.898  1.00  0.00     0.000 C 
BRANCH  12  13
ATOM     13  C   UNL     1      23.640 -10.212  32.930  1.00  0.00    -0.000 C 
BRANCH  13  14
ATOM     14  C   UNL     1      22.389  -9.919  32.079  1.00  0.00    -0.000 C 
BRANCH  14  15
ATOM     15  C   UNL     1      22.476 -10.386  30.616  1.00  0.00    -0.000 C 
BRANCH  15  16
ATOM     16  C   UNL     1      22.100  -9.281  29.613  1.00  0.00    -0.000 C 
BRANCH  16  17
ATOM     17  C   UNL     1      23.169  -9.080  28.528  1.00  0.00    -0.000 C 
BRANCH  17  18
ATOM     18  C   UNL     1      24.379  -8.281  29.034  1.00  0.00    -0.003 C 
ATOM     19  C   UNL     1      23.935  -7.072  29.853  1.00  0.00     0.004 C 
ENDBRANCH  17  18
ENDBRANCH  16  17
ENDBRANCH  15  16
ENDBRANCH  14  15
ENDBRANCH  13  14
ENDBRANCH  12  13
ENDBRANCH   1  12
TORSDOF 14
ENDMDL
