MODEL 1
REMARK VINA RESULT:    -4.687      0.000      0.000
REMARK INTER + INTRA:          -7.918
REMARK INTER:                  -7.426
REMARK INTRA:                  -0.491
REMARK UNBOUND:                -0.491
REMARK SMILES CCCCCCCCCCCC(=O)[O-]
REMARK SMILES IDX 7 1 8 2 9 3 10 4 11 5 12 6 13 7 14 8 6 9 5 10 4 11 3 12 2 13
REMARK SMILES IDX 1 14
REMARK H PARENT
REMARK Flexibility Score: inf
ROOT
ATOM      1  C   UNL     1      10.090  15.052  22.324  1.00  0.00     0.000 C 
ENDROOT
BRANCH   1   2
ATOM      2  C   UNL     1      11.260  14.610  23.219  1.00  0.00     0.000 C 
BRANCH   2   3
ATOM      3  C   UNL     1      11.249  15.302  24.594  1.00  0.00     0.000 C 
BRANCH   3   4
ATOM      4  C   UNL     1      12.644  15.784  25.022  1.00  0.00     0.006 C 
BRANCH   4   5
ATOM      5  C   UNL     1      13.342  16.612  23.935  1.00  0.00     0.053 C 
BRANCH   5   6
ATOM      6  C   UNL     1      13.707  17.963  24.461  1.00  0.00     0.041 C 
ATOM      7  O   UNL     1      12.976  18.531  25.316  1.00  0.00    -0.550 OA
ATOM      8  O   UNL     1      14.883  18.577  24.045  1.00  0.00    -0.550 OA
ENDBRANCH   5   6
ENDBRANCH   4   5
ENDBRANCH   3   4
ENDBRANCH   2   3
ENDBRANCH   1   2
BRANCH   1   9
ATOM      9  C   UNL     1       9.069  13.926  22.091  1.00  0.00     0.000 C 
BRANCH   9  10
ATOM     10  C   UNL     1       7.622  14.376  22.354  1.00  0.00    -0.000 C 
BRANCH  10  11
ATOM     11  C   UNL     1       6.836  13.381  23.225  1.00  0.00    -0.000 C 
BRANCH  11  12
ATOM     12  C   UNL     1       7.181  11.914  22.889  1.00  0.00    -0.000 C 
BRANCH  12  13
ATOM     13  C   UNL     1       6.234  11.281  21.855  1.00  0.00    -0.003 C 
ATOM     14  C   UNL     1       4.910  10.819  22.462  1.00  0.00     0.004 C 
ENDBRANCH  12  13
ENDBRANCH  11  12
ENDBRANCH  10  11
ENDBRANCH   9  10
ENDBRANCH   1   9
TORSDOF 10
ENDMDL
MODEL 2
REMARK VINA RESULT:    -4.428      4.501      6.344
REMARK INTER + INTRA:          -7.508
REMARK INTER:                  -6.000
REMARK INTRA:                  -1.508
REMARK UNBOUND:                -0.491
REMARK SMILES CCCCCCCCCCCC(=O)[O-]
REMARK SMILES IDX 7 1 8 2 9 3 10 4 11 5 12 6 13 7 14 8 6 9 5 10 4 11 3 12 2 13
REMARK SMILES IDX 1 14
REMARK H PARENT
REMARK Flexibility Score: inf
ROOT
ATOM      1  C   UNL     1      11.840  16.411  22.649  1.00  0.00     0.000 C 
ENDROOT
BRANCH   1   2
ATOM      2  C   UNL     1      11.075  17.553  21.959  1.00  0.00     0.000 C 
BRANCH   2   3
ATOM      3  C   UNL     1      11.961  18.362  20.995  1.00  0.00     0.000 C 
BRANCH   3   4
ATOM      4  C   UNL     1      12.090  19.836  21.409  1.00  0.00     0.006 C 
BRANCH   4   5
ATOM      5  C   UNL     1      13.299  20.526  20.765  1.00  0.00     0.053 C 
BRANCH   5   6
ATOM      6  C   UNL     1      14.570  20.047  21.392  1.00  0.00     0.041 C 
ATOM      7  O   UNL     1      14.719  20.096  22.641  1.00  0.00    -0.550 OA
ATOM      8  O   UNL     1      15.572  19.499  20.600  1.00  0.00    -0.550 OA
ENDBRANCH   5   6
ENDBRANCH   4   5
ENDBRANCH   3   4
ENDBRANCH   2   3
ENDBRANCH   1   2
BRANCH   1   9
ATOM      9  C   UNL     1      13.357  16.661  22.695  1.00  0.00     0.000 C 
BRANCH   9  10
ATOM     10  C   UNL     1      13.850  17.050  24.099  1.00  0.00    -0.000 C 
BRANCH  10  11
ATOM     11  C   UNL     1      12.824  16.732  25.201  1.00  0.00    -0.000 C 
BRANCH  11  12
ATOM     12  C   UNL     1      12.492  17.969  26.063  1.00  0.00    -0.000 C 
BRANCH  12  13
ATOM     13  C   UNL     1      12.279  19.251  25.241  1.00  0.00    -0.003 C 
ATOM     14  C   UNL     1      10.806  19.544  24.962  1.00  0.00     0.004 C 
ENDBRANCH  12  13
ENDBRANCH  11  12
ENDBRANCH  10  11
ENDBRANCH   9  10
ENDBRANCH   1   9
TORSDOF 10
ENDMDL
MODEL 3
REMARK VINA RESULT:    -4.417      0.949      1.347
REMARK INTER + INTRA:          -7.490
REMARK INTER:                  -7.028
REMARK INTRA:                  -0.462
REMARK UNBOUND:                -0.491
REMARK SMILES CCCCCCCCCCCC(=O)[O-]
REMARK SMILES IDX 7 1 8 2 9 3 10 4 11 5 12 6 13 7 14 8 6 9 5 10 4 11 3 12 2 13
REMARK SMILES IDX 1 14
REMARK H PARENT
REMARK Flexibility Score: inf
ROOT
ATOM      1  C   UNL     1      10.776  13.955  22.272  1.00  0.00     0.000 C 
ENDROOT
BRANCH   1   2
ATOM      2  C   UNL     1      11.417  13.906  23.669  1.00  0.00     0.000 C 
BRANCH   2   3
ATOM      3  C   UNL     1      11.377  15.266  24.388  1.00  0.00     0.000 C 
BRANCH   3   4
ATOM      4  C   UNL     1      12.757  15.699  24.908  1.00  0.00     0.006 C 
BRANCH   4   5
ATOM      5  C   UNL     1      12.715  17.048  25.638  1.00  0.00     0.053 C 
BRANCH   5   6
ATOM      6  C   UNL     1      13.325  18.119  24.791  1.00  0.00     0.041 C 
ATOM      7  O   UNL     1      14.405  17.907  24.180  1.00  0.00    -0.550 OA
ATOM      8  O   UNL     1      12.674  19.338  24.637  1.00  0.00    -0.550 OA
ENDBRANCH   5   6
ENDBRANCH   4   5
ENDBRANCH   3   4
ENDBRANCH   2   3
ENDBRANCH   1   2
BRANCH   1   9
ATOM      9  C   UNL     1       9.430  14.699  22.267  1.00  0.00     0.000 C 
BRANCH   9  10
ATOM     10  C   UNL     1       8.240  13.770  22.554  1.00  0.00    -0.000 C 
BRANCH  10  11
ATOM     11  C   UNL     1       8.387  12.389  21.891  1.00  0.00    -0.000 C 
BRANCH  11  12
ATOM     12  C   UNL     1       7.020  11.748  21.570  1.00  0.00    -0.000 C 
BRANCH  12  13
ATOM     13  C   UNL     1       6.039  11.767  22.755  1.00  0.00    -0.003 C 
ATOM     14  C   UNL     1       4.925  10.730  22.625  1.00  0.00     0.004 C 
ENDBRANCH  12  13
ENDBRANCH  11  12
ENDBRANCH  10  11
ENDBRANCH   9  10
ENDBRANCH   1   9
TORSDOF 10
ENDMDL
MODEL 4
REMARK VINA RESULT:    -4.360      1.765      2.732
REMARK INTER + INTRA:          -7.400
REMARK INTER:                  -6.647
REMARK INTRA:                  -0.753
REMARK UNBOUND:                -0.491
REMARK SMILES CCCCCCCCCCCC(=O)[O-]
REMARK SMILES IDX 7 1 8 2 9 3 10 4 11 5 12 6 13 7 14 8 6 9 5 10 4 11 3 12 2 13
REMARK SMILES IDX 1 14
REMARK H PARENT
REMARK Flexibility Score: inf
ROOT
ATOM      1  C   UNL     1      11.412  15.358  24.504  1.00  0.00     0.000 C 
ENDROOT
BRANCH   1   2
ATOM      2  C   UNL     1      12.725  15.918  25.075  1.00  0.00     0.000 C 
BRANCH   2   3
ATOM      3  C   UNL     1      12.547  17.305  25.719  1.00  0.00     0.000 C 
BRANCH   3   4
ATOM      4  C   UNL     1      13.289  18.410  24.952  1.00  0.00     0.006 C 
BRANCH   4   5
ATOM      5  C   UNL     1      14.359  17.854  24.003  1.00  0.00     0.053 C 
BRANCH   5   6
ATOM      6  C   UNL     1      14.042  18.219  22.588  1.00  0.00     0.041 C 
ATOM      7  O   UNL     1      13.722  19.401  22.293  1.00  0.00    -0.550 OA
ATOM      8  O   UNL     1      14.150  17.264  21.583  1.00  0.00    -0.550 OA
ENDBRANCH   5   6
ENDBRANCH   4   5
ENDBRANCH   3   4
ENDBRANCH   2   3
ENDBRANCH   1   2
BRANCH   1   9
ATOM      9  C   UNL     1      11.019  16.018  23.172  1.00  0.00     0.000 C 
BRANCH   9  10
ATOM     10  C   UNL     1       9.984  15.196  22.386  1.00  0.00    -0.000 C 
BRANCH  10  11
ATOM     11  C   UNL     1      10.212  13.679  22.507  1.00  0.00    -0.000 C 
BRANCH  11  12
ATOM     12  C   UNL     1       8.917  12.874  22.262  1.00  0.00    -0.000 C 
BRANCH  12  13
ATOM     13  C   UNL     1       7.653  13.748  22.204  1.00  0.00    -0.003 C 
ATOM     14  C   UNL     1       6.696  13.493  23.368  1.00  0.00     0.004 C 
ENDBRANCH  12  13
ENDBRANCH  11  12
ENDBRANCH  10  11
ENDBRANCH   9  10
ENDBRANCH   1   9
TORSDOF 10
ENDMDL
MODEL 5
REMARK VINA RESULT:    -4.359      1.383      2.083
REMARK INTER + INTRA:          -7.400
REMARK INTER:                  -6.563
REMARK INTRA:                  -0.836
REMARK UNBOUND:                -0.491
REMARK SMILES CCCCCCCCCCCC(=O)[O-]
REMARK SMILES IDX 7 1 8 2 9 3 10 4 11 5 12 6 13 7 14 8 6 9 5 10 4 11 3 12 2 13
REMARK SMILES IDX 1 14
REMARK H PARENT
REMARK Flexibility Score: inf
ROOT
ATOM      1  C   UNL     1       9.079  14.453  22.636  1.00  0.00     0.000 C 
ENDROOT
BRANCH   1   2
ATOM      2  C   UNL     1      10.363  13.641  22.401  1.00  0.00     0.000 C 
BRANCH   2   3
ATOM      3  C   UNL     1      11.441  13.915  23.464  1.00  0.00     0.000 C 
BRANCH   3   4
ATOM      4  C   UNL     1      11.075  15.088  24.387  1.00  0.00     0.006 C 
BRANCH   4   5
ATOM      5  C   UNL     1      12.308  15.835  24.911  1.00  0.00     0.053 C 
BRANCH   5   6
ATOM      6  C   UNL     1      11.985  17.276  25.144  1.00  0.00     0.041 C 
ATOM      7  O   UNL     1      11.185  17.880  24.382  1.00  0.00    -0.550 OA
ATOM      8  O   UNL     1      12.531  17.943  26.236  1.00  0.00    -0.550 OA
ENDBRANCH   5   6
ENDBRANCH   4   5
ENDBRANCH   3   4
ENDBRANCH   2   3
ENDBRANCH   1   2
BRANCH   1   9
ATOM      9  C   UNL     1       7.830  13.760  22.066  1.00  0.00     0.000 C 
BRANCH   9  10
ATOM     10  C   UNL     1       6.855  13.302  23.163  1.00  0.00    -0.000 C 
BRANCH  10  11
ATOM     11  C   UNL     1       6.381  11.851  22.972  1.00  0.00    -0.000 C 
BRANCH  11  12
ATOM     12  C   UNL     1       6.986  11.202  21.708  1.00  0.00    -0.000 C 
BRANCH  12  13
ATOM     13  C   UNL     1       7.918  10.017  22.012  1.00  0.00    -0.003 C 
ATOM     14  C   UNL     1       8.705  10.193  23.309  1.00  0.00     0.004 C 
ENDBRANCH  12  13
ENDBRANCH  11  12
ENDBRANCH  10  11
ENDBRANCH   9  10
ENDBRANCH   1   9
TORSDOF 10
ENDMDL
MODEL 6
REMARK VINA RESULT:    -4.344      3.921      7.659
REMARK INTER + INTRA:          -7.374
REMARK INTER:                  -6.711
REMARK INTRA:                  -0.663
REMARK UNBOUND:                -0.491
REMARK SMILES CCCCCCCCCCCC(=O)[O-]
REMARK SMILES IDX 7 1 8 2 9 3 10 4 11 5 12 6 13 7 14 8 6 9 5 10 4 11 3 12 2 13
REMARK SMILES IDX 1 14
REMARK H PARENT
REMARK Flexibility Score: inf
ROOT
ATOM      1  C   UNL     1      10.714  16.031  23.507  1.00  0.00     0.000 C 
ENDROOT
BRANCH   1   2
ATOM      2  C   UNL     1      10.240  15.242  22.275  1.00  0.00     0.000 C 
BRANCH   2   3
ATOM      3  C   UNL     1       9.574  13.906  22.647  1.00  0.00     0.000 C 
BRANCH   3   4
ATOM      4  C   UNL     1       8.174  13.754  22.031  1.00  0.00     0.006 C 
BRANCH   4   5
ATOM      5  C   UNL     1       7.108  13.386  23.072  1.00  0.00     0.053 C 
BRANCH   5   6
ATOM      6  C   UNL     1       6.776  11.930  22.988  1.00  0.00     0.041 C 
ATOM      7  O   UNL     1       5.581  11.559  22.850  1.00  0.00    -0.550 OA
ATOM      8  O   UNL     1       7.793  10.983  23.013  1.00  0.00    -0.550 OA
ENDBRANCH   5   6
ENDBRANCH   4   5
ENDBRANCH   3   4
ENDBRANCH   2   3
ENDBRANCH   1   2
BRANCH   1   9
ATOM      9  C   UNL     1      11.547  15.172  24.473  1.00  0.00     0.000 C 
BRANCH   9  10
ATOM     10  C   UNL     1      12.559  16.001  25.280  1.00  0.00    -0.000 C 
BRANCH  10  11
ATOM     11  C   UNL     1      13.565  16.749  24.387  1.00  0.00    -0.000 C 
BRANCH  11  12
ATOM     12  C   UNL     1      13.373  18.279  24.449  1.00  0.00    -0.000 C 
BRANCH  12  13
ATOM     13  C   UNL     1      12.554  18.748  25.664  1.00  0.00    -0.003 C 
ATOM     14  C   UNL     1      11.224  19.392  25.276  1.00  0.00     0.004 C 
ENDBRANCH  12  13
ENDBRANCH  11  12
ENDBRANCH  10  11
ENDBRANCH   9  10
ENDBRANCH   1   9
TORSDOF 10
ENDMDL
MODEL 7
REMARK VINA RESULT:    -4.303      3.689      7.131
REMARK INTER + INTRA:          -7.309
REMARK INTER:                  -5.740
REMARK INTRA:                  -1.569
REMARK UNBOUND:                -0.491
REMARK SMILES CCCCCCCCCCCC(=O)[O-]
REMARK SMILES IDX 7 1 8 2 9 3 10 4 11 5 12 6 13 7 14 8 6 9 5 10 4 11 3 12 2 13
REMARK SMILES IDX 1 14
REMARK H PARENT
REMARK Flexibility Score: inf
ROOT
ATOM      1  C   UNL     1      12.624  16.883  25.518  1.00  0.00     0.000 C 
ENDROOT
BRANCH   1   2
ATOM      2  C   UNL     1      13.548  16.410  24.384  1.00  0.00     0.000 C 
BRANCH   2   3
ATOM      3  C   UNL     1      12.774  15.779  23.213  1.00  0.00     0.000 C 
BRANCH   3   4
ATOM      4  C   UNL     1      11.321  15.438  23.581  1.00  0.00     0.006 C 
BRANCH   4   5
ATOM      5  C   UNL     1      10.342  15.707  22.432  1.00  0.00     0.053 C 
BRANCH   5   6
ATOM      6  C   UNL     1       9.531  14.485  22.139  1.00  0.00     0.041 C 
ATOM      7  O   UNL     1      10.100  13.407  21.823  1.00  0.00    -0.550 OA
ATOM      8  O   UNL     1       8.147  14.522  22.262  1.00  0.00    -0.550 OA
ENDBRANCH   5   6
ENDBRANCH   4   5
ENDBRANCH   3   4
ENDBRANCH   2   3
ENDBRANCH   1   2
BRANCH   1   9
ATOM      9  C   UNL     1      12.620  18.413  25.676  1.00  0.00     0.000 C 
BRANCH   9  10
ATOM     10  C   UNL     1      11.455  19.082  24.928  1.00  0.00    -0.000 C 
BRANCH  10  11
ATOM     11  C   UNL     1      11.926  19.984  23.773  1.00  0.00    -0.000 C 
BRANCH  11  12
ATOM     12  C   UNL     1      11.905  19.249  22.416  1.00  0.00    -0.000 C 
BRANCH  12  13
ATOM     13  C   UNL     1      13.295  19.109  21.771  1.00  0.00    -0.003 C 
ATOM     14  C   UNL     1      14.419  19.657  22.648  1.00  0.00     0.004 C 
ENDBRANCH  12  13
ENDBRANCH  11  12
ENDBRANCH  10  11
ENDBRANCH   9  10
ENDBRANCH   1   9
TORSDOF 10
ENDMDL
MODEL 8
REMARK VINA RESULT:    -4.262      5.557      7.200
REMARK INTER + INTRA:          -7.246
REMARK INTER:                  -5.679
REMARK INTRA:                  -1.567
REMARK UNBOUND:                -0.491
REMARK SMILES CCCCCCCCCCCC(=O)[O-]
REMARK SMILES IDX 7 1 8 2 9 3 10 4 11 5 12 6 13 7 14 8 6 9 5 10 4 11 3 12 2 13
REMARK SMILES IDX 1 14
REMARK H PARENT
REMARK Flexibility Score: inf
ROOT
ATOM      1  C   UNL     1      14.813  19.201  23.364  1.00  0.00     0.000 C 
ENDROOT
BRANCH   1   2
ATOM      2  C   UNL     1      14.146  19.398  21.992  1.00  0.00     0.000 C 
BRANCH   2   3
ATOM      3  C   UNL     1      13.260  20.655  21.939  1.00  0.00     0.000 C 
BRANCH   3   4
ATOM      4  C   UNL     1      11.849  20.360  21.404  1.00  0.00     0.006 C 
BRANCH   4   5
ATOM      5  C   UNL     1      11.811  19.130  20.488  1.00  0.00     0.053 C 
BRANCH   5   6
ATOM      6  C   UNL     1      11.441  19.527  19.095  1.00  0.00     0.041 C 
ATOM      7  O   UNL     1      12.244  19.332  18.145  1.00  0.00    -0.550 OA
ATOM      8  O   UNL     1      10.187  20.069  18.836  1.00  0.00    -0.550 OA
ENDBRANCH   5   6
ENDBRANCH   4   5
ENDBRANCH   3   4
ENDBRANCH   2   3
ENDBRANCH   1   2
BRANCH   1   9
ATOM      9  C   UNL     1      14.511  17.822  23.974  1.00  0.00     0.000 C 
BRANCH   9  10
ATOM     10  C   UNL     1      13.280  17.152  23.342  1.00  0.00    -0.000 C 
BRANCH  10  11
ATOM     11  C   UNL     1      12.109  17.004  24.329  1.00  0.00    -0.000 C 
BRANCH  11  12
ATOM     12  C   UNL     1      11.021  18.077  24.108  1.00  0.00    -0.000 C 
BRANCH  12  13
ATOM     13  C   UNL     1      11.216  19.337  24.968  1.00  0.00    -0.003 C 
ATOM     14  C   UNL     1      11.960  19.060  26.273  1.00  0.00     0.004 C 
ENDBRANCH  12  13
ENDBRANCH  11  12
ENDBRANCH  10  11
ENDBRANCH   9  10
ENDBRANCH   1   9
TORSDOF 10
ENDMDL
MODEL 9
REMARK VINA RESULT:    -4.247      4.121      6.186
REMARK INTER + INTRA:          -7.222
REMARK INTER:                  -5.975
REMARK INTRA:                  -1.247
REMARK UNBOUND:                -0.491
REMARK SMILES CCCCCCCCCCCC(=O)[O-]
REMARK SMILES IDX 7 1 8 2 9 3 10 4 11 5 12 6 13 7 14 8 6 9 5 10 4 11 3 12 2 13
REMARK SMILES IDX 1 14
REMARK H PARENT
REMARK Flexibility Score: inf
ROOT
ATOM      1  C   UNL     1      11.284  19.264  24.886  1.00  0.00     0.000 C 
ENDROOT
BRANCH   1   2
ATOM      2  C   UNL     1      11.743  20.328  23.874  1.00  0.00     0.000 C 
BRANCH   2   3
ATOM      3  C   UNL     1      12.414  19.714  22.632  1.00  0.00     0.000 C 
BRANCH   3   4
ATOM      4  C   UNL     1      13.784  20.342  22.331  1.00  0.00     0.006 C 
BRANCH   4   5
ATOM      5  C   UNL     1      13.996  20.608  20.835  1.00  0.00     0.053 C 
BRANCH   5   6
ATOM      6  C   UNL     1      15.109  19.761  20.307  1.00  0.00     0.041 C 
ATOM      7  O   UNL     1      16.040  20.281  19.638  1.00  0.00    -0.550 OA
ATOM      8  O   UNL     1      15.146  18.402  20.596  1.00  0.00    -0.550 OA
ENDBRANCH   5   6
ENDBRANCH   4   5
ENDBRANCH   3   4
ENDBRANCH   2   3
ENDBRANCH   1   2
BRANCH   1   9
ATOM      9  C   UNL     1      12.442  18.727  25.743  1.00  0.00     0.000 C 
BRANCH   9  10
ATOM     10  C   UNL     1      12.661  17.216  25.562  1.00  0.00    -0.000 C 
BRANCH  10  11
ATOM     11  C   UNL     1      13.640  16.887  24.421  1.00  0.00    -0.000 C 
BRANCH  11  12
ATOM     12  C   UNL     1      12.975  16.054  23.304  1.00  0.00    -0.000 C 
BRANCH  12  13
ATOM     13  C   UNL     1      11.468  15.829  23.520  1.00  0.00    -0.003 C 
ATOM     14  C   UNL     1      10.608  16.457  22.424  1.00  0.00     0.004 C 
ENDBRANCH  12  13
ENDBRANCH  11  12
ENDBRANCH  10  11
ENDBRANCH   9  10
ENDBRANCH   1   9
TORSDOF 10
ENDMDL
