MODEL 1
REMARK VINA RESULT:    -4.674      0.000      0.000
REMARK INTER + INTRA:          -5.480
REMARK INTER:                  -5.220
REMARK INTRA:                  -0.260
REMARK UNBOUND:                -0.260
REMARK SMILES CC(=O)c1ccc(O)cc1O
REMARK SMILES IDX 4 1 10 2 9 3 7 4 6 5 5 6 2 7 1 8 3 9 11 10 8 12
REMARK H PARENT 11 11 8 13
REMARK Flexibility Score: inf
ROOT
ATOM      1  C   UNL     1     -12.872   0.587 -11.912  1.00  0.00     0.059 A 
ATOM      2  C   UNL     1     -12.388   1.861 -12.292  1.00  0.00     0.130 A 
ATOM      3  C   UNL     1     -13.291   2.890 -12.601  1.00  0.00     0.093 A 
ATOM      4  C   UNL     1     -14.669   2.674 -12.523  1.00  0.00     0.119 A 
ATOM      5  C   UNL     1     -15.152   1.422 -12.131  1.00  0.00     0.047 A 
ATOM      6  C   UNL     1     -14.264   0.389 -11.826  1.00  0.00     0.019 A 
ENDROOT
BRANCH   1   7
ATOM      7  C   UNL     1     -11.967  -0.550 -11.589  1.00  0.00     0.163 C 
ATOM      8  C   UNL     1     -11.860  -1.125 -10.209  1.00  0.00     0.093 C 
ATOM      9  O   UNL     1     -11.259  -1.054 -12.502  1.00  0.00    -0.294 OA
ENDBRANCH   1   7
BRANCH   2  10
ATOM     10  O   UNL     1     -11.019   2.121 -12.341  1.00  0.00    -0.507 OA
ATOM     11  H   UNL     1     -10.353   1.580 -11.802  1.00  0.00     0.293 HD
ENDBRANCH   2  10
BRANCH   4  12
ATOM     12  O   UNL     1     -15.547   3.710 -12.832  1.00  0.00    -0.508 OA
ATOM     13  H   UNL     1     -16.409   3.846 -12.317  1.00  0.00     0.293 HD
ENDBRANCH   4  12
TORSDOF 3
ENDMDL
MODEL 2
REMARK VINA RESULT:    -4.526      1.162      2.103
REMARK INTER + INTRA:          -5.314
REMARK INTER:                  -5.180
REMARK INTRA:                  -0.135
REMARK UNBOUND:                -0.260
REMARK SMILES CC(=O)c1ccc(O)cc1O
REMARK SMILES IDX 4 1 10 2 9 3 7 4 6 5 5 6 2 7 1 8 3 9 11 10 8 12
REMARK H PARENT 11 11 8 13
REMARK Flexibility Score: inf
ROOT
ATOM      1  C   UNL     1     -13.034   0.584 -11.857  1.00  0.00     0.059 A 
ATOM      2  C   UNL     1     -14.432   0.391 -11.970  1.00  0.00     0.130 A 
ATOM      3  C   UNL     1     -15.266   1.479 -12.276  1.00  0.00     0.093 A 
ATOM      4  C   UNL     1     -14.728   2.751 -12.486  1.00  0.00     0.119 A 
ATOM      5  C   UNL     1     -13.347   2.942 -12.393  1.00  0.00     0.047 A 
ATOM      6  C   UNL     1     -12.507   1.870 -12.085  1.00  0.00     0.019 A 
ENDROOT
BRANCH   1   7
ATOM      7  C   UNL     1     -12.099  -0.523 -11.519  1.00  0.00     0.163 C 
ATOM      8  C   UNL     1     -11.843  -0.957 -10.108  1.00  0.00     0.093 C 
ATOM      9  O   UNL     1     -11.494  -1.125 -12.447  1.00  0.00    -0.294 OA
ENDBRANCH   1   7
BRANCH   2  10
ATOM     10  O   UNL     1     -14.997  -0.872 -11.806  1.00  0.00    -0.507 OA
ATOM     11  H   UNL     1     -14.709  -1.663 -12.371  1.00  0.00     0.293 HD
ENDBRANCH   2  10
BRANCH   4  12
ATOM     12  O   UNL     1     -15.574   3.814 -12.789  1.00  0.00    -0.508 OA
ATOM     13  H   UNL     1     -15.265   4.776 -12.711  1.00  0.00     0.293 HD
ENDBRANCH   4  12
TORSDOF 3
ENDMDL
MODEL 3
REMARK VINA RESULT:    -4.520      8.576      9.600
REMARK INTER + INTRA:          -5.308
REMARK INTER:                  -5.005
REMARK INTRA:                  -0.303
REMARK UNBOUND:                -0.260
REMARK SMILES CC(=O)c1ccc(O)cc1O
REMARK SMILES IDX 4 1 10 2 9 3 7 4 6 5 5 6 2 7 1 8 3 9 11 10 8 12
REMARK H PARENT 11 11 8 13
REMARK Flexibility Score: inf
ROOT
ATOM      1  C   UNL     1      -4.636   2.163 -10.866  1.00  0.00     0.059 A 
ATOM      2  C   UNL     1      -5.026   2.278  -9.510  1.00  0.00     0.130 A 
ATOM      3  C   UNL     1      -4.913   1.172  -8.653  1.00  0.00     0.093 A 
ATOM      4  C   UNL     1      -4.404  -0.041  -9.121  1.00  0.00     0.119 A 
ATOM      5  C   UNL     1      -4.000  -0.155 -10.455  1.00  0.00     0.047 A 
ATOM      6  C   UNL     1      -4.112   0.937 -11.318  1.00  0.00     0.019 A 
ENDROOT
BRANCH   1   7
ATOM      7  C   UNL     1      -4.746   3.293 -11.829  1.00  0.00     0.163 C 
ATOM      8  C   UNL     1      -3.672   3.607 -12.826  1.00  0.00     0.093 C 
ATOM      9  O   UNL     1      -5.777   4.019 -11.813  1.00  0.00    -0.294 OA
ENDBRANCH   1   7
BRANCH   2  10
ATOM     10  O   UNL     1      -5.501   3.486  -9.002  1.00  0.00    -0.507 OA
ATOM     11  H   UNL     1      -5.627   4.301  -9.591  1.00  0.00     0.293 HD
ENDBRANCH   2  10
BRANCH   4  12
ATOM     12  O   UNL     1      -4.299  -1.125  -8.252  1.00  0.00    -0.508 OA
ATOM     13  H   UNL     1      -5.094  -1.451  -7.714  1.00  0.00     0.293 HD
ENDBRANCH   4  12
TORSDOF 3
ENDMDL
MODEL 4
REMARK VINA RESULT:    -4.486      8.652      9.625
REMARK INTER + INTRA:          -5.270
REMARK INTER:                  -4.974
REMARK INTRA:                  -0.296
REMARK UNBOUND:                -0.260
REMARK SMILES CC(=O)c1ccc(O)cc1O
REMARK SMILES IDX 4 1 10 2 9 3 7 4 6 5 5 6 2 7 1 8 3 9 11 10 8 12
REMARK H PARENT 11 11 8 13
REMARK Flexibility Score: inf
ROOT
ATOM      1  C   UNL     1     -16.099   2.470 -20.652  1.00  0.00     0.059 A 
ATOM      2  C   UNL     1     -15.311   3.573 -20.246  1.00  0.00     0.130 A 
ATOM      3  C   UNL     1     -15.343   4.767 -20.985  1.00  0.00     0.093 A 
ATOM      4  C   UNL     1     -16.159   4.883 -22.112  1.00  0.00     0.119 A 
ATOM      5  C   UNL     1     -16.953   3.803 -22.507  1.00  0.00     0.047 A 
ATOM      6  C   UNL     1     -16.927   2.609 -21.784  1.00  0.00     0.019 A 
ENDROOT
BRANCH   1   7
ATOM      7  C   UNL     1     -16.097   1.173 -19.923  1.00  0.00     0.163 C 
ATOM      8  C   UNL     1     -16.142  -0.147 -20.631  1.00  0.00     0.093 C 
ATOM      9  O   UNL     1     -16.057   1.173 -18.663  1.00  0.00    -0.294 OA
ENDBRANCH   1   7
BRANCH   2  10
ATOM     10  O   UNL     1     -14.515   3.502 -19.104  1.00  0.00    -0.507 OA
ATOM     11  H   UNL     1     -14.510   2.683 -18.507  1.00  0.00     0.293 HD
ENDBRANCH   2  10
BRANCH   4  12
ATOM     12  O   UNL     1     -16.176   6.078 -22.829  1.00  0.00    -0.508 OA
ATOM     13  H   UNL     1     -16.334   6.968 -22.372  1.00  0.00     0.293 HD
ENDBRANCH   4  12
TORSDOF 3
ENDMDL
MODEL 5
REMARK VINA RESULT:    -4.344     19.228     20.135
REMARK INTER + INTRA:          -5.111
REMARK INTER:                  -4.820
REMARK INTRA:                  -0.291
REMARK UNBOUND:                -0.260
REMARK SMILES CC(=O)c1ccc(O)cc1O
REMARK SMILES IDX 4 1 10 2 9 3 7 4 6 5 5 6 2 7 1 8 3 9 11 10 8 12
REMARK H PARENT 11 11 8 13
REMARK Flexibility Score: inf
ROOT
ATOM      1  C   UNL     1      -0.473   3.526 -27.015  1.00  0.00     0.059 A 
ATOM      2  C   UNL     1       0.907   3.728 -27.253  1.00  0.00     0.130 A 
ATOM      3  C   UNL     1       1.589   4.761 -26.590  1.00  0.00     0.093 A 
ATOM      4  C   UNL     1       0.921   5.585 -25.681  1.00  0.00     0.119 A 
ATOM      5  C   UNL     1      -0.438   5.378 -25.429  1.00  0.00     0.047 A 
ATOM      6  C   UNL     1      -1.129   4.358 -26.086  1.00  0.00     0.019 A 
ENDROOT
BRANCH   1   7
ATOM      7  C   UNL     1      -1.256   2.462 -27.699  1.00  0.00     0.163 C 
ATOM      8  C   UNL     1      -2.680   2.657 -28.124  1.00  0.00     0.093 C 
ATOM      9  O   UNL     1      -0.711   1.349 -27.933  1.00  0.00    -0.294 OA
ENDBRANCH   1   7
BRANCH   2  10
ATOM     10  O   UNL     1       1.612   2.899 -28.124  1.00  0.00    -0.507 OA
ATOM     11  H   UNL     1       1.145   2.361 -28.845  1.00  0.00     0.293 HD
ENDBRANCH   2  10
BRANCH   4  12
ATOM     12  O   UNL     1       1.617   6.602 -25.033  1.00  0.00    -0.508 OA
ATOM     13  H   UNL     1       2.584   6.486 -24.751  1.00  0.00     0.293 HD
ENDBRANCH   4  12
TORSDOF 3
ENDMDL
MODEL 6
REMARK VINA RESULT:    -4.267     18.916     20.008
REMARK INTER + INTRA:          -5.026
REMARK INTER:                  -4.751
REMARK INTRA:                  -0.275
REMARK UNBOUND:                -0.260
REMARK SMILES CC(=O)c1ccc(O)cc1O
REMARK SMILES IDX 4 1 10 2 9 3 7 4 6 5 5 6 2 7 1 8 3 9 11 10 8 12
REMARK H PARENT 11 11 8 13
REMARK Flexibility Score: inf
ROOT
ATOM      1  C   UNL     1      -0.578   3.260 -27.212  1.00  0.00     0.059 A 
ATOM      2  C   UNL     1      -1.097   4.294 -26.397  1.00  0.00     0.130 A 
ATOM      3  C   UNL     1      -0.230   5.240 -25.828  1.00  0.00     0.093 A 
ATOM      4  C   UNL     1       1.144   5.182 -26.072  1.00  0.00     0.119 A 
ATOM      5  C   UNL     1       1.660   4.175 -26.892  1.00  0.00     0.047 A 
ATOM      6  C   UNL     1       0.809   3.224 -27.459  1.00  0.00     0.019 A 
ENDROOT
BRANCH   1   7
ATOM      7  C   UNL     1      -1.441   2.217 -27.830  1.00  0.00     0.163 C 
ATOM      8  C   UNL     1      -0.947   0.832 -28.120  1.00  0.00     0.093 C 
ATOM      9  O   UNL     1      -2.634   2.499 -28.125  1.00  0.00    -0.294 OA
ENDBRANCH   1   7
BRANCH   2  10
ATOM     10  O   UNL     1      -2.467   4.403 -26.166  1.00  0.00    -0.507 OA
ATOM     11  H   UNL     1      -3.070   3.588 -26.135  1.00  0.00     0.293 HD
ENDBRANCH   2  10
BRANCH   4  12
ATOM     12  O   UNL     1       1.986   6.133 -25.499  1.00  0.00    -0.508 OA
ATOM     13  H   UNL     1       2.864   5.872 -25.067  1.00  0.00     0.293 HD
ENDBRANCH   4  12
TORSDOF 3
ENDMDL
MODEL 7
REMARK VINA RESULT:    -4.188      8.929      9.943
REMARK INTER + INTRA:          -4.937
REMARK INTER:                  -4.631
REMARK INTRA:                  -0.306
REMARK UNBOUND:                -0.260
REMARK SMILES CC(=O)c1ccc(O)cc1O
REMARK SMILES IDX 4 1 10 2 9 3 7 4 6 5 5 6 2 7 1 8 3 9 11 10 8 12
REMARK H PARENT 11 11 8 13
REMARK Flexibility Score: inf
ROOT
ATOM      1  C   UNL     1     -15.760   2.577 -20.713  1.00  0.00     0.059 A 
ATOM      2  C   UNL     1     -16.548   2.599 -21.888  1.00  0.00     0.130 A 
ATOM      3  C   UNL     1     -16.739   3.805 -22.581  1.00  0.00     0.093 A 
ATOM      4  C   UNL     1     -16.143   4.986 -22.131  1.00  0.00     0.119 A 
ATOM      5  C   UNL     1     -15.349   4.966 -20.982  1.00  0.00     0.047 A 
ATOM      6  C   UNL     1     -15.155   3.774 -20.280  1.00  0.00     0.019 A 
ENDROOT
BRANCH   1   7
ATOM      7  C   UNL     1     -15.534   1.336 -19.924  1.00  0.00     0.163 C 
ATOM      8  C   UNL     1     -15.756   1.273 -18.443  1.00  0.00     0.093 C 
ATOM      9  O   UNL     1     -15.139   0.294 -20.512  1.00  0.00    -0.294 OA
ENDBRANCH   1   7
BRANCH   2  10
ATOM     10  O   UNL     1     -17.125   1.432 -22.385  1.00  0.00    -0.507 OA
ATOM     11  H   UNL     1     -18.000   1.072 -22.022  1.00  0.00     0.293 HD
ENDBRANCH   2  10
BRANCH   4  12
ATOM     12  O   UNL     1     -16.344   6.170 -22.836  1.00  0.00    -0.508 OA
ATOM     13  H   UNL     1     -16.185   6.226 -23.835  1.00  0.00     0.293 HD
ENDBRANCH   4  12
TORSDOF 3
ENDMDL
MODEL 8
REMARK VINA RESULT:    -4.117     20.755     22.038
REMARK INTER + INTRA:          -4.858
REMARK INTER:                  -4.560
REMARK INTRA:                  -0.298
REMARK UNBOUND:                -0.260
REMARK SMILES CC(=O)c1ccc(O)cc1O
REMARK SMILES IDX 4 1 10 2 9 3 7 4 6 5 5 6 2 7 1 8 3 9 11 10 8 12
REMARK H PARENT 11 11 8 13
REMARK Flexibility Score: inf
ROOT
ATOM      1  C   UNL     1      -3.294  16.927 -23.371  1.00  0.00     0.059 A 
ATOM      2  C   UNL     1      -4.460  17.726 -23.424  1.00  0.00     0.130 A 
ATOM      3  C   UNL     1      -5.151  17.879 -24.636  1.00  0.00     0.093 A 
ATOM      4  C   UNL     1      -4.706  17.235 -25.793  1.00  0.00     0.119 A 
ATOM      5  C   UNL     1      -3.565  16.430 -25.743  1.00  0.00     0.047 A 
ATOM      6  C   UNL     1      -2.867  16.274 -24.544  1.00  0.00     0.019 A 
ENDROOT
BRANCH   1   7
ATOM      7  C   UNL     1      -2.508  16.739 -22.122  1.00  0.00     0.163 C 
ATOM      8  C   UNL     1      -2.219  15.384 -21.550  1.00  0.00     0.093 C 
ATOM      9  O   UNL     1      -2.064  17.750 -21.514  1.00  0.00    -0.294 OA
ENDBRANCH   1   7
BRANCH   2  10
ATOM     10  O   UNL     1      -4.952  18.351 -22.278  1.00  0.00    -0.507 OA
ATOM     11  H   UNL     1      -5.712  19.020 -22.320  1.00  0.00     0.293 HD
ENDBRANCH   2  10
BRANCH   4  12
ATOM     12  O   UNL     1      -5.408  17.400 -26.985  1.00  0.00    -0.508 OA
ATOM     13  H   UNL     1      -5.887  16.625 -27.430  1.00  0.00     0.293 HD
ENDBRANCH   4  12
TORSDOF 3
ENDMDL
MODEL 9
REMARK VINA RESULT:    -4.093     21.247     22.058
REMARK INTER + INTRA:          -4.831
REMARK INTER:                  -4.524
REMARK INTRA:                  -0.306
REMARK UNBOUND:                -0.260
REMARK SMILES CC(=O)c1ccc(O)cc1O
REMARK SMILES IDX 4 1 10 2 9 3 7 4 6 5 5 6 2 7 1 8 3 9 11 10 8 12
REMARK H PARENT 11 11 8 13
REMARK Flexibility Score: inf
ROOT
ATOM      1  C   UNL     1      -3.571  17.273 -23.101  1.00  0.00     0.059 A 
ATOM      2  C   UNL     1      -3.031  16.495 -24.153  1.00  0.00     0.130 A 
ATOM      3  C   UNL     1      -3.644  16.503 -25.416  1.00  0.00     0.093 A 
ATOM      4  C   UNL     1      -4.776  17.287 -25.651  1.00  0.00     0.119 A 
ATOM      5  C   UNL     1      -5.303  18.070 -24.621  1.00  0.00     0.047 A 
ATOM      6  C   UNL     1      -4.705  18.067 -23.359  1.00  0.00     0.019 A 
ENDROOT
BRANCH   1   7
ATOM      7  C   UNL     1      -2.979  17.294 -21.736  1.00  0.00     0.163 C 
ATOM      8  C   UNL     1      -2.754  18.566 -20.977  1.00  0.00     0.093 C 
ATOM      9  O   UNL     1      -2.649  16.207 -21.189  1.00  0.00    -0.294 OA
ENDBRANCH   1   7
BRANCH   2  10
ATOM     10  O   UNL     1      -1.879  15.733 -23.962  1.00  0.00    -0.507 OA
ATOM     11  H   UNL     1      -1.900  14.720 -23.980  1.00  0.00     0.293 HD
ENDBRANCH   2  10
BRANCH   4  12
ATOM     12  O   UNL     1      -5.367  17.281 -26.913  1.00  0.00    -0.508 OA
ATOM     13  H   UNL     1      -6.118  16.641 -27.144  1.00  0.00     0.293 HD
ENDBRANCH   4  12
TORSDOF 3
ENDMDL
