MODEL 1
REMARK VINA RESULT:    -3.358      0.000      0.000
REMARK INTER + INTRA:          -3.653
REMARK INTER:                  -3.653
REMARK INTRA:                   0.000
REMARK UNBOUND:                 0.000
REMARK SMILES [NH3+]CC(=O)[O-]
REMARK SMILES IDX 2 1 1 2 3 6 4 7 5 8
REMARK H PARENT 1 3 1 4 1 5
REMARK Flexibility Score: inf
ROOT
ATOM      1  C   UNL     1      38.130  26.509  33.928  1.00  0.00     0.312 C 
ENDROOT
BRANCH   1   2
ATOM      2  N   UNL     1      37.280  27.675  33.694  1.00  0.00    -0.353 N 
ATOM      3  H   UNL     1      37.514  28.110  32.771  1.00  0.00     0.344 HD
ATOM      4  H   UNL     1      37.446  28.378  34.451  1.00  0.00     0.344 HD
ATOM      5  H   UNL     1      36.273  27.395  33.707  1.00  0.00     0.344 HD
ENDBRANCH   1   2
BRANCH   1   6
ATOM      6  C   UNL     1      38.148  25.618  32.725  1.00  0.00     0.096 C 
ATOM      7  O   UNL     1      37.447  24.573  32.700  1.00  0.00    -0.544 OA
ATOM      8  O   UNL     1      38.979  25.915  31.652  1.00  0.00    -0.544 OA
ENDBRANCH   1   6
TORSDOF 2
ENDMDL
MODEL 2
REMARK VINA RESULT:    -3.322      0.092      1.452
REMARK INTER + INTRA:          -3.613
REMARK INTER:                  -3.613
REMARK INTRA:                   0.000
REMARK UNBOUND:                 0.000
REMARK SMILES [NH3+]CC(=O)[O-]
REMARK SMILES IDX 2 1 1 2 3 6 4 7 5 8
REMARK H PARENT 1 3 1 4 1 5
REMARK Flexibility Score: inf
ROOT
ATOM      1  C   UNL     1      38.261  26.580  33.880  1.00  0.00     0.312 C 
ENDROOT
BRANCH   1   2
ATOM      2  N   UNL     1      37.283  27.654  33.716  1.00  0.00    -0.353 N 
ATOM      3  H   UNL     1      36.314  27.260  33.713  1.00  0.00     0.344 HD
ATOM      4  H   UNL     1      37.454  28.137  32.804  1.00  0.00     0.344 HD
ATOM      5  H   UNL     1      37.380  28.350  34.490  1.00  0.00     0.344 HD
ENDBRANCH   1   2
BRANCH   1   6
ATOM      6  C   UNL     1      38.246  25.666  32.694  1.00  0.00     0.096 C 
ATOM      7  O   UNL     1      38.950  25.929  31.683  1.00  0.00    -0.544 OA
ATOM      8  O   UNL     1      37.416  24.552  32.685  1.00  0.00    -0.544 OA
ENDBRANCH   1   6
TORSDOF 2
ENDMDL
MODEL 3
REMARK VINA RESULT:    -3.316      3.535      3.983
REMARK INTER + INTRA:          -3.606
REMARK INTER:                  -3.606
REMARK INTRA:                   0.000
REMARK UNBOUND:                 0.000
REMARK SMILES [NH3+]CC(=O)[O-]
REMARK SMILES IDX 2 1 1 2 3 6 4 7 5 8
REMARK H PARENT 1 3 1 4 1 5
REMARK Flexibility Score: inf
ROOT
ATOM      1  C   UNL     1      37.568  26.667  34.892  1.00  0.00     0.312 C 
ENDROOT
BRANCH   1   2
ATOM      2  N   UNL     1      37.318  27.650  33.840  1.00  0.00    -0.353 N 
ATOM      3  H   UNL     1      36.477  27.372  33.281  1.00  0.00     0.344 HD
ATOM      4  H   UNL     1      38.148  27.690  33.204  1.00  0.00     0.344 HD
ATOM      5  H   UNL     1      37.167  28.596  34.259  1.00  0.00     0.344 HD
ENDBRANCH   1   2
BRANCH   1   6
ATOM      6  C   UNL     1      37.874  27.349  36.190  1.00  0.00     0.096 C 
ATOM      7  O   UNL     1      39.069  27.526  36.545  1.00  0.00    -0.544 OA
ATOM      8  O   UNL     1      36.840  27.742  37.030  1.00  0.00    -0.544 OA
ENDBRANCH   1   6
TORSDOF 2
ENDMDL
MODEL 4
REMARK VINA RESULT:    -3.268     17.648     17.883
REMARK INTER + INTRA:          -3.555
REMARK INTER:                  -3.555
REMARK INTRA:                   0.000
REMARK UNBOUND:                 0.000
REMARK SMILES [NH3+]CC(=O)[O-]
REMARK SMILES IDX 2 1 1 2 3 6 4 7 5 8
REMARK H PARENT 1 3 1 4 1 5
REMARK Flexibility Score: inf
ROOT
ATOM      1  C   UNL     1      21.493  29.200  39.018  1.00  0.00     0.312 C 
ENDROOT
BRANCH   1   2
ATOM      2  N   UNL     1      21.856  29.990  40.193  1.00  0.00    -0.353 N 
ATOM      3  H   UNL     1      22.710  30.562  39.992  1.00  0.00     0.344 HD
ATOM      4  H   UNL     1      22.062  29.345  40.990  1.00  0.00     0.344 HD
ATOM      5  H   UNL     1      21.066  30.620  40.462  1.00  0.00     0.344 HD
ENDBRANCH   1   2
BRANCH   1   6
ATOM      6  C   UNL     1      21.456  27.742  39.353  1.00  0.00     0.096 C 
ATOM      7  O   UNL     1      21.346  27.369  40.550  1.00  0.00    -0.544 OA
ATOM      8  O   UNL     1      21.596  26.794  38.346  1.00  0.00    -0.544 OA
ENDBRANCH   1   6
TORSDOF 2
ENDMDL
MODEL 5
REMARK VINA RESULT:    -3.240     17.880     18.172
REMARK INTER + INTRA:          -3.524
REMARK INTER:                  -3.524
REMARK INTRA:                   0.000
REMARK UNBOUND:                 0.000
REMARK SMILES [NH3+]CC(=O)[O-]
REMARK SMILES IDX 2 1 1 2 3 6 4 7 5 8
REMARK H PARENT 1 3 1 4 1 5
REMARK Flexibility Score: inf
ROOT
ATOM      1  C   UNL     1      20.657  28.031  40.459  1.00  0.00     0.312 C 
ENDROOT
BRANCH   1   2
ATOM      2  N   UNL     1      21.323  27.095  41.363  1.00  0.00    -0.353 N 
ATOM      3  H   UNL     1      22.347  27.309  41.410  1.00  0.00     0.344 HD
ATOM      4  H   UNL     1      21.197  26.122  41.002  1.00  0.00     0.344 HD
ATOM      5  H   UNL     1      20.905  27.159  42.319  1.00  0.00     0.344 HD
ENDBRANCH   1   2
BRANCH   1   6
ATOM      6  C   UNL     1      21.309  28.020  39.112  1.00  0.00     0.096 C 
ATOM      7  O   UNL     1      21.607  29.103  38.543  1.00  0.00    -0.544 OA
ATOM      8  O   UNL     1      21.540  26.814  38.461  1.00  0.00    -0.544 OA
ENDBRANCH   1   6
TORSDOF 2
ENDMDL
MODEL 6
REMARK VINA RESULT:    -3.210      2.344      2.759
REMARK INTER + INTRA:          -3.492
REMARK INTER:                  -3.492
REMARK INTRA:                   0.000
REMARK UNBOUND:                 0.000
REMARK SMILES [NH3+]CC(=O)[O-]
REMARK SMILES IDX 2 1 1 2 3 6 4 7 5 8
REMARK H PARENT 1 3 1 4 1 5
REMARK Flexibility Score: inf
ROOT
ATOM      1  C   UNL     1      37.394  26.242  33.558  1.00  0.00     0.312 C 
ENDROOT
BRANCH   1   2
ATOM      2  N   UNL     1      37.341  27.701  33.619  1.00  0.00    -0.353 N 
ATOM      3  H   UNL     1      37.888  28.046  34.442  1.00  0.00     0.344 HD
ATOM      4  H   UNL     1      36.345  28.003  33.724  1.00  0.00     0.344 HD
ATOM      5  H   UNL     1      37.729  28.112  32.740  1.00  0.00     0.344 HD
ENDBRANCH   1   2
BRANCH   1   6
ATOM      6  C   UNL     1      36.365  25.636  34.461  1.00  0.00     0.096 C 
ATOM      7  O   UNL     1      36.393  25.868  35.698  1.00  0.00    -0.544 OA
ATOM      8  O   UNL     1      35.406  24.774  33.944  1.00  0.00    -0.544 OA
ENDBRANCH   1   6
TORSDOF 2
ENDMDL
MODEL 7
REMARK VINA RESULT:    -3.162      2.897      3.293
REMARK INTER + INTRA:          -3.439
REMARK INTER:                  -3.439
REMARK INTRA:                   0.000
REMARK UNBOUND:                 0.000
REMARK SMILES [NH3+]CC(=O)[O-]
REMARK SMILES IDX 2 1 1 2 3 6 4 7 5 8
REMARK H PARENT 1 3 1 4 1 5
REMARK Flexibility Score: inf
ROOT
ATOM      1  C   UNL     1      34.831  24.907  33.424  1.00  0.00     0.312 C 
ENDROOT
BRANCH   1   2
ATOM      2  N   UNL     1      34.263  25.676  32.319  1.00  0.00    -0.353 N 
ATOM      3  H   UNL     1      34.520  25.236  31.405  1.00  0.00     0.344 HD
ATOM      4  H   UNL     1      34.645  26.649  32.346  1.00  0.00     0.344 HD
ATOM      5  H   UNL     1      33.222  25.718  32.409  1.00  0.00     0.344 HD
ENDBRANCH   1   2
BRANCH   1   6
ATOM      6  C   UNL     1      36.155  25.472  33.835  1.00  0.00     0.096 C 
ATOM      7  O   UNL     1      37.089  25.573  32.996  1.00  0.00    -0.544 OA
ATOM      8  O   UNL     1      36.374  25.840  35.157  1.00  0.00    -0.544 OA
ENDBRANCH   1   6
TORSDOF 2
ENDMDL
MODEL 8
REMARK VINA RESULT:    -3.155     19.221     19.517
REMARK INTER + INTRA:          -3.431
REMARK INTER:                  -3.431
REMARK INTRA:                   0.000
REMARK UNBOUND:                 0.000
REMARK SMILES [NH3+]CC(=O)[O-]
REMARK SMILES IDX 2 1 1 2 3 6 4 7 5 8
REMARK H PARENT 1 3 1 4 1 5
REMARK Flexibility Score: inf
ROOT
ATOM      1  C   UNL     1      19.253  28.609  40.631  1.00  0.00     0.312 C 
ENDROOT
BRANCH   1   2
ATOM      2  N   UNL     1      18.955  29.314  41.875  1.00  0.00    -0.353 N 
ATOM      3  H   UNL     1      17.929  29.517  41.937  1.00  0.00     0.344 HD
ATOM      4  H   UNL     1      19.480  30.218  41.892  1.00  0.00     0.344 HD
ATOM      5  H   UNL     1      19.249  28.736  42.696  1.00  0.00     0.344 HD
ENDBRANCH   1   2
BRANCH   1   6
ATOM      6  C   UNL     1      20.730  28.437  40.461  1.00  0.00     0.096 C 
ATOM      7  O   UNL     1      21.272  27.329  40.713  1.00  0.00    -0.544 OA
ATOM      8  O   UNL     1      21.516  29.515  40.075  1.00  0.00    -0.544 OA
ENDBRANCH   1   6
TORSDOF 2
ENDMDL
MODEL 9
REMARK VINA RESULT:    -3.035     20.805     21.287
REMARK INTER + INTRA:          -3.301
REMARK INTER:                  -3.301
REMARK INTRA:                   0.000
REMARK UNBOUND:                 0.000
REMARK SMILES [NH3+]CC(=O)[O-]
REMARK SMILES IDX 2 1 1 2 3 6 4 7 5 8
REMARK H PARENT 1 3 1 4 1 5
REMARK Flexibility Score: inf
ROOT
ATOM      1  C   UNL     1      21.391  12.466  37.214  1.00  0.00     0.312 C 
ENDROOT
BRANCH   1   2
ATOM      2  N   UNL     1      22.824  12.181  37.169  1.00  0.00    -0.353 N 
ATOM      3  H   UNL     1      23.362  13.067  37.029  1.00  0.00     0.344 HD
ATOM      4  H   UNL     1      23.020  11.535  36.370  1.00  0.00     0.344 HD
ATOM      5  H   UNL     1      23.127  11.721  38.058  1.00  0.00     0.344 HD
ENDBRANCH   1   2
BRANCH   1   6
ATOM      6  C   UNL     1      21.065  13.669  36.386  1.00  0.00     0.096 C 
ATOM      7  O   UNL     1      20.100  13.641  35.578  1.00  0.00    -0.544 OA
ATOM      8  O   UNL     1      21.860  14.806  36.468  1.00  0.00    -0.544 OA
ENDBRANCH   1   6
TORSDOF 2
ENDMDL
