MODEL 1
REMARK VINA RESULT:    88.321      0.000      0.000
REMARK INTER + INTRA:         138.949
REMARK INTER:                 139.954
REMARK INTRA:                  -1.005
REMARK UNBOUND:                -1.005
REMARK SMILES C[C@@H]1O[C@H](OC[C@H]2O[C@H](Oc3cc(O)c4c(c3)O[C@H](c3ccc(O)cc3)CC4=O)[C@H](O)[C@H](O)[C@@H]2O)[C@@H](O)[C@@H](O)[C@@H]1O
REMARK SMILES IDX 7 1 34 2 32 3 30 4 9 5 8 6 6 7 5 8 4 9 1 10 2 11 40 12 3 13
REMARK SMILES IDX 38 14 36 15 41 16 39 18 37 20 35 22 33 24 10 26 11 27 12 28
REMARK SMILES IDX 17 29 13 30 16 31 15 32 18 33 28 34 19 35 29 36 27 37 14 38
REMARK SMILES IDX 20 40 21 41 26 42 22 43 25 44 23 45 24 46 31 48
REMARK H PARENT 41 17 39 19 37 21 35 23 33 25 14 39 24 47 31 49
REMARK Flexibility Score: inf
ROOT
ATOM      1  C   UNL     1     -33.304  29.545 -17.150  1.00  0.00     0.180 C 
ATOM      2  C   UNL     1     -32.684  30.962 -17.093  1.00  0.00     0.177 C 
ATOM      3  C   UNL     1     -33.340  31.869 -18.150  1.00  0.00     0.180 C 
ATOM      4  C   UNL     1     -34.864  31.815 -17.997  1.00  0.00     0.214 C 
ATOM      5  C   UNL     1     -35.363  30.355 -17.958  1.00  0.00     0.339 C 
ATOM      6  O   UNL     1     -34.709  29.600 -16.950  1.00  0.00    -0.332 OA
ENDROOT
BRANCH   1   7
ATOM      7  C   UNL     1     -32.700  28.636 -16.061  1.00  0.00     0.198 C 
BRANCH   7   8
ATOM      8  O   UNL     1     -31.344  28.350 -16.374  1.00  0.00    -0.347 OA
BRANCH   8   9
ATOM      9  C   UNL     1     -30.924  27.087 -15.880  1.00  0.00     0.281 C 
ATOM     10  C   UNL     1     -27.809  25.819 -16.252  1.00  0.00     0.041 C 
ATOM     11  C   UNL     1     -29.278  25.376 -16.318  1.00  0.00     0.150 C 
ATOM     12  C   UNL     1     -29.790  24.762 -14.988  1.00  0.00     0.174 C 
ATOM     13  O   UNL     1     -30.074  26.445 -16.829  1.00  0.00    -0.344 OA
ATOM     14  C   UNL     1     -29.927  25.835 -13.886  1.00  0.00     0.179 C 
ATOM     15  C   UNL     1     -30.307  27.224 -14.462  1.00  0.00     0.202 C 
BRANCH  12  16
ATOM     16  O   UNL     1     -28.934  23.739 -14.545  1.00  0.00    -0.388 OA
ATOM     17  H   UNL     1     -29.309  23.400 -13.692  1.00  0.00     0.211 HD
ENDBRANCH  12  16
BRANCH  14  18
ATOM     18  O   UNL     1     -30.840  25.407 -12.904  1.00  0.00    -0.387 OA
ATOM     19  H   UNL     1     -30.826  26.073 -12.167  1.00  0.00     0.211 HD
ENDBRANCH  14  18
BRANCH  15  20
ATOM     20  O   UNL     1     -31.209  27.878 -13.604  1.00  0.00    -0.385 OA
ATOM     21  H   UNL     1     -31.552  27.201 -12.965  1.00  0.00     0.211 HD
ENDBRANCH  15  20
ENDBRANCH   8   9
ENDBRANCH   7   8
ENDBRANCH   1   7
BRANCH   2  22
ATOM     22  O   UNL     1     -31.299  30.891 -17.326  1.00  0.00    -0.387 OA
ATOM     23  H   UNL     1     -30.962  30.097 -16.832  1.00  0.00     0.211 HD
ENDBRANCH   2  22
BRANCH   3  24
ATOM     24  O   UNL     1     -32.975  31.461 -19.445  1.00  0.00    -0.387 OA
ATOM     25  H   UNL     1     -33.131  30.483 -19.498  1.00  0.00     0.211 HD
ENDBRANCH   3  24
BRANCH   5  26
ATOM     26  O   UNL     1     -35.215  29.724 -19.235  1.00  0.00    -0.462 OA
BRANCH  26  27
ATOM     27  C   UNL     1     -36.255  29.084 -19.920  1.00  0.00     0.130 A 
ATOM     28  C   UNL     1     -36.161  27.742 -20.320  1.00  0.00     0.093 A 
ATOM     29  C   UNL     1     -37.428  29.791 -20.176  1.00  0.00     0.094 A 
ATOM     30  C   UNL     1     -37.215  27.114 -20.993  1.00  0.00     0.133 A 
ATOM     31  C   UNL     1     -38.473  29.200 -20.890  1.00  0.00     0.138 A 
ATOM     32  C   UNL     1     -38.378  27.858 -21.318  1.00  0.00     0.102 A 
ATOM     33  O   UNL     1     -39.616  29.960 -21.175  1.00  0.00    -0.484 OA
ATOM     34  C   UNL     1     -39.529  27.319 -22.088  1.00  0.00     0.174 C 
ATOM     35  C   UNL     1     -40.596  29.543 -22.128  1.00  0.00     0.211 C 
ATOM     36  O   UNL     1     -39.413  26.317 -22.841  1.00  0.00    -0.294 OA
ATOM     37  C   UNL     1     -40.845  28.034 -22.014  1.00  0.00     0.131 C 
BRANCH  30  38
ATOM     38  O   UNL     1     -37.069  25.757 -21.282  1.00  0.00    -0.507 OA
ATOM     39  H   UNL     1     -36.355  25.374 -21.886  1.00  0.00     0.293 HD
ENDBRANCH  30  38
BRANCH  35  40
ATOM     40  C   UNL     1     -41.874  30.322 -21.925  1.00  0.00    -0.007 A 
ATOM     41  C   UNL     1     -42.276  31.291 -22.861  1.00  0.00     0.011 A 
ATOM     42  C   UNL     1     -42.660  30.103 -20.781  1.00  0.00     0.011 A 
ATOM     43  C   UNL     1     -43.457  32.014 -22.667  1.00  0.00     0.046 A 
ATOM     44  C   UNL     1     -43.841  30.827 -20.591  1.00  0.00     0.046 A 
ATOM     45  C   UNL     1     -44.242  31.781 -21.531  1.00  0.00     0.115 A 
BRANCH  45  46
ATOM     46  O   UNL     1     -45.424  32.489 -21.330  1.00  0.00    -0.508 OA
ATOM     47  H   UNL     1     -46.319  32.124 -21.633  1.00  0.00     0.293 HD
ENDBRANCH  45  46
ENDBRANCH  35  40
ENDBRANCH  26  27
ENDBRANCH   5  26
BRANCH   4  48
ATOM     48  O   UNL     1     -35.471  32.513 -19.054  1.00  0.00    -0.384 OA
ATOM     49  H   UNL     1     -36.375  32.782 -18.738  1.00  0.00     0.211 HD
ENDBRANCH   4  48
TORSDOF 14
ENDMDL
MODEL 2
REMARK VINA RESULT:    88.663      5.672      8.439
REMARK INTER + INTRA:         139.490
REMARK INTER:                 140.887
REMARK INTRA:                  -1.397
REMARK UNBOUND:                -1.005
REMARK SMILES C[C@@H]1O[C@H](OC[C@H]2O[C@H](Oc3cc(O)c4c(c3)O[C@H](c3ccc(O)cc3)CC4=O)[C@H](O)[C@H](O)[C@@H]2O)[C@@H](O)[C@@H](O)[C@@H]1O
REMARK SMILES IDX 7 1 34 2 32 3 30 4 9 5 8 6 6 7 5 8 4 9 1 10 2 11 40 12 3 13
REMARK SMILES IDX 38 14 36 15 41 16 39 18 37 20 35 22 33 24 10 26 11 27 12 28
REMARK SMILES IDX 17 29 13 30 16 31 15 32 18 33 28 34 19 35 29 36 27 37 14 38
REMARK SMILES IDX 20 40 21 41 26 42 22 43 25 44 23 45 24 46 31 48
REMARK H PARENT 41 17 39 19 37 21 35 23 33 25 14 39 24 47 31 49
REMARK Flexibility Score: inf
ROOT
ATOM      1  C   UNL     1     -40.404  23.101 -18.091  1.00  0.00     0.180 C 
ATOM      2  C   UNL     1     -40.572  21.565 -17.999  1.00  0.00     0.177 C 
ATOM      3  C   UNL     1     -39.728  20.875 -19.085  1.00  0.00     0.180 C 
ATOM      4  C   UNL     1     -38.284  21.380 -19.011  1.00  0.00     0.214 C 
ATOM      5  C   UNL     1     -38.238  22.923 -19.001  1.00  0.00     0.339 C 
ATOM      6  O   UNL     1     -39.038  23.468 -17.963  1.00  0.00    -0.332 OA
ENDROOT
BRANCH   1   7
ATOM      7  C   UNL     1     -41.197  23.809 -16.975  1.00  0.00     0.198 C 
BRANCH   7   8
ATOM      8  O   UNL     1     -40.298  24.449 -16.080  1.00  0.00    -0.347 OA
BRANCH   8   9
ATOM      9  C   UNL     1     -40.832  24.584 -14.771  1.00  0.00     0.281 C 
ATOM     10  C   UNL     1     -42.576  22.180 -13.151  1.00  0.00     0.041 C 
ATOM     11  C   UNL     1     -42.600  23.698 -13.386  1.00  0.00     0.150 C 
ATOM     12  C   UNL     1     -41.904  24.501 -12.255  1.00  0.00     0.174 C 
ATOM     13  O   UNL     1     -42.123  23.981 -14.702  1.00  0.00    -0.344 OA
ATOM     14  C   UNL     1     -40.374  24.293 -12.273  1.00  0.00     0.179 C 
ATOM     15  C   UNL     1     -39.828  24.067 -13.706  1.00  0.00     0.202 C 
BRANCH  12  16
ATOM     16  O   UNL     1     -42.414  24.139 -10.997  1.00  0.00    -0.388 OA
ATOM     17  H   UNL     1     -41.658  24.185 -10.357  1.00  0.00     0.211 HD
ENDBRANCH  12  16
BRANCH  14  18
ATOM     18  O   UNL     1     -39.732  25.369 -11.631  1.00  0.00    -0.387 OA
ATOM     19  H   UNL     1     -39.312  25.020 -10.801  1.00  0.00     0.211 HD
ENDBRANCH  14  18
BRANCH  15  20
ATOM     20  O   UNL     1     -38.586  24.706 -13.863  1.00  0.00    -0.385 OA
ATOM     21  H   UNL     1     -38.411  24.777 -14.837  1.00  0.00     0.211 HD
ENDBRANCH  15  20
ENDBRANCH   8   9
ENDBRANCH   7   8
ENDBRANCH   1   7
BRANCH   2  22
ATOM     22  O   UNL     1     -41.925  21.219 -18.160  1.00  0.00    -0.387 OA
ATOM     23  H   UNL     1     -42.313  21.129 -17.249  1.00  0.00     0.211 HD
ENDBRANCH   2  22
BRANCH   3  24
ATOM     24  O   UNL     1     -40.260  21.134 -20.361  1.00  0.00    -0.387 OA
ATOM     25  H   UNL     1     -39.653  20.710 -21.022  1.00  0.00     0.211 HD
ENDBRANCH   3  24
BRANCH   5  26
ATOM     26  O   UNL     1     -38.629  23.460 -20.271  1.00  0.00    -0.462 OA
BRANCH  26  27
ATOM     27  C   UNL     1     -38.389  24.779 -20.673  1.00  0.00     0.130 A 
ATOM     28  C   UNL     1     -37.092  25.252 -20.922  1.00  0.00     0.093 A 
ATOM     29  C   UNL     1     -39.475  25.632 -20.864  1.00  0.00     0.094 A 
ATOM     30  C   UNL     1     -36.872  26.571 -21.334  1.00  0.00     0.133 A 
ATOM     31  C   UNL     1     -39.275  26.966 -21.227  1.00  0.00     0.138 A 
ATOM     32  C   UNL     1     -37.972  27.458 -21.458  1.00  0.00     0.102 A 
ATOM     33  O   UNL     1     -40.388  27.808 -21.358  1.00  0.00    -0.484 OA
ATOM     34  C   UNL     1     -37.853  28.894 -21.820  1.00  0.00     0.174 C 
ATOM     35  C   UNL     1     -40.269  29.230 -21.443  1.00  0.00     0.211 C 
ATOM     36  O   UNL     1     -36.779  29.532 -21.665  1.00  0.00    -0.294 OA
ATOM     37  C   UNL     1     -39.070  29.615 -22.319  1.00  0.00     0.131 C 
BRANCH  30  38
ATOM     38  O   UNL     1     -35.559  26.933 -21.639  1.00  0.00    -0.507 OA
ATOM     39  H   UNL     1     -35.218  27.885 -21.658  1.00  0.00     0.293 HD
ENDBRANCH  30  38
BRANCH  35  40
ATOM     40  C   UNL     1     -41.549  29.822 -21.982  1.00  0.00    -0.007 A 
ATOM     41  C   UNL     1     -41.855  29.735 -23.352  1.00  0.00     0.011 A 
ATOM     42  C   UNL     1     -42.436  30.491 -21.121  1.00  0.00     0.011 A 
ATOM     43  C   UNL     1     -43.038  30.290 -23.848  1.00  0.00     0.046 A 
ATOM     44  C   UNL     1     -43.618  31.042 -21.620  1.00  0.00     0.046 A 
ATOM     45  C   UNL     1     -43.923  30.942 -22.982  1.00  0.00     0.115 A 
BRANCH  45  46
ATOM     46  O   UNL     1     -45.108  31.492 -23.462  1.00  0.00    -0.508 OA
ATOM     47  H   UNL     1     -45.170  31.885 -24.395  1.00  0.00     0.293 HD
ENDBRANCH  45  46
ENDBRANCH  35  40
ENDBRANCH  26  27
ENDBRANCH   5  26
BRANCH   4  48
ATOM     48  O   UNL     1     -37.548  20.875 -20.096  1.00  0.00    -0.384 OA
ATOM     49  H   UNL     1     -36.600  21.133 -19.944  1.00  0.00     0.211 HD
ENDBRANCH   4  48
TORSDOF 14
ENDMDL
MODEL 3
REMARK VINA RESULT:    91.113      0.659      1.674
REMARK INTER + INTRA:         143.372
REMARK INTER:                 143.920
REMARK INTRA:                  -0.548
REMARK UNBOUND:                -1.005
REMARK SMILES C[C@@H]1O[C@H](OC[C@H]2O[C@H](Oc3cc(O)c4c(c3)O[C@H](c3ccc(O)cc3)CC4=O)[C@H](O)[C@H](O)[C@@H]2O)[C@@H](O)[C@@H](O)[C@@H]1O
REMARK SMILES IDX 7 1 34 2 32 3 30 4 9 5 8 6 6 7 5 8 4 9 1 10 2 11 40 12 3 13
REMARK SMILES IDX 38 14 36 15 41 16 39 18 37 20 35 22 33 24 10 26 11 27 12 28
REMARK SMILES IDX 17 29 13 30 16 31 15 32 18 33 28 34 19 35 29 36 27 37 14 38
REMARK SMILES IDX 20 40 21 41 26 42 22 43 25 44 23 45 24 46 31 48
REMARK H PARENT 41 17 39 19 37 21 35 23 33 25 14 39 24 47 31 49
REMARK Flexibility Score: inf
ROOT
ATOM      1  C   UNL     1     -33.204  29.348 -17.160  1.00  0.00     0.180 C 
ATOM      2  C   UNL     1     -32.546  30.742 -17.028  1.00  0.00     0.177 C 
ATOM      3  C   UNL     1     -33.186  31.725 -18.025  1.00  0.00     0.180 C 
ATOM      4  C   UNL     1     -34.709  31.703 -17.861  1.00  0.00     0.214 C 
ATOM      5  C   UNL     1     -35.247  30.257 -17.900  1.00  0.00     0.339 C 
ATOM      6  O   UNL     1     -34.606  29.428 -16.944  1.00  0.00    -0.332 OA
ENDROOT
BRANCH   1   7
ATOM      7  C   UNL     1     -32.617  28.362 -16.130  1.00  0.00     0.198 C 
BRANCH   7   8
ATOM      8  O   UNL     1     -31.299  28.762 -15.783  1.00  0.00    -0.347 OA
BRANCH   8   9
ATOM      9  C   UNL     1     -30.410  27.662 -15.652  1.00  0.00     0.281 C 
ATOM     10  C   UNL     1     -30.838  25.093 -13.492  1.00  0.00     0.041 C 
ATOM     11  C   UNL     1     -29.728  26.008 -14.030  1.00  0.00     0.150 C 
ATOM     12  C   UNL     1     -28.952  25.387 -15.222  1.00  0.00     0.174 C 
ATOM     13  O   UNL     1     -30.263  27.309 -14.277  1.00  0.00    -0.344 OA
ATOM     14  C   UNL     1     -29.826  25.320 -16.493  1.00  0.00     0.179 C 
ATOM     15  C   UNL     1     -30.843  26.488 -16.570  1.00  0.00     0.202 C 
BRANCH  12  16
ATOM     16  O   UNL     1     -28.487  24.100 -14.901  1.00  0.00    -0.388 OA
ATOM     17  H   UNL     1     -28.647  23.971 -13.931  1.00  0.00     0.211 HD
ENDBRANCH  12  16
BRANCH  14  18
ATOM     18  O   UNL     1     -29.010  25.258 -17.639  1.00  0.00    -0.387 OA
ATOM     19  H   UNL     1     -29.580  24.974 -18.401  1.00  0.00     0.211 HD
ENDBRANCH  14  18
BRANCH  15  20
ATOM     20  O   UNL     1     -30.974  26.935 -17.896  1.00  0.00    -0.385 OA
ATOM     21  H   UNL     1     -30.920  27.926 -17.880  1.00  0.00     0.211 HD
ENDBRANCH  15  20
ENDBRANCH   8   9
ENDBRANCH   7   8
ENDBRANCH   1   7
BRANCH   2  22
ATOM     22  O   UNL     1     -31.165  30.648 -17.277  1.00  0.00    -0.387 OA
ATOM     23  H   UNL     1     -30.795  31.569 -17.214  1.00  0.00     0.211 HD
ENDBRANCH   2  22
BRANCH   3  24
ATOM     24  O   UNL     1     -32.842  31.382 -19.345  1.00  0.00    -0.387 OA
ATOM     25  H   UNL     1     -32.689  32.230 -19.836  1.00  0.00     0.211 HD
ENDBRANCH   3  24
BRANCH   5  26
ATOM     26  O   UNL     1     -35.126  29.696 -19.213  1.00  0.00    -0.462 OA
BRANCH  26  27
ATOM     27  C   UNL     1     -36.169  29.055 -19.892  1.00  0.00     0.130 A 
ATOM     28  C   UNL     1     -36.079  27.712 -20.287  1.00  0.00     0.093 A 
ATOM     29  C   UNL     1     -37.342  29.764 -20.149  1.00  0.00     0.094 A 
ATOM     30  C   UNL     1     -37.136  27.083 -20.954  1.00  0.00     0.133 A 
ATOM     31  C   UNL     1     -38.390  29.173 -20.858  1.00  0.00     0.138 A 
ATOM     32  C   UNL     1     -38.299  27.828 -21.279  1.00  0.00     0.102 A 
ATOM     33  O   UNL     1     -39.531  29.933 -21.143  1.00  0.00    -0.484 OA
ATOM     34  C   UNL     1     -39.452  27.288 -22.044  1.00  0.00     0.174 C 
ATOM     35  C   UNL     1     -40.515  29.514 -22.092  1.00  0.00     0.211 C 
ATOM     36  O   UNL     1     -39.341  26.282 -22.793  1.00  0.00    -0.294 OA
ATOM     37  C   UNL     1     -40.767  28.006 -21.970  1.00  0.00     0.131 C 
BRANCH  30  38
ATOM     38  O   UNL     1     -36.994  25.724 -21.237  1.00  0.00    -0.507 OA
ATOM     39  H   UNL     1     -36.292  25.125 -20.825  1.00  0.00     0.293 HD
ENDBRANCH  30  38
BRANCH  35  40
ATOM     40  C   UNL     1     -41.790  30.297 -21.889  1.00  0.00    -0.007 A 
ATOM     41  C   UNL     1     -42.587  30.082 -20.750  1.00  0.00     0.011 A 
ATOM     42  C   UNL     1     -42.208  31.229 -22.854  1.00  0.00     0.011 A 
ATOM     43  C   UNL     1     -43.770  30.805 -20.568  1.00  0.00     0.046 A 
ATOM     44  C   UNL     1     -43.391  31.951 -22.668  1.00  0.00     0.046 A 
ATOM     45  C   UNL     1     -44.172  31.742 -21.527  1.00  0.00     0.115 A 
BRANCH  45  46
ATOM     46  O   UNL     1     -45.345  32.473 -21.355  1.00  0.00    -0.508 OA
ATOM     47  H   UNL     1     -45.993  32.622 -22.119  1.00  0.00     0.293 HD
ENDBRANCH  45  46
ENDBRANCH  35  40
ENDBRANCH  26  27
ENDBRANCH   5  26
BRANCH   4  48
ATOM     48  O   UNL     1     -35.305  32.476 -18.871  1.00  0.00    -0.384 OA
ATOM     49  H   UNL     1     -35.053  32.061 -19.737  1.00  0.00     0.211 HD
ENDBRANCH   4  48
TORSDOF 14
ENDMDL
