MODEL 1
REMARK VINA RESULT:    -5.450      0.000      0.000
REMARK INTER + INTRA:          -6.307
REMARK INTER:                  -6.087
REMARK INTRA:                  -0.220
REMARK UNBOUND:                -0.220
REMARK SMILES CC(C)c1ccc(C(=O)[O-])cc1
REMARK SMILES IDX 7 1 6 2 11 3 5 4 12 5 4 6 8 7 9 8 10 9 2 10 1 11 3 12
REMARK H PARENT
REMARK Flexibility Score: inf
ROOT
ATOM      1  C   UNL     1      13.144 -30.950  22.600  1.00  0.00    -0.003 A 
ATOM      2  C   UNL     1      13.155 -31.302  21.240  1.00  0.00     0.010 A 
ATOM      3  C   UNL     1      13.888 -31.722  23.508  1.00  0.00     0.010 A 
ATOM      4  C   UNL     1      13.895 -32.402  20.797  1.00  0.00     0.004 A 
ATOM      5  C   UNL     1      14.628 -32.822  23.066  1.00  0.00     0.004 A 
ATOM      6  C   UNL     1      14.640 -33.175  21.703  1.00  0.00    -0.045 A 
ENDROOT
BRANCH   1   7
ATOM      7  C   UNL     1      12.359 -29.786  23.065  1.00  0.00     0.071 C 
ATOM      8  O   UNL     1      11.346 -29.398  22.425  1.00  0.00    -0.545 OA
ATOM      9  O   UNL     1      12.729 -29.102  24.218  1.00  0.00    -0.545 OA
ENDBRANCH   1   7
BRANCH   6  10
ATOM     10  C   UNL     1      15.438 -34.366  21.208  1.00  0.00     0.013 C 
ATOM     11  C   UNL     1      15.696 -34.270  19.700  1.00  0.00     0.012 C 
ATOM     12  C   UNL     1      16.752 -34.511  21.984  1.00  0.00     0.012 C 
ENDBRANCH   6  10
TORSDOF 2
ENDMDL
MODEL 2
REMARK VINA RESULT:    -5.414      0.084      1.400
REMARK INTER + INTRA:          -6.267
REMARK INTER:                  -6.047
REMARK INTRA:                  -0.219
REMARK UNBOUND:                -0.220
REMARK SMILES CC(C)c1ccc(C(=O)[O-])cc1
REMARK SMILES IDX 7 1 6 2 11 3 5 4 12 5 4 6 8 7 9 8 10 9 2 10 1 11 3 12
REMARK H PARENT
REMARK Flexibility Score: inf
ROOT
ATOM      1  C   UNL     1      13.116 -30.977  22.554  1.00  0.00    -0.003 A 
ATOM      2  C   UNL     1      13.850 -31.731  23.484  1.00  0.00     0.010 A 
ATOM      3  C   UNL     1      13.168 -31.336  21.196  1.00  0.00     0.010 A 
ATOM      4  C   UNL     1      14.617 -32.822  23.068  1.00  0.00     0.004 A 
ATOM      5  C   UNL     1      13.935 -32.427  20.779  1.00  0.00     0.004 A 
ATOM      6  C   UNL     1      14.670 -33.183  21.711  1.00  0.00    -0.045 A 
ENDROOT
BRANCH   1   7
ATOM      7  C   UNL     1      12.305 -29.823  22.999  1.00  0.00     0.071 C 
ATOM      8  O   UNL     1      11.292 -29.460  22.343  1.00  0.00    -0.545 OA
ATOM      9  O   UNL     1      12.649 -29.122  24.149  1.00  0.00    -0.545 OA
ENDBRANCH   1   7
BRANCH   6  10
ATOM     10  C   UNL     1      15.508 -34.369  21.273  1.00  0.00     0.013 C 
ATOM     11  C   UNL     1      15.776 -34.329  19.764  1.00  0.00     0.012 C 
ATOM     12  C   UNL     1      16.819 -34.441  22.064  1.00  0.00     0.012 C 
ENDBRANCH   6  10
TORSDOF 2
ENDMDL
MODEL 3
REMARK VINA RESULT:    -5.400      3.200      5.062
REMARK INTER + INTRA:          -6.251
REMARK INTER:                  -6.035
REMARK INTRA:                  -0.217
REMARK UNBOUND:                -0.220
REMARK SMILES CC(C)c1ccc(C(=O)[O-])cc1
REMARK SMILES IDX 7 1 6 2 11 3 5 4 12 5 4 6 8 7 9 8 10 9 2 10 1 11 3 12
REMARK H PARENT
REMARK Flexibility Score: inf
ROOT
ATOM      1  C   UNL     1      14.958 -33.507  21.494  1.00  0.00    -0.003 A 
ATOM      2  C   UNL     1      14.185 -32.855  20.520  1.00  0.00     0.010 A 
ATOM      3  C   UNL     1      14.975 -32.997  22.803  1.00  0.00     0.010 A 
ATOM      4  C   UNL     1      13.443 -31.716  20.846  1.00  0.00     0.004 A 
ATOM      5  C   UNL     1      14.234 -31.858  23.130  1.00  0.00     0.004 A 
ATOM      6  C   UNL     1      13.459 -31.204  22.154  1.00  0.00    -0.045 A 
ENDROOT
BRANCH   1   7
ATOM      7  C   UNL     1      15.741 -34.712  21.143  1.00  0.00     0.071 C 
ATOM      8  O   UNL     1      16.682 -35.102  21.884  1.00  0.00    -0.545 OA
ATOM      9  O   UNL     1      15.449 -35.432  19.990  1.00  0.00    -0.545 OA
ENDBRANCH   1   7
BRANCH   6  10
ATOM     10  C   UNL     1      12.649 -29.967  22.495  1.00  0.00     0.013 C 
ATOM     11  C   UNL     1      11.169 -30.161  22.144  1.00  0.00     0.012 C 
ATOM     12  C   UNL     1      12.821 -29.583  23.969  1.00  0.00     0.012 C 
ENDBRANCH   6  10
TORSDOF 2
ENDMDL
MODEL 4
REMARK VINA RESULT:    -5.151      3.477      5.333
REMARK INTER + INTRA:          -5.973
REMARK INTER:                  -5.763
REMARK INTRA:                  -0.210
REMARK UNBOUND:                -0.220
REMARK SMILES CC(C)c1ccc(C(=O)[O-])cc1
REMARK SMILES IDX 7 1 6 2 11 3 5 4 12 5 4 6 8 7 9 8 10 9 2 10 1 11 3 12
REMARK H PARENT
REMARK Flexibility Score: inf
ROOT
ATOM      1  C   UNL     1      15.350 -33.978  21.420  1.00  0.00    -0.003 A 
ATOM      2  C   UNL     1      15.371 -33.700  22.796  1.00  0.00     0.010 A 
ATOM      3  C   UNL     1      14.557 -33.180  20.577  1.00  0.00     0.010 A 
ATOM      4  C   UNL     1      14.617 -32.647  23.321  1.00  0.00     0.004 A 
ATOM      5  C   UNL     1      13.802 -32.126  21.101  1.00  0.00     0.004 A 
ATOM      6  C   UNL     1      13.824 -31.847  22.480  1.00  0.00    -0.045 A 
ENDROOT
BRANCH   1   7
ATOM      7  C   UNL     1      16.149 -35.094  20.869  1.00  0.00     0.071 C 
ATOM      8  O   UNL     1      15.813 -35.652  19.791  1.00  0.00    -0.545 OA
ATOM      9  O   UNL     1      17.285 -35.542  21.534  1.00  0.00    -0.545 OA
ENDBRANCH   1   7
BRANCH   6  10
ATOM     10  C   UNL     1      13.010 -30.707  23.063  1.00  0.00     0.013 C 
ATOM     11  C   UNL     1      13.899 -29.498  23.378  1.00  0.00     0.012 C 
ATOM     12  C   UNL     1      11.859 -30.317  22.130  1.00  0.00     0.012 C 
ENDBRANCH   6  10
TORSDOF 2
ENDMDL
MODEL 5
REMARK VINA RESULT:    -5.035      1.941      2.543
REMARK INTER + INTRA:          -5.843
REMARK INTER:                  -5.643
REMARK INTRA:                  -0.201
REMARK UNBOUND:                -0.220
REMARK SMILES CC(C)c1ccc(C(=O)[O-])cc1
REMARK SMILES IDX 7 1 6 2 11 3 5 4 12 5 4 6 8 7 9 8 10 9 2 10 1 11 3 12
REMARK H PARENT
REMARK Flexibility Score: inf
ROOT
ATOM      1  C   UNL     1      13.781 -30.586  23.711  1.00  0.00    -0.003 A 
ATOM      2  C   UNL     1      15.122 -30.283  23.423  1.00  0.00     0.010 A 
ATOM      3  C   UNL     1      13.446 -31.897  24.090  1.00  0.00     0.010 A 
ATOM      4  C   UNL     1      16.108 -31.269  23.512  1.00  0.00     0.004 A 
ATOM      5  C   UNL     1      14.431 -32.884  24.179  1.00  0.00     0.004 A 
ATOM      6  C   UNL     1      15.775 -32.581  23.890  1.00  0.00    -0.045 A 
ENDROOT
BRANCH   1   7
ATOM      7  C   UNL     1      12.741 -29.539  23.616  1.00  0.00     0.071 C 
ATOM      8  O   UNL     1      11.885 -29.568  22.693  1.00  0.00    -0.545 OA
ATOM      9  O   UNL     1      12.692 -28.506  24.546  1.00  0.00    -0.545 OA
ENDBRANCH   1   7
BRANCH   6  10
ATOM     10  C   UNL     1      16.856 -33.642  23.982  1.00  0.00     0.013 C 
ATOM     11  C   UNL     1      16.719 -34.460  25.272  1.00  0.00     0.012 C 
ATOM     12  C   UNL     1      16.843 -34.552  22.749  1.00  0.00     0.012 C 
ENDBRANCH   6  10
TORSDOF 2
ENDMDL
MODEL 6
REMARK VINA RESULT:    -5.015      3.853      5.364
REMARK INTER + INTRA:          -5.821
REMARK INTER:                  -5.600
REMARK INTRA:                  -0.221
REMARK UNBOUND:                -0.220
REMARK SMILES CC(C)c1ccc(C(=O)[O-])cc1
REMARK SMILES IDX 7 1 6 2 11 3 5 4 12 5 4 6 8 7 9 8 10 9 2 10 1 11 3 12
REMARK H PARENT
REMARK Flexibility Score: inf
ROOT
ATOM      1  C   UNL     1      15.897 -34.624  20.936  1.00  0.00    -0.003 A 
ATOM      2  C   UNL     1      14.917 -33.999  20.147  1.00  0.00     0.010 A 
ATOM      3  C   UNL     1      16.181 -34.101  22.208  1.00  0.00     0.010 A 
ATOM      4  C   UNL     1      14.235 -32.875  20.621  1.00  0.00     0.004 A 
ATOM      5  C   UNL     1      15.500 -32.977  22.683  1.00  0.00     0.004 A 
ATOM      6  C   UNL     1      14.518 -32.350  21.893  1.00  0.00    -0.045 A 
ENDROOT
BRANCH   1   7
ATOM      7  C   UNL     1      16.616 -35.813  20.431  1.00  0.00     0.071 C 
ATOM      8  O   UNL     1      16.373 -36.271  19.283  1.00  0.00    -0.545 OA
ATOM      9  O   UNL     1      17.575 -36.444  21.217  1.00  0.00    -0.545 OA
ENDBRANCH   1   7
BRANCH   6  10
ATOM     10  C   UNL     1      13.770 -31.129  22.394  1.00  0.00     0.013 C 
ATOM     11  C   UNL     1      12.453 -30.936  21.633  1.00  0.00     0.012 C 
ATOM     12  C   UNL     1      13.526 -31.212  23.905  1.00  0.00     0.012 C 
ENDBRANCH   6  10
TORSDOF 2
ENDMDL
MODEL 7
REMARK VINA RESULT:    -4.977      1.780      2.629
REMARK INTER + INTRA:          -5.779
REMARK INTER:                  -5.573
REMARK INTRA:                  -0.206
REMARK UNBOUND:                -0.220
REMARK SMILES CC(C)c1ccc(C(=O)[O-])cc1
REMARK SMILES IDX 7 1 6 2 11 3 5 4 12 5 4 6 8 7 9 8 10 9 2 10 1 11 3 12
REMARK H PARENT
REMARK Flexibility Score: inf
ROOT
ATOM      1  C   UNL     1      14.614 -32.861  22.428  1.00  0.00    -0.003 A 
ATOM      2  C   UNL     1      14.254 -32.871  21.071  1.00  0.00     0.010 A 
ATOM      3  C   UNL     1      15.692 -33.657  22.852  1.00  0.00     0.010 A 
ATOM      4  C   UNL     1      14.956 -33.659  20.155  1.00  0.00     0.004 A 
ATOM      5  C   UNL     1      16.394 -34.446  21.937  1.00  0.00     0.004 A 
ATOM      6  C   UNL     1      16.033 -34.457  20.576  1.00  0.00    -0.045 A 
ENDROOT
BRANCH   1   7
ATOM      7  C   UNL     1      13.869 -32.025  23.394  1.00  0.00     0.071 C 
ATOM      8  O   UNL     1      13.619 -32.451  24.553  1.00  0.00    -0.545 OA
ATOM      9  O   UNL     1      13.432 -30.754  23.036  1.00  0.00    -0.545 OA
ENDBRANCH   1   7
BRANCH   6  10
ATOM     10  C   UNL     1      16.786 -35.308  19.572  1.00  0.00     0.013 C 
ATOM     11  C   UNL     1      18.086 -34.625  19.132  1.00  0.00     0.012 C 
ATOM     12  C   UNL     1      17.061 -36.709  20.130  1.00  0.00     0.012 C 
ENDBRANCH   6  10
TORSDOF 2
ENDMDL
MODEL 8
REMARK VINA RESULT:    -4.953      3.863      5.234
REMARK INTER + INTRA:          -5.752
REMARK INTER:                  -5.551
REMARK INTRA:                  -0.201
REMARK UNBOUND:                -0.220
REMARK SMILES CC(C)c1ccc(C(=O)[O-])cc1
REMARK SMILES IDX 7 1 6 2 11 3 5 4 12 5 4 6 8 7 9 8 10 9 2 10 1 11 3 12
REMARK H PARENT
REMARK Flexibility Score: inf
ROOT
ATOM      1  C   UNL     1      15.784 -33.129  24.184  1.00  0.00    -0.003 A 
ATOM      2  C   UNL     1      16.323 -31.930  23.691  1.00  0.00     0.010 A 
ATOM      3  C   UNL     1      14.388 -33.251  24.299  1.00  0.00     0.010 A 
ATOM      4  C   UNL     1      15.486 -30.874  23.318  1.00  0.00     0.004 A 
ATOM      5  C   UNL     1      13.550 -32.195  23.927  1.00  0.00     0.004 A 
ATOM      6  C   UNL     1      14.091 -30.994  23.433  1.00  0.00    -0.045 A 
ENDROOT
BRANCH   1   7
ATOM      7  C   UNL     1      16.673 -34.244  24.577  1.00  0.00     0.071 C 
ATOM      8  O   UNL     1      17.250 -34.942  23.702  1.00  0.00    -0.545 OA
ATOM      9  O   UNL     1      16.885 -34.536  25.920  1.00  0.00    -0.545 OA
ENDBRANCH   1   7
BRANCH   6  10
ATOM     10  C   UNL     1      13.194 -29.840  23.026  1.00  0.00     0.013 C 
ATOM     11  C   UNL     1      11.991 -30.334  22.213  1.00  0.00     0.012 C 
ATOM     12  C   UNL     1      12.740 -29.035  24.248  1.00  0.00     0.012 C 
ENDBRANCH   6  10
TORSDOF 2
ENDMDL
