MODEL 1
REMARK VINA RESULT:    -4.900      0.000      0.000
REMARK INTER + INTRA:         -11.166
REMARK INTER:                  -8.911
REMARK INTRA:                  -2.255
REMARK UNBOUND:                -2.255
REMARK SMILES CCCCCCCCCCCCCC[C@@H](C)C(=O)[O-]
REMARK SMILES IDX 9 1 10 2 11 3 12 4 13 5 14 6 15 7 16 8 17 9 18 10 19 11 8 12
REMARK SMILES IDX 7 13 6 14 5 15 4 16 3 17 2 18 1 19
REMARK H PARENT
REMARK Flexibility Score: inf
ROOT
ATOM      1  C   UNL     1    -105.118 -87.795  36.714  1.00  0.00     0.000 C 
ENDROOT
BRANCH   1   2
ATOM      2  C   UNL     1    -105.838 -87.471  35.393  1.00  0.00     0.000 C 
BRANCH   2   3
ATOM      3  C   UNL     1    -105.121 -86.445  34.494  1.00  0.00     0.000 C 
BRANCH   3   4
ATOM      4  C   UNL     1    -105.859 -85.102  34.314  1.00  0.00     0.000 C 
BRANCH   4   5
ATOM      5  C   UNL     1    -104.962 -83.852  34.375  1.00  0.00     0.001 C 
BRANCH   5   6
ATOM      6  C   UNL     1    -104.642 -83.417  35.817  1.00  0.00     0.009 C 
BRANCH   6   7
ATOM      7  C   UNL     1    -103.145 -83.095  36.006  1.00  0.00     0.032 C 
ATOM      8  C   UNL     1    -102.286 -84.330  35.711  1.00  0.00     0.014 C 
BRANCH   7   9
ATOM      9  C   UNL     1    -102.713 -81.956  35.121  1.00  0.00     0.044 C 
ATOM     10  O   UNL     1    -102.935 -80.767  35.470  1.00  0.00    -0.550 OA
ATOM     11  O   UNL     1    -102.064 -82.207  33.918  1.00  0.00    -0.550 OA
ENDBRANCH   7   9
ENDBRANCH   6   7
ENDBRANCH   5   6
ENDBRANCH   4   5
ENDBRANCH   3   4
ENDBRANCH   2   3
ENDBRANCH   1   2
BRANCH   1  12
ATOM     12  C   UNL     1    -105.057 -86.594  37.669  1.00  0.00     0.000 C 
BRANCH  12  13
ATOM     13  C   UNL     1    -103.750 -86.595  38.471  1.00  0.00    -0.000 C 
BRANCH  13  14
ATOM     14  C   UNL     1    -103.783 -85.533  39.580  1.00  0.00    -0.000 C 
BRANCH  14  15
ATOM     15  C   UNL     1    -105.133 -84.800  39.653  1.00  0.00    -0.000 C 
BRANCH  15  16
ATOM     16  C   UNL     1    -104.985 -83.274  39.531  1.00  0.00    -0.000 C 
BRANCH  16  17
ATOM     17  C   UNL     1    -103.554 -82.800  39.868  1.00  0.00    -0.000 C 
BRANCH  17  18
ATOM     18  C   UNL     1    -103.467 -81.302  40.204  1.00  0.00    -0.003 C 
ATOM     19  C   UNL     1    -103.220 -80.425  38.979  1.00  0.00     0.004 C 
ENDBRANCH  17  18
ENDBRANCH  16  17
ENDBRANCH  15  16
ENDBRANCH  14  15
ENDBRANCH  13  14
ENDBRANCH  12  13
ENDBRANCH   1  12
TORSDOF 14
ENDMDL
MODEL 2
REMARK VINA RESULT:    -4.813      1.628      4.602
REMARK INTER + INTRA:         -11.008
REMARK INTER:                  -8.670
REMARK INTRA:                  -2.338
REMARK UNBOUND:                -2.255
REMARK SMILES CCCCCCCCCCCCCC[C@@H](C)C(=O)[O-]
REMARK SMILES IDX 9 1 10 2 11 3 12 4 13 5 14 6 15 7 16 8 17 9 18 10 19 11 8 12
REMARK SMILES IDX 7 13 6 14 5 15 4 16 3 17 2 18 1 19
REMARK H PARENT
REMARK Flexibility Score: inf
ROOT
ATOM      1  C   UNL     1    -105.460 -86.251  36.441  1.00  0.00     0.000 C 
ENDROOT
BRANCH   1   2
ATOM      2  C   UNL     1    -104.779 -87.142  37.495  1.00  0.00     0.000 C 
BRANCH   2   3
ATOM      3  C   UNL     1    -103.811 -86.406  38.444  1.00  0.00     0.000 C 
BRANCH   3   4
ATOM      4  C   UNL     1    -104.411 -85.999  39.806  1.00  0.00     0.000 C 
BRANCH   4   5
ATOM      5  C   UNL     1    -105.261 -84.716  39.787  1.00  0.00     0.001 C 
BRANCH   5   6
ATOM      6  C   UNL     1    -104.668 -83.621  38.882  1.00  0.00     0.009 C 
BRANCH   6   7
ATOM      7  C   UNL     1    -104.363 -82.326  39.664  1.00  0.00     0.032 C 
ATOM      8  C   UNL     1    -102.870 -82.241  40.004  1.00  0.00     0.014 C 
BRANCH   7   9
ATOM      9  C   UNL     1    -104.775 -81.105  38.885  1.00  0.00     0.044 C 
ATOM     10  O   UNL     1    -105.986 -80.920  38.597  1.00  0.00    -0.550 OA
ATOM     11  O   UNL     1    -103.824 -80.174  38.484  1.00  0.00    -0.550 OA
ENDBRANCH   7   9
ENDBRANCH   6   7
ENDBRANCH   5   6
ENDBRANCH   4   5
ENDBRANCH   3   4
ENDBRANCH   2   3
ENDBRANCH   1   2
BRANCH   1  12
ATOM     12  C   UNL     1    -105.425 -86.862  35.032  1.00  0.00     0.000 C 
BRANCH  12  13
ATOM     13  C   UNL     1    -104.901 -85.849  34.007  1.00  0.00    -0.000 C 
BRANCH  13  14
ATOM     14  C   UNL     1    -105.775 -84.587  33.984  1.00  0.00    -0.000 C 
BRANCH  14  15
ATOM     15  C   UNL     1    -104.943 -83.295  33.952  1.00  0.00    -0.000 C 
BRANCH  15  16
ATOM     16  C   UNL     1    -104.628 -82.759  35.359  1.00  0.00    -0.000 C 
BRANCH  16  17
ATOM     17  C   UNL     1    -103.109 -82.663  35.618  1.00  0.00    -0.000 C 
BRANCH  17  18
ATOM     18  C   UNL     1    -102.457 -84.014  35.958  1.00  0.00    -0.003 C 
ATOM     19  C   UNL     1    -101.575 -84.554  34.834  1.00  0.00     0.004 C 
ENDBRANCH  17  18
ENDBRANCH  16  17
ENDBRANCH  15  16
ENDBRANCH  14  15
ENDBRANCH  13  14
ENDBRANCH  12  13
ENDBRANCH   1  12
TORSDOF 14
ENDMDL
MODEL 3
REMARK VINA RESULT:    -4.809      2.356      3.462
REMARK INTER + INTRA:         -11.000
REMARK INTER:                  -8.847
REMARK INTRA:                  -2.153
REMARK UNBOUND:                -2.255
REMARK SMILES CCCCCCCCCCCCCC[C@@H](C)C(=O)[O-]
REMARK SMILES IDX 9 1 10 2 11 3 12 4 13 5 14 6 15 7 16 8 17 9 18 10 19 11 8 12
REMARK SMILES IDX 7 13 6 14 5 15 4 16 3 17 2 18 1 19
REMARK H PARENT
REMARK Flexibility Score: inf
ROOT
ATOM      1  C   UNL     1    -105.095 -86.847  37.631  1.00  0.00     0.000 C 
ENDROOT
BRANCH   1   2
ATOM      2  C   UNL     1    -104.948 -87.656  36.330  1.00  0.00     0.000 C 
BRANCH   2   3
ATOM      3  C   UNL     1    -105.757 -87.118  35.133  1.00  0.00     0.000 C 
BRANCH   3   4
ATOM      4  C   UNL     1    -105.543 -85.623  34.815  1.00  0.00     0.000 C 
BRANCH   4   5
ATOM      5  C   UNL     1    -104.662 -85.338  33.585  1.00  0.00     0.001 C 
BRANCH   5   6
ATOM      6  C   UNL     1    -104.907 -83.941  32.987  1.00  0.00     0.009 C 
BRANCH   6   7
ATOM      7  C   UNL     1    -106.197 -83.294  33.533  1.00  0.00     0.032 C 
ATOM      8  C   UNL     1    -105.941 -81.839  33.941  1.00  0.00     0.014 C 
BRANCH   7   9
ATOM      9  C   UNL     1    -107.308 -83.348  32.519  1.00  0.00     0.044 C 
ATOM     10  O   UNL     1    -107.188 -82.749  31.419  1.00  0.00    -0.550 OA
ATOM     11  O   UNL     1    -108.470 -84.062  32.788  1.00  0.00    -0.550 OA
ENDBRANCH   7   9
ENDBRANCH   6   7
ENDBRANCH   5   6
ENDBRANCH   4   5
ENDBRANCH   3   4
ENDBRANCH   2   3
ENDBRANCH   1   2
BRANCH   1  12
ATOM     12  C   UNL     1    -103.870 -86.968  38.549  1.00  0.00     0.000 C 
BRANCH  12  13
ATOM     13  C   UNL     1    -103.844 -85.835  39.582  1.00  0.00    -0.000 C 
BRANCH  13  14
ATOM     14  C   UNL     1    -105.175 -85.069  39.592  1.00  0.00    -0.000 C 
BRANCH  14  15
ATOM     15  C   UNL     1    -104.978 -83.546  39.661  1.00  0.00    -0.000 C 
BRANCH  15  16
ATOM     16  C   UNL     1    -104.793 -82.910  38.272  1.00  0.00    -0.000 C 
BRANCH  16  17
ATOM     17  C   UNL     1    -103.324 -82.961  37.800  1.00  0.00    -0.000 C 
BRANCH  17  18
ATOM     18  C   UNL     1    -103.168 -83.318  36.312  1.00  0.00    -0.003 C 
ATOM     19  C   UNL     1    -102.132 -84.411  36.063  1.00  0.00     0.004 C 
ENDBRANCH  17  18
ENDBRANCH  16  17
ENDBRANCH  15  16
ENDBRANCH  14  15
ENDBRANCH  13  14
ENDBRANCH  12  13
ENDBRANCH   1  12
TORSDOF 14
ENDMDL
MODEL 4
REMARK VINA RESULT:    -4.731      1.272      2.606
REMARK INTER + INTRA:         -10.859
REMARK INTER:                  -8.465
REMARK INTRA:                  -2.393
REMARK UNBOUND:                -2.255
REMARK SMILES CCCCCCCCCCCCCC[C@@H](C)C(=O)[O-]
REMARK SMILES IDX 9 1 10 2 11 3 12 4 13 5 14 6 15 7 16 8 17 9 18 10 19 11 8 12
REMARK SMILES IDX 7 13 6 14 5 15 4 16 3 17 2 18 1 19
REMARK H PARENT
REMARK Flexibility Score: inf
ROOT
ATOM      1  C   UNL     1    -103.983 -86.180  39.579  1.00  0.00     0.000 C 
ENDROOT
BRANCH   1   2
ATOM      2  C   UNL     1    -103.803 -87.055  38.326  1.00  0.00     0.000 C 
BRANCH   2   3
ATOM      3  C   UNL     1    -105.112 -87.455  37.617  1.00  0.00     0.000 C 
BRANCH   3   4
ATOM      4  C   UNL     1    -105.125 -87.237  36.089  1.00  0.00     0.000 C 
BRANCH   4   5
ATOM      5  C   UNL     1    -104.205 -86.111  35.585  1.00  0.00     0.001 C 
BRANCH   5   6
ATOM      6  C   UNL     1    -104.852 -84.718  35.693  1.00  0.00     0.009 C 
BRANCH   6   7
ATOM      7  C   UNL     1    -103.856 -83.654  36.201  1.00  0.00     0.032 C 
ATOM      8  C   UNL     1    -102.439 -84.234  36.276  1.00  0.00     0.014 C 
BRANCH   7   9
ATOM      9  C   UNL     1    -103.858 -82.435  35.317  1.00  0.00     0.044 C 
ATOM     10  O   UNL     1    -102.771 -81.888  34.994  1.00  0.00    -0.550 OA
ATOM     11  O   UNL     1    -105.056 -81.909  34.849  1.00  0.00    -0.550 OA
ENDBRANCH   7   9
ENDBRANCH   6   7
ENDBRANCH   5   6
ENDBRANCH   4   5
ENDBRANCH   3   4
ENDBRANCH   2   3
ENDBRANCH   1   2
BRANCH   1  12
ATOM     12  C   UNL     1    -105.116 -85.152  39.429  1.00  0.00     0.000 C 
BRANCH  12  13
ATOM     13  C   UNL     1    -104.613 -83.734  39.728  1.00  0.00    -0.000 C 
BRANCH  13  14
ATOM     14  C   UNL     1    -103.084 -83.712  39.874  1.00  0.00    -0.000 C 
BRANCH  14  15
ATOM     15  C   UNL     1    -102.514 -82.285  39.878  1.00  0.00    -0.000 C 
BRANCH  15  16
ATOM     16  C   UNL     1    -103.564 -81.229  40.263  1.00  0.00    -0.000 C 
BRANCH  16  17
ATOM     17  C   UNL     1    -103.552 -80.019  39.304  1.00  0.00    -0.000 C 
BRANCH  17  18
ATOM     18  C   UNL     1    -104.956 -79.559  38.877  1.00  0.00    -0.003 C 
ATOM     19  C   UNL     1    -105.824 -80.696  38.343  1.00  0.00     0.004 C 
ENDBRANCH  17  18
ENDBRANCH  16  17
ENDBRANCH  15  16
ENDBRANCH  14  15
ENDBRANCH  13  14
ENDBRANCH  12  13
ENDBRANCH   1  12
TORSDOF 14
ENDMDL
MODEL 5
REMARK VINA RESULT:    -4.730      2.580      4.991
REMARK INTER + INTRA:         -10.855
REMARK INTER:                  -8.798
REMARK INTRA:                  -2.057
REMARK UNBOUND:                -2.255
REMARK SMILES CCCCCCCCCCCCCC[C@@H](C)C(=O)[O-]
REMARK SMILES IDX 9 1 10 2 11 3 12 4 13 5 14 6 15 7 16 8 17 9 18 10 19 11 8 12
REMARK SMILES IDX 7 13 6 14 5 15 4 16 3 17 2 18 1 19
REMARK H PARENT
REMARK Flexibility Score: inf
ROOT
ATOM      1  C   UNL     1    -105.251 -80.772  38.311  1.00  0.00     0.000 C 
ENDROOT
BRANCH   1   2
ATOM      2  C   UNL     1    -104.659 -80.660  36.895  1.00  0.00     0.000 C 
BRANCH   2   3
ATOM      3  C   UNL     1    -104.782 -81.935  36.035  1.00  0.00     0.000 C 
BRANCH   3   4
ATOM      4  C   UNL     1    -103.744 -83.035  36.341  1.00  0.00     0.000 C 
BRANCH   4   5
ATOM      5  C   UNL     1    -103.344 -83.904  35.135  1.00  0.00     0.001 C 
BRANCH   5   6
ATOM      6  C   UNL     1    -103.694 -85.391  35.329  1.00  0.00     0.009 C 
BRANCH   6   7
ATOM      7  C   UNL     1    -105.218 -85.623  35.390  1.00  0.00     0.032 C 
ATOM      8  C   UNL     1    -105.904 -85.033  34.152  1.00  0.00     0.014 C 
BRANCH   7   9
ATOM      9  C   UNL     1    -105.545 -87.089  35.499  1.00  0.00     0.044 C 
ATOM     10  O   UNL     1    -106.334 -87.622  34.675  1.00  0.00    -0.550 OA
ATOM     11  O   UNL     1    -104.977 -87.863  36.503  1.00  0.00    -0.550 OA
ENDBRANCH   7   9
ENDBRANCH   6   7
ENDBRANCH   5   6
ENDBRANCH   4   5
ENDBRANCH   3   4
ENDBRANCH   2   3
ENDBRANCH   1   2
BRANCH   1  12
ATOM     12  C   UNL     1    -104.338 -80.165  39.388  1.00  0.00     0.000 C 
BRANCH  12  13
ATOM     13  C   UNL     1    -103.789 -81.253  40.320  1.00  0.00    -0.000 C 
BRANCH  13  14
ATOM     14  C   UNL     1    -102.609 -81.989  39.669  1.00  0.00    -0.000 C 
BRANCH  14  15
ATOM     15  C   UNL     1    -102.413 -83.404  40.238  1.00  0.00    -0.000 C 
BRANCH  15  16
ATOM     16  C   UNL     1    -102.508 -84.494  39.156  1.00  0.00    -0.000 C 
BRANCH  16  17
ATOM     17  C   UNL     1    -103.402 -85.674  39.596  1.00  0.00    -0.000 C 
BRANCH  17  18
ATOM     18  C   UNL     1    -104.832 -85.603  39.034  1.00  0.00    -0.003 C 
ATOM     19  C   UNL     1    -105.589 -84.353  39.475  1.00  0.00     0.004 C 
ENDBRANCH  17  18
ENDBRANCH  16  17
ENDBRANCH  15  16
ENDBRANCH  14  15
ENDBRANCH  13  14
ENDBRANCH  12  13
ENDBRANCH   1  12
TORSDOF 14
ENDMDL
MODEL 6
REMARK VINA RESULT:    -4.723      2.846      6.394
REMARK INTER + INTRA:         -10.843
REMARK INTER:                  -8.699
REMARK INTRA:                  -2.144
REMARK UNBOUND:                -2.255
REMARK SMILES CCCCCCCCCCCCCC[C@@H](C)C(=O)[O-]
REMARK SMILES IDX 9 1 10 2 11 3 12 4 13 5 14 6 15 7 16 8 17 9 18 10 19 11 8 12
REMARK SMILES IDX 7 13 6 14 5 15 4 16 3 17 2 18 1 19
REMARK H PARENT
REMARK Flexibility Score: inf
ROOT
ATOM      1  C   UNL     1    -104.447 -80.942  37.715  1.00  0.00     0.000 C 
ENDROOT
BRANCH   1   2
ATOM      2  C   UNL     1    -105.098 -81.220  39.082  1.00  0.00     0.000 C 
BRANCH   2   3
ATOM      3  C   UNL     1    -104.110 -81.373  40.256  1.00  0.00     0.000 C 
BRANCH   3   4
ATOM      4  C   UNL     1    -102.698 -81.860  39.866  1.00  0.00     0.000 C 
BRANCH   4   5
ATOM      5  C   UNL     1    -102.372 -83.306  40.279  1.00  0.00     0.001 C 
BRANCH   5   6
ATOM      6  C   UNL     1    -102.722 -84.333  39.186  1.00  0.00     0.009 C 
BRANCH   6   7
ATOM      7  C   UNL     1    -103.779 -85.350  39.665  1.00  0.00     0.032 C 
ATOM      8  C   UNL     1    -105.191 -84.862  39.324  1.00  0.00     0.014 C 
BRANCH   7   9
ATOM      9  C   UNL     1    -103.550 -86.706  39.052  1.00  0.00     0.044 C 
ATOM     10  O   UNL     1    -104.285 -87.106  38.111  1.00  0.00    -0.550 OA
ATOM     11  O   UNL     1    -102.526 -87.523  39.516  1.00  0.00    -0.550 OA
ENDBRANCH   7   9
ENDBRANCH   6   7
ENDBRANCH   5   6
ENDBRANCH   4   5
ENDBRANCH   3   4
ENDBRANCH   2   3
ENDBRANCH   1   2
BRANCH   1  12
ATOM     12  C   UNL     1    -104.671 -82.079  36.707  1.00  0.00     0.000 C 
BRANCH  12  13
ATOM     13  C   UNL     1    -103.356 -82.470  36.019  1.00  0.00    -0.000 C 
BRANCH  13  14
ATOM     14  C   UNL     1    -103.286 -83.986  35.788  1.00  0.00    -0.000 C 
BRANCH  14  15
ATOM     15  C   UNL     1    -104.674 -84.618  35.598  1.00  0.00    -0.000 C 
BRANCH  15  16
ATOM     16  C   UNL     1    -105.121 -84.633  34.126  1.00  0.00    -0.000 C 
BRANCH  16  17
ATOM     17  C   UNL     1    -103.951 -84.939  33.166  1.00  0.00    -0.000 C 
BRANCH  17  18
ATOM     18  C   UNL     1    -104.053 -84.206  31.818  1.00  0.00    -0.003 C 
ATOM     19  C   UNL     1    -102.795 -84.342  30.964  1.00  0.00     0.004 C 
ENDBRANCH  17  18
ENDBRANCH  16  17
ENDBRANCH  15  16
ENDBRANCH  14  15
ENDBRANCH  13  14
ENDBRANCH  12  13
ENDBRANCH   1  12
TORSDOF 14
ENDMDL
MODEL 7
REMARK VINA RESULT:    -4.719      1.665      2.640
REMARK INTER + INTRA:         -10.836
REMARK INTER:                  -8.756
REMARK INTRA:                  -2.080
REMARK UNBOUND:                -2.255
REMARK SMILES CCCCCCCCCCCCCC[C@@H](C)C(=O)[O-]
REMARK SMILES IDX 9 1 10 2 11 3 12 4 13 5 14 6 15 7 16 8 17 9 18 10 19 11 8 12
REMARK SMILES IDX 7 13 6 14 5 15 4 16 3 17 2 18 1 19
REMARK H PARENT
REMARK Flexibility Score: inf
ROOT
ATOM      1  C   UNL     1    -105.050 -85.665  38.600  1.00  0.00     0.000 C 
ENDROOT
BRANCH   1   2
ATOM      2  C   UNL     1    -104.507 -85.890  37.178  1.00  0.00     0.000 C 
BRANCH   2   3
ATOM      3  C   UNL     1    -105.412 -86.737  36.261  1.00  0.00     0.000 C 
BRANCH   3   4
ATOM      4  C   UNL     1    -105.307 -86.414  34.755  1.00  0.00     0.000 C 
BRANCH   4   5
ATOM      5  C   UNL     1    -105.862 -85.038  34.345  1.00  0.00     0.001 C 
BRANCH   5   6
ATOM      6  C   UNL     1    -104.756 -84.036  33.966  1.00  0.00     0.009 C 
BRANCH   6   7
ATOM      7  C   UNL     1    -103.566 -84.725  33.267  1.00  0.00     0.032 C 
ATOM      8  C   UNL     1    -103.518 -84.345  31.783  1.00  0.00     0.014 C 
BRANCH   7   9
ATOM      9  C   UNL     1    -102.260 -84.364  33.924  1.00  0.00     0.044 C 
ATOM     10  O   UNL     1    -101.380 -83.738  33.278  1.00  0.00    -0.550 OA
ATOM     11  O   UNL     1    -102.020 -84.713  35.248  1.00  0.00    -0.550 OA
ENDBRANCH   7   9
ENDBRANCH   6   7
ENDBRANCH   5   6
ENDBRANCH   4   5
ENDBRANCH   3   4
ENDBRANCH   2   3
ENDBRANCH   1   2
BRANCH   1  12
ATOM     12  C   UNL     1    -103.936 -85.528  39.648  1.00  0.00     0.000 C 
BRANCH  12  13
ATOM     13  C   UNL     1    -102.553 -85.541  38.985  1.00  0.00    -0.000 C 
BRANCH  13  14
ATOM     14  C   UNL     1    -101.870 -84.171  39.111  1.00  0.00    -0.000 C 
BRANCH  14  15
ATOM     15  C   UNL     1    -102.505 -83.294  40.202  1.00  0.00    -0.000 C 
BRANCH  15  16
ATOM     16  C   UNL     1    -102.760 -81.853  39.730  1.00  0.00    -0.000 C 
BRANCH  16  17
ATOM     17  C   UNL     1    -104.265 -81.512  39.686  1.00  0.00    -0.000 C 
BRANCH  17  18
ATOM     18  C   UNL     1    -105.009 -82.166  38.510  1.00  0.00    -0.003 C 
ATOM     19  C   UNL     1    -104.232 -82.102  37.198  1.00  0.00     0.004 C 
ENDBRANCH  17  18
ENDBRANCH  16  17
ENDBRANCH  15  16
ENDBRANCH  14  15
ENDBRANCH  13  14
ENDBRANCH  12  13
ENDBRANCH   1  12
TORSDOF 14
ENDMDL
MODEL 8
REMARK VINA RESULT:    -4.707      1.575      4.552
REMARK INTER + INTRA:         -10.815
REMARK INTER:                  -8.458
REMARK INTRA:                  -2.357
REMARK UNBOUND:                -2.255
REMARK SMILES CCCCCCCCCCCCCC[C@@H](C)C(=O)[O-]
REMARK SMILES IDX 9 1 10 2 11 3 12 4 13 5 14 6 15 7 16 8 17 9 18 10 19 11 8 12
REMARK SMILES IDX 7 13 6 14 5 15 4 16 3 17 2 18 1 19
REMARK H PARENT
REMARK Flexibility Score: inf
ROOT
ATOM      1  C   UNL     1    -104.716 -82.300  39.503  1.00  0.00     0.000 C 
ENDROOT
BRANCH   1   2
ATOM      2  C   UNL     1    -105.158 -81.592  38.211  1.00  0.00     0.000 C 
BRANCH   2   3
ATOM      3  C   UNL     1    -104.009 -81.027  37.352  1.00  0.00     0.000 C 
BRANCH   3   4
ATOM      4  C   UNL     1    -103.522 -81.953  36.218  1.00  0.00     0.000 C 
BRANCH   4   5
ATOM      5  C   UNL     1    -104.318 -83.260  36.056  1.00  0.00     0.001 C 
BRANCH   5   6
ATOM      6  C   UNL     1    -103.471 -84.408  35.480  1.00  0.00     0.009 C 
BRANCH   6   7
ATOM      7  C   UNL     1    -104.045 -84.942  34.151  1.00  0.00     0.032 C 
ATOM      8  C   UNL     1    -105.468 -84.417  33.929  1.00  0.00     0.014 C 
BRANCH   7   9
ATOM      9  C   UNL     1    -103.176 -84.556  32.984  1.00  0.00     0.044 C 
ATOM     10  O   UNL     1    -102.070 -83.988  33.181  1.00  0.00    -0.550 OA
ATOM     11  O   UNL     1    -103.585 -84.828  31.684  1.00  0.00    -0.550 OA
ENDBRANCH   7   9
ENDBRANCH   6   7
ENDBRANCH   5   6
ENDBRANCH   4   5
ENDBRANCH   3   4
ENDBRANCH   2   3
ENDBRANCH   1   2
BRANCH   1  12
ATOM     12  C   UNL     1    -103.330 -81.847  39.987  1.00  0.00     0.000 C 
BRANCH  12  13
ATOM     13  C   UNL     1    -102.425 -83.053  40.267  1.00  0.00    -0.000 C 
BRANCH  13  14
ATOM     14  C   UNL     1    -102.426 -84.029  39.081  1.00  0.00    -0.000 C 
BRANCH  14  15
ATOM     15  C   UNL     1    -102.752 -85.471  39.506  1.00  0.00    -0.000 C 
BRANCH  15  16
ATOM     16  C   UNL     1    -104.260 -85.703  39.701  1.00  0.00    -0.000 C 
BRANCH  16  17
ATOM     17  C   UNL     1    -104.981 -85.994  38.368  1.00  0.00    -0.000 C 
BRANCH  17  18
ATOM     18  C   UNL     1    -104.528 -87.301  37.695  1.00  0.00    -0.003 C 
ATOM     19  C   UNL     1    -105.291 -87.610  36.410  1.00  0.00     0.004 C 
ENDBRANCH  17  18
ENDBRANCH  16  17
ENDBRANCH  15  16
ENDBRANCH  14  15
ENDBRANCH  13  14
ENDBRANCH  12  13
ENDBRANCH   1  12
TORSDOF 14
ENDMDL
MODEL 9
REMARK VINA RESULT:    -4.669      2.002      4.292
REMARK INTER + INTRA:         -10.745
REMARK INTER:                  -8.382
REMARK INTRA:                  -2.363
REMARK UNBOUND:                -2.255
REMARK SMILES CCCCCCCCCCCCCC[C@@H](C)C(=O)[O-]
REMARK SMILES IDX 9 1 10 2 11 3 12 4 13 5 14 6 15 7 16 8 17 9 18 10 19 11 8 12
REMARK SMILES IDX 7 13 6 14 5 15 4 16 3 17 2 18 1 19
REMARK H PARENT
REMARK Flexibility Score: inf
ROOT
ATOM      1  C   UNL     1    -104.737 -83.574  39.459  1.00  0.00     0.000 C 
ENDROOT
BRANCH   1   2
ATOM      2  C   UNL     1    -105.083 -85.074  39.478  1.00  0.00     0.000 C 
BRANCH   2   3
ATOM      3  C   UNL     1    -103.869 -86.023  39.530  1.00  0.00     0.000 C 
BRANCH   3   4
ATOM      4  C   UNL     1    -103.921 -87.209  38.546  1.00  0.00     0.000 C 
BRANCH   4   5
ATOM      5  C   UNL     1    -105.081 -87.166  37.534  1.00  0.00     0.001 C 
BRANCH   5   6
ATOM      6  C   UNL     1    -104.613 -86.851  36.102  1.00  0.00     0.009 C 
BRANCH   6   7
ATOM      7  C   UNL     1    -104.575 -85.334  35.826  1.00  0.00     0.032 C 
ATOM      8  C   UNL     1    -103.133 -84.815  35.855  1.00  0.00     0.014 C 
BRANCH   7   9
ATOM      9  C   UNL     1    -105.205 -85.003  34.499  1.00  0.00     0.044 C 
ATOM     10  O   UNL     1    -106.373 -85.394  34.239  1.00  0.00    -0.550 OA
ATOM     11  O   UNL     1    -104.505 -84.260  33.555  1.00  0.00    -0.550 OA
ENDBRANCH   7   9
ENDBRANCH   6   7
ENDBRANCH   5   6
ENDBRANCH   4   5
ENDBRANCH   3   4
ENDBRANCH   2   3
ENDBRANCH   1   2
BRANCH   1  12
ATOM     12  C   UNL     1    -103.227 -83.314  39.342  1.00  0.00     0.000 C 
BRANCH  12  13
ATOM     13  C   UNL     1    -102.883 -81.879  39.763  1.00  0.00    -0.000 C 
BRANCH  13  14
ATOM     14  C   UNL     1    -104.131 -81.141  40.270  1.00  0.00    -0.000 C 
BRANCH  14  15
ATOM     15  C   UNL     1    -104.154 -79.663  39.846  1.00  0.00    -0.000 C 
BRANCH  15  16
ATOM     16  C   UNL     1    -105.461 -79.272  39.135  1.00  0.00    -0.000 C 
BRANCH  16  17
ATOM     17  C   UNL     1    -105.844 -80.277  38.027  1.00  0.00    -0.000 C 
BRANCH  17  18
ATOM     18  C   UNL     1    -104.915 -80.225  36.802  1.00  0.00    -0.003 C 
ATOM     19  C   UNL     1    -104.670 -81.596  36.177  1.00  0.00     0.004 C 
ENDBRANCH  17  18
ENDBRANCH  16  17
ENDBRANCH  15  16
ENDBRANCH  14  15
ENDBRANCH  13  14
ENDBRANCH  12  13
ENDBRANCH   1  12
TORSDOF 14
ENDMDL
