MODEL 1
REMARK VINA RESULT:    -4.208      0.000      0.000
REMARK INTER + INTRA:          -5.773
REMARK INTER:                  -6.422
REMARK INTRA:                   0.650
REMARK UNBOUND:                 0.650
REMARK SMILES CC1=CCC[C@@H](C)C(=O)C[C@@H](C(C)C)C(=O)C1
REMARK SMILES IDX 8 1 9 2 6 3 7 4 5 5 4 6 3 7 2 8 1 9 10 11 11 12 15 13 16 14
REMARK SMILES IDX 17 15 12 17 13 18 14 19
REMARK H PARENT
REMARK Flexibility Score: 70.00
ROOT
ATOM      1  C   UNL     1      81.821   4.565  30.340  1.00  0.00     0.136 C 
ATOM      2  O   UNL     1      82.249   4.846  31.451  1.00  0.00    -0.299 OA
ENDROOT
BRANCH   1   3
ATOM      3  C   UNL     1      81.296   3.166  30.082  1.00  0.00     0.053 C 
ATOM      4  C   UNL     1      80.372   2.715  31.220  1.00  0.00     0.016 C 
BRANCH   3   5
ATOM      5  C   UNL     1      82.492   2.190  29.902  1.00  0.00     0.015 C 
BRANCH   5   6
ATOM      6  C   UNL     1      83.259   2.338  28.574  1.00  0.00     0.028 C 
BRANCH   6   7
ATOM      7  C   UNL     1      84.746   2.612  28.690  1.00  0.00    -0.028 C 
ATOM      8  C   UNL     1      85.435   3.602  28.073  1.00  0.00    -0.070 CG0
ATOM      9  C   UNL     1      86.903   3.747  28.389  1.00  0.00     0.039 C 
ATOM     10  G   UNL     1      84.828   4.526  27.036  1.00  0.00     0.000 G0
ENDBRANCH   6   7
ENDBRANCH   5   6
ENDBRANCH   3   5
ENDBRANCH   1   3
BRANCH   1  11
ATOM     11  C   UNL     1      81.836   5.630  29.263  1.00  0.00     0.087 C 
BRANCH  11  12
ATOM     12  C   UNL     1      82.338   5.123  27.881  1.00  0.00     0.066 C 
BRANCH  12  13
ATOM     13  C   UNL     1      83.796   5.501  27.619  1.00  0.00     0.140 C 
ATOM     14  O   UNL     1      84.161   6.643  27.861  1.00  0.00    -0.299 OA
BRANCH  13  15
ATOM     15  C   UNL     1      84.826   4.540  27.046  1.00  0.00     0.106 CG0
ATOM     16  G   UNL     1      85.440   3.598  28.064  1.00  0.00     0.000 G0
ENDBRANCH  13  15
ENDBRANCH  12  13
BRANCH  12  17
ATOM     17  C   UNL     1      81.432   5.551  26.684  1.00  0.00    -0.006 C 
ATOM     18  C   UNL     1      82.165   5.654  25.335  1.00  0.00     0.008 C 
ATOM     19  C   UNL     1      80.686   6.863  26.974  1.00  0.00     0.008 C 
ENDBRANCH  12  17
ENDBRANCH  11  12
ENDBRANCH   1  11
TORSDOF 1
ENDMDL
MODEL 2
REMARK VINA RESULT:    -3.632      1.756      3.771
REMARK INTER + INTRA:          -4.893
REMARK INTER:                  -5.949
REMARK INTRA:                   1.057
REMARK UNBOUND:                 0.650
REMARK SMILES CC1=CCC[C@@H](C)C(=O)C[C@@H](C(C)C)C(=O)C1
REMARK SMILES IDX 8 1 9 2 6 3 7 4 5 5 4 6 3 7 2 8 1 9 10 11 11 12 15 13 16 14
REMARK SMILES IDX 17 15 12 17 13 18 14 19
REMARK H PARENT
REMARK Flexibility Score: 70.00
ROOT
ATOM      1  C   UNL     1      84.497   4.509  27.222  1.00  0.00     0.136 C 
ATOM      2  O   UNL     1      84.496   4.168  26.048  1.00  0.00    -0.299 OA
ENDROOT
BRANCH   1   3
ATOM      3  C   UNL     1      84.863   3.494  28.287  1.00  0.00     0.053 C 
ATOM      4  C   UNL     1      86.386   3.373  28.421  1.00  0.00     0.016 C 
BRANCH   3   5
ATOM      5  C   UNL     1      84.214   2.125  27.942  1.00  0.00     0.015 C 
BRANCH   5   6
ATOM      6  C   UNL     1      82.699   2.038  28.207  1.00  0.00     0.028 C 
BRANCH   6   7
ATOM      7  C   UNL     1      82.258   2.264  29.640  1.00  0.00    -0.028 C 
ATOM      8  C   UNL     1      81.512   3.296  30.102  1.00  0.00    -0.070 CG0
ATOM      9  C   UNL     1      81.116   3.289  31.558  1.00  0.00     0.039 C 
ATOM     10  G   UNL     1      81.112   4.488  29.254  1.00  0.00     0.000 G0
ENDBRANCH   6   7
ENDBRANCH   5   6
ENDBRANCH   3   5
ENDBRANCH   1   3
BRANCH   1  11
ATOM     11  C   UNL     1      84.127   5.937  27.566  1.00  0.00     0.087 C 
BRANCH  11  12
ATOM     12  C   UNL     1      82.604   6.160  27.790  1.00  0.00     0.066 C 
BRANCH  12  13
ATOM     13  C   UNL     1      82.127   5.595  29.129  1.00  0.00     0.140 C 
ATOM     14  O   UNL     1      82.613   6.036  30.161  1.00  0.00    -0.299 OA
BRANCH  13  15
ATOM     15  C   UNL     1      81.092   4.487  29.254  1.00  0.00     0.106 CG0
ATOM     16  G   UNL     1      81.535   3.308  30.097  1.00  0.00     0.000 G0
ENDBRANCH  13  15
ENDBRANCH  12  13
BRANCH  12  17
ATOM     17  C   UNL     1      81.711   5.640  26.621  1.00  0.00    -0.006 C 
ATOM     18  C   UNL     1      82.387   5.675  25.239  1.00  0.00     0.008 C 
ATOM     19  C   UNL     1      80.363   6.377  26.562  1.00  0.00     0.008 C 
ENDBRANCH  12  17
ENDBRANCH  11  12
ENDBRANCH   1  11
TORSDOF 1
ENDMDL
MODEL 3
REMARK VINA RESULT:    -3.190      2.011      4.340
REMARK INTER + INTRA:          -4.219
REMARK INTER:                  -5.791
REMARK INTRA:                   1.572
REMARK UNBOUND:                 0.650
REMARK SMILES CC1=CCC[C@@H](C)C(=O)C[C@@H](C(C)C)C(=O)C1
REMARK SMILES IDX 8 1 9 2 6 3 7 4 5 5 4 6 3 7 2 8 1 9 10 11 11 12 15 13 16 14
REMARK SMILES IDX 17 15 12 17 13 18 14 19
REMARK H PARENT
REMARK Flexibility Score: 70.00
ROOT
ATOM      1  C   UNL     1      81.670   5.639  26.428  1.00  0.00     0.136 C 
ATOM      2  O   UNL     1      82.363   6.352  25.716  1.00  0.00    -0.299 OA
ENDROOT
BRANCH   1   3
ATOM      3  C   UNL     1      80.879   6.269  27.559  1.00  0.00     0.053 C 
ATOM      4  C   UNL     1      79.955   7.371  27.026  1.00  0.00     0.016 C 
BRANCH   3   5
ATOM      5  C   UNL     1      81.859   6.819  28.632  1.00  0.00     0.015 C 
BRANCH   5   6
ATOM      6  C   UNL     1      82.626   5.744  29.426  1.00  0.00     0.028 C 
BRANCH   6   7
ATOM      7  C   UNL     1      81.786   4.636  30.030  1.00  0.00    -0.028 C 
ATOM      8  C   UNL     1      82.027   3.305  29.950  1.00  0.00    -0.070 CG0
ATOM      9  C   UNL     1      81.105   2.372  30.695  1.00  0.00     0.039 C 
ATOM     10  G   UNL     1      83.129   2.702  29.102  1.00  0.00     0.000 G0
ENDBRANCH   6   7
ENDBRANCH   5   6
ENDBRANCH   3   5
ENDBRANCH   1   3
BRANCH   1  11
ATOM     11  C   UNL     1      81.633   4.150  26.153  1.00  0.00     0.087 C 
BRANCH  11  12
ATOM     12  C   UNL     1      82.949   3.407  26.520  1.00  0.00     0.066 C 
BRANCH  12  13
ATOM     13  C   UNL     1      82.751   2.407  27.661  1.00  0.00     0.140 C 
ATOM     14  O   UNL     1      82.239   1.325  27.413  1.00  0.00    -0.299 OA
BRANCH  13  15
ATOM     15  C   UNL     1      83.134   2.691  29.105  1.00  0.00     0.106 CG0
ATOM     16  G   UNL     1      82.025   3.302  29.939  1.00  0.00     0.000 G0
ENDBRANCH  13  15
ENDBRANCH  12  13
BRANCH  12  17
ATOM     17  C   UNL     1      84.150   4.357  26.820  1.00  0.00    -0.006 C 
ATOM     18  C   UNL     1      84.824   4.946  25.568  1.00  0.00     0.008 C 
ATOM     19  C   UNL     1      85.203   3.682  27.712  1.00  0.00     0.008 C 
ENDBRANCH  12  17
ENDBRANCH  11  12
ENDBRANCH   1  11
TORSDOF 1
ENDMDL
MODEL 4
REMARK VINA RESULT:    -3.139      1.508      3.959
REMARK INTER + INTRA:          -4.140
REMARK INTER:                  -4.588
REMARK INTRA:                   0.448
REMARK UNBOUND:                 0.650
REMARK SMILES CC1=CCC[C@@H](C)C(=O)C[C@@H](C(C)C)C(=O)C1
REMARK SMILES IDX 8 1 9 2 6 3 7 4 5 5 4 6 3 7 2 8 1 9 10 11 11 12 15 13 16 14
REMARK SMILES IDX 17 15 12 17 13 18 14 19
REMARK H PARENT
REMARK Flexibility Score: 70.00
ROOT
ATOM      1  C   UNL     1      81.660   6.043  28.360  1.00  0.00     0.136 C 
ATOM      2  O   UNL     1      82.255   6.735  29.174  1.00  0.00    -0.299 OA
ENDROOT
BRANCH   1   3
ATOM      3  C   UNL     1      81.461   6.567  26.951  1.00  0.00     0.053 C 
ATOM      4  C   UNL     1      80.105   7.272  26.821  1.00  0.00     0.016 C 
BRANCH   3   5
ATOM      5  C   UNL     1      81.591   5.394  25.940  1.00  0.00     0.015 C 
BRANCH   5   6
ATOM      6  C   UNL     1      82.994   5.211  25.331  1.00  0.00     0.028 C 
BRANCH   6   7
ATOM      7  C   UNL     1      84.120   4.959  26.315  1.00  0.00    -0.028 C 
ATOM      8  C   UNL     1      84.268   3.875  27.111  1.00  0.00    -0.070 CG0
ATOM      9  C   UNL     1      85.510   3.785  27.963  1.00  0.00     0.039 C 
ATOM     10  G   UNL     1      83.226   2.781  27.244  1.00  0.00     0.000 G0
ENDBRANCH   6   7
ENDBRANCH   5   6
ENDBRANCH   3   5
ENDBRANCH   1   3
BRANCH   1  11
ATOM     11  C   UNL     1      81.142   4.688  28.795  1.00  0.00     0.087 C 
BRANCH  11  12
ATOM     12  C   UNL     1      82.201   3.809  29.519  1.00  0.00     0.066 C 
BRANCH  12  13
ATOM     13  C   UNL     1      82.655   2.626  28.663  1.00  0.00     0.140 C 
ATOM     14  O   UNL     1      82.576   1.497  29.128  1.00  0.00    -0.299 OA
BRANCH  13  15
ATOM     15  C   UNL     1      83.229   2.771  27.262  1.00  0.00     0.106 CG0
ATOM     16  G   UNL     1      84.264   3.871  27.119  1.00  0.00     0.000 G0
ENDBRANCH  13  15
ENDBRANCH  12  13
BRANCH  12  17
ATOM     17  C   UNL     1      81.762   3.329  30.937  1.00  0.00    -0.006 C 
ATOM     18  C   UNL     1      80.450   2.525  30.960  1.00  0.00     0.008 C 
ATOM     19  C   UNL     1      81.677   4.496  31.933  1.00  0.00     0.008 C 
ENDBRANCH  12  17
ENDBRANCH  11  12
ENDBRANCH   1  11
TORSDOF 1
ENDMDL
MODEL 5
REMARK VINA RESULT:    -3.000      2.037      4.820
REMARK INTER + INTRA:          -3.928
REMARK INTER:                  -4.455
REMARK INTRA:                   0.527
REMARK UNBOUND:                 0.650
REMARK SMILES CC1=CCC[C@@H](C)C(=O)C[C@@H](C(C)C)C(=O)C1
REMARK SMILES IDX 8 1 9 2 6 3 7 4 5 5 4 6 3 7 2 8 1 9 10 11 11 12 15 13 16 14
REMARK SMILES IDX 17 15 12 17 13 18 14 19
REMARK H PARENT
REMARK Flexibility Score: 70.00
ROOT
ATOM      1  C   UNL     1      83.313   2.796  27.538  1.00  0.00     0.136 C 
ATOM      2  O   UNL     1      82.520   2.154  26.863  1.00  0.00    -0.299 OA
ENDROOT
BRANCH   1   3
ATOM      3  C   UNL     1      84.556   3.362  26.878  1.00  0.00     0.053 C 
ATOM      4  C   UNL     1      85.505   3.954  27.927  1.00  0.00     0.016 C 
BRANCH   3   5
ATOM      5  C   UNL     1      84.142   4.426  25.823  1.00  0.00     0.015 C 
BRANCH   5   6
ATOM      6  C   UNL     1      83.561   5.729  26.405  1.00  0.00     0.028 C 
BRANCH   6   7
ATOM      7  C   UNL     1      82.096   5.994  26.117  1.00  0.00    -0.028 C 
ATOM      8  C   UNL     1      81.160   6.405  27.005  1.00  0.00    -0.070 CG0
ATOM      9  C   UNL     1      79.771   6.688  26.490  1.00  0.00     0.039 C 
ATOM     10  G   UNL     1      81.414   6.530  28.494  1.00  0.00     0.000 G0
ENDBRANCH   6   7
ENDBRANCH   5   6
ENDBRANCH   3   5
ENDBRANCH   1   3
BRANCH   1  11
ATOM     11  C   UNL     1      83.023   2.994  29.011  1.00  0.00     0.087 C 
BRANCH  11  12
ATOM     12  C   UNL     1      81.856   3.982  29.298  1.00  0.00     0.066 C 
BRANCH  12  13
ATOM     13  C   UNL     1      82.278   5.442  29.129  1.00  0.00     0.140 C 
ATOM     14  O   UNL     1      83.387   5.783  29.517  1.00  0.00    -0.299 OA
BRANCH  13  15
ATOM     15  C   UNL     1      81.383   6.512  28.524  1.00  0.00     0.106 CG0
ATOM     16  G   UNL     1      81.178   6.385  27.027  1.00  0.00     0.000 G0
ENDBRANCH  13  15
ENDBRANCH  12  13
BRANCH  12  17
ATOM     17  C   UNL     1      81.167   3.761  30.680  1.00  0.00    -0.006 C 
ATOM     18  C   UNL     1      81.867   4.458  31.860  1.00  0.00     0.008 C 
ATOM     19  C   UNL     1      80.980   2.268  30.992  1.00  0.00     0.008 C 
ENDBRANCH  12  17
ENDBRANCH  11  12
ENDBRANCH   1  11
TORSDOF 1
ENDMDL
MODEL 6
REMARK VINA RESULT:    -2.533     11.874     13.626
REMARK INTER + INTRA:          -3.216
REMARK INTER:                  -4.838
REMARK INTRA:                   1.622
REMARK UNBOUND:                 0.650
REMARK SMILES CC1=CCC[C@@H](C)C(=O)C[C@@H](C(C)C)C(=O)C1
REMARK SMILES IDX 8 1 9 2 6 3 7 4 5 5 4 6 3 7 2 8 1 9 10 11 11 12 15 13 16 14
REMARK SMILES IDX 17 15 12 17 13 18 14 19
REMARK H PARENT
REMARK Flexibility Score: 70.00
ROOT
ATOM      1  C   UNL     1      83.894  -7.714  26.902  1.00  0.00     0.136 C 
ATOM      2  O   UNL     1      84.591  -8.448  26.217  1.00  0.00    -0.299 OA
ENDROOT
BRANCH   1   3
ATOM      3  C   UNL     1      84.295  -7.443  28.340  1.00  0.00     0.053 C 
ATOM      4  C   UNL     1      85.413  -6.396  28.402  1.00  0.00     0.016 C 
BRANCH   3   5
ATOM      5  C   UNL     1      84.725  -8.775  29.016  1.00  0.00     0.015 C 
BRANCH   5   6
ATOM      6  C   UNL     1      83.636  -9.862  29.064  1.00  0.00     0.028 C 
BRANCH   6   7
ATOM      7  C   UNL     1      82.555  -9.677  30.112  1.00  0.00    -0.028 C 
ATOM      8  C   UNL     1      81.424  -8.944  29.984  1.00  0.00    -0.070 CG0
ATOM      9  C   UNL     1      80.437  -8.958  31.125  1.00  0.00     0.039 C 
ATOM     10  G   UNL     1      81.128  -8.058  28.789  1.00  0.00     0.000 G0
ENDBRANCH   6   7
ENDBRANCH   5   6
ENDBRANCH   3   5
ENDBRANCH   1   3
BRANCH   1  11
ATOM     11  C   UNL     1      82.651  -7.104  26.286  1.00  0.00     0.087 C 
BRANCH  11  12
ATOM     12  C   UNL     1      81.473  -8.106  26.117  1.00  0.00     0.066 C 
BRANCH  12  13
ATOM     13  C   UNL     1      81.067  -8.751  27.443  1.00  0.00     0.140 C 
ATOM     14  O   UNL     1      80.661  -9.904  27.437  1.00  0.00    -0.299 OA
BRANCH  13  15
ATOM     15  C   UNL     1      81.113  -8.028  28.780  1.00  0.00     0.106 CG0
ATOM     16  G   UNL     1      81.426  -8.921  29.965  1.00  0.00     0.000 G0
ENDBRANCH  13  15
ENDBRANCH  12  13
BRANCH  12  17
ATOM     17  C   UNL     1      81.720  -9.193  25.026  1.00  0.00    -0.006 C 
ATOM     18  C   UNL     1      82.418  -8.675  23.756  1.00  0.00     0.008 C 
ATOM     19  C   UNL     1      80.422  -9.924  24.646  1.00  0.00     0.008 C 
ENDBRANCH  12  17
ENDBRANCH  11  12
ENDBRANCH   1  11
TORSDOF 1
ENDMDL
MODEL 7
REMARK VINA RESULT:    -2.442      1.141      1.858
REMARK INTER + INTRA:          -3.078
REMARK INTER:                  -4.311
REMARK INTRA:                   1.233
REMARK UNBOUND:                 0.650
REMARK SMILES CC1=CCC[C@@H](C)C(=O)C[C@@H](C(C)C)C(=O)C1
REMARK SMILES IDX 8 1 9 2 6 3 7 4 5 5 4 6 3 7 2 8 1 9 10 11 11 12 15 13 16 14
REMARK SMILES IDX 17 15 12 17 13 18 14 19
REMARK H PARENT
REMARK Flexibility Score: 70.00
ROOT
ATOM      1  C   UNL     1      81.881   4.505  30.514  1.00  0.00     0.136 C 
ATOM      2  O   UNL     1      81.887   4.500  31.737  1.00  0.00    -0.299 OA
ENDROOT
BRANCH   1   3
ATOM      3  C   UNL     1      81.728   3.192  29.771  1.00  0.00     0.053 C 
ATOM      4  C   UNL     1      81.223   2.091  30.712  1.00  0.00     0.016 C 
BRANCH   3   5
ATOM      5  C   UNL     1      83.085   2.804  29.121  1.00  0.00     0.015 C 
BRANCH   5   6
ATOM      6  C   UNL     1      82.974   1.984  27.821  1.00  0.00     0.028 C 
BRANCH   6   7
ATOM      7  C   UNL     1      83.021   2.774  26.528  1.00  0.00    -0.028 C 
ATOM      8  C   UNL     1      83.777   3.870  26.278  1.00  0.00    -0.070 CG0
ATOM      9  C   UNL     1      83.733   4.460  24.891  1.00  0.00     0.039 C 
ATOM     10  G   UNL     1      84.609   4.573  27.333  1.00  0.00     0.000 G0
ENDBRANCH   6   7
ENDBRANCH   5   6
ENDBRANCH   3   5
ENDBRANCH   1   3
BRANCH   1  11
ATOM     11  C   UNL     1      82.030   5.827  29.789  1.00  0.00     0.087 C 
BRANCH  11  12
ATOM     12  C   UNL     1      82.329   5.684  28.270  1.00  0.00     0.066 C 
BRANCH  12  13
ATOM     13  C   UNL     1      83.827   5.730  27.967  1.00  0.00     0.140 C 
ATOM     14  O   UNL     1      84.455   6.741  28.249  1.00  0.00    -0.299 OA
BRANCH  13  15
ATOM     15  C   UNL     1      84.588   4.592  27.305  1.00  0.00     0.106 CG0
ATOM     16  G   UNL     1      83.806   3.854  26.235  1.00  0.00     0.000 G0
ENDBRANCH  13  15
ENDBRANCH  12  13
BRANCH  12  17
ATOM     17  C   UNL     1      81.552   6.700  27.375  1.00  0.00    -0.006 C 
ATOM     18  C   UNL     1      80.609   7.638  28.147  1.00  0.00     0.008 C 
ATOM     19  C   UNL     1      80.780   5.993  26.249  1.00  0.00     0.008 C 
ENDBRANCH  12  17
ENDBRANCH  11  12
ENDBRANCH   1  11
TORSDOF 1
ENDMDL
MODEL 8
REMARK VINA RESULT:    -1.648      2.218      4.036
REMARK INTER + INTRA:          -1.865
REMARK INTER:                  -3.219
REMARK INTRA:                   1.354
REMARK UNBOUND:                 0.650
REMARK SMILES CC1=CCC[C@@H](C)C(=O)C[C@@H](C(C)C)C(=O)C1
REMARK SMILES IDX 8 1 9 2 6 3 7 4 5 5 4 6 3 7 2 8 1 9 10 11 11 12 15 13 16 14
REMARK SMILES IDX 17 15 12 17 13 18 14 19
REMARK H PARENT
REMARK Flexibility Score: 70.00
ROOT
ATOM      1  C   UNL     1      82.617   2.104  28.316  1.00  0.00     0.136 C 
ATOM      2  O   UNL     1      81.924   1.129  28.058  1.00  0.00    -0.299 OA
ENDROOT
BRANCH   1   3
ATOM      3  C   UNL     1      82.463   2.785  29.662  1.00  0.00     0.053 C 
ATOM      4  C   UNL     1      81.267   2.207  30.429  1.00  0.00     0.016 C 
BRANCH   3   5
ATOM      5  C   UNL     1      82.315   4.318  29.452  1.00  0.00     0.015 C 
BRANCH   5   6
ATOM      6  C   UNL     1      81.051   4.751  28.684  1.00  0.00     0.028 C 
BRANCH   6   7
ATOM      7  C   UNL     1      81.127   6.091  27.977  1.00  0.00    -0.028 C 
ATOM      8  C   UNL     1      81.303   6.293  26.650  1.00  0.00    -0.070 CG0
ATOM      9  C   UNL     1      81.269   7.712  26.138  1.00  0.00     0.039 C 
ATOM     10  G   UNL     1      81.599   5.181  25.663  1.00  0.00     0.000 G0
ENDBRANCH   6   7
ENDBRANCH   5   6
ENDBRANCH   3   5
ENDBRANCH   1   3
BRANCH   1  11
ATOM     11  C   UNL     1      83.602   2.593  27.275  1.00  0.00     0.087 C 
BRANCH  11  12
ATOM     12  C   UNL     1      83.622   4.139  27.100  1.00  0.00     0.066 C 
BRANCH  12  13
ATOM     13  C   UNL     1      83.004   4.579  25.773  1.00  0.00     0.140 C 
ATOM     14  O   UNL     1      83.664   4.467  24.749  1.00  0.00    -0.299 OA
BRANCH  13  15
ATOM     15  C   UNL     1      81.612   5.180  25.650  1.00  0.00     0.106 CG0
ATOM     16  G   UNL     1      81.312   6.277  26.653  1.00  0.00     0.000 G0
ENDBRANCH  13  15
ENDBRANCH  12  13
BRANCH  12  17
ATOM     17  C   UNL     1      85.032   4.779  27.294  1.00  0.00    -0.006 C 
ATOM     18  C   UNL     1      86.053   3.871  28.001  1.00  0.00     0.008 C 
ATOM     19  C   UNL     1      84.948   6.133  28.017  1.00  0.00     0.008 C 
ENDBRANCH  12  17
ENDBRANCH  11  12
ENDBRANCH   1  11
TORSDOF 1
ENDMDL
MODEL 9
REMARK VINA RESULT:    -1.578      2.099      5.328
REMARK INTER + INTRA:          -1.759
REMARK INTER:                  -1.314
REMARK INTRA:                  -0.445
REMARK UNBOUND:                 0.650
REMARK SMILES CC1=CCC[C@@H](C)C(=O)C[C@@H](C(C)C)C(=O)C1
REMARK SMILES IDX 8 1 9 2 6 3 7 4 5 5 4 6 3 7 2 8 1 9 10 11 11 12 15 13 16 14
REMARK SMILES IDX 17 15 12 17 13 18 14 19
REMARK H PARENT
REMARK Flexibility Score: 70.00
ROOT
ATOM      1  C   UNL     1      84.288   5.671  26.013  1.00  0.00     0.136 C 
ATOM      2  O   UNL     1      84.605   6.790  25.633  1.00  0.00    -0.299 OA
ENDROOT
BRANCH   1   3
ATOM      3  C   UNL     1      83.748   4.674  25.006  1.00  0.00     0.053 C 
ATOM      4  C   UNL     1      84.797   4.367  23.931  1.00  0.00     0.016 C 
BRANCH   3   5
ATOM      5  C   UNL     1      82.438   5.230  24.380  1.00  0.00     0.015 C 
BRANCH   5   6
ATOM      6  C   UNL     1      81.203   5.177  25.299  1.00  0.00     0.028 C 
BRANCH   6   7
ATOM      7  C   UNL     1      80.803   6.486  25.953  1.00  0.00    -0.028 C 
ATOM      8  C   UNL     1      80.702   6.727  27.281  1.00  0.00    -0.070 CG0
ATOM      9  C   UNL     1      80.364   8.129  27.724  1.00  0.00     0.039 C 
ATOM     10  G   UNL     1      80.844   5.653  28.342  1.00  0.00     0.000 G0
ENDBRANCH   6   7
ENDBRANCH   5   6
ENDBRANCH   3   5
ENDBRANCH   1   3
BRANCH   1  11
ATOM     11  C   UNL     1      84.445   5.328  27.480  1.00  0.00     0.087 C 
BRANCH  11  12
ATOM     12  C   UNL     1      83.257   4.517  28.070  1.00  0.00     0.066 C 
BRANCH  12  13
ATOM     13  C   UNL     1      82.267   5.405  28.824  1.00  0.00     0.140 C 
ATOM     14  O   UNL     1      82.623   5.928  29.871  1.00  0.00    -0.299 OA
BRANCH  13  15
ATOM     15  C   UNL     1      80.841   5.660  28.359  1.00  0.00     0.106 CG0
ATOM     16  G   UNL     1      80.711   6.729  27.293  1.00  0.00     0.000 G0
ENDBRANCH  13  15
ENDBRANCH  12  13
BRANCH  12  17
ATOM     17  C   UNL     1      83.695   3.305  28.951  1.00  0.00    -0.006 C 
ATOM     18  C   UNL     1      85.040   2.677  28.547  1.00  0.00     0.008 C 
ATOM     19  C   UNL     1      82.608   2.219  29.008  1.00  0.00     0.008 C 
ENDBRANCH  12  17
ENDBRANCH  11  12
ENDBRANCH   1  11
TORSDOF 1
ENDMDL
