MODEL 1
REMARK VINA RESULT:    -5.297      0.000      0.000
REMARK INTER + INTRA:          -6.540
REMARK INTER:                  -6.226
REMARK INTRA:                  -0.314
REMARK UNBOUND:                -0.314
REMARK SMILES O=c1c(O)c(-c2ccc(O)c(O)c2)oc2cc(O)ccc12
REMARK SMILES IDX 5 1 3 2 2 3 1 4 21 5 15 6 14 7 16 8 17 9 19 10 20 11 6 12
REMARK SMILES IDX 7 13 8 14 9 15 13 16 11 17 10 18 12 20 4 22 18 24
REMARK H PARENT 10 19 12 21 4 23 18 25
REMARK Flexibility Score: inf
ROOT
ATOM      1  C   UNL     1      54.652   7.292 -47.534  1.00  0.00     0.180 A 
ATOM      2  C   UNL     1      55.228   6.130 -48.088  1.00  0.00     0.208 A 
ATOM      3  C   UNL     1      55.158   5.937 -49.477  1.00  0.00     0.235 A 
ATOM      4  O   UNL     1      55.655   4.901 -49.996  1.00  0.00    -0.285 OA
ATOM      5  C   UNL     1      54.538   6.910 -50.279  1.00  0.00     0.069 A 
ATOM      6  C   UNL     1      54.007   8.056 -49.649  1.00  0.00     0.142 A 
ATOM      7  O   UNL     1      54.086   8.197 -48.331  1.00  0.00    -0.452 OA
ATOM      8  C   UNL     1      53.391   9.052 -50.415  1.00  0.00     0.094 A 
ATOM      9  C   UNL     1      53.296   8.916 -51.807  1.00  0.00     0.119 A 
ATOM     10  C   UNL     1      53.821   7.780 -52.432  1.00  0.00     0.047 A 
ATOM     11  C   UNL     1      54.439   6.780 -51.676  1.00  0.00     0.020 A 
ENDROOT
BRANCH   1  12
ATOM     12  C   UNL     1      54.667   7.559 -46.077  1.00  0.00     0.025 A 
ATOM     13  C   UNL     1      55.702   8.294 -45.479  1.00  0.00     0.016 A 
ATOM     14  C   UNL     1      55.707   8.512 -44.100  1.00  0.00     0.051 A 
ATOM     15  C   UNL     1      54.691   7.992 -43.290  1.00  0.00     0.157 A 
ATOM     16  C   UNL     1      53.658   7.017 -45.266  1.00  0.00     0.062 A 
ATOM     17  C   UNL     1      53.654   7.231 -43.882  1.00  0.00     0.158 A 
BRANCH  15  18
ATOM     18  O   UNL     1      54.752   8.249 -41.920  1.00  0.00    -0.504 OA
ATOM     19  H   UNL     1      54.585   9.157 -41.508  1.00  0.00     0.293 HD
ENDBRANCH  15  18
BRANCH  17  20
ATOM     20  O   UNL     1      52.612   6.672 -43.138  1.00  0.00    -0.504 OA
ATOM     21  H   UNL     1      51.942   6.014 -43.510  1.00  0.00     0.293 HD
ENDBRANCH  17  20
ENDBRANCH   1  12
BRANCH   2  22
ATOM     22  O   UNL     1      55.880   5.204 -47.271  1.00  0.00    -0.502 OA
ATOM     23  H   UNL     1      55.735   4.206 -47.362  1.00  0.00     0.293 HD
ENDBRANCH   2  22
BRANCH   9  24
ATOM     24  O   UNL     1      52.685   9.902 -52.576  1.00  0.00    -0.508 OA
ATOM     25  H   UNL     1      52.434   9.740 -53.545  1.00  0.00     0.293 HD
ENDBRANCH   9  24
TORSDOF 5
ENDMDL
MODEL 2
REMARK VINA RESULT:    -5.288      1.483      6.888
REMARK INTER + INTRA:          -6.530
REMARK INTER:                  -6.236
REMARK INTRA:                  -0.294
REMARK UNBOUND:                -0.314
REMARK SMILES O=c1c(O)c(-c2ccc(O)c(O)c2)oc2cc(O)ccc12
REMARK SMILES IDX 5 1 3 2 2 3 1 4 21 5 15 6 14 7 16 8 17 9 19 10 20 11 6 12
REMARK SMILES IDX 7 13 8 14 9 15 13 16 11 17 10 18 12 20 4 22 18 24
REMARK H PARENT 10 19 12 21 4 23 18 25
REMARK Flexibility Score: inf
ROOT
ATOM      1  C   UNL     1      53.555   7.611 -47.592  1.00  0.00     0.180 A 
ATOM      2  C   UNL     1      52.432   6.957 -47.042  1.00  0.00     0.208 A 
ATOM      3  C   UNL     1      52.376   6.763 -45.653  1.00  0.00     0.235 A 
ATOM      4  O   UNL     1      51.387   6.171 -45.139  1.00  0.00    -0.285 OA
ATOM      5  C   UNL     1      53.421   7.240 -44.847  1.00  0.00     0.069 A 
ATOM      6  C   UNL     1      54.499   7.905 -45.471  1.00  0.00     0.142 A 
ATOM      7  O   UNL     1      54.518   8.060 -46.790  1.00  0.00    -0.452 OA
ATOM      8  C   UNL     1      55.555   8.403 -44.701  1.00  0.00     0.094 A 
ATOM      9  C   UNL     1      55.549   8.243 -43.308  1.00  0.00     0.119 A 
ATOM     10  C   UNL     1      54.484   7.583 -42.687  1.00  0.00     0.047 A 
ATOM     11  C   UNL     1      53.423   7.083 -43.448  1.00  0.00     0.020 A 
ENDROOT
BRANCH   1  12
ATOM     12  C   UNL     1      53.698   7.836 -49.049  1.00  0.00     0.025 A 
ATOM     13  C   UNL     1      53.338   9.057 -49.639  1.00  0.00     0.016 A 
ATOM     14  C   UNL     1      53.461   9.238 -51.018  1.00  0.00     0.051 A 
ATOM     15  C   UNL     1      53.929   8.203 -51.835  1.00  0.00     0.157 A 
ATOM     16  C   UNL     1      54.148   6.789 -49.868  1.00  0.00     0.062 A 
ATOM     17  C   UNL     1      54.274   6.960 -51.252  1.00  0.00     0.158 A 
BRANCH  15  18
ATOM     18  O   UNL     1      54.032   8.449 -53.206  1.00  0.00    -0.504 OA
ATOM     19  H   UNL     1      53.734   9.307 -53.650  1.00  0.00     0.293 HD
ENDBRANCH  15  18
BRANCH  17  20
ATOM     20  O   UNL     1      54.739   5.879 -52.004  1.00  0.00    -0.504 OA
ATOM     21  H   UNL     1      55.711   5.725 -52.231  1.00  0.00     0.293 HD
ENDBRANCH  17  20
ENDBRANCH   1  12
BRANCH   2  22
ATOM     22  O   UNL     1      51.384   6.537 -47.865  1.00  0.00    -0.502 OA
ATOM     23  H   UNL     1      51.542   6.025 -48.725  1.00  0.00     0.293 HD
ENDBRANCH   2  22
BRANCH   9  24
ATOM     24  O   UNL     1      56.597   8.735 -42.534  1.00  0.00    -0.508 OA
ATOM     25  H   UNL     1      56.431   9.172 -41.634  1.00  0.00     0.293 HD
ENDBRANCH   9  24
TORSDOF 5
ENDMDL
MODEL 3
REMARK VINA RESULT:    -5.183      9.589     12.805
REMARK INTER + INTRA:          -6.406
REMARK INTER:                  -6.091
REMARK INTRA:                  -0.314
REMARK UNBOUND:                -0.314
REMARK SMILES O=c1c(O)c(-c2ccc(O)c(O)c2)oc2cc(O)ccc12
REMARK SMILES IDX 5 1 3 2 2 3 1 4 21 5 15 6 14 7 16 8 17 9 19 10 20 11 6 12
REMARK SMILES IDX 7 13 8 14 9 15 13 16 11 17 10 18 12 20 4 22 18 24
REMARK H PARENT 10 19 12 21 4 23 18 25
REMARK Flexibility Score: inf
ROOT
ATOM      1  C   UNL     1      56.795  -2.237 -51.625  1.00  0.00     0.180 A 
ATOM      2  C   UNL     1      56.875  -1.046 -50.874  1.00  0.00     0.208 A 
ATOM      3  C   UNL     1      57.993  -0.838 -50.051  1.00  0.00     0.235 A 
ATOM      4  O   UNL     1      58.081   0.214 -49.361  1.00  0.00    -0.285 OA
ATOM      5  C   UNL     1      59.009  -1.807 -50.010  1.00  0.00     0.069 A 
ATOM      6  C   UNL     1      58.865  -2.961 -50.809  1.00  0.00     0.142 A 
ATOM      7  O   UNL     1      57.788  -3.123 -51.568  1.00  0.00    -0.452 OA
ATOM      8  C   UNL     1      59.861  -3.944 -50.804  1.00  0.00     0.094 A 
ATOM      9  C   UNL     1      61.002  -3.789 -50.004  1.00  0.00     0.119 A 
ATOM     10  C   UNL     1      61.145  -2.646 -49.210  1.00  0.00     0.047 A 
ATOM     11  C   UNL     1      60.157  -1.658 -49.210  1.00  0.00     0.020 A 
ENDROOT
BRANCH   1  12
ATOM     12  C   UNL     1      55.640  -2.538 -52.502  1.00  0.00     0.025 A 
ATOM     13  C   UNL     1      54.565  -3.320 -52.052  1.00  0.00     0.016 A 
ATOM     14  C   UNL     1      53.498  -3.609 -52.905  1.00  0.00     0.051 A 
ATOM     15  C   UNL     1      53.488  -3.138 -54.222  1.00  0.00     0.157 A 
ATOM     16  C   UNL     1      55.643  -2.081 -53.829  1.00  0.00     0.062 A 
ATOM     17  C   UNL     1      54.577  -2.365 -54.691  1.00  0.00     0.158 A 
BRANCH  15  18
ATOM     18  O   UNL     1      52.389  -3.458 -55.022  1.00  0.00    -0.504 OA
ATOM     19  H   UNL     1      52.423  -4.109 -55.794  1.00  0.00     0.293 HD
ENDBRANCH  15  18
BRANCH  17  20
ATOM     20  O   UNL     1      54.642  -1.868 -55.995  1.00  0.00    -0.504 OA
ATOM     21  H   UNL     1      55.356  -2.123 -56.662  1.00  0.00     0.293 HD
ENDBRANCH  17  20
ENDBRANCH   1  12
BRANCH   2  22
ATOM     22  O   UNL     1      55.871  -0.079 -50.972  1.00  0.00    -0.502 OA
ATOM     23  H   UNL     1      55.994   0.777 -51.500  1.00  0.00     0.293 HD
ENDBRANCH   2  22
BRANCH   9  24
ATOM     24  O   UNL     1      61.998  -4.762 -49.993  1.00  0.00    -0.508 OA
ATOM     25  H   UNL     1      61.835  -5.681 -49.597  1.00  0.00     0.293 HD
ENDBRANCH   9  24
TORSDOF 5
ENDMDL
MODEL 4
REMARK VINA RESULT:    -5.176      1.756      7.023
REMARK INTER + INTRA:          -6.398
REMARK INTER:                  -6.088
REMARK INTRA:                  -0.310
REMARK UNBOUND:                -0.314
REMARK SMILES O=c1c(O)c(-c2ccc(O)c(O)c2)oc2cc(O)ccc12
REMARK SMILES IDX 5 1 3 2 2 3 1 4 21 5 15 6 14 7 16 8 17 9 19 10 20 11 6 12
REMARK SMILES IDX 7 13 8 14 9 15 13 16 11 17 10 18 12 20 4 22 18 24
REMARK H PARENT 10 19 12 21 4 23 18 25
REMARK Flexibility Score: inf
ROOT
ATOM      1  C   UNL     1      54.093   7.364 -46.234  1.00  0.00     0.180 A 
ATOM      2  C   UNL     1      53.062   6.640 -45.598  1.00  0.00     0.208 A 
ATOM      3  C   UNL     1      53.056   6.562 -44.196  1.00  0.00     0.235 A 
ATOM      4  O   UNL     1      52.151   5.912 -43.605  1.00  0.00    -0.285 OA
ATOM      5  C   UNL     1      54.059   7.218 -43.464  1.00  0.00     0.069 A 
ATOM      6  C   UNL     1      55.042   7.940 -44.175  1.00  0.00     0.142 A 
ATOM      7  O   UNL     1      55.016   7.983 -45.502  1.00  0.00    -0.452 OA
ATOM      8  C   UNL     1      56.051   8.616 -43.481  1.00  0.00     0.094 A 
ATOM      9  C   UNL     1      56.093   8.576 -42.079  1.00  0.00     0.119 A 
ATOM     10  C   UNL     1      55.121   7.859 -41.374  1.00  0.00     0.047 A 
ATOM     11  C   UNL     1      54.107   7.183 -42.059  1.00  0.00     0.020 A 
ENDROOT
BRANCH   1  12
ATOM     12  C   UNL     1      54.179   7.477 -47.708  1.00  0.00     0.025 A 
ATOM     13  C   UNL     1      54.998   6.621 -48.460  1.00  0.00     0.016 A 
ATOM     14  C   UNL     1      55.080   6.763 -49.847  1.00  0.00     0.051 A 
ATOM     15  C   UNL     1      54.361   7.765 -50.507  1.00  0.00     0.157 A 
ATOM     16  C   UNL     1      53.472   8.497 -48.365  1.00  0.00     0.062 A 
ATOM     17  C   UNL     1      53.549   8.646 -49.755  1.00  0.00     0.158 A 
BRANCH  15  18
ATOM     18  O   UNL     1      54.484   7.850 -51.895  1.00  0.00    -0.504 OA
ATOM     19  H   UNL     1      54.295   7.085 -52.527  1.00  0.00     0.293 HD
ENDBRANCH  15  18
BRANCH  17  20
ATOM     20  O   UNL     1      52.810   9.676 -50.342  1.00  0.00    -0.504 OA
ATOM     21  H   UNL     1      53.212  10.536 -50.685  1.00  0.00     0.293 HD
ENDBRANCH  17  20
ENDBRANCH   1  12
BRANCH   2  22
ATOM     22  O   UNL     1      52.050   6.039 -46.351  1.00  0.00    -0.502 OA
ATOM     23  H   UNL     1      51.425   5.344 -45.960  1.00  0.00     0.293 HD
ENDBRANCH   2  22
BRANCH   9  24
ATOM     24  O   UNL     1      57.095   9.245 -41.381  1.00  0.00    -0.508 OA
ATOM     25  H   UNL     1      57.033   9.395 -40.380  1.00  0.00     0.293 HD
ENDBRANCH   9  24
TORSDOF 5
ENDMDL
MODEL 5
REMARK VINA RESULT:    -5.159      1.268      1.853
REMARK INTER + INTRA:          -6.377
REMARK INTER:                  -6.078
REMARK INTRA:                  -0.299
REMARK UNBOUND:                -0.314
REMARK SMILES O=c1c(O)c(-c2ccc(O)c(O)c2)oc2cc(O)ccc12
REMARK SMILES IDX 5 1 3 2 2 3 1 4 21 5 15 6 14 7 16 8 17 9 19 10 20 11 6 12
REMARK SMILES IDX 7 13 8 14 9 15 13 16 11 17 10 18 12 20 4 22 18 24
REMARK H PARENT 10 19 12 21 4 23 18 25
REMARK Flexibility Score: inf
ROOT
ATOM      1  C   UNL     1      54.048   7.060 -48.415  1.00  0.00     0.180 A 
ATOM      2  C   UNL     1      54.166   5.754 -48.935  1.00  0.00     0.208 A 
ATOM      3  C   UNL     1      54.124   5.573 -50.327  1.00  0.00     0.235 A 
ATOM      4  O   UNL     1      54.216   4.414 -50.815  1.00  0.00    -0.285 OA
ATOM      5  C   UNL     1      53.985   6.692 -51.164  1.00  0.00     0.069 A 
ATOM      6  C   UNL     1      53.895   7.968 -50.566  1.00  0.00     0.142 A 
ATOM      7  O   UNL     1      53.932   8.095 -49.245  1.00  0.00    -0.452 OA
ATOM      8  C   UNL     1      53.767   9.108 -51.367  1.00  0.00     0.094 A 
ATOM      9  C   UNL     1      53.723   8.989 -52.763  1.00  0.00     0.119 A 
ATOM     10  C   UNL     1      53.810   7.725 -53.357  1.00  0.00     0.047 A 
ATOM     11  C   UNL     1      53.940   6.580 -52.565  1.00  0.00     0.020 A 
ENDROOT
BRANCH   1  12
ATOM     12  C   UNL     1      54.064   7.331 -46.959  1.00  0.00     0.025 A 
ATOM     13  C   UNL     1      52.923   7.135 -46.166  1.00  0.00     0.016 A 
ATOM     14  C   UNL     1      52.958   7.419 -44.800  1.00  0.00     0.051 A 
ATOM     15  C   UNL     1      54.121   7.916 -44.201  1.00  0.00     0.157 A 
ATOM     16  C   UNL     1      55.227   7.848 -46.367  1.00  0.00     0.062 A 
ATOM     17  C   UNL     1      55.270   8.136 -44.997  1.00  0.00     0.158 A 
BRANCH  15  18
ATOM     18  O   UNL     1      54.090   8.175 -42.830  1.00  0.00    -0.504 OA
ATOM     19  H   UNL     1      54.539   7.595 -42.135  1.00  0.00     0.293 HD
ENDBRANCH  15  18
BRANCH  17  20
ATOM     20  O   UNL     1      56.464   8.638 -44.473  1.00  0.00    -0.504 OA
ATOM     21  H   UNL     1      56.615   8.830 -43.494  1.00  0.00     0.293 HD
ENDBRANCH  17  20
ENDBRANCH   1  12
BRANCH   2  22
ATOM     22  O   UNL     1      54.352   4.665 -48.079  1.00  0.00    -0.502 OA
ATOM     23  H   UNL     1      53.828   4.556 -47.220  1.00  0.00     0.293 HD
ENDBRANCH   2  22
BRANCH   9  24
ATOM     24  O   UNL     1      53.595  10.118 -53.568  1.00  0.00    -0.508 OA
ATOM     25  H   UNL     1      54.131  10.960 -53.389  1.00  0.00     0.293 HD
ENDBRANCH   9  24
TORSDOF 5
ENDMDL
MODEL 6
REMARK VINA RESULT:    -5.115      1.700      3.514
REMARK INTER + INTRA:          -6.326
REMARK INTER:                  -6.035
REMARK INTRA:                  -0.291
REMARK UNBOUND:                -0.314
REMARK SMILES O=c1c(O)c(-c2ccc(O)c(O)c2)oc2cc(O)ccc12
REMARK SMILES IDX 5 1 3 2 2 3 1 4 21 5 15 6 14 7 16 8 17 9 19 10 20 11 6 12
REMARK SMILES IDX 7 13 8 14 9 15 13 16 11 17 10 18 12 20 4 22 18 24
REMARK H PARENT 10 19 12 21 4 23 18 25
REMARK Flexibility Score: inf
ROOT
ATOM      1  C   UNL     1      53.863   7.588 -49.002  1.00  0.00     0.180 A 
ATOM      2  C   UNL     1      53.344   8.640 -49.785  1.00  0.00     0.208 A 
ATOM      3  C   UNL     1      53.374   8.520 -51.184  1.00  0.00     0.235 A 
ATOM      4  O   UNL     1      52.927   9.453 -51.906  1.00  0.00    -0.285 OA
ATOM      5  C   UNL     1      53.897   7.354 -51.766  1.00  0.00     0.069 A 
ATOM      6  C   UNL     1      54.375   6.337 -50.912  1.00  0.00     0.142 A 
ATOM      7  O   UNL     1      54.337   6.493 -49.594  1.00  0.00    -0.452 OA
ATOM      8  C   UNL     1      54.894   5.156 -51.453  1.00  0.00     0.094 A 
ATOM      9  C   UNL     1      54.944   4.978 -52.843  1.00  0.00     0.119 A 
ATOM     10  C   UNL     1      54.473   5.986 -53.691  1.00  0.00     0.047 A 
ATOM     11  C   UNL     1      53.951   7.169 -53.159  1.00  0.00     0.020 A 
ENDROOT
BRANCH   1  12
ATOM     12  C   UNL     1      53.885   7.647 -47.522  1.00  0.00     0.025 A 
ATOM     13  C   UNL     1      52.741   7.361 -46.762  1.00  0.00     0.016 A 
ATOM     14  C   UNL     1      52.781   7.446 -45.369  1.00  0.00     0.051 A 
ATOM     15  C   UNL     1      53.954   7.830 -44.709  1.00  0.00     0.157 A 
ATOM     16  C   UNL     1      55.057   8.053 -46.866  1.00  0.00     0.062 A 
ATOM     17  C   UNL     1      55.107   8.141 -45.469  1.00  0.00     0.158 A 
BRANCH  15  18
ATOM     18  O   UNL     1      53.929   7.891 -43.315  1.00  0.00    -0.504 OA
ATOM     19  H   UNL     1      53.271   8.446 -42.785  1.00  0.00     0.293 HD
ENDBRANCH  15  18
BRANCH  17  20
ATOM     20  O   UNL     1      56.310   8.541 -44.883  1.00  0.00    -0.504 OA
ATOM     21  H   UNL     1      57.192   8.069 -45.024  1.00  0.00     0.293 HD
ENDBRANCH  17  20
ENDBRANCH   1  12
BRANCH   2  22
ATOM     22  O   UNL     1      52.787   9.767 -49.177  1.00  0.00    -0.502 OA
ATOM     23  H   UNL     1      51.910  10.170 -49.485  1.00  0.00     0.293 HD
ENDBRANCH   2  22
BRANCH   9  24
ATOM     24  O   UNL     1      55.460   3.806 -53.390  1.00  0.00    -0.508 OA
ATOM     25  H   UNL     1      54.941   2.935 -53.361  1.00  0.00     0.293 HD
ENDBRANCH   9  24
TORSDOF 5
ENDMDL
MODEL 7
REMARK VINA RESULT:    -5.106      1.912      7.200
REMARK INTER + INTRA:          -6.316
REMARK INTER:                  -6.047
REMARK INTRA:                  -0.270
REMARK UNBOUND:                -0.314
REMARK SMILES O=c1c(O)c(-c2ccc(O)c(O)c2)oc2cc(O)ccc12
REMARK SMILES IDX 5 1 3 2 2 3 1 4 21 5 15 6 14 7 16 8 17 9 19 10 20 11 6 12
REMARK SMILES IDX 7 13 8 14 9 15 13 16 11 17 10 18 12 20 4 22 18 24
REMARK H PARENT 10 19 12 21 4 23 18 25
REMARK Flexibility Score: inf
ROOT
ATOM      1  C   UNL     1      54.413   7.401 -45.566  1.00  0.00     0.180 A 
ATOM      2  C   UNL     1      55.419   8.066 -44.834  1.00  0.00     0.208 A 
ATOM      3  C   UNL     1      55.339   8.081 -43.432  1.00  0.00     0.235 A 
ATOM      4  O   UNL     1      56.220   8.679 -42.757  1.00  0.00    -0.285 OA
ATOM      5  C   UNL     1      54.276   7.421 -42.795  1.00  0.00     0.069 A 
ATOM      6  C   UNL     1      53.322   6.759 -43.598  1.00  0.00     0.142 A 
ATOM      7  O   UNL     1      53.430   6.775 -44.921  1.00  0.00    -0.452 OA
ATOM      8  C   UNL     1      52.255   6.080 -43.000  1.00  0.00     0.094 A 
ATOM      9  C   UNL     1      52.125   6.058 -41.604  1.00  0.00     0.119 A 
ATOM     10  C   UNL     1      53.069   6.715 -40.807  1.00  0.00     0.047 A 
ATOM     11  C   UNL     1      54.140   7.394 -41.395  1.00  0.00     0.020 A 
ENDROOT
BRANCH   1  12
ATOM     12  C   UNL     1      54.417   7.356 -47.046  1.00  0.00     0.025 A 
ATOM     13  C   UNL     1      55.270   6.492 -47.749  1.00  0.00     0.016 A 
ATOM     14  C   UNL     1      55.271   6.484 -49.145  1.00  0.00     0.051 A 
ATOM     15  C   UNL     1      54.437   7.346 -49.866  1.00  0.00     0.157 A 
ATOM     16  C   UNL     1      53.594   8.237 -47.765  1.00  0.00     0.062 A 
ATOM     17  C   UNL     1      53.589   8.237 -49.165  1.00  0.00     0.158 A 
BRANCH  15  18
ATOM     18  O   UNL     1      54.483   7.286 -51.260  1.00  0.00    -0.504 OA
ATOM     19  H   UNL     1      55.096   7.853 -51.829  1.00  0.00     0.293 HD
ENDBRANCH  15  18
BRANCH  17  20
ATOM     20  O   UNL     1      52.736   9.132 -49.815  1.00  0.00    -0.504 OA
ATOM     21  H   UNL     1      52.955  10.104 -49.979  1.00  0.00     0.293 HD
ENDBRANCH  17  20
ENDBRANCH   1  12
BRANCH   2  22
ATOM     22  O   UNL     1      56.491   8.673 -45.494  1.00  0.00    -0.502 OA
ATOM     23  H   UNL     1      57.151   9.273 -45.015  1.00  0.00     0.293 HD
ENDBRANCH   2  22
BRANCH   9  24
ATOM     24  O   UNL     1      51.065   5.386 -41.001  1.00  0.00    -0.508 OA
ATOM     25  H   UNL     1      51.000   4.375 -41.018  1.00  0.00     0.293 HD
ENDBRANCH   9  24
TORSDOF 5
ENDMDL
MODEL 8
REMARK VINA RESULT:    -5.096      2.669      4.478
REMARK INTER + INTRA:          -6.304
REMARK INTER:                  -5.995
REMARK INTRA:                  -0.309
REMARK UNBOUND:                -0.314
REMARK SMILES O=c1c(O)c(-c2ccc(O)c(O)c2)oc2cc(O)ccc12
REMARK SMILES IDX 5 1 3 2 2 3 1 4 21 5 15 6 14 7 16 8 17 9 19 10 20 11 6 12
REMARK SMILES IDX 7 13 8 14 9 15 13 16 11 17 10 18 12 20 4 22 18 24
REMARK H PARENT 10 19 12 21 4 23 18 25
REMARK Flexibility Score: inf
ROOT
ATOM      1  C   UNL     1      53.212   7.738 -50.602  1.00  0.00     0.180 A 
ATOM      2  C   UNL     1      53.579   8.816 -51.434  1.00  0.00     0.208 A 
ATOM      3  C   UNL     1      52.790   9.100 -52.560  1.00  0.00     0.235 A 
ATOM      4  O   UNL     1      53.104  10.052 -53.327  1.00  0.00    -0.285 OA
ATOM      5  C   UNL     1      51.649   8.322 -52.818  1.00  0.00     0.069 A 
ATOM      6  C   UNL     1      51.337   7.276 -51.924  1.00  0.00     0.142 A 
ATOM      7  O   UNL     1      52.114   7.034 -50.874  1.00  0.00    -0.452 OA
ATOM      8  C   UNL     1      50.203   6.485 -52.141  1.00  0.00     0.094 A 
ATOM      9  C   UNL     1      49.376   6.726 -53.247  1.00  0.00     0.119 A 
ATOM     10  C   UNL     1      49.685   7.761 -54.135  1.00  0.00     0.047 A 
ATOM     11  C   UNL     1      50.814   8.557 -53.926  1.00  0.00     0.020 A 
ENDROOT
BRANCH   1  12
ATOM     12  C   UNL     1      54.002   7.363 -49.407  1.00  0.00     0.025 A 
ATOM     13  C   UNL     1      55.164   6.583 -49.514  1.00  0.00     0.016 A 
ATOM     14  C   UNL     1      55.880   6.224 -48.371  1.00  0.00     0.051 A 
ATOM     15  C   UNL     1      55.446   6.621 -47.101  1.00  0.00     0.157 A 
ATOM     16  C   UNL     1      53.553   7.746 -48.134  1.00  0.00     0.062 A 
ATOM     17  C   UNL     1      54.264   7.390 -46.981  1.00  0.00     0.158 A 
BRANCH  15  18
ATOM     18  O   UNL     1      56.209   6.232 -45.999  1.00  0.00    -0.504 OA
ATOM     19  H   UNL     1      56.798   5.411 -45.981  1.00  0.00     0.293 HD
ENDBRANCH  15  18
BRANCH  17  20
ATOM     20  O   UNL     1      53.764   7.816 -45.748  1.00  0.00    -0.504 OA
ATOM     21  H   UNL     1      53.851   8.759 -45.398  1.00  0.00     0.293 HD
ENDBRANCH  17  20
ENDBRANCH   1  12
BRANCH   2  22
ATOM     22  O   UNL     1      54.691   9.602 -51.126  1.00  0.00    -0.502 OA
ATOM     23  H   UNL     1      55.414   9.291 -50.489  1.00  0.00     0.293 HD
ENDBRANCH   2  22
BRANCH   9  24
ATOM     24  O   UNL     1      48.246   5.943 -53.470  1.00  0.00    -0.508 OA
ATOM     25  H   UNL     1      48.321   4.984 -53.790  1.00  0.00     0.293 HD
ENDBRANCH   9  24
TORSDOF 5
ENDMDL
MODEL 9
REMARK VINA RESULT:    -4.862      2.261      7.047
REMARK INTER + INTRA:          -6.029
REMARK INTER:                  -5.714
REMARK INTRA:                  -0.316
REMARK UNBOUND:                -0.314
REMARK SMILES O=c1c(O)c(-c2ccc(O)c(O)c2)oc2cc(O)ccc12
REMARK SMILES IDX 5 1 3 2 2 3 1 4 21 5 15 6 14 7 16 8 17 9 19 10 20 11 6 12
REMARK SMILES IDX 7 13 8 14 9 15 13 16 11 17 10 18 12 20 4 22 18 24
REMARK H PARENT 10 19 12 21 4 23 18 25
REMARK Flexibility Score: inf
ROOT
ATOM      1  C   UNL     1      54.504   6.827 -45.492  1.00  0.00     0.180 A 
ATOM      2  C   UNL     1      54.579   5.497 -45.028  1.00  0.00     0.208 A 
ATOM      3  C   UNL     1      55.195   5.245 -43.792  1.00  0.00     0.235 A 
ATOM      4  O   UNL     1      55.284   4.063 -43.361  1.00  0.00    -0.285 OA
ATOM      5  C   UNL     1      55.702   6.319 -43.043  1.00  0.00     0.069 A 
ATOM      6  C   UNL     1      55.567   7.623 -43.566  1.00  0.00     0.142 A 
ATOM      7  O   UNL     1      54.984   7.818 -44.743  1.00  0.00    -0.452 OA
ATOM      8  C   UNL     1      56.050   8.720 -42.844  1.00  0.00     0.094 A 
ATOM      9  C   UNL     1      56.671   8.529 -41.601  1.00  0.00     0.119 A 
ATOM     10  C   UNL     1      56.807   7.237 -41.082  1.00  0.00     0.047 A 
ATOM     11  C   UNL     1      56.326   6.135 -41.795  1.00  0.00     0.020 A 
ENDROOT
BRANCH   1  12
ATOM     12  C   UNL     1      53.887   7.172 -46.794  1.00  0.00     0.025 A 
ATOM     13  C   UNL     1      52.526   7.498 -46.894  1.00  0.00     0.016 A 
ATOM     14  C   UNL     1      51.962   7.797 -48.135  1.00  0.00     0.051 A 
ATOM     15  C   UNL     1      52.737   7.764 -49.300  1.00  0.00     0.157 A 
ATOM     16  C   UNL     1      54.663   7.117 -47.962  1.00  0.00     0.062 A 
ATOM     17  C   UNL     1      54.106   7.415 -49.211  1.00  0.00     0.158 A 
BRANCH  15  18
ATOM     18  O   UNL     1      52.114   8.077 -50.509  1.00  0.00    -0.504 OA
ATOM     19  H   UNL     1      52.020   7.432 -51.280  1.00  0.00     0.293 HD
ENDBRANCH  15  18
BRANCH  17  20
ATOM     20  O   UNL     1      54.941   7.351 -50.330  1.00  0.00    -0.504 OA
ATOM     21  H   UNL     1      54.635   7.537 -51.274  1.00  0.00     0.293 HD
ENDBRANCH  17  20
ENDBRANCH   1  12
BRANCH   2  22
ATOM     22  O   UNL     1      54.023   4.455 -45.774  1.00  0.00    -0.502 OA
ATOM     23  H   UNL     1      53.054   4.457 -46.070  1.00  0.00     0.293 HD
ENDBRANCH   2  22
BRANCH   9  24
ATOM     24  O   UNL     1      57.155   9.615 -40.877  1.00  0.00    -0.508 OA
ATOM     25  H   UNL     1      57.889   9.506 -40.186  1.00  0.00     0.293 HD
ENDBRANCH   9  24
TORSDOF 5
ENDMDL
