MODEL 1
REMARK VINA RESULT:    -2.663      0.000      0.000
REMARK INTER + INTRA:          -4.603
REMARK INTER:                  -3.753
REMARK INTRA:                  -0.850
REMARK UNBOUND:                -0.850
REMARK SMILES CCCCCCCCC(=O)[O-]
REMARK SMILES IDX 6 1 7 2 8 3 9 4 10 5 11 6 5 7 4 8 3 9 2 10 1 11
REMARK H PARENT
REMARK Flexibility Score: inf
ROOT
ATOM      1  C   UNL     1      22.792  22.563  19.314  1.00  0.00     0.000 C 
ENDROOT
BRANCH   1   2
ATOM      2  C   UNL     1      22.627  21.863  20.673  1.00  0.00     0.006 C 
BRANCH   2   3
ATOM      3  C   UNL     1      21.160  21.560  21.008  1.00  0.00     0.053 C 
BRANCH   3   4
ATOM      4  C   UNL     1      20.589  20.591  20.021  1.00  0.00     0.041 C 
ATOM      5  O   UNL     1      19.461  20.803  19.504  1.00  0.00    -0.550 OA
ATOM      6  O   UNL     1      21.282  19.428  19.709  1.00  0.00    -0.550 OA
ENDBRANCH   3   4
ENDBRANCH   2   3
ENDBRANCH   1   2
BRANCH   1   7
ATOM      7  C   UNL     1      22.792  24.097  19.437  1.00  0.00     0.000 C 
BRANCH   7   8
ATOM      8  C   UNL     1      21.793  24.766  18.479  1.00  0.00    -0.000 C 
BRANCH   8   9
ATOM      9  C   UNL     1      20.731  23.789  17.952  1.00  0.00    -0.000 C 
BRANCH   9  10
ATOM     10  C   UNL     1      19.318  24.291  18.269  1.00  0.00    -0.003 C 
ATOM     11  C   UNL     1      19.113  24.450  19.773  1.00  0.00     0.004 C 
ENDBRANCH   9  10
ENDBRANCH   8   9
ENDBRANCH   7   8
ENDBRANCH   1   7
TORSDOF 7
ENDMDL
MODEL 2
REMARK VINA RESULT:    -2.615      2.023      4.018
REMARK INTER + INTRA:          -4.535
REMARK INTER:                  -3.888
REMARK INTRA:                  -0.648
REMARK UNBOUND:                -0.850
REMARK SMILES CCCCCCCCC(=O)[O-]
REMARK SMILES IDX 6 1 7 2 8 3 9 4 10 5 11 6 5 7 4 8 3 9 2 10 1 11
REMARK H PARENT
REMARK Flexibility Score: inf
ROOT
ATOM      1  C   UNL     1      21.620  23.665  18.185  1.00  0.00     0.000 C 
ENDROOT
BRANCH   1   2
ATOM      2  C   UNL     1      20.772  24.943  18.280  1.00  0.00     0.006 C 
BRANCH   2   3
ATOM      3  C   UNL     1      20.070  25.090  19.637  1.00  0.00     0.053 C 
BRANCH   3   4
ATOM      4  C   UNL     1      18.806  24.290  19.660  1.00  0.00     0.041 C 
ATOM      5  O   UNL     1      18.495  23.625  20.683  1.00  0.00    -0.550 OA
ATOM      6  O   UNL     1      17.996  24.239  18.532  1.00  0.00    -0.550 OA
ENDBRANCH   3   4
ENDBRANCH   2   3
ENDBRANCH   1   2
BRANCH   1   7
ATOM      7  C   UNL     1      22.724  23.609  19.256  1.00  0.00     0.000 C 
BRANCH   7   8
ATOM      8  C   UNL     1      22.738  22.274  20.019  1.00  0.00    -0.000 C 
BRANCH   8   9
ATOM      9  C   UNL     1      21.389  21.542  19.962  1.00  0.00    -0.000 C 
BRANCH   9  10
ATOM     10  C   UNL     1      21.570  20.094  19.493  1.00  0.00    -0.003 C 
ATOM     11  C   UNL     1      22.531  20.013  18.310  1.00  0.00     0.004 C 
ENDBRANCH   9  10
ENDBRANCH   8   9
ENDBRANCH   7   8
ENDBRANCH   1   7
TORSDOF 7
ENDMDL
MODEL 3
REMARK VINA RESULT:    -2.368     11.053     13.479
REMARK INTER + INTRA:          -4.186
REMARK INTER:                  -3.496
REMARK INTRA:                  -0.691
REMARK UNBOUND:                -0.850
REMARK SMILES CCCCCCCCC(=O)[O-]
REMARK SMILES IDX 6 1 7 2 8 3 9 4 10 5 11 6 5 7 4 8 3 9 2 10 1 11
REMARK H PARENT
REMARK Flexibility Score: inf
ROOT
ATOM      1  C   UNL     1      18.659  10.963  17.029  1.00  0.00     0.000 C 
ENDROOT
BRANCH   1   2
ATOM      2  C   UNL     1      19.987  10.774  17.780  1.00  0.00     0.006 C 
BRANCH   2   3
ATOM      3  C   UNL     1      21.203  11.212  16.953  1.00  0.00     0.053 C 
BRANCH   3   4
ATOM      4  C   UNL     1      21.331  12.703  16.964  1.00  0.00     0.041 C 
ATOM      5  O   UNL     1      21.085  13.353  18.014  1.00  0.00    -0.550 OA
ATOM      6  O   UNL     1      21.674  13.379  15.800  1.00  0.00    -0.550 OA
ENDBRANCH   3   4
ENDBRANCH   2   3
ENDBRANCH   1   2
BRANCH   1   7
ATOM      7  C   UNL     1      18.226   9.698  16.268  1.00  0.00     0.000 C 
BRANCH   7   8
ATOM      8  C   UNL     1      18.714   8.406  16.944  1.00  0.00    -0.000 C 
BRANCH   8   9
ATOM      9  C   UNL     1      19.055   7.300  15.935  1.00  0.00    -0.000 C 
BRANCH   9  10
ATOM     10  C   UNL     1      20.511   7.413  15.469  1.00  0.00    -0.003 C 
ATOM     11  C   UNL     1      21.470   7.439  16.655  1.00  0.00     0.004 C 
ENDBRANCH   9  10
ENDBRANCH   8   9
ENDBRANCH   7   8
ENDBRANCH   1   7
TORSDOF 7
ENDMDL
MODEL 4
REMARK VINA RESULT:    -2.339      2.336      3.816
REMARK INTER + INTRA:          -4.146
REMARK INTER:                  -3.538
REMARK INTRA:                  -0.608
REMARK UNBOUND:                -0.850
REMARK SMILES CCCCCCCCC(=O)[O-]
REMARK SMILES IDX 6 1 7 2 8 3 9 4 10 5 11 6 5 7 4 8 3 9 2 10 1 11
REMARK H PARENT
REMARK Flexibility Score: inf
ROOT
ATOM      1  C   UNL     1      22.652  21.069  19.148  1.00  0.00     0.000 C 
ENDROOT
BRANCH   1   2
ATOM      2  C   UNL     1      22.701  22.334  20.020  1.00  0.00     0.006 C 
BRANCH   2   3
ATOM      3  C   UNL     1      22.768  23.624  19.190  1.00  0.00     0.053 C 
BRANCH   3   4
ATOM      4  C   UNL     1      21.396  24.185  18.987  1.00  0.00     0.041 C 
ATOM      5  O   UNL     1      20.919  24.291  17.826  1.00  0.00    -0.550 OA
ATOM      6  O   UNL     1      20.662  24.638  20.076  1.00  0.00    -0.550 OA
ENDBRANCH   3   4
ENDBRANCH   2   3
ENDBRANCH   1   2
BRANCH   1   7
ATOM      7  C   UNL     1      21.524  20.109  19.564  1.00  0.00     0.000 C 
BRANCH   7   8
ATOM      8  C   UNL     1      20.632  20.690  20.673  1.00  0.00    -0.000 C 
BRANCH   8   9
ATOM      9  C   UNL     1      19.240  20.042  20.715  1.00  0.00    -0.000 C 
BRANCH   9  10
ATOM     10  C   UNL     1      18.389  20.494  19.523  1.00  0.00    -0.003 C 
ATOM     11  C   UNL     1      18.323  22.016  19.435  1.00  0.00     0.004 C 
ENDBRANCH   9  10
ENDBRANCH   8   9
ENDBRANCH   7   8
ENDBRANCH   1   7
TORSDOF 7
ENDMDL
MODEL 5
REMARK VINA RESULT:    -2.273     10.206     12.725
REMARK INTER + INTRA:          -4.053
REMARK INTER:                  -3.242
REMARK INTRA:                  -0.812
REMARK UNBOUND:                -0.850
REMARK SMILES CCCCCCCCC(=O)[O-]
REMARK SMILES IDX 6 1 7 2 8 3 9 4 10 5 11 6 5 7 4 8 3 9 2 10 1 11
REMARK H PARENT
REMARK Flexibility Score: inf
ROOT
ATOM      1  C   UNL     1      18.132  10.764  17.341  1.00  0.00     0.000 C 
ENDROOT
BRANCH   1   2
ATOM      2  C   UNL     1      19.038  11.920  16.889  1.00  0.00     0.006 C 
BRANCH   2   3
ATOM      3  C   UNL     1      19.727  12.627  18.064  1.00  0.00     0.053 C 
BRANCH   3   4
ATOM      4  C   UNL     1      21.148  12.948  17.719  1.00  0.00     0.041 C 
ATOM      5  O   UNL     1      21.987  13.170  18.631  1.00  0.00    -0.550 OA
ATOM      6  O   UNL     1      21.533  13.050  16.389  1.00  0.00    -0.550 OA
ENDBRANCH   3   4
ENDBRANCH   2   3
ENDBRANCH   1   2
BRANCH   1   7
ATOM      7  C   UNL     1      18.303   9.505  16.473  1.00  0.00     0.000 C 
BRANCH   7   8
ATOM      8  C   UNL     1      19.291   8.498  17.082  1.00  0.00    -0.000 C 
BRANCH   8   9
ATOM      9  C   UNL     1      20.643   8.476  16.353  1.00  0.00    -0.000 C 
BRANCH   9  10
ATOM     10  C   UNL     1      21.679   9.328  17.095  1.00  0.00    -0.003 C 
ATOM     11  C   UNL     1      21.431   9.313  18.601  1.00  0.00     0.004 C 
ENDBRANCH   9  10
ENDBRANCH   8   9
ENDBRANCH   7   8
ENDBRANCH   1   7
TORSDOF 7
ENDMDL
MODEL 6
REMARK VINA RESULT:    -2.215     15.301     16.702
REMARK INTER + INTRA:          -3.972
REMARK INTER:                  -3.268
REMARK INTRA:                  -0.704
REMARK UNBOUND:                -0.850
REMARK SMILES CCCCCCCCC(=O)[O-]
REMARK SMILES IDX 6 1 7 2 8 3 9 4 10 5 11 6 5 7 4 8 3 9 2 10 1 11
REMARK H PARENT
REMARK Flexibility Score: inf
ROOT
ATOM      1  C   UNL     1      23.234   6.805  18.713  1.00  0.00     0.000 C 
ENDROOT
BRANCH   1   2
ATOM      2  C   UNL     1      23.603   5.959  17.484  1.00  0.00     0.006 C 
BRANCH   2   3
ATOM      3  C   UNL     1      24.455   6.732  16.467  1.00  0.00     0.053 C 
BRANCH   3   4
ATOM      4  C   UNL     1      24.385   6.077  15.124  1.00  0.00     0.041 C 
ATOM      5  O   UNL     1      25.404   6.035  14.385  1.00  0.00    -0.550 OA
ATOM      6  O   UNL     1      23.181   5.557  14.666  1.00  0.00    -0.550 OA
ENDBRANCH   3   4
ENDBRANCH   2   3
ENDBRANCH   1   2
BRANCH   1   7
ATOM      7  C   UNL     1      23.834   8.220  18.658  1.00  0.00     0.000 C 
BRANCH   7   8
ATOM      8  C   UNL     1      24.866   8.468  19.770  1.00  0.00    -0.000 C 
BRANCH   8   9
ATOM      9  C   UNL     1      26.313   8.432  19.257  1.00  0.00    -0.000 C 
BRANCH   9  10
ATOM     10  C   UNL     1      27.106   7.306  19.929  1.00  0.00    -0.003 C 
ATOM     11  C   UNL     1      27.041   6.020  19.110  1.00  0.00     0.004 C 
ENDBRANCH   9  10
ENDBRANCH   8   9
ENDBRANCH   7   8
ENDBRANCH   1   7
TORSDOF 7
ENDMDL
MODEL 7
REMARK VINA RESULT:    -2.213     15.269     16.430
REMARK INTER + INTRA:          -3.968
REMARK INTER:                  -3.226
REMARK INTRA:                  -0.742
REMARK UNBOUND:                -0.850
REMARK SMILES CCCCCCCCC(=O)[O-]
REMARK SMILES IDX 6 1 7 2 8 3 9 4 10 5 11 6 5 7 4 8 3 9 2 10 1 11
REMARK H PARENT
REMARK Flexibility Score: inf
ROOT
ATOM      1  C   UNL     1      25.012   6.410  15.004  1.00  0.00     0.000 C 
ENDROOT
BRANCH   1   2
ATOM      2  C   UNL     1      25.350   6.524  16.499  1.00  0.00     0.006 C 
BRANCH   2   3
ATOM      3  C   UNL     1      25.515   7.978  16.961  1.00  0.00     0.053 C 
BRANCH   3   4
ATOM      4  C   UNL     1      26.062   8.025  18.353  1.00  0.00     0.041 C 
ATOM      5  O   UNL     1      26.759   9.004  18.728  1.00  0.00    -0.550 OA
ATOM      6  O   UNL     1      25.843   6.962  19.220  1.00  0.00    -0.550 OA
ENDBRANCH   3   4
ENDBRANCH   2   3
ENDBRANCH   1   2
BRANCH   1   7
ATOM      7  C   UNL     1      23.772   5.537  14.743  1.00  0.00     0.000 C 
BRANCH   7   8
ATOM      8  C   UNL     1      22.791   5.538  15.925  1.00  0.00    -0.000 C 
BRANCH   8   9
ATOM      9  C   UNL     1      21.653   6.556  15.752  1.00  0.00    -0.000 C 
BRANCH   9  10
ATOM     10  C   UNL     1      21.739   7.659  16.813  1.00  0.00    -0.003 C 
ATOM     11  C   UNL     1      22.092   7.084  18.181  1.00  0.00     0.004 C 
ENDBRANCH   9  10
ENDBRANCH   8   9
ENDBRANCH   7   8
ENDBRANCH   1   7
TORSDOF 7
ENDMDL
MODEL 8
REMARK VINA RESULT:    -2.208     13.953     16.043
REMARK INTER + INTRA:          -3.961
REMARK INTER:                  -3.275
REMARK INTRA:                  -0.686
REMARK UNBOUND:                -0.850
REMARK SMILES CCCCCCCCC(=O)[O-]
REMARK SMILES IDX 6 1 7 2 8 3 9 4 10 5 11 6 5 7 4 8 3 9 2 10 1 11
REMARK H PARENT
REMARK Flexibility Score: inf
ROOT
ATOM      1  C   UNL     1      21.414   5.604  16.613  1.00  0.00     0.000 C 
ENDROOT
BRANCH   1   2
ATOM      2  C   UNL     1      22.533   6.287  15.811  1.00  0.00     0.006 C 
BRANCH   2   3
ATOM      3  C   UNL     1      23.683   6.780  16.700  1.00  0.00     0.053 C 
BRANCH   3   4
ATOM      4  C   UNL     1      24.993   6.619  15.994  1.00  0.00     0.041 C 
ATOM      5  O   UNL     1      25.025   6.230  14.797  1.00  0.00    -0.550 OA
ATOM      6  O   UNL     1      26.182   6.850  16.675  1.00  0.00    -0.550 OA
ENDBRANCH   3   4
ENDBRANCH   2   3
ENDBRANCH   1   2
BRANCH   1   7
ATOM      7  C   UNL     1      20.026   6.196  16.312  1.00  0.00     0.000 C 
BRANCH   7   8
ATOM      8  C   UNL     1      20.104   7.515  15.526  1.00  0.00    -0.000 C 
BRANCH   8   9
ATOM      9  C   UNL     1      19.419   8.681  16.254  1.00  0.00    -0.000 C 
BRANCH   9  10
ATOM     10  C   UNL     1      20.261   9.156  17.444  1.00  0.00    -0.003 C 
ATOM     11  C   UNL     1      21.526   9.868  16.976  1.00  0.00     0.004 C 
ENDBRANCH   9  10
ENDBRANCH   8   9
ENDBRANCH   7   8
ENDBRANCH   1   7
TORSDOF 7
ENDMDL
