MODEL 1
REMARK VINA RESULT:    -4.981      0.000      0.000
REMARK INTER + INTRA:         -14.268
REMARK INTER:                 -11.388
REMARK INTRA:                  -2.881
REMARK UNBOUND:                -2.881
REMARK SMILES CCCCCCCCCCCCCCCCCCCCCCCC(=O)[O-]
REMARK SMILES IDX 13 1 14 2 15 3 16 4 17 5 18 6 19 7 20 8 21 9 22 10 23 11
REMARK SMILES IDX 24 12 25 13 26 14 12 15 11 16 10 17 9 18 8 19 7 20 6 21 5 22
REMARK SMILES IDX 4 23 3 24 2 25 1 26
REMARK H PARENT
REMARK Flexibility Score: inf
ROOT
ATOM      1  C   UNL     1     -10.512   7.032 -10.886  1.00  0.00     0.000 C 
ENDROOT
BRANCH   1   2
ATOM      2  C   UNL     1     -11.619   6.634 -11.876  1.00  0.00     0.000 C 
BRANCH   2   3
ATOM      3  C   UNL     1     -12.923   6.217 -11.173  1.00  0.00     0.000 C 
BRANCH   3   4
ATOM      4  C   UNL     1     -12.673   5.580  -9.796  1.00  0.00     0.000 C 
BRANCH   4   5
ATOM      5  C   UNL     1     -12.777   4.045  -9.827  1.00  0.00     0.000 C 
BRANCH   5   6
ATOM      6  C   UNL     1     -11.863   3.368  -8.792  1.00  0.00     0.000 C 
BRANCH   6   7
ATOM      7  C   UNL     1     -10.750   4.301  -8.285  1.00  0.00     0.000 C 
BRANCH   7   8
ATOM      8  C   UNL     1      -9.356   3.849  -8.753  1.00  0.00     0.000 C 
BRANCH   8   9
ATOM      9  C   UNL     1      -9.392   2.482  -9.459  1.00  0.00     0.000 C 
BRANCH   9  10
ATOM     10  C   UNL     1      -8.774   2.528 -10.866  1.00  0.00     0.006 C 
BRANCH  10  11
ATOM     11  C   UNL     1      -9.121   3.813 -11.627  1.00  0.00     0.053 C 
BRANCH  11  12
ATOM     12  C   UNL     1      -7.912   4.355 -12.323  1.00  0.00     0.041 C 
ATOM     13  O   UNL     1      -7.687   5.594 -12.336  1.00  0.00    -0.550 OA
ATOM     14  O   UNL     1      -7.026   3.488 -12.951  1.00  0.00    -0.550 OA
ENDBRANCH  11  12
ENDBRANCH  10  11
ENDBRANCH   9  10
ENDBRANCH   8   9
ENDBRANCH   7   8
ENDBRANCH   6   7
ENDBRANCH   5   6
ENDBRANCH   4   5
ENDBRANCH   3   4
ENDBRANCH   2   3
ENDBRANCH   1   2
BRANCH   1  15
ATOM     15  C   UNL     1      -9.730   8.276 -11.343  1.00  0.00     0.000 C 
BRANCH  15  16
ATOM     16  C   UNL     1      -8.637   8.681 -10.340  1.00  0.00     0.000 C 
BRANCH  16  17
ATOM     17  C   UNL     1      -8.594   7.758  -9.110  1.00  0.00     0.000 C 
BRANCH  17  18
ATOM     18  C   UNL     1      -7.159   7.489  -8.624  1.00  0.00    -0.000 C 
BRANCH  18  19
ATOM     19  C   UNL     1      -6.098   8.124  -9.539  1.00  0.00    -0.000 C 
BRANCH  19  20
ATOM     20  C   UNL     1      -5.269   7.066 -10.299  1.00  0.00    -0.000 C 
BRANCH  20  21
ATOM     21  C   UNL     1      -4.412   7.652 -11.438  1.00  0.00    -0.000 C 
BRANCH  21  22
ATOM     22  C   UNL     1      -2.972   7.110 -11.508  1.00  0.00    -0.000 C 
BRANCH  22  23
ATOM     23  C   UNL     1      -2.211   7.445 -12.806  1.00  0.00    -0.000 C 
BRANCH  23  24
ATOM     24  C   UNL     1      -1.870   8.937 -13.002  1.00  0.00    -0.000 C 
BRANCH  24  25
ATOM     25  C   UNL     1      -2.687   9.651 -14.094  1.00  0.00    -0.003 C 
ATOM     26  C   UNL     1      -2.641   8.925 -15.439  1.00  0.00     0.004 C 
ENDBRANCH  24  25
ENDBRANCH  23  24
ENDBRANCH  22  23
ENDBRANCH  21  22
ENDBRANCH  20  21
ENDBRANCH  19  20
ENDBRANCH  18  19
ENDBRANCH  17  18
ENDBRANCH  16  17
ENDBRANCH  15  16
ENDBRANCH   1  15
TORSDOF 22
ENDMDL
MODEL 2
REMARK VINA RESULT:    -4.942      2.171      6.474
REMARK INTER + INTRA:         -14.179
REMARK INTER:                  -9.650
REMARK INTRA:                  -4.529
REMARK UNBOUND:                -2.881
REMARK SMILES CCCCCCCCCCCCCCCCCCCCCCCC(=O)[O-]
REMARK SMILES IDX 13 1 14 2 15 3 16 4 17 5 18 6 19 7 20 8 21 9 22 10 23 11
REMARK SMILES IDX 24 12 25 13 26 14 12 15 11 16 10 17 9 18 8 19 7 20 6 21 5 22
REMARK SMILES IDX 4 23 3 24 2 25 1 26
REMARK H PARENT
REMARK Flexibility Score: inf
ROOT
ATOM      1  C   UNL     1     -10.151   3.602 -12.182  1.00  0.00     0.000 C 
ENDROOT
BRANCH   1   2
ATOM      2  C   UNL     1      -9.285   2.745 -11.245  1.00  0.00     0.000 C 
BRANCH   2   3
ATOM      3  C   UNL     1      -8.393   3.592 -10.321  1.00  0.00     0.000 C 
BRANCH   3   4
ATOM      4  C   UNL     1      -8.937   5.015 -10.116  1.00  0.00     0.000 C 
BRANCH   4   5
ATOM      5  C   UNL     1      -8.753   5.518  -8.673  1.00  0.00     0.000 C 
BRANCH   5   6
ATOM      6  C   UNL     1      -8.322   6.993  -8.609  1.00  0.00     0.000 C 
BRANCH   6   7
ATOM      7  C   UNL     1      -9.005   7.856  -9.684  1.00  0.00     0.000 C 
BRANCH   7   8
ATOM      8  C   UNL     1      -7.991   8.677 -10.499  1.00  0.00     0.000 C 
BRANCH   8   9
ATOM      9  C   UNL     1      -6.536   8.371 -10.100  1.00  0.00     0.000 C 
BRANCH   9  10
ATOM     10  C   UNL     1      -5.701   7.841 -11.277  1.00  0.00     0.006 C 
BRANCH  10  11
ATOM     11  C   UNL     1      -4.414   7.140 -10.825  1.00  0.00     0.053 C 
BRANCH  11  12
ATOM     12  C   UNL     1      -3.280   7.483 -11.740  1.00  0.00     0.041 C 
ATOM     13  O   UNL     1      -2.089   7.277 -11.383  1.00  0.00    -0.550 OA
ATOM     14  O   UNL     1      -3.538   8.021 -12.994  1.00  0.00    -0.550 OA
ENDBRANCH  11  12
ENDBRANCH  10  11
ENDBRANCH   9  10
ENDBRANCH   8   9
ENDBRANCH   7   8
ENDBRANCH   6   7
ENDBRANCH   5   6
ENDBRANCH   4   5
ENDBRANCH   3   4
ENDBRANCH   2   3
ENDBRANCH   1   2
BRANCH   1  15
ATOM     15  C   UNL     1     -11.538   2.986 -12.434  1.00  0.00     0.000 C 
BRANCH  15  16
ATOM     16  C   UNL     1     -12.003   2.094 -11.271  1.00  0.00     0.000 C 
BRANCH  16  17
ATOM     17  C   UNL     1     -13.041   2.789 -10.373  1.00  0.00     0.000 C 
BRANCH  17  18
ATOM     18  C   UNL     1     -12.436   3.290  -9.051  1.00  0.00    -0.000 C 
BRANCH  18  19
ATOM     19  C   UNL     1     -12.297   4.822  -9.009  1.00  0.00    -0.000 C 
BRANCH  19  20
ATOM     20  C   UNL     1     -13.089   5.514 -10.140  1.00  0.00    -0.000 C 
BRANCH  20  21
ATOM     21  C   UNL     1     -12.247   6.503 -10.969  1.00  0.00    -0.000 C 
BRANCH  21  22
ATOM     22  C   UNL     1     -12.787   6.783 -12.385  1.00  0.00    -0.000 C 
BRANCH  22  23
ATOM     23  C   UNL     1     -11.721   6.794 -13.499  1.00  0.00    -0.000 C 
BRANCH  23  24
ATOM     24  C   UNL     1     -10.299   7.181 -13.044  1.00  0.00    -0.000 C 
BRANCH  24  25
ATOM     25  C   UNL     1      -9.202   6.983 -14.106  1.00  0.00    -0.003 C 
ATOM     26  C   UNL     1      -7.961   6.283 -13.553  1.00  0.00     0.004 C 
ENDBRANCH  24  25
ENDBRANCH  23  24
ENDBRANCH  22  23
ENDBRANCH  21  22
ENDBRANCH  20  21
ENDBRANCH  19  20
ENDBRANCH  18  19
ENDBRANCH  17  18
ENDBRANCH  16  17
ENDBRANCH  15  16
ENDBRANCH   1  15
TORSDOF 22
ENDMDL
MODEL 3
REMARK VINA RESULT:    -4.868      2.295      6.826
REMARK INTER + INTRA:         -14.010
REMARK INTER:                 -10.399
REMARK INTRA:                  -3.611
REMARK UNBOUND:                -2.881
REMARK SMILES CCCCCCCCCCCCCCCCCCCCCCCC(=O)[O-]
REMARK SMILES IDX 13 1 14 2 15 3 16 4 17 5 18 6 19 7 20 8 21 9 22 10 23 11
REMARK SMILES IDX 24 12 25 13 26 14 12 15 11 16 10 17 9 18 8 19 7 20 6 21 5 22
REMARK SMILES IDX 4 23 3 24 2 25 1 26
REMARK H PARENT
REMARK Flexibility Score: inf
ROOT
ATOM      1  C   UNL     1     -10.600   7.144 -10.831  1.00  0.00     0.000 C 
ENDROOT
BRANCH   1   2
ATOM      2  C   UNL     1      -9.667   8.251 -11.347  1.00  0.00     0.000 C 
BRANCH   2   3
ATOM      3  C   UNL     1      -8.838   8.900 -10.225  1.00  0.00     0.000 C 
BRANCH   3   4
ATOM      4  C   UNL     1      -8.307   7.872  -9.213  1.00  0.00     0.000 C 
BRANCH   4   5
ATOM      5  C   UNL     1      -6.771   7.769  -9.223  1.00  0.00     0.000 C 
BRANCH   5   6
ATOM      6  C   UNL     1      -6.156   8.210 -10.561  1.00  0.00     0.000 C 
BRANCH   6   7
ATOM      7  C   UNL     1      -4.849   7.466 -10.885  1.00  0.00     0.000 C 
BRANCH   7   8
ATOM      8  C   UNL     1      -4.586   7.388 -12.399  1.00  0.00     0.000 C 
BRANCH   8   9
ATOM      9  C   UNL     1      -3.323   8.163 -12.814  1.00  0.00     0.000 C 
BRANCH   9  10
ATOM     10  C   UNL     1      -2.034   7.360 -12.576  1.00  0.00     0.006 C 
BRANCH  10  11
ATOM     11  C   UNL     1      -1.176   7.933 -11.442  1.00  0.00     0.053 C 
BRANCH  11  12
ATOM     12  C   UNL     1      -0.808   6.859 -10.467  1.00  0.00     0.041 C 
ATOM     13  O   UNL     1      -1.491   5.802 -10.397  1.00  0.00    -0.550 OA
ATOM     14  O   UNL     1       0.298   7.019  -9.642  1.00  0.00    -0.550 OA
ENDBRANCH  11  12
ENDBRANCH  10  11
ENDBRANCH   9  10
ENDBRANCH   8   9
ENDBRANCH   7   8
ENDBRANCH   6   7
ENDBRANCH   5   6
ENDBRANCH   4   5
ENDBRANCH   3   4
ENDBRANCH   2   3
ENDBRANCH   1   2
BRANCH   1  15
ATOM     15  C   UNL     1     -11.574   6.639 -11.910  1.00  0.00     0.000 C 
BRANCH  15  16
ATOM     16  C   UNL     1     -12.984   6.382 -11.353  1.00  0.00     0.000 C 
BRANCH  16  17
ATOM     17  C   UNL     1     -12.958   5.645 -10.003  1.00  0.00     0.000 C 
BRANCH  17  18
ATOM     18  C   UNL     1     -12.951   4.116 -10.165  1.00  0.00    -0.000 C 
BRANCH  18  19
ATOM     19  C   UNL     1     -12.259   3.401  -8.991  1.00  0.00    -0.000 C 
BRANCH  19  20
ATOM     20  C   UNL     1     -11.239   4.310  -8.269  1.00  0.00    -0.000 C 
BRANCH  20  21
ATOM     21  C   UNL     1      -9.777   4.041  -8.673  1.00  0.00    -0.000 C 
BRANCH  21  22
ATOM     22  C   UNL     1      -9.601   3.057  -9.846  1.00  0.00    -0.000 C 
BRANCH  22  23
ATOM     23  C   UNL     1      -9.123   3.695 -11.166  1.00  0.00    -0.000 C 
BRANCH  23  24
ATOM     24  C   UNL     1      -7.910   4.637 -11.039  1.00  0.00    -0.000 C 
BRANCH  24  25
ATOM     25  C   UNL     1      -7.126   4.864 -12.345  1.00  0.00    -0.003 C 
ATOM     26  C   UNL     1      -7.844   5.803 -13.313  1.00  0.00     0.004 C 
ENDBRANCH  24  25
ENDBRANCH  23  24
ENDBRANCH  22  23
ENDBRANCH  21  22
ENDBRANCH  20  21
ENDBRANCH  19  20
ENDBRANCH  18  19
ENDBRANCH  17  18
ENDBRANCH  16  17
ENDBRANCH  15  16
ENDBRANCH   1  15
TORSDOF 22
ENDMDL
MODEL 4
REMARK VINA RESULT:    -4.852      2.131      6.667
REMARK INTER + INTRA:         -13.973
REMARK INTER:                 -10.359
REMARK INTRA:                  -3.615
REMARK UNBOUND:                -2.881
REMARK SMILES CCCCCCCCCCCCCCCCCCCCCCCC(=O)[O-]
REMARK SMILES IDX 13 1 14 2 15 3 16 4 17 5 18 6 19 7 20 8 21 9 22 10 23 11
REMARK SMILES IDX 24 12 25 13 26 14 12 15 11 16 10 17 9 18 8 19 7 20 6 21 5 22
REMARK SMILES IDX 4 23 3 24 2 25 1 26
REMARK H PARENT
REMARK Flexibility Score: inf
ROOT
ATOM      1  C   UNL     1     -11.000   7.030 -10.955  1.00  0.00     0.000 C 
ENDROOT
BRANCH   1   2
ATOM      2  C   UNL     1     -10.145   7.565 -12.116  1.00  0.00     0.000 C 
BRANCH   2   3
ATOM      3  C   UNL     1      -9.052   8.541 -11.648  1.00  0.00     0.000 C 
BRANCH   3   4
ATOM      4  C   UNL     1      -9.053   8.742 -10.124  1.00  0.00     0.000 C 
BRANCH   4   5
ATOM      5  C   UNL     1      -7.789   8.175  -9.452  1.00  0.00     0.000 C 
BRANCH   5   6
ATOM      6  C   UNL     1      -6.503   8.523 -10.218  1.00  0.00     0.000 C 
BRANCH   6   7
ATOM      7  C   UNL     1      -5.502   7.355 -10.256  1.00  0.00     0.000 C 
BRANCH   7   8
ATOM      8  C   UNL     1      -4.609   7.396 -11.508  1.00  0.00     0.000 C 
BRANCH   8   9
ATOM      9  C   UNL     1      -3.137   7.085 -11.187  1.00  0.00     0.000 C 
BRANCH   9  10
ATOM     10  C   UNL     1      -2.164   7.760 -12.168  1.00  0.00     0.006 C 
BRANCH  10  11
ATOM     11  C   UNL     1      -2.329   7.260 -13.609  1.00  0.00     0.053 C 
BRANCH  11  12
ATOM     12  C   UNL     1      -2.496   8.413 -14.548  1.00  0.00     0.041 C 
ATOM     13  O   UNL     1      -2.633   8.212 -15.784  1.00  0.00    -0.550 OA
ATOM     14  O   UNL     1      -2.511   9.713 -14.057  1.00  0.00    -0.550 OA
ENDBRANCH  11  12
ENDBRANCH  10  11
ENDBRANCH   9  10
ENDBRANCH   8   9
ENDBRANCH   7   8
ENDBRANCH   6   7
ENDBRANCH   5   6
ENDBRANCH   4   5
ENDBRANCH   3   4
ENDBRANCH   2   3
ENDBRANCH   1   2
BRANCH   1  15
ATOM     15  C   UNL     1     -12.347   6.457 -11.428  1.00  0.00     0.000 C 
BRANCH  15  16
ATOM     16  C   UNL     1     -13.125   5.775 -10.290  1.00  0.00     0.000 C 
BRANCH  16  17
ATOM     17  C   UNL     1     -12.589   4.368  -9.970  1.00  0.00     0.000 C 
BRANCH  17  18
ATOM     18  C   UNL     1     -12.056   4.253  -8.532  1.00  0.00    -0.000 C 
BRANCH  18  19
ATOM     19  C   UNL     1     -10.654   3.622  -8.471  1.00  0.00    -0.000 C 
BRANCH  19  20
ATOM     20  C   UNL     1      -9.533   4.657  -8.711  1.00  0.00    -0.000 C 
BRANCH  20  21
ATOM     21  C   UNL     1      -8.338   4.101  -9.508  1.00  0.00    -0.000 C 
BRANCH  21  22
ATOM     22  C   UNL     1      -8.048   4.833 -10.833  1.00  0.00    -0.000 C 
BRANCH  22  23
ATOM     23  C   UNL     1      -8.385   4.032 -12.107  1.00  0.00    -0.000 C 
BRANCH  23  24
ATOM     24  C   UNL     1      -9.513   2.993 -11.951  1.00  0.00    -0.000 C 
BRANCH  24  25
ATOM     25  C   UNL     1     -10.780   3.281 -12.778  1.00  0.00    -0.003 C 
ATOM     26  C   UNL     1     -10.551   4.328 -13.867  1.00  0.00     0.004 C 
ENDBRANCH  24  25
ENDBRANCH  23  24
ENDBRANCH  22  23
ENDBRANCH  21  22
ENDBRANCH  20  21
ENDBRANCH  19  20
ENDBRANCH  18  19
ENDBRANCH  17  18
ENDBRANCH  16  17
ENDBRANCH  15  16
ENDBRANCH   1  15
TORSDOF 22
ENDMDL
MODEL 5
REMARK VINA RESULT:    -4.824      1.919      6.680
REMARK INTER + INTRA:         -13.908
REMARK INTER:                 -10.372
REMARK INTRA:                  -3.535
REMARK UNBOUND:                -2.881
REMARK SMILES CCCCCCCCCCCCCCCCCCCCCCCC(=O)[O-]
REMARK SMILES IDX 13 1 14 2 15 3 16 4 17 5 18 6 19 7 20 8 21 9 22 10 23 11
REMARK SMILES IDX 24 12 25 13 26 14 12 15 11 16 10 17 9 18 8 19 7 20 6 21 5 22
REMARK SMILES IDX 4 23 3 24 2 25 1 26
REMARK H PARENT
REMARK Flexibility Score: inf
ROOT
ATOM      1  C   UNL     1     -10.642   7.091 -10.837  1.00  0.00     0.000 C 
ENDROOT
BRANCH   1   2
ATOM      2  C   UNL     1      -9.757   8.260 -11.301  1.00  0.00     0.000 C 
BRANCH   2   3
ATOM      3  C   UNL     1      -8.932   8.871 -10.155  1.00  0.00     0.000 C 
BRANCH   3   4
ATOM      4  C   UNL     1      -8.543   7.834  -9.089  1.00  0.00     0.000 C 
BRANCH   4   5
ATOM      5  C   UNL     1      -7.019   7.680  -8.941  1.00  0.00     0.000 C 
BRANCH   5   6
ATOM      6  C   UNL     1      -6.253   8.122 -10.199  1.00  0.00     0.000 C 
BRANCH   6   7
ATOM      7  C   UNL     1      -4.944   7.338 -10.401  1.00  0.00     0.000 C 
BRANCH   7   8
ATOM      8  C   UNL     1      -4.502   7.319 -11.874  1.00  0.00     0.000 C 
BRANCH   8   9
ATOM      9  C   UNL     1      -3.077   7.867 -12.064  1.00  0.00     0.000 C 
BRANCH   9  10
ATOM     10  C   UNL     1      -2.983   8.884 -13.213  1.00  0.00     0.006 C 
BRANCH  10  11
ATOM     11  C   UNL     1      -2.308   8.307 -14.464  1.00  0.00     0.053 C 
BRANCH  11  12
ATOM     12  C   UNL     1      -3.213   8.422 -15.649  1.00  0.00     0.041 C 
ATOM     13  O   UNL     1      -3.824   7.409 -16.084  1.00  0.00    -0.550 OA
ATOM     14  O   UNL     1      -3.392   9.652 -16.270  1.00  0.00    -0.550 OA
ENDBRANCH  11  12
ENDBRANCH  10  11
ENDBRANCH   9  10
ENDBRANCH   8   9
ENDBRANCH   7   8
ENDBRANCH   6   7
ENDBRANCH   5   6
ENDBRANCH   4   5
ENDBRANCH   3   4
ENDBRANCH   2   3
ENDBRANCH   1   2
BRANCH   1  15
ATOM     15  C   UNL     1     -11.617   6.618 -11.929  1.00  0.00     0.000 C 
BRANCH  15  16
ATOM     16  C   UNL     1     -13.019   6.322 -11.374  1.00  0.00     0.000 C 
BRANCH  16  17
ATOM     17  C   UNL     1     -12.975   5.607 -10.012  1.00  0.00     0.000 C 
BRANCH  17  18
ATOM     18  C   UNL     1     -12.980   4.075 -10.149  1.00  0.00    -0.000 C 
BRANCH  18  19
ATOM     19  C   UNL     1     -12.215   3.378  -9.010  1.00  0.00    -0.000 C 
BRANCH  19  20
ATOM     20  C   UNL     1     -11.211   4.323  -8.313  1.00  0.00    -0.000 C 
BRANCH  20  21
ATOM     21  C   UNL     1      -9.744   4.066  -8.707  1.00  0.00    -0.000 C 
BRANCH  21  22
ATOM     22  C   UNL     1      -9.546   3.001  -9.803  1.00  0.00    -0.000 C 
BRANCH  22  23
ATOM     23  C   UNL     1      -9.018   3.541 -11.147  1.00  0.00    -0.000 C 
BRANCH  23  24
ATOM     24  C   UNL     1      -8.018   4.709 -11.040  1.00  0.00    -0.000 C 
BRANCH  24  25
ATOM     25  C   UNL     1      -7.267   5.042 -12.342  1.00  0.00    -0.003 C 
ATOM     26  C   UNL     1      -8.134   5.794 -13.352  1.00  0.00     0.004 C 
ENDBRANCH  24  25
ENDBRANCH  23  24
ENDBRANCH  22  23
ENDBRANCH  21  22
ENDBRANCH  20  21
ENDBRANCH  19  20
ENDBRANCH  18  19
ENDBRANCH  17  18
ENDBRANCH  16  17
ENDBRANCH  15  16
ENDBRANCH   1  15
TORSDOF 22
ENDMDL
MODEL 6
REMARK VINA RESULT:    -4.775     11.783     14.123
REMARK INTER + INTRA:         -13.796
REMARK INTER:                 -11.495
REMARK INTRA:                  -2.300
REMARK UNBOUND:                -2.881
REMARK SMILES CCCCCCCCCCCCCCCCCCCCCCCC(=O)[O-]
REMARK SMILES IDX 13 1 14 2 15 3 16 4 17 5 18 6 19 7 20 8 21 9 22 10 23 11
REMARK SMILES IDX 24 12 25 13 26 14 12 15 11 16 10 17 9 18 8 19 7 20 6 21 5 22
REMARK SMILES IDX 4 23 3 24 2 25 1 26
REMARK H PARENT
REMARK Flexibility Score: inf
ROOT
ATOM      1  C   UNL     1      -8.948  -0.773 -23.981  1.00  0.00     0.000 C 
ENDROOT
BRANCH   1   2
ATOM      2  C   UNL     1      -8.512  -0.603 -25.446  1.00  0.00     0.000 C 
BRANCH   2   3
ATOM      3  C   UNL     1      -9.692  -0.685 -26.430  1.00  0.00     0.000 C 
BRANCH   3   4
ATOM      4  C   UNL     1     -10.934   0.067 -25.927  1.00  0.00     0.000 C 
BRANCH   4   5
ATOM      5  C   UNL     1     -12.236  -0.725 -26.148  1.00  0.00     0.000 C 
BRANCH   5   6
ATOM      6  C   UNL     1     -11.985  -2.221 -26.400  1.00  0.00     0.000 C 
BRANCH   6   7
ATOM      7  C   UNL     1     -12.218  -3.080 -25.145  1.00  0.00     0.000 C 
BRANCH   7   8
ATOM      8  C   UNL     1     -12.962  -2.307 -24.043  1.00  0.00     0.000 C 
BRANCH   8   9
ATOM      9  C   UNL     1     -12.154  -2.229 -22.736  1.00  0.00     0.000 C 
BRANCH   9  10
ATOM     10  C   UNL     1     -12.236  -0.845 -22.073  1.00  0.00     0.006 C 
BRANCH  10  11
ATOM     11  C   UNL     1     -11.822  -0.867 -20.596  1.00  0.00     0.053 C 
BRANCH  11  12
ATOM     12  C   UNL     1     -11.895   0.508 -20.009  1.00  0.00     0.041 C 
ATOM     13  O   UNL     1     -10.945   1.320 -20.172  1.00  0.00    -0.550 OA
ATOM     14  O   UNL     1     -13.018   0.898 -19.291  1.00  0.00    -0.550 OA
ENDBRANCH  11  12
ENDBRANCH  10  11
ENDBRANCH   9  10
ENDBRANCH   8   9
ENDBRANCH   7   8
ENDBRANCH   6   7
ENDBRANCH   5   6
ENDBRANCH   4   5
ENDBRANCH   3   4
ENDBRANCH   2   3
ENDBRANCH   1   2
BRANCH   1  15
ATOM     15  C   UNL     1      -7.765  -0.703 -22.999  1.00  0.00     0.000 C 
BRANCH  15  16
ATOM     16  C   UNL     1      -8.223  -0.525 -21.543  1.00  0.00     0.000 C 
BRANCH  16  17
ATOM     17  C   UNL     1      -7.220  -1.110 -20.534  1.00  0.00     0.000 C 
BRANCH  17  18
ATOM     18  C   UNL     1      -6.047  -1.833 -21.219  1.00  0.00    -0.000 C 
BRANCH  18  19
ATOM     19  C   UNL     1      -4.850  -2.040 -20.276  1.00  0.00    -0.000 C 
BRANCH  19  20
ATOM     20  C   UNL     1      -5.104  -1.460 -18.867  1.00  0.00    -0.000 C 
BRANCH  20  21
ATOM     21  C   UNL     1      -3.930  -1.666 -17.891  1.00  0.00    -0.000 C 
BRANCH  21  22
ATOM     22  C   UNL     1      -3.221  -3.029 -18.012  1.00  0.00    -0.000 C 
BRANCH  22  23
ATOM     23  C   UNL     1      -2.298  -3.391 -16.832  1.00  0.00    -0.000 C 
BRANCH  23  24
ATOM     24  C   UNL     1      -3.018  -3.685 -15.500  1.00  0.00    -0.000 C 
BRANCH  24  25
ATOM     25  C   UNL     1      -2.645  -2.745 -14.339  1.00  0.00    -0.003 C 
ATOM     26  C   UNL     1      -3.199  -3.215 -12.995  1.00  0.00     0.004 C 
ENDBRANCH  24  25
ENDBRANCH  23  24
ENDBRANCH  22  23
ENDBRANCH  21  22
ENDBRANCH  20  21
ENDBRANCH  19  20
ENDBRANCH  18  19
ENDBRANCH  17  18
ENDBRANCH  16  17
ENDBRANCH  15  16
ENDBRANCH   1  15
TORSDOF 22
ENDMDL
MODEL 7
REMARK VINA RESULT:    -4.680      2.205      6.720
REMARK INTER + INTRA:         -13.579
REMARK INTER:                  -9.857
REMARK INTRA:                  -3.722
REMARK UNBOUND:                -2.881
REMARK SMILES CCCCCCCCCCCCCCCCCCCCCCCC(=O)[O-]
REMARK SMILES IDX 13 1 14 2 15 3 16 4 17 5 18 6 19 7 20 8 21 9 22 10 23 11
REMARK SMILES IDX 24 12 25 13 26 14 12 15 11 16 10 17 9 18 8 19 7 20 6 21 5 22
REMARK SMILES IDX 4 23 3 24 2 25 1 26
REMARK H PARENT
REMARK Flexibility Score: inf
ROOT
ATOM      1  C   UNL     1      -9.831   6.981 -14.199  1.00  0.00     0.000 C 
ENDROOT
BRANCH   1   2
ATOM      2  C   UNL     1      -9.096   7.024 -12.850  1.00  0.00     0.000 C 
BRANCH   2   3
ATOM      3  C   UNL     1      -9.380   8.314 -12.060  1.00  0.00     0.000 C 
BRANCH   3   4
ATOM      4  C   UNL     1      -9.763   8.038 -10.597  1.00  0.00     0.000 C 
BRANCH   4   5
ATOM      5  C   UNL     1      -8.741   8.611  -9.599  1.00  0.00     0.000 C 
BRANCH   5   6
ATOM      6  C   UNL     1      -8.037   7.519  -8.778  1.00  0.00     0.000 C 
BRANCH   6   7
ATOM      7  C   UNL     1      -6.558   7.346  -9.168  1.00  0.00     0.000 C 
BRANCH   7   8
ATOM      8  C   UNL     1      -6.081   8.444 -10.133  1.00  0.00     0.000 C 
BRANCH   8   9
ATOM      9  C   UNL     1      -5.488   7.865 -11.430  1.00  0.00     0.000 C 
BRANCH   9  10
ATOM     10  C   UNL     1      -4.155   7.136 -11.195  1.00  0.00     0.006 C 
BRANCH  10  11
ATOM     11  C   UNL     1      -3.300   7.037 -12.465  1.00  0.00     0.053 C 
BRANCH  11  12
ATOM     12  C   UNL     1      -2.506   8.289 -12.662  1.00  0.00     0.041 C 
ATOM     13  O   UNL     1      -1.491   8.518 -11.950  1.00  0.00    -0.550 OA
ATOM     14  O   UNL     1      -2.879   9.202 -13.641  1.00  0.00    -0.550 OA
ENDBRANCH  11  12
ENDBRANCH  10  11
ENDBRANCH   9  10
ENDBRANCH   8   9
ENDBRANCH   7   8
ENDBRANCH   6   7
ENDBRANCH   5   6
ENDBRANCH   4   5
ENDBRANCH   3   4
ENDBRANCH   2   3
ENDBRANCH   1   2
BRANCH   1  15
ATOM     15  C   UNL     1     -11.354   7.141 -14.048  1.00  0.00     0.000 C 
BRANCH  15  16
ATOM     16  C   UNL     1     -11.959   6.108 -13.083  1.00  0.00     0.000 C 
BRANCH  16  17
ATOM     17  C   UNL     1     -13.125   6.683 -12.259  1.00  0.00     0.000 C 
BRANCH  17  18
ATOM     18  C   UNL     1     -12.980   6.400 -10.754  1.00  0.00    -0.000 C 
BRANCH  18  19
ATOM     19  C   UNL     1     -12.706   4.916 -10.457  1.00  0.00    -0.000 C 
BRANCH  19  20
ATOM     20  C   UNL     1     -12.255   4.682  -8.998  1.00  0.00    -0.000 C 
BRANCH  20  21
ATOM     21  C   UNL     1     -11.143   3.626  -8.856  1.00  0.00    -0.000 C 
BRANCH  21  22
ATOM     22  C   UNL     1      -9.717   4.199  -8.752  1.00  0.00    -0.000 C 
BRANCH  22  23
ATOM     23  C   UNL     1      -8.964   4.322 -10.092  1.00  0.00    -0.000 C 
BRANCH  23  24
ATOM     24  C   UNL     1      -9.093   3.106 -11.032  1.00  0.00    -0.000 C 
BRANCH  24  25
ATOM     25  C   UNL     1      -9.808   3.391 -12.365  1.00  0.00    -0.003 C 
ATOM     26  C   UNL     1     -11.081   2.564 -12.544  1.00  0.00     0.004 C 
ENDBRANCH  24  25
ENDBRANCH  23  24
ENDBRANCH  22  23
ENDBRANCH  21  22
ENDBRANCH  20  21
ENDBRANCH  19  20
ENDBRANCH  18  19
ENDBRANCH  17  18
ENDBRANCH  16  17
ENDBRANCH  15  16
ENDBRANCH   1  15
TORSDOF 22
ENDMDL
MODEL 8
REMARK VINA RESULT:    -4.664      2.265      7.396
REMARK INTER + INTRA:         -13.543
REMARK INTER:                 -10.013
REMARK INTRA:                  -3.530
REMARK UNBOUND:                -2.881
REMARK SMILES CCCCCCCCCCCCCCCCCCCCCCCC(=O)[O-]
REMARK SMILES IDX 13 1 14 2 15 3 16 4 17 5 18 6 19 7 20 8 21 9 22 10 23 11
REMARK SMILES IDX 24 12 25 13 26 14 12 15 11 16 10 17 9 18 8 19 7 20 6 21 5 22
REMARK SMILES IDX 4 23 3 24 2 25 1 26
REMARK H PARENT
REMARK Flexibility Score: inf
ROOT
ATOM      1  C   UNL     1      -8.333   6.810 -12.879  1.00  0.00     0.000 C 
ENDROOT
BRANCH   1   2
ATOM      2  C   UNL     1      -9.328   7.968 -12.700  1.00  0.00     0.000 C 
BRANCH   2   3
ATOM      3  C   UNL     1      -8.994   8.856 -11.488  1.00  0.00     0.000 C 
BRANCH   3   4
ATOM      4  C   UNL     1      -9.361   8.193 -10.151  1.00  0.00     0.000 C 
BRANCH   4   5
ATOM      5  C   UNL     1      -8.137   7.977  -9.242  1.00  0.00     0.000 C 
BRANCH   5   6
ATOM      6  C   UNL     1      -6.813   8.343  -9.932  1.00  0.00     0.000 C 
BRANCH   6   7
ATOM      7  C   UNL     1      -5.685   7.345  -9.617  1.00  0.00     0.000 C 
BRANCH   7   8
ATOM      8  C   UNL     1      -5.032   6.788 -10.893  1.00  0.00     0.000 C 
BRANCH   8   9
ATOM      9  C   UNL     1      -4.430   7.897 -11.773  1.00  0.00     0.000 C 
BRANCH   9  10
ATOM     10  C   UNL     1      -3.001   7.573 -12.237  1.00  0.00     0.006 C 
BRANCH  10  11
ATOM     11  C   UNL     1      -2.366   8.710 -13.049  1.00  0.00     0.053 C 
BRANCH  11  12
ATOM     12  C   UNL     1      -2.480   8.434 -14.515  1.00  0.00     0.041 C 
ATOM     13  O   UNL     1      -2.606   9.385 -15.333  1.00  0.00    -0.550 OA
ATOM     14  O   UNL     1      -2.436   7.127 -14.982  1.00  0.00    -0.550 OA
ENDBRANCH  11  12
ENDBRANCH  10  11
ENDBRANCH   9  10
ENDBRANCH   8   9
ENDBRANCH   7   8
ENDBRANCH   6   7
ENDBRANCH   5   6
ENDBRANCH   4   5
ENDBRANCH   3   4
ENDBRANCH   2   3
ENDBRANCH   1   2
BRANCH   1  15
ATOM     15  C   UNL     1      -8.998   5.430 -12.736  1.00  0.00     0.000 C 
BRANCH  15  16
ATOM     16  C   UNL     1     -10.533   5.518 -12.730  1.00  0.00     0.000 C 
BRANCH  16  17
ATOM     17  C   UNL     1     -11.202   4.134 -12.805  1.00  0.00     0.000 C 
BRANCH  17  18
ATOM     18  C   UNL     1     -12.373   3.991 -11.817  1.00  0.00    -0.000 C 
BRANCH  18  19
ATOM     19  C   UNL     1     -12.556   2.545 -11.325  1.00  0.00    -0.000 C 
BRANCH  19  20
ATOM     20  C   UNL     1     -13.082   2.479  -9.875  1.00  0.00    -0.000 C 
BRANCH  20  21
ATOM     21  C   UNL     1     -12.175   1.676  -8.923  1.00  0.00    -0.000 C 
BRANCH  21  22
ATOM     22  C   UNL     1     -11.222   2.529  -8.065  1.00  0.00    -0.000 C 
BRANCH  22  23
ATOM     23  C   UNL     1     -11.386   4.054  -8.228  1.00  0.00    -0.000 C 
BRANCH  23  24
ATOM     24  C   UNL     1     -10.227   4.766  -8.954  1.00  0.00    -0.000 C 
BRANCH  24  25
ATOM     25  C   UNL     1      -9.200   3.827  -9.613  1.00  0.00    -0.003 C 
ATOM     26  C   UNL     1      -7.756   4.205  -9.286  1.00  0.00     0.004 C 
ENDBRANCH  24  25
ENDBRANCH  23  24
ENDBRANCH  22  23
ENDBRANCH  21  22
ENDBRANCH  20  21
ENDBRANCH  19  20
ENDBRANCH  18  19
ENDBRANCH  17  18
ENDBRANCH  16  17
ENDBRANCH  15  16
ENDBRANCH   1  15
TORSDOF 22
ENDMDL
MODEL 9
REMARK VINA RESULT:    -4.644      2.026      6.147
REMARK INTER + INTRA:         -13.497
REMARK INTER:                  -9.014
REMARK INTRA:                  -4.484
REMARK UNBOUND:                -2.881
REMARK SMILES CCCCCCCCCCCCCCCCCCCCCCCC(=O)[O-]
REMARK SMILES IDX 13 1 14 2 15 3 16 4 17 5 18 6 19 7 20 8 21 9 22 10 23 11
REMARK SMILES IDX 24 12 25 13 26 14 12 15 11 16 10 17 9 18 8 19 7 20 6 21 5 22
REMARK SMILES IDX 4 23 3 24 2 25 1 26
REMARK H PARENT
REMARK Flexibility Score: inf
ROOT
ATOM      1  C   UNL     1     -10.569   6.910 -10.888  1.00  0.00     0.000 C 
ENDROOT
BRANCH   1   2
ATOM      2  C   UNL     1      -9.750   8.169 -11.216  1.00  0.00     0.000 C 
BRANCH   2   3
ATOM      3  C   UNL     1      -8.846   8.609 -10.051  1.00  0.00     0.000 C 
BRANCH   3   4
ATOM      4  C   UNL     1      -8.592   7.479  -9.041  1.00  0.00     0.000 C 
BRANCH   4   5
ATOM      5  C   UNL     1      -7.144   7.464  -8.519  1.00  0.00     0.000 C 
BRANCH   5   6
ATOM      6  C   UNL     1      -6.200   8.335  -9.364  1.00  0.00     0.000 C 
BRANCH   6   7
ATOM      7  C   UNL     1      -5.234   7.500 -10.223  1.00  0.00     0.000 C 
BRANCH   7   8
ATOM      8  C   UNL     1      -5.629   7.503 -11.709  1.00  0.00     0.000 C 
BRANCH   8   9
ATOM      9  C   UNL     1      -6.451   6.262 -12.098  1.00  0.00     0.000 C 
BRANCH   9  10
ATOM     10  C   UNL     1      -7.392   6.524 -13.284  1.00  0.00     0.006 C 
BRANCH  10  11
ATOM     11  C   UNL     1      -7.356   5.405 -14.332  1.00  0.00     0.053 C 
BRANCH  11  12
ATOM     12  C   UNL     1      -5.943   5.014 -14.633  1.00  0.00     0.041 C 
ATOM     13  O   UNL     1      -5.538   3.848 -14.379  1.00  0.00    -0.550 OA
ATOM     14  O   UNL     1      -5.074   5.934 -15.205  1.00  0.00    -0.550 OA
ENDBRANCH  11  12
ENDBRANCH  10  11
ENDBRANCH   9  10
ENDBRANCH   8   9
ENDBRANCH   7   8
ENDBRANCH   6   7
ENDBRANCH   5   6
ENDBRANCH   4   5
ENDBRANCH   3   4
ENDBRANCH   2   3
ENDBRANCH   1   2
BRANCH   1  15
ATOM     15  C   UNL     1     -11.812   6.763 -11.783  1.00  0.00     0.000 C 
BRANCH  15  16
ATOM     16  C   UNL     1     -13.066   6.373 -10.985  1.00  0.00     0.000 C 
BRANCH  16  17
ATOM     17  C   UNL     1     -12.739   5.500  -9.762  1.00  0.00     0.000 C 
BRANCH  17  18
ATOM     18  C   UNL     1     -12.766   3.996 -10.086  1.00  0.00    -0.000 C 
BRANCH  18  19
ATOM     19  C   UNL     1     -11.954   3.161  -9.081  1.00  0.00    -0.000 C 
BRANCH  19  20
ATOM     20  C   UNL     1     -11.220   4.040  -8.045  1.00  0.00    -0.000 C 
BRANCH  20  21
ATOM     21  C   UNL     1      -9.694   4.096  -8.251  1.00  0.00    -0.000 C 
BRANCH  21  22
ATOM     22  C   UNL     1      -9.154   3.146  -9.337  1.00  0.00    -0.000 C 
BRANCH  22  23
ATOM     23  C   UNL     1      -8.555   3.845 -10.575  1.00  0.00    -0.000 C 
BRANCH  23  24
ATOM     24  C   UNL     1      -8.174   2.909 -11.739  1.00  0.00    -0.000 C 
BRANCH  24  25
ATOM     25  C   UNL     1      -9.345   2.499 -12.651  1.00  0.00    -0.003 C 
ATOM     26  C   UNL     1     -10.346   3.632 -12.876  1.00  0.00     0.004 C 
ENDBRANCH  24  25
ENDBRANCH  23  24
ENDBRANCH  22  23
ENDBRANCH  21  22
ENDBRANCH  20  21
ENDBRANCH  19  20
ENDBRANCH  18  19
ENDBRANCH  17  18
ENDBRANCH  16  17
ENDBRANCH  15  16
ENDBRANCH   1  15
TORSDOF 22
ENDMDL
