MODEL 1
REMARK VINA RESULT:    -4.107      0.000      0.000
REMARK INTER + INTRA:          -7.149
REMARK INTER:                  -6.268
REMARK INTRA:                  -0.880
REMARK UNBOUND:                -0.880
REMARK SMILES O=C([O-])CCCCCCCCC(=O)[O-]
REMARK SMILES IDX 7 1 6 2 5 3 4 4 2 5 1 6 3 7 8 8 9 9 10 10 11 11 12 12 13 13
REMARK SMILES IDX 14 14
REMARK H PARENT
REMARK Flexibility Score: inf
ROOT
ATOM      1  C   UNL     1      -3.932   6.197 -60.146  1.00  0.00     0.000 C 
ENDROOT
BRANCH   1   2
ATOM      2  C   UNL     1      -4.720   6.469 -58.855  1.00  0.00     0.000 C 
BRANCH   2   3
ATOM      3  C   UNL     1      -5.397   7.851 -58.853  1.00  0.00     0.006 C 
BRANCH   3   4
ATOM      4  C   UNL     1      -5.012   8.682 -57.622  1.00  0.00     0.053 C 
BRANCH   4   5
ATOM      5  C   UNL     1      -3.528   8.845 -57.502  1.00  0.00     0.041 C 
ATOM      6  O   UNL     1      -2.925   8.428 -56.480  1.00  0.00    -0.550 OA
ATOM      7  O   UNL     1      -2.807   9.431 -58.535  1.00  0.00    -0.550 OA
ENDBRANCH   4   5
ENDBRANCH   3   4
ENDBRANCH   2   3
ENDBRANCH   1   2
BRANCH   1   8
ATOM      8  C   UNL     1      -2.414   6.108 -59.906  1.00  0.00     0.000 C 
BRANCH   8   9
ATOM      9  C   UNL     1      -2.068   5.567 -58.510  1.00  0.00     0.000 C 
BRANCH   9  10
ATOM     10  C   UNL     1      -0.711   6.080 -57.995  1.00  0.00     0.006 C 
BRANCH  10  11
ATOM     11  C   UNL     1      -0.193   5.255 -56.809  1.00  0.00     0.053 C 
BRANCH  11  12
ATOM     12  C   UNL     1      -0.473   5.923 -55.499  1.00  0.00     0.041 C 
ATOM     13  O   UNL     1       0.315   6.798 -55.052  1.00  0.00    -0.550 OA
ATOM     14  O   UNL     1      -1.621   5.602 -54.785  1.00  0.00    -0.550 OA
ENDBRANCH  11  12
ENDBRANCH  10  11
ENDBRANCH   9  10
ENDBRANCH   8   9
ENDBRANCH   1   8
TORSDOF 9
ENDMDL
MODEL 2
REMARK VINA RESULT:    -4.104      1.080      4.806
REMARK INTER + INTRA:          -7.144
REMARK INTER:                  -6.552
REMARK INTRA:                  -0.591
REMARK UNBOUND:                -0.880
REMARK SMILES O=C([O-])CCCCCCCCC(=O)[O-]
REMARK SMILES IDX 7 1 6 2 5 3 4 4 2 5 1 6 3 7 8 8 9 9 10 10 11 11 12 12 13 13
REMARK SMILES IDX 14 14
REMARK H PARENT
REMARK Flexibility Score: inf
ROOT
ATOM      1  C   UNL     1      -0.913   6.483 -58.446  1.00  0.00     0.000 C 
ENDROOT
BRANCH   1   2
ATOM      2  C   UNL     1      -0.441   5.095 -57.985  1.00  0.00     0.000 C 
BRANCH   2   3
ATOM      3  C   UNL     1      -0.137   5.042 -56.477  1.00  0.00     0.006 C 
BRANCH   3   4
ATOM      4  C   UNL     1      -0.568   6.325 -55.754  1.00  0.00     0.053 C 
BRANCH   4   5
ATOM      5  C   UNL     1       0.152   6.499 -54.453  1.00  0.00     0.041 C 
ATOM      6  O   UNL     1       0.509   5.493 -53.786  1.00  0.00    -0.550 OA
ATOM      7  O   UNL     1       0.455   7.774 -53.991  1.00  0.00    -0.550 OA
ENDBRANCH   4   5
ENDBRANCH   3   4
ENDBRANCH   2   3
ENDBRANCH   1   2
BRANCH   1   8
ATOM      8  C   UNL     1      -2.035   6.408 -59.497  1.00  0.00     0.000 C 
BRANCH   8   9
ATOM      9  C   UNL     1      -3.433   6.333 -58.864  1.00  0.00     0.000 C 
BRANCH   9  10
ATOM     10  C   UNL     1      -4.415   7.351 -59.473  1.00  0.00     0.006 C 
BRANCH  10  11
ATOM     11  C   UNL     1      -4.793   8.456 -58.477  1.00  0.00     0.053 C 
BRANCH  11  12
ATOM     12  C   UNL     1      -3.585   9.134 -57.911  1.00  0.00     0.041 C 
ATOM     13  O   UNL     1      -2.841   9.827 -58.653  1.00  0.00    -0.550 OA
ATOM     14  O   UNL     1      -3.295   9.026 -56.556  1.00  0.00    -0.550 OA
ENDBRANCH  11  12
ENDBRANCH  10  11
ENDBRANCH   9  10
ENDBRANCH   8   9
ENDBRANCH   1   8
TORSDOF 9
ENDMDL
MODEL 3
REMARK VINA RESULT:    -4.088      1.158      1.676
REMARK INTER + INTRA:          -7.120
REMARK INTER:                  -6.472
REMARK INTRA:                  -0.647
REMARK UNBOUND:                -0.880
REMARK SMILES O=C([O-])CCCCCCCCC(=O)[O-]
REMARK SMILES IDX 7 1 6 2 5 3 4 4 2 5 1 6 3 7 8 8 9 9 10 10 11 11 12 12 13 13
REMARK SMILES IDX 14 14
REMARK H PARENT
REMARK Flexibility Score: inf
ROOT
ATOM      1  C   UNL     1      -2.382   6.284 -59.766  1.00  0.00     0.000 C 
ENDROOT
BRANCH   1   2
ATOM      2  C   UNL     1      -3.746   6.290 -59.059  1.00  0.00     0.000 C 
BRANCH   2   3
ATOM      3  C   UNL     1      -4.624   7.485 -59.472  1.00  0.00     0.006 C 
BRANCH   3   4
ATOM      4  C   UNL     1      -5.180   8.241 -58.258  1.00  0.00     0.053 C 
BRANCH   4   5
ATOM      5  C   UNL     1      -4.090   8.882 -57.454  1.00  0.00     0.041 C 
ATOM      6  O   UNL     1      -3.958   8.607 -56.233  1.00  0.00    -0.550 OA
ATOM      7  O   UNL     1      -3.202   9.760 -58.062  1.00  0.00    -0.550 OA
ENDBRANCH   4   5
ENDBRANCH   3   4
ENDBRANCH   2   3
ENDBRANCH   1   2
BRANCH   1   8
ATOM      8  C   UNL     1      -1.269   6.918 -58.911  1.00  0.00     0.000 C 
BRANCH   8   9
ATOM      9  C   UNL     1      -0.755   5.972 -57.815  1.00  0.00     0.000 C 
BRANCH   9  10
ATOM     10  C   UNL     1      -1.221   6.386 -56.407  1.00  0.00     0.006 C 
BRANCH  10  11
ATOM     11  C   UNL     1      -0.076   6.351 -55.386  1.00  0.00     0.053 C 
BRANCH  11  12
ATOM     12  C   UNL     1      -0.408   7.128 -54.149  1.00  0.00     0.041 C 
ATOM     13  O   UNL     1      -1.380   6.785 -53.426  1.00  0.00    -0.550 OA
ATOM     14  O   UNL     1       0.374   8.215 -53.779  1.00  0.00    -0.550 OA
ENDBRANCH  11  12
ENDBRANCH  10  11
ENDBRANCH   9  10
ENDBRANCH   8   9
ENDBRANCH   1   8
TORSDOF 9
ENDMDL
MODEL 4
REMARK VINA RESULT:    -4.084      0.877      4.560
REMARK INTER + INTRA:          -7.114
REMARK INTER:                  -6.316
REMARK INTRA:                  -0.797
REMARK UNBOUND:                -0.880
REMARK SMILES O=C([O-])CCCCCCCCC(=O)[O-]
REMARK SMILES IDX 7 1 6 2 5 3 4 4 2 5 1 6 3 7 8 8 9 9 10 10 11 11 12 12 13 13
REMARK SMILES IDX 14 14
REMARK H PARENT
REMARK Flexibility Score: inf
ROOT
ATOM      1  C   UNL     1      -1.750   7.086 -59.245  1.00  0.00     0.000 C 
ENDROOT
BRANCH   1   2
ATOM      2  C   UNL     1      -0.518   6.430 -58.601  1.00  0.00     0.000 C 
BRANCH   2   3
ATOM      3  C   UNL     1      -0.856   5.112 -57.881  1.00  0.00     0.006 C 
BRANCH   3   4
ATOM      4  C   UNL     1      -0.177   5.012 -56.508  1.00  0.00     0.053 C 
BRANCH   4   5
ATOM      5  C   UNL     1      -0.586   6.133 -55.602  1.00  0.00     0.041 C 
ATOM      6  O   UNL     1       0.287   6.835 -55.028  1.00  0.00    -0.550 OA
ATOM      7  O   UNL     1      -1.932   6.420 -55.416  1.00  0.00    -0.550 OA
ENDBRANCH   4   5
ENDBRANCH   3   4
ENDBRANCH   2   3
ENDBRANCH   1   2
BRANCH   1   8
ATOM      8  C   UNL     1      -2.682   6.062 -59.917  1.00  0.00     0.000 C 
BRANCH   8   9
ATOM      9  C   UNL     1      -4.169   6.373 -59.681  1.00  0.00     0.000 C 
BRANCH   9  10
ATOM     10  C   UNL     1      -4.548   6.355 -58.188  1.00  0.00     0.006 C 
BRANCH  10  11
ATOM     11  C   UNL     1      -5.326   7.611 -57.774  1.00  0.00     0.053 C 
BRANCH  11  12
ATOM     12  C   UNL     1      -4.430   8.805 -57.645  1.00  0.00     0.041 C 
ATOM     13  O   UNL     1      -3.686   8.932 -56.638  1.00  0.00    -0.550 OA
ATOM     14  O   UNL     1      -4.396   9.762 -58.651  1.00  0.00    -0.550 OA
ENDBRANCH  11  12
ENDBRANCH  10  11
ENDBRANCH   9  10
ENDBRANCH   8   9
ENDBRANCH   1   8
TORSDOF 9
ENDMDL
MODEL 5
REMARK VINA RESULT:    -4.077      1.808      4.572
REMARK INTER + INTRA:          -7.102
REMARK INTER:                  -6.255
REMARK INTRA:                  -0.847
REMARK UNBOUND:                -0.880
REMARK SMILES O=C([O-])CCCCCCCCC(=O)[O-]
REMARK SMILES IDX 7 1 6 2 5 3 4 4 2 5 1 6 3 7 8 8 9 9 10 10 11 11 12 12 13 13
REMARK SMILES IDX 14 14
REMARK H PARENT
REMARK Flexibility Score: inf
ROOT
ATOM      1  C   UNL     1      -2.401   6.026 -59.424  1.00  0.00     0.000 C 
ENDROOT
BRANCH   1   2
ATOM      2  C   UNL     1      -2.046   4.948 -58.387  1.00  0.00     0.000 C 
BRANCH   2   3
ATOM      3  C   UNL     1      -0.629   5.120 -57.813  1.00  0.00     0.006 C 
BRANCH   3   4
ATOM      4  C   UNL     1      -0.604   4.984 -56.285  1.00  0.00     0.053 C 
BRANCH   4   5
ATOM      5  C   UNL     1      -0.656   6.319 -55.606  1.00  0.00     0.041 C 
ATOM      6  O   UNL     1       0.379   6.804 -55.081  1.00  0.00    -0.550 OA
ATOM      7  O   UNL     1      -1.844   7.039 -55.581  1.00  0.00    -0.550 OA
ENDBRANCH   4   5
ENDBRANCH   3   4
ENDBRANCH   2   3
ENDBRANCH   1   2
BRANCH   1   8
ATOM      8  C   UNL     1      -1.758   7.388 -59.106  1.00  0.00     0.000 C 
BRANCH   8   9
ATOM      9  C   UNL     1      -2.790   8.440 -58.670  1.00  0.00     0.000 C 
BRANCH   9  10
ATOM     10  C   UNL     1      -4.241   7.965 -58.867  1.00  0.00     0.006 C 
BRANCH  10  11
ATOM     11  C   UNL     1      -5.092   8.170 -57.607  1.00  0.00     0.053 C 
BRANCH  11  12
ATOM     12  C   UNL     1      -5.720   6.892 -57.144  1.00  0.00     0.041 C 
ATOM     13  O   UNL     1      -6.943   6.675 -57.351  1.00  0.00    -0.550 OA
ATOM     14  O   UNL     1      -4.948   5.927 -56.509  1.00  0.00    -0.550 OA
ENDBRANCH  11  12
ENDBRANCH  10  11
ENDBRANCH   9  10
ENDBRANCH   8   9
ENDBRANCH   1   8
TORSDOF 9
ENDMDL
MODEL 6
REMARK VINA RESULT:    -4.075      2.423      2.881
REMARK INTER + INTRA:          -7.099
REMARK INTER:                  -6.328
REMARK INTRA:                  -0.771
REMARK UNBOUND:                -0.880
REMARK SMILES O=C([O-])CCCCCCCCC(=O)[O-]
REMARK SMILES IDX 7 1 6 2 5 3 4 4 2 5 1 6 3 7 8 8 9 9 10 10 11 11 12 12 13 13
REMARK SMILES IDX 14 14
REMARK H PARENT
REMARK Flexibility Score: inf
ROOT
ATOM      1  C   UNL     1      -2.798   8.544 -58.726  1.00  0.00     0.000 C 
ENDROOT
BRANCH   1   2
ATOM      2  C   UNL     1      -4.244   8.057 -58.909  1.00  0.00     0.000 C 
BRANCH   2   3
ATOM      3  C   UNL     1      -5.066   8.138 -57.611  1.00  0.00     0.006 C 
BRANCH   3   4
ATOM      4  C   UNL     1      -5.741   6.803 -57.270  1.00  0.00     0.053 C 
BRANCH   4   5
ATOM      5  C   UNL     1      -7.196   6.808 -57.628  1.00  0.00     0.041 C 
ATOM      6  O   UNL     1      -7.749   7.868 -58.020  1.00  0.00    -0.550 OA
ATOM      7  O   UNL     1      -7.934   5.633 -57.556  1.00  0.00    -0.550 OA
ENDBRANCH   4   5
ENDBRANCH   3   4
ENDBRANCH   2   3
ENDBRANCH   1   2
BRANCH   1   8
ATOM      8  C   UNL     1      -1.760   7.469 -59.099  1.00  0.00     0.000 C 
BRANCH   8   9
ATOM      9  C   UNL     1      -2.342   6.047 -59.059  1.00  0.00     0.000 C 
BRANCH   9  10
ATOM     10  C   UNL     1      -1.812   5.223 -57.872  1.00  0.00     0.006 C 
BRANCH  10  11
ATOM     11  C   UNL     1      -0.552   5.844 -57.253  1.00  0.00     0.053 C 
BRANCH  11  12
ATOM     12  C   UNL     1      -0.758   6.209 -55.816  1.00  0.00     0.041 C 
ATOM     13  O   UNL     1      -1.684   6.996 -55.488  1.00  0.00    -0.550 OA
ATOM     14  O   UNL     1       0.055   5.657 -54.834  1.00  0.00    -0.550 OA
ENDBRANCH  11  12
ENDBRANCH  10  11
ENDBRANCH   9  10
ENDBRANCH   8   9
ENDBRANCH   1   8
TORSDOF 9
ENDMDL
MODEL 7
REMARK VINA RESULT:    -4.044      2.482      5.138
REMARK INTER + INTRA:          -7.052
REMARK INTER:                  -6.238
REMARK INTRA:                  -0.814
REMARK UNBOUND:                -0.880
REMARK SMILES O=C([O-])CCCCCCCCC(=O)[O-]
REMARK SMILES IDX 7 1 6 2 5 3 4 4 2 5 1 6 3 7 8 8 9 9 10 10 11 11 12 12 13 13
REMARK SMILES IDX 14 14
REMARK H PARENT
REMARK Flexibility Score: inf
ROOT
ATOM      1  C   UNL     1      -2.534   8.377 -58.736  1.00  0.00     0.000 C 
ENDROOT
BRANCH   1   2
ATOM      2  C   UNL     1      -1.840   7.147 -59.342  1.00  0.00     0.000 C 
BRANCH   2   3
ATOM      3  C   UNL     1      -0.753   6.566 -58.421  1.00  0.00     0.006 C 
BRANCH   3   4
ATOM      4  C   UNL     1      -1.348   5.737 -57.275  1.00  0.00     0.053 C 
BRANCH   4   5
ATOM      5  C   UNL     1      -1.161   6.407 -55.948  1.00  0.00     0.041 C 
ATOM      6  O   UNL     1      -2.083   7.107 -55.456  1.00  0.00    -0.550 OA
ATOM      7  O   UNL     1       0.023   6.233 -55.242  1.00  0.00    -0.550 OA
ENDBRANCH   4   5
ENDBRANCH   3   4
ENDBRANCH   2   3
ENDBRANCH   1   2
BRANCH   1   8
ATOM      8  C   UNL     1      -4.069   8.287 -58.810  1.00  0.00     0.000 C 
BRANCH   8   9
ATOM      9  C   UNL     1      -4.556   6.939 -59.367  1.00  0.00     0.000 C 
BRANCH   9  10
ATOM     10  C   UNL     1      -5.092   6.003 -58.268  1.00  0.00     0.006 C 
BRANCH  10  11
ATOM     11  C   UNL     1      -5.935   6.755 -57.229  1.00  0.00     0.053 C 
BRANCH  11  12
ATOM     12  C   UNL     1      -7.374   6.843 -57.636  1.00  0.00     0.041 C 
ATOM     13  O   UNL     1      -8.100   5.815 -57.622  1.00  0.00    -0.550 OA
ATOM     14  O   UNL     1      -7.921   8.066 -58.001  1.00  0.00    -0.550 OA
ENDBRANCH  11  12
ENDBRANCH  10  11
ENDBRANCH   9  10
ENDBRANCH   8   9
ENDBRANCH   1   8
TORSDOF 9
ENDMDL
MODEL 8
REMARK VINA RESULT:    -3.830      2.440      5.087
REMARK INTER + INTRA:          -6.725
REMARK INTER:                  -5.800
REMARK INTRA:                  -0.925
REMARK UNBOUND:                -0.880
REMARK SMILES O=C([O-])CCCCCCCCC(=O)[O-]
REMARK SMILES IDX 7 1 6 2 5 3 4 4 2 5 1 6 3 7 8 8 9 9 10 10 11 11 12 12 13 13
REMARK SMILES IDX 14 14
REMARK H PARENT
REMARK Flexibility Score: inf
ROOT
ATOM      1  C   UNL     1      -1.699   5.680 -55.761  1.00  0.00     0.000 C 
ENDROOT
BRANCH   1   2
ATOM      2  C   UNL     1      -0.329   5.722 -56.457  1.00  0.00     0.000 C 
BRANCH   2   3
ATOM      3  C   UNL     1      -0.393   5.256 -57.922  1.00  0.00     0.006 C 
BRANCH   3   4
ATOM      4  C   UNL     1      -1.835   5.027 -58.394  1.00  0.00     0.053 C 
BRANCH   4   5
ATOM      5  C   UNL     1      -2.245   6.023 -59.436  1.00  0.00     0.041 C 
ATOM      6  O   UNL     1      -1.663   7.136 -59.512  1.00  0.00    -0.550 OA
ATOM      7  O   UNL     1      -3.250   5.707 -60.342  1.00  0.00    -0.550 OA
ENDBRANCH   4   5
ENDBRANCH   3   4
ENDBRANCH   2   3
ENDBRANCH   1   2
BRANCH   1   8
ATOM      8  C   UNL     1      -2.128   7.054 -55.215  1.00  0.00     0.000 C 
BRANCH   8   9
ATOM      9  C   UNL     1      -2.712   7.967 -56.305  1.00  0.00     0.000 C 
BRANCH   9  10
ATOM     10  C   UNL     1      -4.235   8.148 -56.173  1.00  0.00     0.006 C 
BRANCH  10  11
ATOM     11  C   UNL     1      -5.013   7.046 -56.905  1.00  0.00     0.053 C 
BRANCH  11  12
ATOM     12  C   UNL     1      -5.825   7.594 -58.037  1.00  0.00     0.041 C 
ATOM     13  O   UNL     1      -5.255   8.061 -59.058  1.00  0.00    -0.550 OA
ATOM     14  O   UNL     1      -7.213   7.564 -57.979  1.00  0.00    -0.550 OA
ENDBRANCH  11  12
ENDBRANCH  10  11
ENDBRANCH   9  10
ENDBRANCH   8   9
ENDBRANCH   1   8
TORSDOF 9
ENDMDL
MODEL 9
REMARK VINA RESULT:    -3.807      2.056      4.141
REMARK INTER + INTRA:          -6.690
REMARK INTER:                  -5.739
REMARK INTRA:                  -0.951
REMARK UNBOUND:                -0.880
REMARK SMILES O=C([O-])CCCCCCCCC(=O)[O-]
REMARK SMILES IDX 7 1 6 2 5 3 4 4 2 5 1 6 3 7 8 8 9 9 10 10 11 11 12 12 13 13
REMARK SMILES IDX 14 14
REMARK H PARENT
REMARK Flexibility Score: inf
ROOT
ATOM      1  C   UNL     1      -6.188   6.024 -57.229  1.00  0.00     0.000 C 
ENDROOT
BRANCH   1   2
ATOM      2  C   UNL     1      -4.830   5.321 -57.385  1.00  0.00     0.000 C 
BRANCH   2   3
ATOM      3  C   UNL     1      -4.038   5.261 -56.067  1.00  0.00     0.006 C 
BRANCH   3   4
ATOM      4  C   UNL     1      -2.532   5.089 -56.305  1.00  0.00     0.053 C 
BRANCH   4   5
ATOM      5  C   UNL     1      -1.748   6.251 -55.774  1.00  0.00     0.041 C 
ATOM      6  O   UNL     1      -2.343   7.271 -55.340  1.00  0.00    -0.550 OA
ATOM      7  O   UNL     1      -0.361   6.193 -55.732  1.00  0.00    -0.550 OA
ENDBRANCH   4   5
ENDBRANCH   3   4
ENDBRANCH   2   3
ENDBRANCH   1   2
BRANCH   1   8
ATOM      8  C   UNL     1      -6.250   7.365 -57.982  1.00  0.00     0.000 C 
BRANCH   8   9
ATOM      9  C   UNL     1      -5.028   8.255 -57.705  1.00  0.00     0.000 C 
BRANCH   9  10
ATOM     10  C   UNL     1      -4.158   8.473 -58.956  1.00  0.00     0.006 C 
BRANCH  10  11
ATOM     11  C   UNL     1      -2.659   8.452 -58.628  1.00  0.00     0.053 C 
BRANCH  11  12
ATOM     12  C   UNL     1      -1.979   7.247 -59.201  1.00  0.00     0.041 C 
ATOM     13  O   UNL     1      -2.634   6.411 -59.878  1.00  0.00    -0.550 OA
ATOM     14  O   UNL     1      -0.615   7.061 -59.013  1.00  0.00    -0.550 OA
ENDBRANCH  11  12
ENDBRANCH  10  11
ENDBRANCH   9  10
ENDBRANCH   8   9
ENDBRANCH   1   8
TORSDOF 9
ENDMDL
