MODEL 1
REMARK VINA RESULT:    -4.717      0.000      0.000
REMARK INTER + INTRA:          -5.489
REMARK INTER:                  -5.407
REMARK INTRA:                  -0.082
REMARK UNBOUND:                -0.082
REMARK SMILES C=Cc1ccc(O)c(OC)c1
REMARK SMILES IDX 8 1 6 2 5 3 4 4 3 5 11 6 9 7 10 8 7 9 2 11 1 12
REMARK H PARENT 7 10
REMARK Flexibility Score: inf
ROOT
ATOM      1  C   UNL     1      15.599  18.902  16.298  1.00  0.00     0.161 A 
ATOM      2  C   UNL     1      16.213  20.123  15.988  1.00  0.00     0.157 A 
ATOM      3  C   UNL     1      17.394  20.498  16.639  1.00  0.00     0.051 A 
ATOM      4  C   UNL     1      17.971  19.661  17.596  1.00  0.00     0.012 A 
ATOM      5  C   UNL     1      17.375  18.424  17.912  1.00  0.00    -0.022 A 
ATOM      6  C   UNL     1      16.182  18.060  17.264  1.00  0.00     0.058 A 
ENDROOT
BRANCH   1   7
ATOM      7  O   UNL     1      14.412  18.564  15.627  1.00  0.00    -0.493 OA
ATOM      8  C   UNL     1      13.421  17.677  16.138  1.00  0.00     0.278 C 
ENDBRANCH   1   7
BRANCH   2   9
ATOM      9  O   UNL     1      15.642  20.960  15.032  1.00  0.00    -0.504 OA
ATOM     10  H   UNL     1      15.550  20.675  14.063  1.00  0.00     0.293 HD
ENDBRANCH   2   9
BRANCH   5  11
ATOM     11  C   UNL     1      17.941  17.501  18.927  1.00  0.00     0.000 C 
ATOM     12  C   UNL     1      17.975  17.754  20.236  1.00  0.00     0.009 C 
ENDBRANCH   5  11
TORSDOF 3
ENDMDL
MODEL 2
REMARK VINA RESULT:    -4.453      2.341      4.124
REMARK INTER + INTRA:          -5.185
REMARK INTER:                  -5.164
REMARK INTRA:                  -0.021
REMARK UNBOUND:                -0.082
REMARK SMILES C=Cc1ccc(O)c(OC)c1
REMARK SMILES IDX 8 1 6 2 5 3 4 4 3 5 11 6 9 7 10 8 7 9 2 11 1 12
REMARK H PARENT 7 10
REMARK Flexibility Score: inf
ROOT
ATOM      1  C   UNL     1      17.487  18.239  17.782  1.00  0.00     0.161 A 
ATOM      2  C   UNL     1      18.188  19.450  17.693  1.00  0.00     0.157 A 
ATOM      3  C   UNL     1      17.786  20.426  16.774  1.00  0.00     0.051 A 
ATOM      4  C   UNL     1      16.685  20.206  15.944  1.00  0.00     0.012 A 
ATOM      5  C   UNL     1      15.960  19.001  16.026  1.00  0.00    -0.022 A 
ATOM      6  C   UNL     1      16.377  18.020  16.942  1.00  0.00     0.058 A 
ENDROOT
BRANCH   1   7
ATOM      7  O   UNL     1      17.924  17.282  18.712  1.00  0.00    -0.493 OA
ATOM      8  C   UNL     1      17.626  17.317  20.105  1.00  0.00     0.278 C 
ENDBRANCH   1   7
BRANCH   2   9
ATOM      9  O   UNL     1      19.285  19.673  18.521  1.00  0.00    -0.504 OA
ATOM     10  H   UNL     1      20.083  19.048  18.525  1.00  0.00     0.293 HD
ENDBRANCH   2   9
BRANCH   5  11
ATOM     11  C   UNL     1      14.789  18.712  15.162  1.00  0.00     0.000 C 
ATOM     12  C   UNL     1      14.448  19.434  14.094  1.00  0.00     0.009 C 
ENDBRANCH   5  11
TORSDOF 3
ENDMDL
MODEL 3
REMARK VINA RESULT:    -4.415      2.804      4.613
REMARK INTER + INTRA:          -5.142
REMARK INTER:                  -5.055
REMARK INTRA:                  -0.087
REMARK UNBOUND:                -0.082
REMARK SMILES C=Cc1ccc(O)c(OC)c1
REMARK SMILES IDX 8 1 6 2 5 3 4 4 3 5 11 6 9 7 10 8 7 9 2 11 1 12
REMARK H PARENT 7 10
REMARK Flexibility Score: inf
ROOT
ATOM      1  C   UNL     1      17.849  19.921  18.450  1.00  0.00     0.161 A 
ATOM      2  C   UNL     1      17.917  18.606  18.928  1.00  0.00     0.157 A 
ATOM      3  C   UNL     1      17.693  17.531  18.060  1.00  0.00     0.051 A 
ATOM      4  C   UNL     1      17.404  17.759  16.713  1.00  0.00     0.012 A 
ATOM      5  C   UNL     1      17.343  19.073  16.210  1.00  0.00    -0.022 A 
ATOM      6  C   UNL     1      17.557  20.148  17.091  1.00  0.00     0.058 A 
ENDROOT
BRANCH   1   7
ATOM      7  O   UNL     1      18.075  20.972  19.354  1.00  0.00    -0.493 OA
ATOM      8  C   UNL     1      17.127  21.991  19.659  1.00  0.00     0.278 C 
ENDBRANCH   1   7
BRANCH   2   9
ATOM      9  O   UNL     1      18.207  18.375  20.271  1.00  0.00    -0.504 OA
ATOM     10  H   UNL     1      17.987  17.491  20.718  1.00  0.00     0.293 HD
ENDBRANCH   2   9
BRANCH   5  11
ATOM     11  C   UNL     1      17.032  19.372  14.790  1.00  0.00     0.000 C 
ATOM     12  C   UNL     1      16.450  20.496  14.369  1.00  0.00     0.009 C 
ENDBRANCH   5  11
TORSDOF 3
ENDMDL
MODEL 4
REMARK VINA RESULT:    -4.365      1.654      1.907
REMARK INTER + INTRA:          -5.085
REMARK INTER:                  -4.974
REMARK INTRA:                  -0.111
REMARK UNBOUND:                -0.082
REMARK SMILES C=Cc1ccc(O)c(OC)c1
REMARK SMILES IDX 8 1 6 2 5 3 4 4 3 5 11 6 9 7 10 8 7 9 2 11 1 12
REMARK H PARENT 7 10
REMARK Flexibility Score: inf
ROOT
ATOM      1  C   UNL     1      17.039  18.469  15.536  1.00  0.00     0.161 A 
ATOM      2  C   UNL     1      17.129  19.866  15.589  1.00  0.00     0.157 A 
ATOM      3  C   UNL     1      17.496  20.500  16.782  1.00  0.00     0.051 A 
ATOM      4  C   UNL     1      17.780  19.748  17.924  1.00  0.00     0.012 A 
ATOM      5  C   UNL     1      17.706  18.342  17.887  1.00  0.00    -0.022 A 
ATOM      6  C   UNL     1      17.324  17.713  16.690  1.00  0.00     0.058 A 
ENDROOT
BRANCH   1   7
ATOM      7  O   UNL     1      16.662  17.871  14.322  1.00  0.00    -0.493 OA
ATOM      8  C   UNL     1      17.569  17.267  13.405  1.00  0.00     0.278 C 
ENDBRANCH   1   7
BRANCH   2   9
ATOM      9  O   UNL     1      16.849  20.619  14.451  1.00  0.00    -0.504 OA
ATOM     10  H   UNL     1      17.587  21.043  13.899  1.00  0.00     0.293 HD
ENDBRANCH   2   9
BRANCH   5  11
ATOM     11  C   UNL     1      17.988  17.495  19.074  1.00  0.00     0.000 C 
ATOM     12  C   UNL     1      17.974  17.938  20.331  1.00  0.00     0.009 C 
ENDBRANCH   5  11
TORSDOF 3
ENDMDL
MODEL 5
REMARK VINA RESULT:    -4.295     13.410     15.460
REMARK INTER + INTRA:          -5.005
REMARK INTER:                  -4.915
REMARK INTRA:                  -0.091
REMARK UNBOUND:                -0.082
REMARK SMILES C=Cc1ccc(O)c(OC)c1
REMARK SMILES IDX 8 1 6 2 5 3 4 4 3 5 11 6 9 7 10 8 7 9 2 11 1 12
REMARK H PARENT 7 10
REMARK Flexibility Score: inf
ROOT
ATOM      1  C   UNL     1      14.013   7.453   8.966  1.00  0.00     0.161 A 
ATOM      2  C   UNL     1      15.281   7.271   8.398  1.00  0.00     0.157 A 
ATOM      3  C   UNL     1      15.404   6.985   7.033  1.00  0.00     0.051 A 
ATOM      4  C   UNL     1      14.268   6.885   6.227  1.00  0.00     0.012 A 
ATOM      5  C   UNL     1      12.985   7.077   6.777  1.00  0.00    -0.022 A 
ATOM      6  C   UNL     1      12.869   7.349   8.151  1.00  0.00     0.058 A 
ENDROOT
BRANCH   1   7
ATOM      7  O   UNL     1      13.932   7.732  10.340  1.00  0.00    -0.493 OA
ATOM      8  C   UNL     1      13.791   9.038  10.891  1.00  0.00     0.278 C 
ENDBRANCH   1   7
BRANCH   2   9
ATOM      9  O   UNL     1      16.417   7.372   9.199  1.00  0.00    -0.504 OA
ATOM     10  H   UNL     1      17.330   7.568   8.804  1.00  0.00     0.293 HD
ENDBRANCH   2   9
BRANCH   5  11
ATOM     11  C   UNL     1      11.745   6.972   5.968  1.00  0.00     0.000 C 
ATOM     12  C   UNL     1      10.550   6.654   6.465  1.00  0.00     0.009 C 
ENDBRANCH   5  11
TORSDOF 3
ENDMDL
MODEL 6
REMARK VINA RESULT:    -4.270      2.705      3.948
REMARK INTER + INTRA:          -4.976
REMARK INTER:                  -4.882
REMARK INTRA:                  -0.094
REMARK UNBOUND:                -0.082
REMARK SMILES C=Cc1ccc(O)c(OC)c1
REMARK SMILES IDX 8 1 6 2 5 3 4 4 3 5 11 6 9 7 10 8 7 9 2 11 1 12
REMARK H PARENT 7 10
REMARK Flexibility Score: inf
ROOT
ATOM      1  C   UNL     1      17.877  18.611  17.925  1.00  0.00     0.161 A 
ATOM      2  C   UNL     1      17.645  19.991  17.846  1.00  0.00     0.157 A 
ATOM      3  C   UNL     1      17.241  20.566  16.636  1.00  0.00     0.051 A 
ATOM      4  C   UNL     1      17.062  19.773  15.501  1.00  0.00     0.012 A 
ATOM      5  C   UNL     1      17.278  18.383  15.562  1.00  0.00    -0.022 A 
ATOM      6  C   UNL     1      17.697  17.814  16.778  1.00  0.00     0.058 A 
ENDROOT
BRANCH   1   7
ATOM      7  O   UNL     1      18.286  18.073  19.155  1.00  0.00    -0.493 OA
ATOM      8  C   UNL     1      17.475  17.245  19.983  1.00  0.00     0.278 C 
ENDBRANCH   1   7
BRANCH   2   9
ATOM      9  O   UNL     1      17.820  20.785  18.977  1.00  0.00    -0.504 OA
ATOM     10  H   UNL     1      17.434  21.721  19.035  1.00  0.00     0.293 HD
ENDBRANCH   2   9
BRANCH   5  11
ATOM     11  C   UNL     1      17.112  17.495  14.384  1.00  0.00     0.000 C 
ATOM     12  C   UNL     1      18.121  17.012  13.660  1.00  0.00     0.009 C 
ENDBRANCH   5  11
TORSDOF 3
ENDMDL
MODEL 7
REMARK VINA RESULT:    -4.263      1.911      3.687
REMARK INTER + INTRA:          -4.968
REMARK INTER:                  -4.877
REMARK INTRA:                  -0.090
REMARK UNBOUND:                -0.082
REMARK SMILES C=Cc1ccc(O)c(OC)c1
REMARK SMILES IDX 8 1 6 2 5 3 4 4 3 5 11 6 9 7 10 8 7 9 2 11 1 12
REMARK H PARENT 7 10
REMARK Flexibility Score: inf
ROOT
ATOM      1  C   UNL     1      15.947  18.102  17.251  1.00  0.00     0.161 A 
ATOM      2  C   UNL     1      17.019  18.179  18.151  1.00  0.00     0.157 A 
ATOM      3  C   UNL     1      18.010  19.152  17.979  1.00  0.00     0.051 A 
ATOM      4  C   UNL     1      17.938  20.054  16.916  1.00  0.00     0.012 A 
ATOM      5  C   UNL     1      16.863  20.002  16.008  1.00  0.00    -0.022 A 
ATOM      6  C   UNL     1      15.878  19.013  16.179  1.00  0.00     0.058 A 
ENDROOT
BRANCH   1   7
ATOM      7  O   UNL     1      14.976  17.109  17.454  1.00  0.00    -0.493 OA
ATOM      8  C   UNL     1      13.616  17.367  17.793  1.00  0.00     0.278 C 
ENDBRANCH   1   7
BRANCH   2   9
ATOM      9  O   UNL     1      17.092  17.281  19.213  1.00  0.00    -0.504 OA
ATOM     10  H   UNL     1      17.744  16.504  19.209  1.00  0.00     0.293 HD
ENDBRANCH   2   9
BRANCH   5  11
ATOM     11  C   UNL     1      16.743  20.930  14.856  1.00  0.00     0.000 C 
ATOM     12  C   UNL     1      16.403  20.556  13.623  1.00  0.00     0.009 C 
ENDBRANCH   5  11
TORSDOF 3
ENDMDL
MODEL 8
REMARK VINA RESULT:    -4.200      8.766      9.773
REMARK INTER + INTRA:          -4.895
REMARK INTER:                  -4.791
REMARK INTRA:                  -0.104
REMARK UNBOUND:                -0.082
REMARK SMILES C=Cc1ccc(O)c(OC)c1
REMARK SMILES IDX 8 1 6 2 5 3 4 4 3 5 11 6 9 7 10 8 7 9 2 11 1 12
REMARK H PARENT 7 10
REMARK Flexibility Score: inf
ROOT
ATOM      1  C   UNL     1      19.345  20.185   8.861  1.00  0.00     0.161 A 
ATOM      2  C   UNL     1      20.579  20.447   8.252  1.00  0.00     0.157 A 
ATOM      3  C   UNL     1      21.010  21.768   8.080  1.00  0.00     0.051 A 
ATOM      4  C   UNL     1      20.218  22.832   8.518  1.00  0.00     0.012 A 
ATOM      5  C   UNL     1      18.980  22.589   9.144  1.00  0.00    -0.022 A 
ATOM      6  C   UNL     1      18.548  21.260   9.300  1.00  0.00     0.058 A 
ENDROOT
BRANCH   1   7
ATOM      7  O   UNL     1      18.945  18.847   9.010  1.00  0.00    -0.493 OA
ATOM      8  C   UNL     1      18.004  18.187   8.169  1.00  0.00     0.278 C 
ENDBRANCH   1   7
BRANCH   2   9
ATOM      9  O   UNL     1      21.372  19.388   7.817  1.00  0.00    -0.504 OA
ATOM     10  H   UNL     1      21.666  18.650   8.447  1.00  0.00     0.293 HD
ENDBRANCH   2   9
BRANCH   5  11
ATOM     11  C   UNL     1      18.096  23.683   9.619  1.00  0.00     0.000 C 
ATOM     12  C   UNL     1      17.664  24.684   8.852  1.00  0.00     0.009 C 
ENDBRANCH   5  11
TORSDOF 3
ENDMDL
MODEL 9
REMARK VINA RESULT:    -4.178      8.964      9.727
REMARK INTER + INTRA:          -4.870
REMARK INTER:                  -4.784
REMARK INTRA:                  -0.087
REMARK UNBOUND:                -0.082
REMARK SMILES C=Cc1ccc(O)c(OC)c1
REMARK SMILES IDX 8 1 6 2 5 3 4 4 3 5 11 6 9 7 10 8 7 9 2 11 1 12
REMARK H PARENT 7 10
REMARK Flexibility Score: inf
ROOT
ATOM      1  C   UNL     1      17.983  10.668  11.903  1.00  0.00     0.161 A 
ATOM      2  C   UNL     1      17.289  11.251  12.972  1.00  0.00     0.157 A 
ATOM      3  C   UNL     1      17.485  12.602  13.281  1.00  0.00     0.051 A 
ATOM      4  C   UNL     1      18.366  13.379  12.526  1.00  0.00     0.012 A 
ATOM      5  C   UNL     1      19.064  12.815  11.441  1.00  0.00    -0.022 A 
ATOM      6  C   UNL     1      18.872  11.455  11.144  1.00  0.00     0.058 A 
ENDROOT
BRANCH   1   7
ATOM      7  O   UNL     1      17.763   9.309  11.628  1.00  0.00    -0.493 OA
ATOM      8  C   UNL     1      18.504   8.548  10.678  1.00  0.00     0.278 C 
ENDBRANCH   1   7
BRANCH   2   9
ATOM      9  O   UNL     1      16.408  10.479  13.724  1.00  0.00    -0.504 OA
ATOM     10  H   UNL     1      15.707   9.892  13.285  1.00  0.00     0.293 HD
ENDBRANCH   2   9
BRANCH   5  11
ATOM     11  C   UNL     1      20.018  13.594  10.612  1.00  0.00     0.000 C 
ATOM     12  C   UNL     1      20.895  14.471  11.102  1.00  0.00     0.009 C 
ENDBRANCH   5  11
TORSDOF 3
ENDMDL
