MODEL 1
REMARK VINA RESULT:    -5.315      0.000      0.000
REMARK INTER + INTRA:          -5.789
REMARK INTER:                  -5.626
REMARK INTRA:                  -0.163
REMARK UNBOUND:                -0.163
REMARK SMILES C=C(C)[C@H]1CC=C(C)CC1
REMARK SMILES IDX 8 1 7 2 6 3 5 4 4 5 10 6 9 7 2 8 1 9 3 10
REMARK H PARENT
REMARK Flexibility Score: inf
ROOT
ATOM      1  C   UNL     1      12.884  52.067 160.400  1.00  0.00     0.039 C 
ATOM      2  C   UNL     1      14.136  51.861 159.593  1.00  0.00    -0.077 C 
ATOM      3  C   UNL     1      15.072  51.001 160.044  1.00  0.00    -0.027 C 
ATOM      4  C   UNL     1      16.351  50.693 159.303  1.00  0.00     0.035 C 
ATOM      5  C   UNL     1      16.695  51.703 158.185  1.00  0.00     0.018 C 
ATOM      6  C   UNL     1      15.432  52.146 157.431  1.00  0.00     0.013 C 
ATOM      7  C   UNL     1      14.368  52.723 158.370  1.00  0.00     0.031 C 
ENDROOT
BRANCH   5   8
ATOM      8  C   UNL     1      17.537  52.888 158.657  1.00  0.00    -0.077 C 
ATOM      9  C   UNL     1      17.643  53.225 159.955  1.00  0.00     0.008 C 
ATOM     10  C   UNL     1      18.272  53.726 157.643  1.00  0.00     0.039 C 
ENDBRANCH   5   8
TORSDOF 1
ENDMDL
MODEL 2
REMARK VINA RESULT:    -4.916      1.025      1.836
REMARK INTER + INTRA:          -5.367
REMARK INTER:                  -5.144
REMARK INTRA:                  -0.222
REMARK UNBOUND:                -0.163
REMARK SMILES C=C(C)[C@H]1CC=C(C)CC1
REMARK SMILES IDX 8 1 7 2 6 3 5 4 4 5 10 6 9 7 2 8 1 9 3 10
REMARK H PARENT
REMARK Flexibility Score: inf
ROOT
ATOM      1  C   UNL     1      12.875  53.724 156.968  1.00  0.00     0.039 C 
ATOM      2  C   UNL     1      14.032  52.957 157.546  1.00  0.00    -0.077 C 
ATOM      3  C   UNL     1      13.975  52.558 158.833  1.00  0.00    -0.027 C 
ATOM      4  C   UNL     1      15.062  51.756 159.508  1.00  0.00     0.035 C 
ATOM      5  C   UNL     1      16.407  51.744 158.746  1.00  0.00     0.018 C 
ATOM      6  C   UNL     1      16.183  51.652 157.229  1.00  0.00     0.013 C 
ATOM      7  C   UNL     1      15.278  52.772 156.707  1.00  0.00     0.031 C 
ENDROOT
BRANCH   5   8
ATOM      8  C   UNL     1      17.347  52.888 159.128  1.00  0.00    -0.077 C 
ATOM      9  C   UNL     1      17.275  53.514 160.316  1.00  0.00     0.008 C 
ATOM     10  C   UNL     1      18.389  53.351 158.143  1.00  0.00     0.039 C 
ENDBRANCH   5   8
TORSDOF 1
ENDMDL
MODEL 3
REMARK VINA RESULT:    -4.695      1.657      1.876
REMARK INTER + INTRA:          -5.132
REMARK INTER:                  -4.866
REMARK INTRA:                  -0.267
REMARK UNBOUND:                -0.163
REMARK SMILES C=C(C)[C@H]1CC=C(C)CC1
REMARK SMILES IDX 8 1 7 2 6 3 5 4 4 5 10 6 9 7 2 8 1 9 3 10
REMARK H PARENT
REMARK Flexibility Score: inf
ROOT
ATOM      1  C   UNL     1      13.263  51.735 160.376  1.00  0.00     0.039 C 
ATOM      2  C   UNL     1      14.182  52.153 159.261  1.00  0.00    -0.077 C 
ATOM      3  C   UNL     1      15.498  51.873 159.357  1.00  0.00    -0.027 C 
ATOM      4  C   UNL     1      16.505  52.216 158.286  1.00  0.00     0.035 C 
ATOM      5  C   UNL     1      16.000  53.240 157.245  1.00  0.00     0.018 C 
ATOM      6  C   UNL     1      14.526  52.989 156.892  1.00  0.00     0.013 C 
ATOM      7  C   UNL     1      13.624  52.990 158.130  1.00  0.00     0.031 C 
ENDROOT
BRANCH   5   8
ATOM      8  C   UNL     1      16.267  54.696 157.626  1.00  0.00    -0.077 C 
ATOM      9  C   UNL     1      17.137  55.040 158.593  1.00  0.00     0.008 C 
ATOM     10  C   UNL     1      15.530  55.798 156.909  1.00  0.00     0.039 C 
ENDBRANCH   5   8
TORSDOF 1
ENDMDL
MODEL 4
REMARK VINA RESULT:    -4.655      1.712      3.909
REMARK INTER + INTRA:          -5.090
REMARK INTER:                  -4.823
REMARK INTRA:                  -0.267
REMARK UNBOUND:                -0.163
REMARK SMILES C=C(C)[C@H]1CC=C(C)CC1
REMARK SMILES IDX 8 1 7 2 6 3 5 4 4 5 10 6 9 7 2 8 1 9 3 10
REMARK H PARENT
REMARK Flexibility Score: inf
ROOT
ATOM      1  C   UNL     1      16.460  56.494 157.753  1.00  0.00     0.039 C 
ATOM      2  C   UNL     1      16.198  55.019 157.624  1.00  0.00    -0.077 C 
ATOM      3  C   UNL     1      15.070  54.606 157.010  1.00  0.00    -0.027 C 
ATOM      4  C   UNL     1      14.720  53.153 156.797  1.00  0.00     0.035 C 
ATOM      5  C   UNL     1      15.545  52.168 157.655  1.00  0.00     0.018 C 
ATOM      6  C   UNL     1      17.010  52.620 157.762  1.00  0.00     0.013 C 
ATOM      7  C   UNL     1      17.139  54.047 158.304  1.00  0.00     0.031 C 
ENDROOT
BRANCH   5   8
ATOM      8  C   UNL     1      14.928  51.867 159.021  1.00  0.00    -0.077 C 
ATOM      9  C   UNL     1      13.732  52.356 159.395  1.00  0.00     0.008 C 
ATOM     10  C   UNL     1      15.679  51.002 160.000  1.00  0.00     0.039 C 
ENDBRANCH   5   8
TORSDOF 1
ENDMDL
MODEL 5
REMARK VINA RESULT:    -4.557      1.249      4.128
REMARK INTER + INTRA:          -4.986
REMARK INTER:                  -4.743
REMARK INTRA:                  -0.243
REMARK UNBOUND:                -0.163
REMARK SMILES C=C(C)[C@H]1CC=C(C)CC1
REMARK SMILES IDX 8 1 7 2 6 3 5 4 4 5 10 6 9 7 2 8 1 9 3 10
REMARK H PARENT
REMARK Flexibility Score: inf
ROOT
ATOM      1  C   UNL     1      19.247  54.180 158.290  1.00  0.00     0.039 C 
ATOM      2  C   UNL     1      18.059  53.372 157.844  1.00  0.00    -0.077 C 
ATOM      3  C   UNL     1      17.628  53.490 156.571  1.00  0.00    -0.027 C 
ATOM      4  C   UNL     1      16.468  52.706 156.007  1.00  0.00     0.035 C 
ATOM      5  C   UNL     1      15.571  52.041 157.075  1.00  0.00     0.018 C 
ATOM      6  C   UNL     1      16.411  51.484 158.235  1.00  0.00     0.013 C 
ATOM      7  C   UNL     1      17.305  52.554 158.870  1.00  0.00     0.031 C 
ENDROOT
BRANCH   5   8
ATOM      8  C   UNL     1      14.424  52.927 157.561  1.00  0.00    -0.077 C 
ATOM      9  C   UNL     1      13.790  52.710 158.727  1.00  0.00     0.008 C 
ATOM     10  C   UNL     1      13.969  54.084 156.709  1.00  0.00     0.039 C 
ENDBRANCH   5   8
TORSDOF 1
ENDMDL
MODEL 6
REMARK VINA RESULT:    -4.505      2.134      4.154
REMARK INTER + INTRA:          -4.931
REMARK INTER:                  -4.659
REMARK INTRA:                  -0.273
REMARK UNBOUND:                -0.163
REMARK SMILES C=C(C)[C@H]1CC=C(C)CC1
REMARK SMILES IDX 8 1 7 2 6 3 5 4 4 5 10 6 9 7 2 8 1 9 3 10
REMARK H PARENT
REMARK Flexibility Score: inf
ROOT
ATOM      1  C   UNL     1      16.549  51.503 158.609  1.00  0.00     0.039 C 
ATOM      2  C   UNL     1      17.395  52.711 158.902  1.00  0.00    -0.077 C 
ATOM      3  C   UNL     1      18.311  53.105 157.993  1.00  0.00    -0.027 C 
ATOM      4  C   UNL     1      19.191  54.319 158.166  1.00  0.00     0.035 C 
ATOM      5  C   UNL     1      19.243  54.864 159.612  1.00  0.00     0.018 C 
ATOM      6  C   UNL     1      17.863  54.787 160.282  1.00  0.00     0.013 C 
ATOM      7  C   UNL     1      17.286  53.367 160.261  1.00  0.00     0.031 C 
ENDROOT
BRANCH   5   8
ATOM      8  C   UNL     1      20.343  54.241 160.471  1.00  0.00    -0.077 C 
ATOM      9  C   UNL     1      21.326  53.486 159.948  1.00  0.00     0.008 C 
ATOM     10  C   UNL     1      20.335  54.463 161.962  1.00  0.00     0.039 C 
ENDBRANCH   5   8
TORSDOF 1
ENDMDL
MODEL 7
REMARK VINA RESULT:    -4.493      1.643      3.877
REMARK INTER + INTRA:          -4.918
REMARK INTER:                  -4.647
REMARK INTRA:                  -0.271
REMARK UNBOUND:                -0.163
REMARK SMILES C=C(C)[C@H]1CC=C(C)CC1
REMARK SMILES IDX 8 1 7 2 6 3 5 4 4 5 10 6 9 7 2 8 1 9 3 10
REMARK H PARENT
REMARK Flexibility Score: inf
ROOT
ATOM      1  C   UNL     1      18.877  54.111 161.073  1.00  0.00     0.039 C 
ATOM      2  C   UNL     1      18.172  53.544 159.872  1.00  0.00    -0.077 C 
ATOM      3  C   UNL     1      18.611  53.872 158.640  1.00  0.00    -0.027 C 
ATOM      4  C   UNL     1      18.001  53.338 157.366  1.00  0.00     0.035 C 
ATOM      5  C   UNL     1      16.609  52.691 157.551  1.00  0.00     0.018 C 
ATOM      6  C   UNL     1      16.543  51.885 158.858  1.00  0.00     0.013 C 
ATOM      7  C   UNL     1      16.912  52.731 160.081  1.00  0.00     0.031 C 
ENDROOT
BRANCH   5   8
ATOM      8  C   UNL     1      15.445  53.673 157.414  1.00  0.00    -0.077 C 
ATOM      9  C   UNL     1      15.624  54.955 157.048  1.00  0.00     0.008 C 
ATOM     10  C   UNL     1      14.043  53.205 157.705  1.00  0.00     0.039 C 
ENDBRANCH   5   8
TORSDOF 1
ENDMDL
MODEL 8
REMARK VINA RESULT:    -4.463      1.865      2.675
REMARK INTER + INTRA:          -4.887
REMARK INTER:                  -4.620
REMARK INTRA:                  -0.266
REMARK UNBOUND:                -0.163
REMARK SMILES C=C(C)[C@H]1CC=C(C)CC1
REMARK SMILES IDX 8 1 7 2 6 3 5 4 4 5 10 6 9 7 2 8 1 9 3 10
REMARK H PARENT
REMARK Flexibility Score: inf
ROOT
ATOM      1  C   UNL     1      15.120  51.101 159.984  1.00  0.00     0.039 C 
ATOM      2  C   UNL     1      15.672  51.920 158.850  1.00  0.00    -0.077 C 
ATOM      3  C   UNL     1      16.981  52.245 158.855  1.00  0.00    -0.027 C 
ATOM      4  C   UNL     1      17.650  53.034 157.755  1.00  0.00     0.035 C 
ATOM      5  C   UNL     1      16.668  53.767 156.813  1.00  0.00     0.018 C 
ATOM      6  C   UNL     1      15.428  52.905 156.526  1.00  0.00     0.013 C 
ATOM      7  C   UNL     1      14.718  52.465 157.810  1.00  0.00     0.031 C 
ENDROOT
BRANCH   5   8
ATOM      8  C   UNL     1      16.301  55.178 157.274  1.00  0.00    -0.077 C 
ATOM      9  C   UNL     1      15.338  55.903 156.679  1.00  0.00     0.008 C 
ATOM     10  C   UNL     1      17.044  55.796 158.430  1.00  0.00     0.039 C 
ENDBRANCH   5   8
TORSDOF 1
ENDMDL
MODEL 9
REMARK VINA RESULT:    -4.263      1.469      2.109
REMARK INTER + INTRA:          -4.675
REMARK INTER:                  -4.402
REMARK INTRA:                  -0.273
REMARK UNBOUND:                -0.163
REMARK SMILES C=C(C)[C@H]1CC=C(C)CC1
REMARK SMILES IDX 8 1 7 2 6 3 5 4 4 5 10 6 9 7 2 8 1 9 3 10
REMARK H PARENT
REMARK Flexibility Score: inf
ROOT
ATOM      1  C   UNL     1      13.275  53.702 156.991  1.00  0.00     0.039 C 
ATOM      2  C   UNL     1      14.675  53.241 157.288  1.00  0.00    -0.077 C 
ATOM      3  C   UNL     1      14.867  52.307 158.243  1.00  0.00    -0.027 C 
ATOM      4  C   UNL     1      16.223  51.748 158.603  1.00  0.00     0.035 C 
ATOM      5  C   UNL     1      17.413  52.581 158.076  1.00  0.00     0.018 C 
ATOM      6  C   UNL     1      17.130  53.120 156.665  1.00  0.00     0.013 C 
ATOM      7  C   UNL     1      15.833  53.933 156.604  1.00  0.00     0.031 C 
ENDROOT
BRANCH   5   8
ATOM      8  C   UNL     1      17.877  53.677 159.035  1.00  0.00    -0.077 C 
ATOM      9  C   UNL     1      17.459  53.741 160.312  1.00  0.00     0.008 C 
ATOM     10  C   UNL     1      18.829  54.738 158.545  1.00  0.00     0.039 C 
ENDBRANCH   5   8
TORSDOF 1
ENDMDL
