MODEL 1
REMARK VINA RESULT:    -3.583      0.000      0.000
REMARK INTER + INTRA:          -5.272
REMARK INTER:                  -4.631
REMARK INTRA:                  -0.641
REMARK UNBOUND:                -0.641
REMARK SMILES C=CC(=O)CCCCC
REMARK SMILES IDX 6 1 7 2 8 3 9 4 5 5 3 6 4 7 2 8 1 9
REMARK H PARENT
REMARK Flexibility Score: inf
ROOT
ATOM      1  C   UNL     1      -0.887 -24.500  24.899  1.00  0.00     0.008 C 
ENDROOT
BRANCH   1   2
ATOM      2  C   UNL     1      -0.272 -23.479  25.869  1.00  0.00     0.000 C 
BRANCH   2   3
ATOM      3  C   UNL     1       1.158 -23.848  26.288  1.00  0.00    -0.003 C 
ATOM      4  C   UNL     1       2.148 -22.759  25.885  1.00  0.00     0.004 C 
ENDBRANCH   2   3
ENDBRANCH   1   2
BRANCH   1   5
ATOM      5  C   UNL     1      -1.205 -23.895  23.526  1.00  0.00     0.080 C 
BRANCH   5   6
ATOM      6  C   UNL     1       0.060 -23.576  22.786  1.00  0.00     0.155 C 
ATOM      7  O   UNL     1       0.362 -22.370  22.571  1.00  0.00    -0.295 OA
BRANCH   6   8
ATOM      8  C   UNL     1       0.962 -24.664  22.358  1.00  0.00     0.039 C 
ATOM      9  C   UNL     1       2.256 -24.682  22.668  1.00  0.00     0.012 C 
ENDBRANCH   6   8
ENDBRANCH   5   6
ENDBRANCH   1   5
TORSDOF 5
ENDMDL
MODEL 2
REMARK VINA RESULT:    -3.562      1.688      2.901
REMARK INTER + INTRA:          -5.244
REMARK INTER:                  -4.943
REMARK INTRA:                  -0.301
REMARK UNBOUND:                -0.641
REMARK SMILES C=CC(=O)CCCCC
REMARK SMILES IDX 6 1 7 2 8 3 9 4 5 5 3 6 4 7 2 8 1 9
REMARK H PARENT
REMARK Flexibility Score: inf
ROOT
ATOM      1  C   UNL     1      -0.202 -26.033  22.577  1.00  0.00     0.008 C 
ENDROOT
BRANCH   1   2
ATOM      2  C   UNL     1      -1.215 -25.579  23.639  1.00  0.00     0.000 C 
BRANCH   2   3
ATOM      3  C   UNL     1      -1.212 -24.057  23.846  1.00  0.00    -0.003 C 
ATOM      4  C   UNL     1      -0.605 -23.688  25.197  1.00  0.00     0.004 C 
ENDBRANCH   2   3
ENDBRANCH   1   2
BRANCH   1   5
ATOM      5  C   UNL     1       1.206 -26.238  23.152  1.00  0.00     0.080 C 
BRANCH   5   6
ATOM      6  C   UNL     1       2.118 -25.129  22.716  1.00  0.00     0.155 C 
ATOM      7  O   UNL     1       1.708 -24.288  21.870  1.00  0.00    -0.295 OA
BRANCH   6   8
ATOM      8  C   UNL     1       3.463 -25.001  23.310  1.00  0.00     0.039 C 
ATOM      9  C   UNL     1       4.562 -24.877  22.570  1.00  0.00     0.012 C 
ENDBRANCH   6   8
ENDBRANCH   5   6
ENDBRANCH   1   5
TORSDOF 5
ENDMDL
MODEL 3
REMARK VINA RESULT:    -3.544      1.447      3.558
REMARK INTER + INTRA:          -5.221
REMARK INTER:                  -4.942
REMARK INTRA:                  -0.279
REMARK UNBOUND:                -0.641
REMARK SMILES C=CC(=O)CCCCC
REMARK SMILES IDX 6 1 7 2 8 3 9 4 5 5 3 6 4 7 2 8 1 9
REMARK H PARENT
REMARK Flexibility Score: inf
ROOT
ATOM      1  C   UNL     1       1.919 -25.350  23.138  1.00  0.00     0.008 C 
ENDROOT
BRANCH   1   2
ATOM      2  C   UNL     1       3.136 -24.453  23.413  1.00  0.00     0.000 C 
BRANCH   2   3
ATOM      3  C   UNL     1       4.397 -24.925  22.673  1.00  0.00    -0.003 C 
ATOM      4  C   UNL     1       4.525 -26.445  22.720  1.00  0.00     0.004 C 
ENDBRANCH   2   3
ENDBRANCH   1   2
BRANCH   1   5
ATOM      5  C   UNL     1       0.933 -24.721  22.144  1.00  0.00     0.080 C 
BRANCH   5   6
ATOM      6  C   UNL     1       0.142 -23.632  22.807  1.00  0.00     0.155 C 
ATOM      7  O   UNL     1       0.447 -22.427  22.589  1.00  0.00    -0.295 OA
BRANCH   6   8
ATOM      8  C   UNL     1      -1.009 -23.971  23.666  1.00  0.00     0.039 C 
ATOM      9  C   UNL     1      -0.960 -23.884  24.993  1.00  0.00     0.012 C 
ENDBRANCH   6   8
ENDBRANCH   5   6
ENDBRANCH   1   5
TORSDOF 5
ENDMDL
MODEL 4
REMARK VINA RESULT:    -3.511      1.697      2.712
REMARK INTER + INTRA:          -5.179
REMARK INTER:                  -4.564
REMARK INTRA:                  -0.615
REMARK UNBOUND:                -0.641
REMARK SMILES C=CC(=O)CCCCC
REMARK SMILES IDX 6 1 7 2 8 3 9 4 5 5 3 6 4 7 2 8 1 9
REMARK H PARENT
REMARK Flexibility Score: inf
ROOT
ATOM      1  C   UNL     1      -1.000 -23.623  23.333  1.00  0.00     0.008 C 
ENDROOT
BRANCH   1   2
ATOM      2  C   UNL     1      -1.113 -24.115  24.784  1.00  0.00     0.000 C 
BRANCH   2   3
ATOM      3  C   UNL     1      -1.100 -25.647  24.891  1.00  0.00    -0.003 C 
ATOM      4  C   UNL     1      -1.339 -26.295  23.530  1.00  0.00     0.004 C 
ENDBRANCH   2   3
ENDBRANCH   1   2
BRANCH   1   5
ATOM      5  C   UNL     1       0.321 -22.893  23.057  1.00  0.00     0.080 C 
BRANCH   5   6
ATOM      6  C   UNL     1       1.419 -23.877  22.780  1.00  0.00     0.155 C 
ATOM      7  O   UNL     1       1.436 -24.489  21.677  1.00  0.00    -0.295 OA
BRANCH   6   8
ATOM      8  C   UNL     1       2.490 -24.089  23.772  1.00  0.00     0.039 C 
ATOM      9  C   UNL     1       2.633 -25.234  24.436  1.00  0.00     0.012 C 
ENDBRANCH   6   8
ENDBRANCH   5   6
ENDBRANCH   1   5
TORSDOF 5
ENDMDL
MODEL 5
REMARK VINA RESULT:    -3.463     10.383     11.890
REMARK INTER + INTRA:          -5.116
REMARK INTER:                  -4.767
REMARK INTRA:                  -0.349
REMARK UNBOUND:                -0.641
REMARK SMILES C=CC(=O)CCCCC
REMARK SMILES IDX 6 1 7 2 8 3 9 4 5 5 3 6 4 7 2 8 1 9
REMARK H PARENT
REMARK Flexibility Score: inf
ROOT
ATOM      1  C   UNL     1       6.874 -13.868  28.038  1.00  0.00     0.008 C 
ENDROOT
BRANCH   1   2
ATOM      2  C   UNL     1       7.338 -13.967  26.576  1.00  0.00     0.000 C 
BRANCH   2   3
ATOM      3  C   UNL     1       6.172 -13.888  25.580  1.00  0.00    -0.003 C 
ATOM      4  C   UNL     1       5.829 -15.267  25.025  1.00  0.00     0.004 C 
ENDBRANCH   2   3
ENDBRANCH   1   2
BRANCH   1   5
ATOM      5  C   UNL     1       6.702 -15.242  28.699  1.00  0.00     0.080 C 
BRANCH   5   6
ATOM      6  C   UNL     1       5.319 -15.384  29.262  1.00  0.00     0.155 C 
ATOM      7  O   UNL     1       4.966 -16.488  29.760  1.00  0.00    -0.295 OA
BRANCH   6   8
ATOM      8  C   UNL     1       4.402 -14.228  29.275  1.00  0.00     0.039 C 
ATOM      9  C   UNL     1       3.383 -14.133  30.125  1.00  0.00     0.012 C 
ENDBRANCH   6   8
ENDBRANCH   5   6
ENDBRANCH   1   5
TORSDOF 5
ENDMDL
MODEL 6
REMARK VINA RESULT:    -3.386      1.198      3.263
REMARK INTER + INTRA:          -5.017
REMARK INTER:                  -4.479
REMARK INTRA:                  -0.538
REMARK UNBOUND:                -0.641
REMARK SMILES C=CC(=O)CCCCC
REMARK SMILES IDX 6 1 7 2 8 3 9 4 5 5 3 6 4 7 2 8 1 9
REMARK H PARENT
REMARK Flexibility Score: inf
ROOT
ATOM      1  C   UNL     1       1.003 -24.400  22.241  1.00  0.00     0.008 C 
ENDROOT
BRANCH   1   2
ATOM      2  C   UNL     1       1.237 -25.768  22.899  1.00  0.00     0.000 C 
BRANCH   2   3
ATOM      3  C   UNL     1       2.660 -25.919  23.458  1.00  0.00    -0.003 C 
ATOM      4  C   UNL     1       3.591 -24.855  22.884  1.00  0.00     0.004 C 
ENDBRANCH   2   3
ENDBRANCH   1   2
BRANCH   1   5
ATOM      5  C   UNL     1       0.013 -23.528  23.025  1.00  0.00     0.080 C 
BRANCH   5   6
ATOM      6  C   UNL     1       0.723 -22.774  24.111  1.00  0.00     0.155 C 
ATOM      7  O   UNL     1       1.407 -21.758  23.812  1.00  0.00    -0.295 OA
BRANCH   6   8
ATOM      8  C   UNL     1       0.578 -23.194  25.519  1.00  0.00     0.039 C 
ATOM      9  C   UNL     1      -0.463 -23.903  25.949  1.00  0.00     0.012 C 
ENDBRANCH   6   8
ENDBRANCH   5   6
ENDBRANCH   1   5
TORSDOF 5
ENDMDL
MODEL 7
REMARK VINA RESULT:    -3.306     10.107     11.579
REMARK INTER + INTRA:          -4.913
REMARK INTER:                  -4.363
REMARK INTRA:                  -0.550
REMARK UNBOUND:                -0.641
REMARK SMILES C=CC(=O)CCCCC
REMARK SMILES IDX 6 1 7 2 8 3 9 4 5 5 3 6 4 7 2 8 1 9
REMARK H PARENT
REMARK Flexibility Score: inf
ROOT
ATOM      1  C   UNL     1       6.173 -16.032  26.029  1.00  0.00     0.008 C 
ENDROOT
BRANCH   1   2
ATOM      2  C   UNL     1       5.555 -15.099  24.975  1.00  0.00     0.000 C 
BRANCH   2   3
ATOM      3  C   UNL     1       6.600 -14.200  24.297  1.00  0.00    -0.003 C 
ATOM      4  C   UNL     1       7.926 -14.234  25.052  1.00  0.00     0.004 C 
ENDBRANCH   2   3
ENDBRANCH   1   2
BRANCH   1   5
ATOM      5  C   UNL     1       5.463 -15.944  27.386  1.00  0.00     0.080 C 
BRANCH   5   6
ATOM      6  C   UNL     1       6.435 -15.566  28.464  1.00  0.00     0.155 C 
ATOM      7  O   UNL     1       6.880 -16.460  29.236  1.00  0.00    -0.295 OA
BRANCH   6   8
ATOM      8  C   UNL     1       6.900 -14.171  28.585  1.00  0.00     0.039 C 
ATOM      9  C   UNL     1       6.128 -13.132  28.274  1.00  0.00     0.012 C 
ENDBRANCH   6   8
ENDBRANCH   5   6
ENDBRANCH   1   5
TORSDOF 5
ENDMDL
MODEL 8
REMARK VINA RESULT:    -3.249      1.420      2.635
REMARK INTER + INTRA:          -4.840
REMARK INTER:                  -4.206
REMARK INTRA:                  -0.634
REMARK UNBOUND:                -0.641
REMARK SMILES C=CC(=O)CCCCC
REMARK SMILES IDX 6 1 7 2 8 3 9 4 5 5 3 6 4 7 2 8 1 9
REMARK H PARENT
REMARK Flexibility Score: inf
ROOT
ATOM      1  C   UNL     1       2.135 -25.447  24.803  1.00  0.00     0.008 C 
ENDROOT
BRANCH   1   2
ATOM      2  C   UNL     1       2.850 -24.093  24.929  1.00  0.00     0.000 C 
BRANCH   2   3
ATOM      3  C   UNL     1       2.013 -23.051  25.686  1.00  0.00    -0.003 C 
ATOM      4  C   UNL     1       0.911 -23.721  26.503  1.00  0.00     0.004 C 
ENDBRANCH   2   3
ENDBRANCH   1   2
BRANCH   1   5
ATOM      5  C   UNL     1       1.944 -25.883  23.344  1.00  0.00     0.080 C 
BRANCH   5   6
ATOM      6  C   UNL     1       0.985 -24.966  22.643  1.00  0.00     0.155 C 
ATOM      7  O   UNL     1       1.398 -24.254  21.688  1.00  0.00    -0.295 OA
BRANCH   6   8
ATOM      8  C   UNL     1      -0.436 -24.938  23.041  1.00  0.00     0.039 C 
ATOM      9  C   UNL     1      -1.072 -23.808  23.341  1.00  0.00     0.012 C 
ENDBRANCH   6   8
ENDBRANCH   5   6
ENDBRANCH   1   5
TORSDOF 5
ENDMDL
MODEL 9
REMARK VINA RESULT:    -3.235     10.438     11.275
REMARK INTER + INTRA:          -4.822
REMARK INTER:                  -4.504
REMARK INTRA:                  -0.318
REMARK UNBOUND:                -0.641
REMARK SMILES C=CC(=O)CCCCC
REMARK SMILES IDX 6 1 7 2 8 3 9 4 5 5 3 6 4 7 2 8 1 9
REMARK H PARENT
REMARK Flexibility Score: inf
ROOT
ATOM      1  C   UNL     1       6.379 -13.544  27.209  1.00  0.00     0.008 C 
ENDROOT
BRANCH   1   2
ATOM      2  C   UNL     1       7.001 -13.925  28.561  1.00  0.00     0.000 C 
BRANCH   2   3
ATOM      3  C   UNL     1       6.536 -15.301  29.060  1.00  0.00    -0.003 C 
ATOM      4  C   UNL     1       5.014 -15.361  29.164  1.00  0.00     0.004 C 
ENDBRANCH   2   3
ENDBRANCH   1   2
BRANCH   1   5
ATOM      5  C   UNL     1       6.978 -14.335  26.038  1.00  0.00     0.080 C 
BRANCH   5   6
ATOM      6  C   UNL     1       5.891 -14.860  25.147  1.00  0.00     0.155 C 
ATOM      7  O   UNL     1       5.030 -15.649  25.623  1.00  0.00    -0.295 OA
BRANCH   6   8
ATOM      8  C   UNL     1       5.807 -14.416  23.742  1.00  0.00     0.039 C 
ATOM      9  C   UNL     1       5.544 -13.155  23.406  1.00  0.00     0.012 C 
ENDBRANCH   6   8
ENDBRANCH   5   6
ENDBRANCH   1   5
TORSDOF 5
ENDMDL
