MODEL 1
REMARK VINA RESULT:    -3.927      0.000      0.000
REMARK INTER + INTRA:          -7.588
REMARK INTER:                  -7.142
REMARK INTRA:                  -0.446
REMARK UNBOUND:                -0.446
REMARK SMILES CCCCCC=CCC=CCCCCCCCC(=O)[O-]
REMARK SMILES IDX 11 1 12 2 13 3 14 4 15 5 16 6 17 7 18 8 19 9 20 10 10 11
REMARK SMILES IDX 9 12 8 13 7 14 6 15 5 16 4 17 3 18 2 19 1 20
REMARK H PARENT
REMARK Flexibility Score: inf
ROOT
ATOM      1  C   UNL     1       7.584 176.824  46.615  1.00  0.00     0.027 C 
ENDROOT
BRANCH   1   2
ATOM      2  C   UNL     1       7.470 175.644  45.638  1.00  0.00     0.004 C 
BRANCH   2   3
ATOM      3  C   UNL     1       6.129 175.631  44.885  1.00  0.00     0.000 C 
BRANCH   3   4
ATOM      4  C   UNL     1       5.544 177.043  44.708  1.00  0.00     0.000 C 
BRANCH   4   5
ATOM      5  C   UNL     1       4.370 177.078  43.716  1.00  0.00     0.000 C 
BRANCH   5   6
ATOM      6  C   UNL     1       3.393 175.908  43.906  1.00  0.00     0.006 C 
BRANCH   6   7
ATOM      7  C   UNL     1       2.979 175.773  45.375  1.00  0.00     0.053 C 
BRANCH   7   8
ATOM      8  C   UNL     1       3.086 174.349  45.825  1.00  0.00     0.041 C 
ATOM      9  O   UNL     1       2.875 174.049  47.031  1.00  0.00    -0.550 OA
ATOM     10  O   UNL     1       3.394 173.349  44.907  1.00  0.00    -0.550 OA
ENDBRANCH   7   8
ENDBRANCH   6   7
ENDBRANCH   5   6
ENDBRANCH   4   5
ENDBRANCH   3   4
ENDBRANCH   2   3
ENDBRANCH   1   2
BRANCH   1  11
ATOM     11  C   UNL     1       8.988 177.365  46.654  1.00  0.00    -0.031 C 
ATOM     12  C   UNL     1      10.052 176.585  46.408  1.00  0.00    -0.027 C 
BRANCH  12  13
ATOM     13  C   UNL     1      11.451 177.134  46.432  1.00  0.00     0.054 C 
BRANCH  13  14
ATOM     14  C   UNL     1      12.408 176.147  47.053  1.00  0.00    -0.027 C 
ATOM     15  C   UNL     1      13.388 176.475  47.915  1.00  0.00    -0.031 C 
BRANCH  15  16
ATOM     16  C   UNL     1      13.731 177.888  48.316  1.00  0.00     0.027 C 
BRANCH  16  17
ATOM     17  C   UNL     1      15.135 177.946  48.936  1.00  0.00     0.004 C 
BRANCH  17  18
ATOM     18  C   UNL     1      15.106 178.083  50.470  1.00  0.00     0.000 C 
BRANCH  18  19
ATOM     19  C   UNL     1      16.446 177.787  51.171  1.00  0.00    -0.003 C 
ATOM     20  C   UNL     1      16.284 177.450  52.655  1.00  0.00     0.004 C 
ENDBRANCH  18  19
ENDBRANCH  17  18
ENDBRANCH  16  17
ENDBRANCH  15  16
ENDBRANCH  13  14
ENDBRANCH  12  13
ENDBRANCH   1  11
TORSDOF 14
ENDMDL
MODEL 2
REMARK VINA RESULT:    -3.830      5.993     11.831
REMARK INTER + INTRA:          -7.410
REMARK INTER:                  -6.821
REMARK INTRA:                  -0.589
REMARK UNBOUND:                -0.446
REMARK SMILES CCCCCC=CCC=CCCCCCCCC(=O)[O-]
REMARK SMILES IDX 11 1 12 2 13 3 14 4 15 5 16 6 17 7 18 8 19 9 20 10 10 11
REMARK SMILES IDX 9 12 8 13 7 14 6 15 5 16 4 17 3 18 2 19 1 20
REMARK H PARENT
REMARK Flexibility Score: inf
ROOT
ATOM      1  C   UNL     1      13.814 177.127  48.174  1.00  0.00     0.027 C 
ENDROOT
BRANCH   1   2
ATOM      2  C   UNL     1      14.976 178.122  48.039  1.00  0.00     0.004 C 
BRANCH   2   3
ATOM      3  C   UNL     1      15.894 178.125  49.273  1.00  0.00     0.000 C 
BRANCH   3   4
ATOM      4  C   UNL     1      15.145 177.742  50.561  1.00  0.00     0.000 C 
BRANCH   4   5
ATOM      5  C   UNL     1      16.089 177.532  51.756  1.00  0.00     0.000 C 
BRANCH   5   6
ATOM      6  C   UNL     1      17.541 177.927  51.446  1.00  0.00     0.006 C 
BRANCH   6   7
ATOM      7  C   UNL     1      18.404 177.877  52.711  1.00  0.00     0.053 C 
BRANCH   7   8
ATOM      8  C   UNL     1      19.714 177.210  52.430  1.00  0.00     0.041 C 
ATOM      9  O   UNL     1      19.769 176.232  51.636  1.00  0.00    -0.550 OA
ATOM     10  O   UNL     1      20.880 177.684  53.024  1.00  0.00    -0.550 OA
ENDBRANCH   7   8
ENDBRANCH   6   7
ENDBRANCH   5   6
ENDBRANCH   4   5
ENDBRANCH   3   4
ENDBRANCH   2   3
ENDBRANCH   1   2
BRANCH   1  11
ATOM     11  C   UNL     1      12.523 177.729  47.687  1.00  0.00    -0.031 C 
ATOM     12  C   UNL     1      11.657 177.029  46.936  1.00  0.00    -0.027 C 
BRANCH  12  13
ATOM     13  C   UNL     1      10.362 177.630  46.466  1.00  0.00     0.054 C 
BRANCH  13  14
ATOM     14  C   UNL     1       9.473 177.979  47.634  1.00  0.00    -0.027 C 
ATOM     15  C   UNL     1       8.128 177.972  47.595  1.00  0.00    -0.031 C 
BRANCH  15  16
ATOM     16  C   UNL     1       7.313 177.703  46.355  1.00  0.00     0.027 C 
BRANCH  16  17
ATOM     17  C   UNL     1       7.393 176.218  45.969  1.00  0.00     0.004 C 
BRANCH  17  18
ATOM     18  C   UNL     1       6.063 175.670  45.421  1.00  0.00     0.000 C 
BRANCH  18  19
ATOM     19  C   UNL     1       5.582 174.363  46.078  1.00  0.00    -0.003 C 
ATOM     20  C   UNL     1       4.103 174.070  45.819  1.00  0.00     0.004 C 
ENDBRANCH  18  19
ENDBRANCH  17  18
ENDBRANCH  16  17
ENDBRANCH  15  16
ENDBRANCH  13  14
ENDBRANCH  12  13
ENDBRANCH   1  11
TORSDOF 14
ENDMDL
MODEL 3
REMARK VINA RESULT:    -3.810      1.806      3.554
REMARK INTER + INTRA:          -7.374
REMARK INTER:                  -6.712
REMARK INTRA:                  -0.663
REMARK UNBOUND:                -0.446
REMARK SMILES CCCCCC=CCC=CCCCCCCCC(=O)[O-]
REMARK SMILES IDX 11 1 12 2 13 3 14 4 15 5 16 6 17 7 18 8 19 9 20 10 10 11
REMARK SMILES IDX 9 12 8 13 7 14 6 15 5 16 4 17 3 18 2 19 1 20
REMARK H PARENT
REMARK Flexibility Score: inf
ROOT
ATOM      1  C   UNL     1      11.241 176.718  47.022  1.00  0.00     0.027 C 
ENDROOT
BRANCH   1   2
ATOM      2  C   UNL     1      10.097 177.324  47.848  1.00  0.00     0.004 C 
BRANCH   2   3
ATOM      3  C   UNL     1       9.036 178.009  46.969  1.00  0.00     0.000 C 
BRANCH   3   4
ATOM      4  C   UNL     1       7.738 177.189  46.873  1.00  0.00     0.000 C 
BRANCH   4   5
ATOM      5  C   UNL     1       7.178 177.132  45.443  1.00  0.00     0.000 C 
BRANCH   5   6
ATOM      6  C   UNL     1       6.591 175.757  45.087  1.00  0.00     0.006 C 
BRANCH   6   7
ATOM      7  C   UNL     1       5.100 175.869  44.749  1.00  0.00     0.053 C 
BRANCH   7   8
ATOM      8  C   UNL     1       4.273 175.150  45.769  1.00  0.00     0.041 C 
ATOM      9  O   UNL     1       4.741 174.145  46.369  1.00  0.00    -0.550 OA
ATOM     10  O   UNL     1       2.994 175.606  46.076  1.00  0.00    -0.550 OA
ENDBRANCH   7   8
ENDBRANCH   6   7
ENDBRANCH   5   6
ENDBRANCH   4   5
ENDBRANCH   3   4
ENDBRANCH   2   3
ENDBRANCH   1   2
BRANCH   1  11
ATOM     11  C   UNL     1      12.536 177.440  47.274  1.00  0.00    -0.031 C 
ATOM     12  C   UNL     1      13.406 177.025  48.209  1.00  0.00    -0.027 C 
BRANCH  12  13
ATOM     13  C   UNL     1      14.706 177.742  48.445  1.00  0.00     0.054 C 
BRANCH  13  14
ATOM     14  C   UNL     1      14.971 177.907  49.921  1.00  0.00    -0.027 C 
ATOM     15  C   UNL     1      16.187 178.117  50.457  1.00  0.00    -0.031 C 
BRANCH  15  16
ATOM     16  C   UNL     1      17.474 178.125  49.672  1.00  0.00     0.027 C 
BRANCH  16  17
ATOM     17  C   UNL     1      18.682 178.022  50.615  1.00  0.00     0.004 C 
BRANCH  17  18
ATOM     18  C   UNL     1      18.337 177.354  51.958  1.00  0.00     0.000 C 
BRANCH  18  19
ATOM     19  C   UNL     1      19.515 176.640  52.647  1.00  0.00    -0.003 C 
ATOM     20  C   UNL     1      20.881 177.124  52.154  1.00  0.00     0.004 C 
ENDBRANCH  18  19
ENDBRANCH  17  18
ENDBRANCH  16  17
ENDBRANCH  15  16
ENDBRANCH  13  14
ENDBRANCH  12  13
ENDBRANCH   1  11
TORSDOF 14
ENDMDL
MODEL 4
REMARK VINA RESULT:    -3.721      2.081      4.121
REMARK INTER + INTRA:          -7.212
REMARK INTER:                  -6.393
REMARK INTRA:                  -0.819
REMARK UNBOUND:                -0.446
REMARK SMILES CCCCCC=CCC=CCCCCCCCC(=O)[O-]
REMARK SMILES IDX 11 1 12 2 13 3 14 4 15 5 16 6 17 7 18 8 19 9 20 10 10 11
REMARK SMILES IDX 9 12 8 13 7 14 6 15 5 16 4 17 3 18 2 19 1 20
REMARK H PARENT
REMARK Flexibility Score: inf
ROOT
ATOM      1  C   UNL     1      11.731 176.415  46.689  1.00  0.00     0.027 C 
ENDROOT
BRANCH   1   2
ATOM      2  C   UNL     1      10.522 176.256  47.624  1.00  0.00     0.004 C 
BRANCH   2   3
ATOM      3  C   UNL     1       9.843 177.600  47.940  1.00  0.00     0.000 C 
BRANCH   3   4
ATOM      4  C   UNL     1       8.731 177.944  46.934  1.00  0.00     0.000 C 
BRANCH   4   5
ATOM      5  C   UNL     1       7.762 176.774  46.698  1.00  0.00     0.000 C 
BRANCH   5   6
ATOM      6  C   UNL     1       6.496 177.192  45.935  1.00  0.00     0.006 C 
BRANCH   6   7
ATOM      7  C   UNL     1       6.264 176.286  44.721  1.00  0.00     0.053 C 
BRANCH   7   8
ATOM      8  C   UNL     1       5.177 176.837  43.852  1.00  0.00     0.041 C 
ATOM      9  O   UNL     1       5.403 177.830  43.109  1.00  0.00    -0.550 OA
ATOM     10  O   UNL     1       3.920 176.239  43.842  1.00  0.00    -0.550 OA
ENDBRANCH   7   8
ENDBRANCH   6   7
ENDBRANCH   5   6
ENDBRANCH   4   5
ENDBRANCH   3   4
ENDBRANCH   2   3
ENDBRANCH   1   2
BRANCH   1  11
ATOM     11  C   UNL     1      12.701 177.434  47.222  1.00  0.00    -0.031 C 
ATOM     12  C   UNL     1      13.652 177.106  48.112  1.00  0.00    -0.027 C 
BRANCH  12  13
ATOM     13  C   UNL     1      14.628 178.125  48.629  1.00  0.00     0.054 C 
BRANCH  13  14
ATOM     14  C   UNL     1      14.791 178.008  50.124  1.00  0.00    -0.027 C 
ATOM     15  C   UNL     1      15.974 178.026  50.765  1.00  0.00    -0.031 C 
BRANCH  15  16
ATOM     16  C   UNL     1      17.315 178.074  50.077  1.00  0.00     0.027 C 
BRANCH  16  17
ATOM     17  C   UNL     1      18.450 178.098  51.110  1.00  0.00     0.004 C 
BRANCH  17  18
ATOM     18  C   UNL     1      18.081 177.380  52.421  1.00  0.00     0.000 C 
BRANCH  18  19
ATOM     19  C   UNL     1      19.174 176.447  52.977  1.00  0.00    -0.003 C 
ATOM     20  C   UNL     1      20.531 176.640  52.297  1.00  0.00     0.004 C 
ENDBRANCH  18  19
ENDBRANCH  17  18
ENDBRANCH  16  17
ENDBRANCH  15  16
ENDBRANCH  13  14
ENDBRANCH  12  13
ENDBRANCH   1  11
TORSDOF 14
ENDMDL
MODEL 5
REMARK VINA RESULT:    -3.714      6.157     12.361
REMARK INTER + INTRA:          -7.199
REMARK INTER:                  -6.321
REMARK INTRA:                  -0.878
REMARK UNBOUND:                -0.446
REMARK SMILES CCCCCC=CCC=CCCCCCCCC(=O)[O-]
REMARK SMILES IDX 11 1 12 2 13 3 14 4 15 5 16 6 17 7 18 8 19 9 20 10 10 11
REMARK SMILES IDX 9 12 8 13 7 14 6 15 5 16 4 17 3 18 2 19 1 20
REMARK H PARENT
REMARK Flexibility Score: inf
ROOT
ATOM      1  C   UNL     1      14.926 178.117  49.868  1.00  0.00     0.027 C 
ENDROOT
BRANCH   1   2
ATOM      2  C   UNL     1      16.453 177.988  49.764  1.00  0.00     0.004 C 
BRANCH   2   3
ATOM      3  C   UNL     1      17.148 178.110  51.130  1.00  0.00     0.000 C 
BRANCH   3   4
ATOM      4  C   UNL     1      16.506 177.207  52.196  1.00  0.00     0.000 C 
BRANCH   4   5
ATOM      5  C   UNL     1      17.157 177.368  53.580  1.00  0.00     0.000 C 
BRANCH   5   6
ATOM      6  C   UNL     1      18.513 178.086  53.521  1.00  0.00     0.006 C 
BRANCH   6   7
ATOM      7  C   UNL     1      19.636 177.179  54.035  1.00  0.00     0.053 C 
BRANCH   7   8
ATOM      8  C   UNL     1      20.425 176.618  52.893  1.00  0.00     0.041 C 
ATOM      9  O   UNL     1      21.648 176.898  52.770  1.00  0.00    -0.550 OA
ATOM     10  O   UNL     1      19.816 175.763  51.979  1.00  0.00    -0.550 OA
ENDBRANCH   7   8
ENDBRANCH   6   7
ENDBRANCH   5   6
ENDBRANCH   4   5
ENDBRANCH   3   4
ENDBRANCH   2   3
ENDBRANCH   1   2
BRANCH   1  11
ATOM     11  C   UNL     1      14.273 177.962  48.521  1.00  0.00    -0.031 C 
ATOM     12  C   UNL     1      13.008 177.530  48.396  1.00  0.00    -0.027 C 
BRANCH  12  13
ATOM     13  C   UNL     1      12.356 177.391  47.048  1.00  0.00     0.054 C 
BRANCH  13  14
ATOM     14  C   UNL     1      11.418 176.210  47.021  1.00  0.00    -0.027 C 
ATOM     15  C   UNL     1      10.076 176.305  46.995  1.00  0.00    -0.031 C 
BRANCH  15  16
ATOM     16  C   UNL     1       9.311 177.602  47.080  1.00  0.00     0.027 C 
BRANCH  16  17
ATOM     17  C   UNL     1       7.844 177.390  46.680  1.00  0.00     0.004 C 
BRANCH  17  18
ATOM     18  C   UNL     1       7.622 176.091  45.885  1.00  0.00     0.000 C 
BRANCH  18  19
ATOM     19  C   UNL     1       6.153 175.793  45.529  1.00  0.00    -0.003 C 
ATOM     20  C   UNL     1       5.702 174.397  45.963  1.00  0.00     0.004 C 
ENDBRANCH  18  19
ENDBRANCH  17  18
ENDBRANCH  16  17
ENDBRANCH  15  16
ENDBRANCH  13  14
ENDBRANCH  12  13
ENDBRANCH   1  11
TORSDOF 14
ENDMDL
MODEL 6
REMARK VINA RESULT:    -3.563      5.269     11.385
REMARK INTER + INTRA:          -6.926
REMARK INTER:                  -6.244
REMARK INTRA:                  -0.681
REMARK UNBOUND:                -0.446
REMARK SMILES CCCCCC=CCC=CCCCCCCCC(=O)[O-]
REMARK SMILES IDX 11 1 12 2 13 3 14 4 15 5 16 6 17 7 18 8 19 9 20 10 10 11
REMARK SMILES IDX 9 12 8 13 7 14 6 15 5 16 4 17 3 18 2 19 1 20
REMARK H PARENT
REMARK Flexibility Score: inf
ROOT
ATOM      1  C   UNL     1      11.752 178.004  46.303  1.00  0.00     0.027 C 
ENDROOT
BRANCH   1   2
ATOM      2  C   UNL     1      12.048 177.961  47.810  1.00  0.00     0.004 C 
BRANCH   2   3
ATOM      3  C   UNL     1      13.122 176.920  48.169  1.00  0.00     0.000 C 
BRANCH   3   4
ATOM      4  C   UNL     1      14.503 177.558  48.397  1.00  0.00     0.000 C 
BRANCH   4   5
ATOM      5  C   UNL     1      14.683 178.083  49.830  1.00  0.00     0.000 C 
BRANCH   5   6
ATOM      6  C   UNL     1      16.150 178.073  50.289  1.00  0.00     0.006 C 
BRANCH   6   7
ATOM      7  C   UNL     1      16.246 177.941  51.813  1.00  0.00     0.053 C 
BRANCH   7   8
ATOM      8  C   UNL     1      17.480 177.187  52.199  1.00  0.00     0.041 C 
ATOM      9  O   UNL     1      17.423 176.290  53.084  1.00  0.00    -0.550 OA
ATOM     10  O   UNL     1      18.689 177.455  51.564  1.00  0.00    -0.550 OA
ENDBRANCH   7   8
ENDBRANCH   6   7
ENDBRANCH   5   6
ENDBRANCH   4   5
ENDBRANCH   3   4
ENDBRANCH   2   3
ENDBRANCH   1   2
BRANCH   1  11
ATOM     11  C   UNL     1      10.274 178.114  46.041  1.00  0.00    -0.031 C 
ATOM     12  C   UNL     1       9.436 177.095  46.289  1.00  0.00    -0.027 C 
BRANCH  12  13
ATOM     13  C   UNL     1       7.959 177.215  46.041  1.00  0.00     0.054 C 
BRANCH  13  14
ATOM     14  C   UNL     1       7.376 175.895  45.601  1.00  0.00    -0.027 C 
ATOM     15  C   UNL     1       6.059 175.654  45.462  1.00  0.00    -0.031 C 
BRANCH  15  16
ATOM     16  C   UNL     1       4.971 176.637  45.813  1.00  0.00     0.027 C 
BRANCH  16  17
ATOM     17  C   UNL     1       3.587 176.031  45.535  1.00  0.00     0.004 C 
BRANCH  17  18
ATOM     18  C   UNL     1       3.496 174.544  45.924  1.00  0.00     0.000 C 
BRANCH  18  19
ATOM     19  C   UNL     1       3.285 173.578  44.742  1.00  0.00    -0.003 C 
ATOM     20  C   UNL     1       3.043 174.300  43.414  1.00  0.00     0.004 C 
ENDBRANCH  18  19
ENDBRANCH  17  18
ENDBRANCH  16  17
ENDBRANCH  15  16
ENDBRANCH  13  14
ENDBRANCH  12  13
ENDBRANCH   1  11
TORSDOF 14
ENDMDL
MODEL 7
REMARK VINA RESULT:    -3.540      4.930     10.552
REMARK INTER + INTRA:          -6.884
REMARK INTER:                  -5.700
REMARK INTRA:                  -1.184
REMARK UNBOUND:                -0.446
REMARK SMILES CCCCCC=CCC=CCCCCCCCC(=O)[O-]
REMARK SMILES IDX 11 1 12 2 13 3 14 4 15 5 16 6 17 7 18 8 19 9 20 10 10 11
REMARK SMILES IDX 9 12 8 13 7 14 6 15 5 16 4 17 3 18 2 19 1 20
REMARK H PARENT
REMARK Flexibility Score: inf
ROOT
ATOM      1  C   UNL     1       9.856 176.078  47.451  1.00  0.00     0.027 C 
ENDROOT
BRANCH   1   2
ATOM      2  C   UNL     1      11.266 176.049  46.842  1.00  0.00     0.004 C 
BRANCH   2   3
ATOM      3  C   UNL     1      11.724 177.433  46.353  1.00  0.00     0.000 C 
BRANCH   3   4
ATOM      4  C   UNL     1      12.668 178.124  47.353  1.00  0.00     0.000 C 
BRANCH   4   5
ATOM      5  C   UNL     1      13.612 177.136  48.056  1.00  0.00     0.000 C 
BRANCH   5   6
ATOM      6  C   UNL     1      14.887 177.807  48.590  1.00  0.00     0.006 C 
BRANCH   6   7
ATOM      7  C   UNL     1      14.913 177.792  50.122  1.00  0.00     0.053 C 
BRANCH   7   8
ATOM      8  C   UNL     1      16.305 178.009  50.628  1.00  0.00     0.041 C 
ATOM      9  O   UNL     1      16.519 178.125  51.865  1.00  0.00    -0.550 OA
ATOM     10  O   UNL     1      17.372 178.057  49.735  1.00  0.00    -0.550 OA
ENDBRANCH   7   8
ENDBRANCH   6   7
ENDBRANCH   5   6
ENDBRANCH   4   5
ENDBRANCH   3   4
ENDBRANCH   2   3
ENDBRANCH   1   2
BRANCH   1  11
ATOM     11  C   UNL     1       8.927 176.932  46.632  1.00  0.00    -0.031 C 
ATOM     12  C   UNL     1       7.602 176.717  46.615  1.00  0.00    -0.027 C 
BRANCH  12  13
ATOM     13  C   UNL     1       6.677 177.583  45.807  1.00  0.00     0.054 C 
BRANCH  13  14
ATOM     14  C   UNL     1       6.404 176.969  44.456  1.00  0.00    -0.027 C 
ATOM     15  C   UNL     1       5.187 176.886  43.889  1.00  0.00    -0.031 C 
BRANCH  15  16
ATOM     16  C   UNL     1       3.905 177.312  44.559  1.00  0.00     0.027 C 
BRANCH  16  17
ATOM     17  C   UNL     1       3.471 176.273  45.603  1.00  0.00     0.004 C 
BRANCH  17  18
ATOM     18  C   UNL     1       2.936 174.975  44.970  1.00  0.00     0.000 C 
BRANCH  18  19
ATOM     19  C   UNL     1       3.764 173.714  45.282  1.00  0.00    -0.003 C 
ATOM     20  C   UNL     1       4.979 173.999  46.168  1.00  0.00     0.004 C 
ENDBRANCH  18  19
ENDBRANCH  17  18
ENDBRANCH  16  17
ENDBRANCH  15  16
ENDBRANCH  13  14
ENDBRANCH  12  13
ENDBRANCH   1  11
TORSDOF 14
ENDMDL
MODEL 8
REMARK VINA RESULT:    -2.943      2.612      3.984
REMARK INTER + INTRA:          -5.797
REMARK INTER:                  -4.556
REMARK INTRA:                  -1.241
REMARK UNBOUND:                -0.446
REMARK SMILES CCCCCC=CCC=CCCCCCCCC(=O)[O-]
REMARK SMILES IDX 11 1 12 2 13 3 14 4 15 5 16 6 17 7 18 8 19 9 20 10 10 11
REMARK SMILES IDX 9 12 8 13 7 14 6 15 5 16 4 17 3 18 2 19 1 20
REMARK H PARENT
REMARK Flexibility Score: inf
ROOT
ATOM      1  C   UNL     1       7.360 174.310  45.547  1.00  0.00     0.027 C 
ENDROOT
BRANCH   1   2
ATOM      2  C   UNL     1       6.011 173.628  45.821  1.00  0.00     0.004 C 
BRANCH   2   3
ATOM      3  C   UNL     1       5.080 174.494  46.688  1.00  0.00     0.000 C 
BRANCH   3   4
ATOM      4  C   UNL     1       3.595 174.268  46.357  1.00  0.00     0.000 C 
BRANCH   4   5
ATOM      5  C   UNL     1       2.875 175.563  45.948  1.00  0.00     0.000 C 
BRANCH   5   6
ATOM      6  C   UNL     1       3.838 176.644  45.433  1.00  0.00     0.006 C 
BRANCH   6   7
ATOM      7  C   UNL     1       3.115 177.621  44.500  1.00  0.00     0.053 C 
BRANCH   7   8
ATOM      8  C   UNL     1       3.901 177.830  43.243  1.00  0.00     0.041 C 
ATOM      9  O   UNL     1       5.161 177.869  43.283  1.00  0.00    -0.550 OA
ATOM     10  O   UNL     1       3.245 177.954  42.022  1.00  0.00    -0.550 OA
ENDBRANCH   7   8
ENDBRANCH   6   7
ENDBRANCH   5   6
ENDBRANCH   4   5
ENDBRANCH   3   4
ENDBRANCH   2   3
ENDBRANCH   1   2
BRANCH   1  11
ATOM     11  C   UNL     1       7.433 175.659  46.211  1.00  0.00    -0.031 C 
ATOM     12  C   UNL     1       7.675 176.778  45.510  1.00  0.00    -0.027 C 
BRANCH  12  13
ATOM     13  C   UNL     1       7.732 178.124  46.177  1.00  0.00     0.054 C 
BRANCH  13  14
ATOM     14  C   UNL     1       7.967 177.983  47.660  1.00  0.00    -0.027 C 
ATOM     15  C   UNL     1       9.178 177.833  48.228  1.00  0.00    -0.031 C 
BRANCH  15  16
ATOM     16  C   UNL     1      10.467 177.692  47.459  1.00  0.00     0.027 C 
BRANCH  16  17
ATOM     17  C   UNL     1      10.793 176.210  47.220  1.00  0.00     0.004 C 
BRANCH  17  18
ATOM     18  C   UNL     1      12.243 175.984  46.753  1.00  0.00     0.000 C 
BRANCH  18  19
ATOM     19  C   UNL     1      13.314 176.205  47.838  1.00  0.00    -0.003 C 
ATOM     20  C   UNL     1      13.649 177.682  48.057  1.00  0.00     0.004 C 
ENDBRANCH  18  19
ENDBRANCH  17  18
ENDBRANCH  16  17
ENDBRANCH  15  16
ENDBRANCH  13  14
ENDBRANCH  12  13
ENDBRANCH   1  11
TORSDOF 14
ENDMDL
MODEL 9
REMARK VINA RESULT:    -2.753      4.358     10.272
REMARK INTER + INTRA:          -5.452
REMARK INTER:                  -4.444
REMARK INTRA:                  -1.008
REMARK UNBOUND:                -0.446
REMARK SMILES CCCCCC=CCC=CCCCCCCCC(=O)[O-]
REMARK SMILES IDX 11 1 12 2 13 3 14 4 15 5 16 6 17 7 18 8 19 9 20 10 10 11
REMARK SMILES IDX 9 12 8 13 7 14 6 15 5 16 4 17 3 18 2 19 1 20
REMARK H PARENT
REMARK Flexibility Score: inf
ROOT
ATOM      1  C   UNL     1       7.999 175.713  46.629  1.00  0.00     0.027 C 
ENDROOT
BRANCH   1   2
ATOM      2  C   UNL     1       9.144 176.654  47.032  1.00  0.00     0.004 C 
BRANCH   2   3
ATOM      3  C   UNL     1      10.496 176.223  46.436  1.00  0.00     0.000 C 
BRANCH   3   4
ATOM      4  C   UNL     1      11.154 177.341  45.611  1.00  0.00     0.000 C 
BRANCH   4   5
ATOM      5  C   UNL     1      12.251 178.085  46.389  1.00  0.00     0.000 C 
BRANCH   5   6
ATOM      6  C   UNL     1      12.360 177.628  47.852  1.00  0.00     0.006 C 
BRANCH   6   7
ATOM      7  C   UNL     1      13.664 176.859  48.090  1.00  0.00     0.053 C 
BRANCH   7   8
ATOM      8  C   UNL     1      14.669 177.726  48.780  1.00  0.00     0.041 C 
ATOM      9  O   UNL     1      15.693 178.125  48.161  1.00  0.00    -0.550 OA
ATOM     10  O   UNL     1      14.464 178.116  50.101  1.00  0.00    -0.550 OA
ENDBRANCH   7   8
ENDBRANCH   6   7
ENDBRANCH   5   6
ENDBRANCH   4   5
ENDBRANCH   3   4
ENDBRANCH   2   3
ENDBRANCH   1   2
BRANCH   1  11
ATOM     11  C   UNL     1       6.985 176.424  45.774  1.00  0.00    -0.031 C 
ATOM     12  C   UNL     1       6.068 177.249  46.305  1.00  0.00    -0.027 C 
BRANCH  12  13
ATOM     13  C   UNL     1       5.068 177.969  45.444  1.00  0.00     0.054 C 
BRANCH  13  14
ATOM     14  C   UNL     1       5.538 178.036  44.012  1.00  0.00    -0.027 C 
ATOM     15  C   UNL     1       4.727 177.954  42.941  1.00  0.00    -0.031 C 
BRANCH  15  16
ATOM     16  C   UNL     1       3.244 177.692  43.013  1.00  0.00     0.027 C 
BRANCH  16  17
ATOM     17  C   UNL     1       2.949 176.201  42.795  1.00  0.00     0.004 C 
BRANCH  17  18
ATOM     18  C   UNL     1       2.887 175.404  44.110  1.00  0.00     0.000 C 
BRANCH  18  19
ATOM     19  C   UNL     1       3.063 173.881  43.953  1.00  0.00    -0.003 C 
ATOM     20  C   UNL     1       2.945 173.124  45.277  1.00  0.00     0.004 C 
ENDBRANCH  18  19
ENDBRANCH  17  18
ENDBRANCH  16  17
ENDBRANCH  15  16
ENDBRANCH  13  14
ENDBRANCH  12  13
ENDBRANCH   1  11
TORSDOF 14
ENDMDL
