MODEL 1
REMARK VINA RESULT:    -3.293      0.000      0.000
REMARK INTER + INTRA:          -4.101
REMARK INTER:                  -4.641
REMARK INTRA:                   0.540
REMARK UNBOUND:                 0.540
REMARK SMILES CC1=CCC(=C(C)C)C(=O)CC(C)=CCC1
REMARK SMILES IDX 12 1 14 2 13 3 15 4 16 5 2 6 1 7 3 8 11 10 9 11 10 12 5 13
REMARK SMILES IDX 6 14 7 15 8 16 4 17
REMARK H PARENT
REMARK Flexibility Score: 60.00
ROOT
ATOM      1  C   UNL     1      86.024  -6.823  30.364  1.00  0.00    -0.070 C 
ATOM      2  C   UNL     1      85.759  -8.131  30.592  1.00  0.00    -0.027 C 
ATOM      3  C   UNL     1      87.034  -6.151  31.262  1.00  0.00     0.039 C 
ENDROOT
BRANCH   2   4
ATOM      4  C   UNL     1      84.871  -9.022  29.758  1.00  0.00     0.032 C 
BRANCH   4   5
ATOM      5  C   UNL     1      83.454  -9.161  30.345  1.00  0.00     0.034 C 
BRANCH   5   6
ATOM      6  C   UNL     1      82.378  -8.861  29.321  1.00  0.00    -0.077 C 
ATOM      7  C   UNL     1      81.970  -9.957  28.368  1.00  0.00     0.039 C 
ATOM      8  C   UNL     1      81.777  -7.657  29.192  1.00  0.00    -0.023 CG0
ATOM      9  G   UNL     1      82.073  -6.432  30.024  1.00  0.00     0.000 G0
ENDBRANCH   5   6
ENDBRANCH   4   5
ENDBRANCH   2   4
BRANCH   1  10
ATOM     10  C   UNL     1      85.413  -6.024  29.224  1.00  0.00     0.111 C 
BRANCH  10  11
ATOM     11  C   UNL     1      84.262  -5.171  29.699  1.00  0.00     0.163 C 
ATOM     12  O   UNL     1      84.505  -4.253  30.529  1.00  0.00    -0.294 OA
BRANCH  11  13
ATOM     13  C   UNL     1      82.855  -5.422  29.256  1.00  0.00    -0.002 C 
ATOM     14  C   UNL     1      82.332  -4.816  28.147  1.00  0.00    -0.069 C 
ATOM     15  C   UNL     1      83.170  -3.914  27.267  1.00  0.00     0.039 C 
ATOM     16  C   UNL     1      80.897  -5.046  27.726  1.00  0.00     0.039 C 
BRANCH  13  17
ATOM     17  C   UNL     1      82.053  -6.440  30.046  1.00  0.00     0.066 CG0
ATOM     18  G   UNL     1      81.792  -7.660  29.195  1.00  0.00     0.000 G0
ENDBRANCH  13  17
ENDBRANCH  11  13
ENDBRANCH  10  11
ENDBRANCH   1  10
TORSDOF 0
ENDMDL
MODEL 2
REMARK VINA RESULT:    -2.951      2.164      3.901
REMARK INTER + INTRA:          -3.618
REMARK INTER:                  -4.514
REMARK INTRA:                   0.896
REMARK UNBOUND:                 0.540
REMARK SMILES CC1=CCC(=C(C)C)C(=O)CC(C)=CCC1
REMARK SMILES IDX 12 1 14 2 13 3 15 4 16 5 2 6 1 7 3 8 11 10 9 11 10 12 5 13
REMARK SMILES IDX 6 14 7 15 8 16 4 17
REMARK H PARENT
REMARK Flexibility Score: 60.00
ROOT
ATOM      1  C   UNL     1      83.122  -4.636  28.681  1.00  0.00    -0.070 C 
ATOM      2  C   UNL     1      84.126  -4.417  29.563  1.00  0.00    -0.027 C 
ATOM      3  C   UNL     1      83.340  -4.190  27.255  1.00  0.00     0.039 C 
ENDROOT
BRANCH   2   4
ATOM      4  C   UNL     1      84.167  -4.872  31.002  1.00  0.00     0.032 C 
BRANCH   4   5
ATOM      5  C   UNL     1      83.747  -6.346  31.168  1.00  0.00     0.034 C 
BRANCH   5   6
ATOM      6  C   UNL     1      84.674  -7.292  30.431  1.00  0.00    -0.077 C 
ATOM      7  C   UNL     1      86.156  -7.189  30.690  1.00  0.00     0.039 C 
ATOM      8  C   UNL     1      84.252  -8.209  29.532  1.00  0.00    -0.023 CG0
ATOM      9  G   UNL     1      82.819  -8.438  29.113  1.00  0.00     0.000 G0
ENDBRANCH   5   6
ENDBRANCH   4   5
ENDBRANCH   2   4
BRANCH   1  10
ATOM     10  C   UNL     1      81.831  -5.357  29.033  1.00  0.00     0.111 C 
BRANCH  10  11
ATOM     11  C   UNL     1      81.541  -6.479  28.067  1.00  0.00     0.163 C 
ATOM     12  O   UNL     1      80.452  -6.450  27.431  1.00  0.00    -0.294 OA
BRANCH  11  13
ATOM     13  C   UNL     1      82.477  -7.633  27.889  1.00  0.00    -0.002 C 
ATOM     14  C   UNL     1      83.054  -7.912  26.681  1.00  0.00    -0.069 C 
ATOM     15  C   UNL     1      82.834  -7.027  25.474  1.00  0.00     0.039 C 
ATOM     16  C   UNL     1      83.970  -9.103  26.501  1.00  0.00     0.039 C 
BRANCH  13  17
ATOM     17  C   UNL     1      82.822  -8.439  29.129  1.00  0.00     0.066 CG0
ATOM     18  G   UNL     1      84.263  -8.200  29.512  1.00  0.00     0.000 G0
ENDBRANCH  13  17
ENDBRANCH  11  13
ENDBRANCH  10  11
ENDBRANCH   1  10
TORSDOF 0
ENDMDL
MODEL 3
REMARK VINA RESULT:    -2.867      1.875      3.265
REMARK INTER + INTRA:          -3.500
REMARK INTER:                  -4.094
REMARK INTRA:                   0.594
REMARK UNBOUND:                 0.540
REMARK SMILES CC1=CCC(=C(C)C)C(=O)CC(C)=CCC1
REMARK SMILES IDX 12 1 14 2 13 3 15 4 16 5 2 6 1 7 3 8 11 10 9 11 10 12 5 13
REMARK SMILES IDX 6 14 7 15 8 16 4 17
REMARK H PARENT
REMARK Flexibility Score: 60.00
ROOT
ATOM      1  C   UNL     1      83.225  -5.248  30.254  1.00  0.00    -0.070 C 
ATOM      2  C   UNL     1      84.258  -5.959  30.765  1.00  0.00    -0.027 C 
ATOM      3  C   UNL     1      82.049  -4.978  31.162  1.00  0.00     0.039 C 
ENDROOT
BRANCH   2   4
ATOM      4  C   UNL     1      85.568  -6.252  30.076  1.00  0.00     0.032 C 
BRANCH   4   5
ATOM      5  C   UNL     1      85.378  -6.945  28.713  1.00  0.00     0.034 C 
BRANCH   5   6
ATOM      6  C   UNL     1      84.587  -8.232  28.831  1.00  0.00    -0.077 C 
ATOM      7  C   UNL     1      85.127  -9.326  29.720  1.00  0.00     0.039 C 
ATOM      8  C   UNL     1      83.435  -8.471  28.166  1.00  0.00    -0.023 CG0
ATOM      9  G   UNL     1      82.758  -7.520  27.208  1.00  0.00     0.000 G0
ENDBRANCH   5   6
ENDBRANCH   4   5
ENDBRANCH   2   4
BRANCH   1  10
ATOM     10  C   UNL     1      83.216  -4.660  28.852  1.00  0.00     0.111 C 
BRANCH  10  11
ATOM     11  C   UNL     1      82.054  -5.178  28.041  1.00  0.00     0.163 C 
ATOM     12  O   UNL     1      81.306  -4.338  27.470  1.00  0.00    -0.294 OA
BRANCH  11  13
ATOM     13  C   UNL     1      81.744  -6.639  27.944  1.00  0.00    -0.002 C 
ATOM     14  C   UNL     1      80.580  -7.161  28.436  1.00  0.00    -0.069 C 
ATOM     15  C   UNL     1      79.509  -6.281  29.040  1.00  0.00     0.039 C 
ATOM     16  C   UNL     1      80.292  -8.645  28.367  1.00  0.00     0.039 C 
BRANCH  13  17
ATOM     17  C   UNL     1      82.746  -7.509  27.205  1.00  0.00     0.066 CG0
ATOM     18  G   UNL     1      83.429  -8.442  28.176  1.00  0.00     0.000 G0
ENDBRANCH  13  17
ENDBRANCH  11  13
ENDBRANCH  10  11
ENDBRANCH   1  10
TORSDOF 0
ENDMDL
MODEL 4
REMARK VINA RESULT:    -2.829      2.302      4.109
REMARK INTER + INTRA:          -3.446
REMARK INTER:                  -4.026
REMARK INTRA:                   0.580
REMARK UNBOUND:                 0.540
REMARK SMILES CC1=CCC(=C(C)C)C(=O)CC(C)=CCC1
REMARK SMILES IDX 12 1 14 2 13 3 15 4 16 5 2 6 1 7 3 8 11 10 9 11 10 12 5 13
REMARK SMILES IDX 6 14 7 15 8 16 4 17
REMARK H PARENT
REMARK Flexibility Score: 60.00
ROOT
ATOM      1  C   UNL     1      83.049  -5.042  27.593  1.00  0.00    -0.070 C 
ATOM      2  C   UNL     1      83.919  -5.417  28.562  1.00  0.00    -0.027 C 
ATOM      3  C   UNL     1      83.303  -3.723  26.904  1.00  0.00     0.039 C 
ENDROOT
BRANCH   2   4
ATOM      4  C   UNL     1      83.919  -6.732  29.302  1.00  0.00     0.032 C 
BRANCH   4   5
ATOM      5  C   UNL     1      83.727  -6.555  30.821  1.00  0.00     0.034 C 
BRANCH   5   6
ATOM      6  C   UNL     1      82.559  -5.646  31.148  1.00  0.00    -0.077 C 
ATOM      7  C   UNL     1      82.826  -4.398  31.952  1.00  0.00     0.039 C 
ATOM      8  C   UNL     1      81.283  -5.902  30.783  1.00  0.00    -0.023 CG0
ATOM      9  G   UNL     1      80.813  -7.111  30.010  1.00  0.00     0.000 G0
ENDBRANCH   5   6
ENDBRANCH   4   5
ENDBRANCH   2   4
BRANCH   1  10
ATOM     10  C   UNL     1      81.885  -5.899  27.126  1.00  0.00     0.111 C 
BRANCH  10  11
ATOM     11  C   UNL     1      80.634  -5.618  27.921  1.00  0.00     0.163 C 
ATOM     12  O   UNL     1      80.147  -4.455  27.871  1.00  0.00    -0.294 OA
BRANCH  11  13
ATOM     13  C   UNL     1      80.000  -6.655  28.794  1.00  0.00    -0.002 C 
ATOM     14  C   UNL     1      78.795  -7.220  28.480  1.00  0.00    -0.069 C 
ATOM     15  C   UNL     1      78.071  -6.881  27.196  1.00  0.00     0.039 C 
ATOM     16  C   UNL     1      78.143  -8.240  29.387  1.00  0.00     0.039 C 
BRANCH  13  17
ATOM     17  C   UNL     1      80.790  -7.111  30.008  1.00  0.00     0.066 CG0
ATOM     18  G   UNL     1      81.286  -5.911  30.777  1.00  0.00     0.000 G0
ENDBRANCH  13  17
ENDBRANCH  11  13
ENDBRANCH  10  11
ENDBRANCH   1  10
TORSDOF 0
ENDMDL
MODEL 5
REMARK VINA RESULT:    -2.822      1.731      4.306
REMARK INTER + INTRA:          -3.437
REMARK INTER:                  -3.985
REMARK INTRA:                   0.548
REMARK UNBOUND:                 0.540
REMARK SMILES CC1=CCC(=C(C)C)C(=O)CC(C)=CCC1
REMARK SMILES IDX 12 1 14 2 13 3 15 4 16 5 2 6 1 7 3 8 11 10 9 11 10 12 5 13
REMARK SMILES IDX 6 14 7 15 8 16 4 17
REMARK H PARENT
REMARK Flexibility Score: 60.00
ROOT
ATOM      1  C   UNL     1      82.931  -5.002  31.292  1.00  0.00    -0.070 C 
ATOM      2  C   UNL     1      81.902  -4.881  30.420  1.00  0.00    -0.027 C 
ATOM      3  C   UNL     1      83.393  -3.750  31.999  1.00  0.00     0.039 C 
ENDROOT
BRANCH   2   4
ATOM      4  C   UNL     1      81.214  -6.008  29.688  1.00  0.00     0.032 C 
BRANCH   4   5
ATOM      5  C   UNL     1      81.329  -5.875  28.157  1.00  0.00     0.034 C 
BRANCH   5   6
ATOM      6  C   UNL     1      82.749  -5.590  27.712  1.00  0.00    -0.077 C 
ATOM      7  C   UNL     1      83.024  -4.303  26.974  1.00  0.00     0.039 C 
ATOM      8  C   UNL     1      83.785  -6.435  27.915  1.00  0.00    -0.023 CG0
ATOM      9  G   UNL     1      83.704  -7.779  28.598  1.00  0.00     0.000 G0
ENDBRANCH   5   6
ENDBRANCH   4   5
ENDBRANCH   2   4
BRANCH   1  10
ATOM     10  C   UNL     1      83.593  -6.324  31.639  1.00  0.00     0.111 C 
BRANCH  10  11
ATOM     11  C   UNL     1      84.728  -6.642  30.695  1.00  0.00     0.163 C 
ATOM     12  O   UNL     1      85.707  -5.847  30.655  1.00  0.00    -0.294 OA
BRANCH  11  13
ATOM     13  C   UNL     1      84.692  -7.828  29.784  1.00  0.00    -0.002 C 
ATOM     14  C   UNL     1      85.461  -8.935  30.015  1.00  0.00    -0.069 C 
ATOM     15  C   UNL     1      86.336  -9.051  31.244  1.00  0.00     0.039 C 
ATOM     16  C   UNL     1      85.446 -10.116  29.069  1.00  0.00     0.039 C 
BRANCH  13  17
ATOM     17  C   UNL     1      83.705  -7.783  28.631  1.00  0.00     0.066 CG0
ATOM     18  G   UNL     1      83.797  -6.448  27.930  1.00  0.00     0.000 G0
ENDBRANCH  13  17
ENDBRANCH  11  13
ENDBRANCH  10  11
ENDBRANCH   1  10
TORSDOF 0
ENDMDL
MODEL 6
REMARK VINA RESULT:    -2.799      1.771      3.976
REMARK INTER + INTRA:          -3.405
REMARK INTER:                  -4.161
REMARK INTRA:                   0.757
REMARK UNBOUND:                 0.540
REMARK SMILES CC1=CCC(=C(C)C)C(=O)CC(C)=CCC1
REMARK SMILES IDX 12 1 14 2 13 3 15 4 16 5 2 6 1 7 3 8 11 10 9 11 10 12 5 13
REMARK SMILES IDX 6 14 7 15 8 16 4 17
REMARK H PARENT
REMARK Flexibility Score: 60.00
ROOT
ATOM      1  C   UNL     1      82.687  -5.899  27.430  1.00  0.00    -0.070 C 
ATOM      2  C   UNL     1      82.647  -7.001  26.643  1.00  0.00    -0.027 C 
ATOM      3  C   UNL     1      81.403  -5.126  27.610  1.00  0.00     0.039 C 
ENDROOT
BRANCH   2   4
ATOM      4  C   UNL     1      83.776  -7.974  26.411  1.00  0.00     0.032 C 
BRANCH   4   5
ATOM      5  C   UNL     1      83.459  -9.386  26.941  1.00  0.00     0.034 C 
BRANCH   5   6
ATOM      6  C   UNL     1      82.921  -9.358  28.357  1.00  0.00    -0.077 C 
ATOM      7  C   UNL     1      81.498  -9.801  28.592  1.00  0.00     0.039 C 
ATOM      8  C   UNL     1      83.634  -8.932  29.424  1.00  0.00    -0.023 CG0
ATOM      9  G   UNL     1      85.054  -8.419  29.386  1.00  0.00     0.000 G0
ENDBRANCH   5   6
ENDBRANCH   4   5
ENDBRANCH   2   4
BRANCH   1  10
ATOM     10  C   UNL     1      83.926  -5.443  28.182  1.00  0.00     0.111 C 
BRANCH  10  11
ATOM     11  C   UNL     1      84.016  -6.087  29.545  1.00  0.00     0.163 C 
ATOM     12  O   UNL     1      83.136  -5.793  30.399  1.00  0.00    -0.294 OA
BRANCH  11  13
ATOM     13  C   UNL     1      85.135  -7.009  29.913  1.00  0.00    -0.002 C 
ATOM     14  C   UNL     1      86.150  -6.613  30.739  1.00  0.00    -0.069 C 
ATOM     15  C   UNL     1      86.160  -5.245  31.385  1.00  0.00     0.039 C 
ATOM     16  C   UNL     1      87.298  -7.539  31.077  1.00  0.00     0.039 C 
BRANCH  13  17
ATOM     17  C   UNL     1      85.057  -8.432  29.390  1.00  0.00     0.066 CG0
ATOM     18  G   UNL     1      83.628  -8.917  29.435  1.00  0.00     0.000 G0
ENDBRANCH  13  17
ENDBRANCH  11  13
ENDBRANCH  10  11
ENDBRANCH   1  10
TORSDOF 0
ENDMDL
MODEL 7
REMARK VINA RESULT:    -2.792      2.006      3.800
REMARK INTER + INTRA:          -3.394
REMARK INTER:                  -4.002
REMARK INTRA:                   0.608
REMARK UNBOUND:                 0.540
REMARK SMILES CC1=CCC(=C(C)C)C(=O)CC(C)=CCC1
REMARK SMILES IDX 12 1 14 2 13 3 15 4 16 5 2 6 1 7 3 8 11 10 9 11 10 12 5 13
REMARK SMILES IDX 6 14 7 15 8 16 4 17
REMARK H PARENT
REMARK Flexibility Score: 60.00
ROOT
ATOM      1  C   UNL     1      83.681  -5.682  28.215  1.00  0.00    -0.070 C 
ATOM      2  C   UNL     1      84.902  -5.819  28.784  1.00  0.00    -0.027 C 
ATOM      3  C   UNL     1      83.265  -4.296  27.785  1.00  0.00     0.039 C 
ENDROOT
BRANCH   2   4
ATOM      4  C   UNL     1      85.559  -7.116  29.189  1.00  0.00     0.032 C 
BRANCH   4   5
ATOM      5  C   UNL     1      85.526  -7.346  30.712  1.00  0.00     0.034 C 
BRANCH   5   6
ATOM      6  C   UNL     1      84.985  -6.143  31.460  1.00  0.00    -0.077 C 
ATOM      7  C   UNL     1      85.932  -5.014  31.782  1.00  0.00     0.039 C 
ATOM      8  C   UNL     1      83.705  -6.033  31.881  1.00  0.00    -0.023 CG0
ATOM      9  G   UNL     1      82.622  -7.067  31.688  1.00  0.00     0.000 G0
ENDBRANCH   5   6
ENDBRANCH   4   5
ENDBRANCH   2   4
BRANCH   1  10
ATOM     10  C   UNL     1      82.746  -6.847  27.932  1.00  0.00     0.111 C 
BRANCH  10  11
ATOM     11  C   UNL     1      82.355  -7.565  29.200  1.00  0.00     0.163 C 
ATOM     12  O   UNL     1      82.408  -8.825  29.209  1.00  0.00    -0.294 OA
BRANCH  11  13
ATOM     13  C   UNL     1      81.864  -6.831  30.408  1.00  0.00    -0.002 C 
ATOM     14  C   UNL     1      80.749  -6.041  30.364  1.00  0.00    -0.069 C 
ATOM     15  C   UNL     1      79.909  -5.923  29.112  1.00  0.00     0.039 C 
ATOM     16  C   UNL     1      80.281  -5.271  31.580  1.00  0.00     0.039 C 
BRANCH  13  17
ATOM     17  C   UNL     1      82.614  -7.060  31.707  1.00  0.00     0.066 CG0
ATOM     18  G   UNL     1      83.693  -6.016  31.868  1.00  0.00     0.000 G0
ENDBRANCH  13  17
ENDBRANCH  11  13
ENDBRANCH  10  11
ENDBRANCH   1  10
TORSDOF 0
ENDMDL
MODEL 8
REMARK VINA RESULT:    -2.737      2.063      4.270
REMARK INTER + INTRA:          -3.317
REMARK INTER:                  -3.909
REMARK INTRA:                   0.592
REMARK UNBOUND:                 0.540
REMARK SMILES CC1=CCC(=C(C)C)C(=O)CC(C)=CCC1
REMARK SMILES IDX 12 1 14 2 13 3 15 4 16 5 2 6 1 7 3 8 11 10 9 11 10 12 5 13
REMARK SMILES IDX 6 14 7 15 8 16 4 17
REMARK H PARENT
REMARK Flexibility Score: 60.00
ROOT
ATOM      1  C   UNL     1      80.133  -6.228  28.530  1.00  0.00    -0.070 C 
ATOM      2  C   UNL     1      80.000  -7.494  28.067  1.00  0.00    -0.027 C 
ATOM      3  C   UNL     1      79.095  -5.219  28.102  1.00  0.00     0.039 C 
ENDROOT
BRANCH   2   4
ATOM      4  C   UNL     1      80.855  -8.678  28.448  1.00  0.00     0.032 C 
BRANCH   4   5
ATOM      5  C   UNL     1      81.529  -9.338  27.229  1.00  0.00     0.034 C 
BRANCH   5   6
ATOM      6  C   UNL     1      82.367  -8.355  26.438  1.00  0.00    -0.077 C 
ATOM      7  C   UNL     1      82.088  -8.198  24.963  1.00  0.00     0.039 C 
ATOM      8  C   UNL     1      83.373  -7.625  26.971  1.00  0.00    -0.023 CG0
ATOM      9  G   UNL     1      83.825  -7.669  28.411  1.00  0.00     0.000 G0
ENDBRANCH   5   6
ENDBRANCH   4   5
ENDBRANCH   2   4
BRANCH   1  10
ATOM     10  C   UNL     1      81.222  -5.792  29.496  1.00  0.00     0.111 C 
BRANCH  10  11
ATOM     11  C   UNL     1      82.514  -5.490  28.777  1.00  0.00     0.163 C 
ATOM     12  O   UNL     1      82.512  -4.575  27.910  1.00  0.00    -0.294 OA
BRANCH  11  13
ATOM     13  C   UNL     1      83.762  -6.276  29.029  1.00  0.00    -0.002 C 
ATOM     14  C   UNL     1      84.755  -5.807  29.843  1.00  0.00    -0.069 C 
ATOM     15  C   UNL     1      84.616  -4.500  30.592  1.00  0.00     0.039 C 
ATOM     16  C   UNL     1      86.031  -6.591  30.063  1.00  0.00     0.039 C 
BRANCH  13  17
ATOM     17  C   UNL     1      83.847  -7.656  28.401  1.00  0.00     0.066 CG0
ATOM     18  G   UNL     1      83.369  -7.599  26.970  1.00  0.00     0.000 G0
ENDBRANCH  13  17
ENDBRANCH  11  13
ENDBRANCH  10  11
ENDBRANCH   1  10
TORSDOF 0
ENDMDL
MODEL 9
REMARK VINA RESULT:    -2.693      1.555      4.029
REMARK INTER + INTRA:          -3.254
REMARK INTER:                  -3.839
REMARK INTRA:                   0.585
REMARK UNBOUND:                 0.540
REMARK SMILES CC1=CCC(=C(C)C)C(=O)CC(C)=CCC1
REMARK SMILES IDX 12 1 14 2 13 3 15 4 16 5 2 6 1 7 3 8 11 10 9 11 10 12 5 13
REMARK SMILES IDX 6 14 7 15 8 16 4 17
REMARK H PARENT
REMARK Flexibility Score: 60.00
ROOT
ATOM      1  C   UNL     1      82.866  -4.809  27.943  1.00  0.00    -0.070 C 
ATOM      2  C   UNL     1      81.670  -5.409  27.732  1.00  0.00    -0.027 C 
ATOM      3  C   UNL     1      83.336  -3.813  26.911  1.00  0.00     0.039 C 
ENDROOT
BRANCH   2   4
ATOM      4  C   UNL     1      80.962  -6.350  28.677  1.00  0.00     0.032 C 
BRANCH   4   5
ATOM      5  C   UNL     1      80.681  -7.725  28.042  1.00  0.00     0.034 C 
BRANCH   5   6
ATOM      6  C   UNL     1      81.929  -8.346  27.446  1.00  0.00    -0.077 C 
ATOM      7  C   UNL     1      81.906  -8.747  25.992  1.00  0.00     0.039 C 
ATOM      8  C   UNL     1      83.057  -8.588  28.150  1.00  0.00    -0.023 CG0
ATOM      9  G   UNL     1      83.261  -8.292  29.617  1.00  0.00     0.000 G0
ENDBRANCH   5   6
ENDBRANCH   4   5
ENDBRANCH   2   4
BRANCH   1  10
ATOM     10  C   UNL     1      83.717  -5.036  29.181  1.00  0.00     0.111 C 
BRANCH  10  11
ATOM     11  C   UNL     1      84.656  -6.204  29.003  1.00  0.00     0.163 C 
ATOM     12  O   UNL     1      85.539  -6.124  28.107  1.00  0.00    -0.294 OA
BRANCH  11  13
ATOM     13  C   UNL     1      84.529  -7.453  29.817  1.00  0.00    -0.002 C 
ATOM     14  C   UNL     1      85.470  -7.804  30.745  1.00  0.00    -0.069 C 
ATOM     15  C   UNL     1      86.653  -6.914  31.052  1.00  0.00     0.039 C 
ATOM     16  C   UNL     1      85.354  -9.089  31.538  1.00  0.00     0.039 C 
BRANCH  13  17
ATOM     17  C   UNL     1      83.269  -8.278  29.624  1.00  0.00     0.066 CG0
ATOM     18  G   UNL     1      83.065  -8.565  28.155  1.00  0.00     0.000 G0
ENDBRANCH  13  17
ENDBRANCH  11  13
ENDBRANCH  10  11
ENDBRANCH   1  10
TORSDOF 0
ENDMDL
