MODEL 1
REMARK VINA RESULT:    37.600      0.000      0.000
REMARK INTER + INTRA:          51.216
REMARK INTER:                  50.789
REMARK INTRA:                   0.427
REMARK UNBOUND:                 0.427
REMARK SMILES O=c1c(-c2ccc(O)cc2)coc2c([C@H]3O[C@@H](CO)[C@H](O)[C@H](O)[C@@H]3O)c(O)ccc12
REMARK SMILES IDX 3 1 11 2 12 3 13 4 30 5 2 6 1 7 29 8 28 9 26 10 14 11 4 12
REMARK SMILES IDX 5 13 6 14 7 15 10 16 9 17 8 18 15 20 24 21 16 22 22 23 17 24
REMARK SMILES IDX 20 25 25 26 23 28 18 30 19 31 21 33 27 35
REMARK H PARENT 8 19 25 27 23 29 19 32 21 34 27 36
REMARK Flexibility Score: inf
ROOT
ATOM      1  C   UNL     1       9.719   8.329  14.884  1.00  0.00     0.065 A 
ATOM      2  C   UNL     1       9.708   8.546  16.269  1.00  0.00     0.208 A 
ATOM      3  O   UNL     1      10.841   8.665  16.949  1.00  0.00    -0.463 OA
ATOM      4  C   UNL     1      12.043   8.591  16.381  1.00  0.00     0.147 A 
ATOM      5  C   UNL     1      12.146   8.382  14.986  1.00  0.00     0.066 A 
ATOM      6  C   UNL     1      10.963   8.255  14.234  1.00  0.00     0.200 A 
ATOM      7  O   UNL     1      11.020   8.097  12.983  1.00  0.00    -0.288 OA
ATOM      8  C   UNL     1      13.413   8.320  14.386  1.00  0.00     0.020 A 
ATOM      9  C   UNL     1      14.563   8.470  15.159  1.00  0.00     0.047 A 
ATOM     10  C   UNL     1      14.473   8.680  16.540  1.00  0.00     0.125 A 
ATOM     11  C   UNL     1      13.209   8.724  17.172  1.00  0.00     0.069 A 
ENDROOT
BRANCH   1  12
ATOM     12  C   UNL     1       8.437   8.190  14.145  1.00  0.00    -0.011 A 
ATOM     13  C   UNL     1       8.178   8.973  13.007  1.00  0.00     0.013 A 
ATOM     14  C   UNL     1       6.974   8.832  12.311  1.00  0.00     0.047 A 
ATOM     15  C   UNL     1       6.016   7.904  12.741  1.00  0.00     0.115 A 
ATOM     16  C   UNL     1       7.475   7.256  14.566  1.00  0.00     0.013 A 
ATOM     17  C   UNL     1       6.271   7.117  13.869  1.00  0.00     0.047 A 
BRANCH  15  18
ATOM     18  O   UNL     1       4.813   7.755  12.056  1.00  0.00    -0.508 OA
ATOM     19  H   UNL     1       4.357   6.853  11.978  1.00  0.00     0.293 HD
ENDBRANCH  15  18
ENDBRANCH   1  12
BRANCH  11  20
ATOM     20  C   UNL     1      13.099   8.974  18.670  1.00  0.00     0.188 C 
ATOM     21  C   UNL     1      13.421   7.674  19.452  1.00  0.00     0.179 C 
ATOM     22  O   UNL     1      11.789   9.427  18.972  1.00  0.00    -0.362 OA
ATOM     23  C   UNL     1      13.215   7.865  20.972  1.00  0.00     0.177 C 
ATOM     24  C   UNL     1      11.679   9.798  20.336  1.00  0.00     0.176 C 
ATOM     25  C   UNL     1      11.868   8.567  21.258  1.00  0.00     0.177 C 
BRANCH  21  26
ATOM     26  O   UNL     1      14.716   7.202  19.173  1.00  0.00    -0.387 OA
ATOM     27  H   UNL     1      14.859   6.373  19.698  1.00  0.00     0.211 HD
ENDBRANCH  21  26
BRANCH  23  28
ATOM     28  O   UNL     1      14.294   8.542  21.573  1.00  0.00    -0.387 OA
ATOM     29  H   UNL     1      15.108   7.988  21.471  1.00  0.00     0.211 HD
ENDBRANCH  23  28
BRANCH  24  30
ATOM     30  C   UNL     1      10.306  10.449  20.550  1.00  0.00     0.191 C 
BRANCH  30  31
ATOM     31  O   UNL     1       9.284   9.586  20.129  1.00  0.00    -0.394 OA
ATOM     32  H   UNL     1       9.693   8.982  19.457  1.00  0.00     0.210 HD
ENDBRANCH  30  31
ENDBRANCH  24  30
BRANCH  25  33
ATOM     33  O   UNL     1      11.806   8.962  22.605  1.00  0.00    -0.388 OA
ATOM     34  H   UNL     1      12.702   8.788  22.995  1.00  0.00     0.211 HD
ENDBRANCH  25  33
ENDBRANCH  11  20
BRANCH  10  35
ATOM     35  O   UNL     1      15.642   8.846  17.284  1.00  0.00    -0.507 OA
ATOM     36  H   UNL     1      16.454   9.319  16.904  1.00  0.00     0.293 HD
ENDBRANCH  10  35
TORSDOF 9
ENDMDL
MODEL 2
REMARK VINA RESULT:    38.825      1.467      1.972
REMARK INTER + INTRA:          52.871
REMARK INTER:                  49.932
REMARK INTRA:                   2.939
REMARK UNBOUND:                 0.427
REMARK SMILES O=c1c(-c2ccc(O)cc2)coc2c([C@H]3O[C@@H](CO)[C@H](O)[C@H](O)[C@@H]3O)c(O)ccc12
REMARK SMILES IDX 3 1 11 2 12 3 13 4 30 5 2 6 1 7 29 8 28 9 26 10 14 11 4 12
REMARK SMILES IDX 5 13 6 14 7 15 10 16 9 17 8 18 15 20 24 21 16 22 22 23 17 24
REMARK SMILES IDX 20 25 25 26 23 28 18 30 19 31 21 33 27 35
REMARK H PARENT 8 19 25 27 23 29 19 32 21 34 27 36
REMARK Flexibility Score: inf
ROOT
ATOM      1  C   UNL     1       8.427   8.216  13.797  1.00  0.00     0.065 A 
ATOM      2  C   UNL     1       8.572   8.783  15.071  1.00  0.00     0.208 A 
ATOM      3  O   UNL     1       9.767   8.894  15.637  1.00  0.00    -0.463 OA
ATOM      4  C   UNL     1      10.891   8.487  15.051  1.00  0.00     0.147 A 
ATOM      5  C   UNL     1      10.838   7.912  13.760  1.00  0.00     0.066 A 
ATOM      6  C   UNL     1       9.586   7.782  13.130  1.00  0.00     0.200 A 
ATOM      7  O   UNL     1       9.507   7.299  11.967  1.00  0.00    -0.288 OA
ATOM      8  C   UNL     1      12.025   7.498  13.136  1.00  0.00     0.020 A 
ATOM      9  C   UNL     1      13.249   7.659  13.781  1.00  0.00     0.047 A 
ATOM     10  C   UNL     1      13.314   8.230  15.057  1.00  0.00     0.125 A 
ATOM     11  C   UNL     1      12.130   8.635  15.717  1.00  0.00     0.069 A 
ENDROOT
BRANCH   1  12
ATOM     12  C   UNL     1       7.077   8.095  13.189  1.00  0.00    -0.011 A 
ATOM     13  C   UNL     1       6.676   8.962  12.158  1.00  0.00     0.013 A 
ATOM     14  C   UNL     1       5.408   8.838  11.583  1.00  0.00     0.047 A 
ATOM     15  C   UNL     1       4.528   7.843  12.028  1.00  0.00     0.115 A 
ATOM     16  C   UNL     1       6.191   7.094  13.624  1.00  0.00     0.013 A 
ATOM     17  C   UNL     1       4.923   6.972  13.048  1.00  0.00     0.047 A 
BRANCH  15  18
ATOM     18  O   UNL     1       3.261   7.710  11.463  1.00  0.00    -0.508 OA
ATOM     19  H   UNL     1       3.137   7.597  10.463  1.00  0.00     0.293 HD
ENDBRANCH  15  18
ENDBRANCH   1  12
BRANCH  11  20
ATOM     20  C   UNL     1      12.192   9.278  17.096  1.00  0.00     0.188 C 
ATOM     21  C   UNL     1      13.638   9.206  17.653  1.00  0.00     0.179 C 
ATOM     22  O   UNL     1      11.290   8.609  17.963  1.00  0.00    -0.362 OA
ATOM     23  C   UNL     1      13.714   9.754  19.095  1.00  0.00     0.177 C 
ATOM     24  C   UNL     1      11.216   9.258  19.222  1.00  0.00     0.176 C 
ATOM     25  C   UNL     1      12.574   9.173  19.963  1.00  0.00     0.177 C 
BRANCH  21  26
ATOM     26  O   UNL     1      14.555   9.863  16.813  1.00  0.00    -0.387 OA
ATOM     27  H   UNL     1      15.328  10.145  17.367  1.00  0.00     0.211 HD
ENDBRANCH  21  26
BRANCH  23  28
ATOM     28  O   UNL     1      13.728  11.162  19.129  1.00  0.00    -0.387 OA
ATOM     29  H   UNL     1      14.429  11.454  19.764  1.00  0.00     0.211 HD
ENDBRANCH  23  28
BRANCH  24  30
ATOM     30  C   UNL     1      10.095   8.601  20.038  1.00  0.00     0.191 C 
BRANCH  30  31
ATOM     31  O   UNL     1       9.024   9.491  20.205  1.00  0.00    -0.394 OA
ATOM     32  H   UNL     1       8.223   8.930  20.369  1.00  0.00     0.210 HD
ENDBRANCH  30  31
ENDBRANCH  24  30
BRANCH  25  33
ATOM     33  O   UNL     1      12.498   9.863  21.185  1.00  0.00    -0.388 OA
ATOM     34  H   UNL     1      11.590   9.695  21.551  1.00  0.00     0.211 HD
ENDBRANCH  25  33
ENDBRANCH  11  20
BRANCH  10  35
ATOM     35  O   UNL     1      14.557   8.397  15.669  1.00  0.00    -0.507 OA
ATOM     36  H   UNL     1      15.015   7.639  16.161  1.00  0.00     0.293 HD
ENDBRANCH  10  35
TORSDOF 9
ENDMDL
