MODEL 1
REMARK VINA RESULT:    -3.707      0.000      0.000
REMARK INTER + INTRA:          -5.468
REMARK INTER:                  -5.007
REMARK INTRA:                  -0.461
REMARK UNBOUND:                -0.461
REMARK SMILES CCCCCCC=CC(=O)[O-]
REMARK SMILES IDX 5 1 6 2 7 3 8 4 9 5 10 6 11 7 4 8 3 9 2 10 1 11
REMARK H PARENT
REMARK Flexibility Score: inf
ROOT
ATOM      1  C   UNL     1      56.470  27.451  51.355  1.00  0.00     0.004 C 
ENDROOT
BRANCH   1   2
ATOM      2  C   UNL     1      57.749  28.299  51.431  1.00  0.00     0.027 C 
BRANCH   2   3
ATOM      3  C   UNL     1      58.228  28.739  50.073  1.00  0.00    -0.025 C 
ATOM      4  C   UNL     1      59.184  28.145  49.341  1.00  0.00     0.020 C 
BRANCH   4   5
ATOM      5  C   UNL     1      59.926  26.915  49.691  1.00  0.00     0.064 C 
ATOM      6  O   UNL     1      59.340  25.805  49.598  1.00  0.00    -0.545 OA
ATOM      7  O   UNL     1      61.237  26.945  50.148  1.00  0.00    -0.545 OA
ENDBRANCH   4   5
ENDBRANCH   2   3
ENDBRANCH   1   2
BRANCH   1   8
ATOM      8  C   UNL     1      55.287  28.243  50.777  1.00  0.00     0.000 C 
BRANCH   8   9
ATOM      9  C   UNL     1      54.227  27.301  50.193  1.00  0.00    -0.000 C 
BRANCH   9  10
ATOM     10  C   UNL     1      54.790  25.887  50.010  1.00  0.00    -0.003 C 
ATOM     11  C   UNL     1      53.730  24.940  49.457  1.00  0.00     0.004 C 
ENDBRANCH   9  10
ENDBRANCH   8   9
ENDBRANCH   1   8
TORSDOF 6
ENDMDL
MODEL 2
REMARK VINA RESULT:    -3.562     12.163     14.050
REMARK INTER + INTRA:          -5.273
REMARK INTER:                  -4.851
REMARK INTRA:                  -0.422
REMARK UNBOUND:                -0.461
REMARK SMILES CCCCCCC=CC(=O)[O-]
REMARK SMILES IDX 5 1 6 2 7 3 8 4 9 5 10 6 11 7 4 8 3 9 2 10 1 11
REMARK H PARENT
REMARK Flexibility Score: inf
ROOT
ATOM      1  C   UNL     1      62.893  33.085  60.200  1.00  0.00     0.004 C 
ENDROOT
BRANCH   1   2
ATOM      2  C   UNL     1      61.866  31.969  59.956  1.00  0.00     0.027 C 
BRANCH   2   3
ATOM      3  C   UNL     1      61.192  31.522  61.226  1.00  0.00    -0.025 C 
ATOM      4  C   UNL     1      61.480  30.413  61.927  1.00  0.00     0.020 C 
BRANCH   4   5
ATOM      5  C   UNL     1      62.547  29.434  61.627  1.00  0.00     0.064 C 
ATOM      6  O   UNL     1      62.225  28.245  61.370  1.00  0.00    -0.545 OA
ATOM      7  O   UNL     1      63.893  29.774  61.649  1.00  0.00    -0.545 OA
ENDBRANCH   4   5
ENDBRANCH   2   3
ENDBRANCH   1   2
BRANCH   1   8
ATOM      8  C   UNL     1      62.220  34.445  60.440  1.00  0.00     0.000 C 
BRANCH   8   9
ATOM      9  C   UNL     1      63.112  35.358  61.290  1.00  0.00    -0.000 C 
BRANCH   9  10
ATOM     10  C   UNL     1      64.451  34.681  61.603  1.00  0.00    -0.003 C 
ATOM     11  C   UNL     1      65.613  35.657  61.437  1.00  0.00     0.004 C 
ENDBRANCH   9  10
ENDBRANCH   8   9
ENDBRANCH   1   8
TORSDOF 6
ENDMDL
MODEL 3
REMARK VINA RESULT:    -3.441      1.720      2.063
REMARK INTER + INTRA:          -5.110
REMARK INTER:                  -4.648
REMARK INTRA:                  -0.462
REMARK UNBOUND:                -0.461
REMARK SMILES CCCCCCC=CC(=O)[O-]
REMARK SMILES IDX 5 1 6 2 7 3 8 4 9 5 10 6 11 7 4 8 3 9 2 10 1 11
REMARK H PARENT
REMARK Flexibility Score: inf
ROOT
ATOM      1  C   UNL     1      56.879  25.623  50.420  1.00  0.00     0.004 C 
ENDROOT
BRANCH   1   2
ATOM      2  C   UNL     1      58.266  25.714  51.074  1.00  0.00     0.027 C 
BRANCH   2   3
ATOM      3  C   UNL     1      59.373  25.825  50.060  1.00  0.00    -0.025 C 
ATOM      4  C   UNL     1      59.873  26.966  49.557  1.00  0.00     0.020 C 
BRANCH   4   5
ATOM      5  C   UNL     1      59.479  28.341  49.931  1.00  0.00     0.064 C 
ATOM      6  O   UNL     1      58.652  28.954  49.207  1.00  0.00    -0.545 OA
ATOM      7  O   UNL     1      60.012  28.991  51.037  1.00  0.00    -0.545 OA
ENDBRANCH   4   5
ENDBRANCH   2   3
ENDBRANCH   1   2
BRANCH   1   8
ATOM      8  C   UNL     1      56.077  26.923  50.587  1.00  0.00     0.000 C 
BRANCH   8   9
ATOM      9  C   UNL     1      54.583  26.683  50.336  1.00  0.00    -0.000 C 
BRANCH   9  10
ATOM     10  C   UNL     1      54.347  25.311  49.694  1.00  0.00    -0.003 C 
ATOM     11  C   UNL     1      52.904  25.164  49.222  1.00  0.00     0.004 C 
ENDBRANCH   9  10
ENDBRANCH   8   9
ENDBRANCH   1   8
TORSDOF 6
ENDMDL
MODEL 4
REMARK VINA RESULT:    -3.424      1.345      2.298
REMARK INTER + INTRA:          -5.086
REMARK INTER:                  -4.605
REMARK INTRA:                  -0.481
REMARK UNBOUND:                -0.461
REMARK SMILES CCCCCCC=CC(=O)[O-]
REMARK SMILES IDX 5 1 6 2 7 3 8 4 9 5 10 6 11 7 4 8 3 9 2 10 1 11
REMARK H PARENT
REMARK Flexibility Score: inf
ROOT
ATOM      1  C   UNL     1      58.095  28.557  50.119  1.00  0.00     0.004 C 
ENDROOT
BRANCH   1   2
ATOM      2  C   UNL     1      59.336  27.849  49.554  1.00  0.00     0.027 C 
BRANCH   2   3
ATOM      3  C   UNL     1      59.273  26.355  49.727  1.00  0.00    -0.025 C 
ATOM      4  C   UNL     1      60.255  25.571  50.200  1.00  0.00     0.020 C 
BRANCH   4   5
ATOM      5  C   UNL     1      61.577  26.015  50.693  1.00  0.00     0.064 C 
ATOM      6  O   UNL     1      62.509  26.184  49.865  1.00  0.00    -0.545 OA
ATOM      7  O   UNL     1      61.832  26.223  52.042  1.00  0.00    -0.545 OA
ENDBRANCH   4   5
ENDBRANCH   2   3
ENDBRANCH   1   2
BRANCH   1   8
ATOM      8  C   UNL     1      57.081  27.562  50.705  1.00  0.00     0.000 C 
BRANCH   8   9
ATOM      9  C   UNL     1      55.667  28.155  50.707  1.00  0.00    -0.000 C 
BRANCH   9  10
ATOM     10  C   UNL     1      54.626  27.096  50.325  1.00  0.00    -0.003 C 
ATOM     11  C   UNL     1      55.280  25.735  50.109  1.00  0.00     0.004 C 
ENDBRANCH   9  10
ENDBRANCH   8   9
ENDBRANCH   1   8
TORSDOF 6
ENDMDL
MODEL 5
REMARK VINA RESULT:    -3.398      2.770      4.973
REMARK INTER + INTRA:          -5.051
REMARK INTER:                  -4.595
REMARK INTRA:                  -0.456
REMARK UNBOUND:                -0.461
REMARK SMILES CCCCCCC=CC(=O)[O-]
REMARK SMILES IDX 5 1 6 2 7 3 8 4 9 5 10 6 11 7 4 8 3 9 2 10 1 11
REMARK H PARENT
REMARK Flexibility Score: inf
ROOT
ATOM      1  C   UNL     1      57.193  28.569  51.618  1.00  0.00     0.004 C 
ENDROOT
BRANCH   1   2
ATOM      2  C   UNL     1      56.377  27.636  50.709  1.00  0.00     0.027 C 
BRANCH   2   3
ATOM      3  C   UNL     1      54.979  28.142  50.475  1.00  0.00    -0.025 C 
ATOM      4  C   UNL     1      53.887  27.386  50.278  1.00  0.00     0.020 C 
BRANCH   4   5
ATOM      5  C   UNL     1      53.821  25.909  50.301  1.00  0.00     0.064 C 
ATOM      6  O   UNL     1      53.381  25.337  51.332  1.00  0.00    -0.545 OA
ATOM      7  O   UNL     1      54.256  25.131  49.237  1.00  0.00    -0.545 OA
ENDBRANCH   4   5
ENDBRANCH   2   3
ENDBRANCH   1   2
BRANCH   1   8
ATOM      8  C   UNL     1      58.544  28.947  50.991  1.00  0.00     0.000 C 
BRANCH   8   9
ATOM      9  C   UNL     1      58.697  28.325  49.598  1.00  0.00    -0.000 C 
BRANCH   9  10
ATOM     10  C   UNL     1      59.927  27.412  49.536  1.00  0.00    -0.003 C 
ATOM     11  C   UNL     1      59.549  25.960  49.815  1.00  0.00     0.004 C 
ENDBRANCH   9  10
ENDBRANCH   8   9
ENDBRANCH   1   8
TORSDOF 6
ENDMDL
MODEL 6
REMARK VINA RESULT:    -3.353      1.256      1.591
REMARK INTER + INTRA:          -4.990
REMARK INTER:                  -4.607
REMARK INTRA:                  -0.383
REMARK UNBOUND:                -0.461
REMARK SMILES CCCCCCC=CC(=O)[O-]
REMARK SMILES IDX 5 1 6 2 7 3 8 4 9 5 10 6 11 7 4 8 3 9 2 10 1 11
REMARK H PARENT
REMARK Flexibility Score: inf
ROOT
ATOM      1  C   UNL     1      56.848  27.763  50.993  1.00  0.00     0.004 C 
ENDROOT
BRANCH   1   2
ATOM      2  C   UNL     1      57.993  28.524  50.307  1.00  0.00     0.027 C 
BRANCH   2   3
ATOM      3  C   UNL     1      58.889  27.614  49.509  1.00  0.00    -0.025 C 
ATOM      4  C   UNL     1      60.217  27.482  49.658  1.00  0.00     0.020 C 
BRANCH   4   5
ATOM      5  C   UNL     1      61.063  28.160  50.664  1.00  0.00     0.064 C 
ATOM      6  O   UNL     1      61.426  27.519  51.684  1.00  0.00    -0.545 OA
ATOM      7  O   UNL     1      61.445  29.489  50.537  1.00  0.00    -0.545 OA
ENDBRANCH   4   5
ENDBRANCH   2   3
ENDBRANCH   1   2
BRANCH   1   8
ATOM      8  C   UNL     1      55.489  28.446  50.773  1.00  0.00     0.000 C 
BRANCH   8   9
ATOM      9  C   UNL     1      54.435  27.436  50.305  1.00  0.00    -0.000 C 
BRANCH   9  10
ATOM     10  C   UNL     1      55.048  26.040  50.138  1.00  0.00    -0.003 C 
ATOM     11  C   UNL     1      54.038  25.063  49.543  1.00  0.00     0.004 C 
ENDBRANCH   9  10
ENDBRANCH   8   9
ENDBRANCH   1   8
TORSDOF 6
ENDMDL
MODEL 7
REMARK VINA RESULT:    -3.273      1.590      2.326
REMARK INTER + INTRA:          -4.882
REMARK INTER:                  -4.394
REMARK INTRA:                  -0.488
REMARK UNBOUND:                -0.461
REMARK SMILES CCCCCCC=CC(=O)[O-]
REMARK SMILES IDX 5 1 6 2 7 3 8 4 9 5 10 6 11 7 4 8 3 9 2 10 1 11
REMARK H PARENT
REMARK Flexibility Score: inf
ROOT
ATOM      1  C   UNL     1      58.492  28.988  51.171  1.00  0.00     0.004 C 
ENDROOT
BRANCH   1   2
ATOM      2  C   UNL     1      58.485  28.511  49.710  1.00  0.00     0.027 C 
BRANCH   2   3
ATOM      3  C   UNL     1      59.681  27.660  49.380  1.00  0.00    -0.025 C 
ATOM      4  C   UNL     1      59.936  26.432  49.861  1.00  0.00     0.020 C 
BRANCH   4   5
ATOM      5  C   UNL     1      59.073  25.645  50.769  1.00  0.00     0.064 C 
ATOM      6  O   UNL     1      58.085  25.032  50.289  1.00  0.00    -0.545 OA
ATOM      7  O   UNL     1      59.300  25.584  52.138  1.00  0.00    -0.545 OA
ENDBRANCH   4   5
ENDBRANCH   2   3
ENDBRANCH   1   2
BRANCH   1   8
ATOM      8  C   UNL     1      57.124  28.800  51.846  1.00  0.00     0.000 C 
BRANCH   8   9
ATOM      9  C   UNL     1      56.190  27.957  50.969  1.00  0.00    -0.000 C 
BRANCH   9  10
ATOM     10  C   UNL     1      54.848  28.668  50.754  1.00  0.00    -0.003 C 
ATOM     11  C   UNL     1      53.819  27.725  50.139  1.00  0.00     0.004 C 
ENDBRANCH   9  10
ENDBRANCH   8   9
ENDBRANCH   1   8
TORSDOF 6
ENDMDL
MODEL 8
REMARK VINA RESULT:    -3.098     11.045     12.861
REMARK INTER + INTRA:          -4.646
REMARK INTER:                  -4.320
REMARK INTRA:                  -0.326
REMARK UNBOUND:                -0.461
REMARK SMILES CCCCCCC=CC(=O)[O-]
REMARK SMILES IDX 5 1 6 2 7 3 8 4 9 5 10 6 11 7 4 8 3 9 2 10 1 11
REMARK H PARENT
REMARK Flexibility Score: inf
ROOT
ATOM      1  C   UNL     1      61.793  31.612  60.679  1.00  0.00     0.004 C 
ENDROOT
BRANCH   1   2
ATOM      2  C   UNL     1      61.355  30.567  61.717  1.00  0.00     0.027 C 
BRANCH   2   3
ATOM      3  C   UNL     1      62.319  29.414  61.813  1.00  0.00    -0.025 C 
ATOM      4  C   UNL     1      62.158  28.201  61.261  1.00  0.00     0.020 C 
BRANCH   4   5
ATOM      5  C   UNL     1      61.033  27.764  60.406  1.00  0.00     0.064 C 
ATOM      6  O   UNL     1      61.195  27.730  59.159  1.00  0.00    -0.545 OA
ATOM      7  O   UNL     1      59.795  27.417  60.931  1.00  0.00    -0.545 OA
ENDBRANCH   4   5
ENDBRANCH   2   3
ENDBRANCH   1   2
BRANCH   1   8
ATOM      8  C   UNL     1      60.747  32.723  60.503  1.00  0.00     0.000 C 
BRANCH   8   9
ATOM      9  C   UNL     1      61.398  34.014  59.992  1.00  0.00    -0.000 C 
BRANCH   9  10
ATOM     10  C   UNL     1      62.686  34.323  60.764  1.00  0.00    -0.003 C 
ATOM     11  C   UNL     1      62.704  35.769  61.249  1.00  0.00     0.004 C 
ENDBRANCH   9  10
ENDBRANCH   8   9
ENDBRANCH   1   8
TORSDOF 6
ENDMDL
MODEL 9
REMARK VINA RESULT:    -3.064     11.323     12.914
REMARK INTER + INTRA:          -4.600
REMARK INTER:                  -4.119
REMARK INTRA:                  -0.481
REMARK UNBOUND:                -0.461
REMARK SMILES CCCCCCC=CC(=O)[O-]
REMARK SMILES IDX 5 1 6 2 7 3 8 4 9 5 10 6 11 7 4 8 3 9 2 10 1 11
REMARK H PARENT
REMARK Flexibility Score: inf
ROOT
ATOM      1  C   UNL     1      60.991  30.591  59.970  1.00  0.00     0.004 C 
ENDROOT
BRANCH   1   2
ATOM      2  C   UNL     1      61.341  30.606  61.466  1.00  0.00     0.027 C 
BRANCH   2   3
ATOM      3  C   UNL     1      62.508  29.713  61.791  1.00  0.00    -0.025 C 
ATOM      4  C   UNL     1      63.777  29.894  61.391  1.00  0.00     0.020 C 
BRANCH   4   5
ATOM      5  C   UNL     1      64.299  31.028  60.597  1.00  0.00     0.064 C 
ATOM      6  O   UNL     1      64.537  32.118  61.179  1.00  0.00    -0.545 OA
ATOM      7  O   UNL     1      64.505  30.940  59.227  1.00  0.00    -0.545 OA
ENDBRANCH   4   5
ENDBRANCH   2   3
ENDBRANCH   1   2
BRANCH   1   8
ATOM      8  C   UNL     1      60.664  31.996  59.440  1.00  0.00     0.000 C 
BRANCH   8   9
ATOM      9  C   UNL     1      60.748  33.040  60.560  1.00  0.00    -0.000 C 
BRANCH   9  10
ATOM     10  C   UNL     1      61.843  34.072  60.269  1.00  0.00    -0.003 C 
ATOM     11  C   UNL     1      61.425  35.464  60.732  1.00  0.00     0.004 C 
ENDBRANCH   9  10
ENDBRANCH   8   9
ENDBRANCH   1   8
TORSDOF 6
ENDMDL
