MODEL 1
REMARK VINA RESULT:    -4.638      0.000      0.000
REMARK INTER + INTRA:          -8.005
REMARK INTER:                  -7.350
REMARK INTRA:                  -0.655
REMARK UNBOUND:                -0.655
REMARK SMILES CCCCCCCCCCCC(=O)[O-]
REMARK SMILES IDX 7 1 8 2 9 3 10 4 11 5 12 6 13 7 14 8 6 9 5 10 4 11 3 12 2 13
REMARK SMILES IDX 1 14
REMARK H PARENT
REMARK Flexibility Score: inf
ROOT
ATOM      1  C   UNL     1      13.357 -31.357  21.284  1.00  0.00     0.000 C 
ENDROOT
BRANCH   1   2
ATOM      2  C   UNL     1      13.834 -32.577  20.474  1.00  0.00     0.000 C 
BRANCH   2   3
ATOM      3  C   UNL     1      14.946 -33.407  21.139  1.00  0.00     0.000 C 
BRANCH   3   4
ATOM      4  C   UNL     1      15.149 -34.778  20.477  1.00  0.00     0.006 C 
BRANCH   4   5
ATOM      5  C   UNL     1      16.530 -35.349  20.812  1.00  0.00     0.053 C 
BRANCH   5   6
ATOM      6  C   UNL     1      17.266 -35.709  19.560  1.00  0.00     0.041 C 
ATOM      7  O   UNL     1      17.128 -36.853  19.050  1.00  0.00    -0.550 OA
ATOM      8  O   UNL     1      18.143 -34.800  18.983  1.00  0.00    -0.550 OA
ENDBRANCH   5   6
ENDBRANCH   4   5
ENDBRANCH   3   4
ENDBRANCH   2   3
ENDBRANCH   1   2
BRANCH   1   9
ATOM      9  C   UNL     1      14.491 -30.374  21.609  1.00  0.00     0.000 C 
BRANCH   9  10
ATOM     10  C   UNL     1      14.567 -30.106  23.120  1.00  0.00    -0.000 C 
BRANCH  10  11
ATOM     11  C   UNL     1      13.172 -30.022  23.767  1.00  0.00    -0.000 C 
BRANCH  11  12
ATOM     12  C   UNL     1      12.843 -28.620  24.328  1.00  0.00    -0.000 C 
BRANCH  12  13
ATOM     13  C   UNL     1      11.567 -28.005  23.730  1.00  0.00    -0.003 C 
ATOM     14  C   UNL     1      10.937 -28.877  22.646  1.00  0.00     0.004 C 
ENDBRANCH  12  13
ENDBRANCH  11  12
ENDBRANCH  10  11
ENDBRANCH   9  10
ENDBRANCH   1   9
TORSDOF 10
ENDMDL
MODEL 2
REMARK VINA RESULT:    -4.538      1.876      2.856
REMARK INTER + INTRA:          -7.846
REMARK INTER:                  -6.635
REMARK INTRA:                  -1.211
REMARK UNBOUND:                -0.655
REMARK SMILES CCCCCCCCCCCC(=O)[O-]
REMARK SMILES IDX 7 1 8 2 9 3 10 4 11 5 12 6 13 7 14 8 6 9 5 10 4 11 3 12 2 13
REMARK SMILES IDX 1 14
REMARK H PARENT
REMARK Flexibility Score: inf
ROOT
ATOM      1  C   UNL     1      14.596 -30.249  21.271  1.00  0.00     0.000 C 
ENDROOT
BRANCH   1   2
ATOM      2  C   UNL     1      15.762 -30.696  22.172  1.00  0.00     0.000 C 
BRANCH   2   3
ATOM      3  C   UNL     1      15.348 -31.254  23.546  1.00  0.00     0.000 C 
BRANCH   3   4
ATOM      4  C   UNL     1      15.977 -32.621  23.852  1.00  0.00     0.006 C 
BRANCH   4   5
ATOM      5  C   UNL     1      15.125 -33.758  23.279  1.00  0.00     0.053 C 
BRANCH   5   6
ATOM      6  C   UNL     1      15.805 -34.380  22.101  1.00  0.00     0.041 C 
ATOM      7  O   UNL     1      15.129 -34.781  21.117  1.00  0.00    -0.550 OA
ATOM      8  O   UNL     1      17.182 -34.563  22.110  1.00  0.00    -0.550 OA
ENDBRANCH   5   6
ENDBRANCH   4   5
ENDBRANCH   3   4
ENDBRANCH   2   3
ENDBRANCH   1   2
BRANCH   1   9
ATOM      9  C   UNL     1      13.657 -31.403  20.891  1.00  0.00     0.000 C 
BRANCH   9  10
ATOM     10  C   UNL     1      12.186 -30.987  21.049  1.00  0.00    -0.000 C 
BRANCH  10  11
ATOM     11  C   UNL     1      11.877 -30.469  22.466  1.00  0.00    -0.000 C 
BRANCH  11  12
ATOM     12  C   UNL     1      11.095 -29.137  22.471  1.00  0.00    -0.000 C 
BRANCH  12  13
ATOM     13  C   UNL     1      11.662 -28.099  23.454  1.00  0.00    -0.003 C 
ATOM     14  C   UNL     1      12.799 -28.649  24.312  1.00  0.00     0.004 C 
ENDBRANCH  12  13
ENDBRANCH  11  12
ENDBRANCH  10  11
ENDBRANCH   9  10
ENDBRANCH   1   9
TORSDOF 10
ENDMDL
MODEL 3
REMARK VINA RESULT:    -4.528      2.056      2.735
REMARK INTER + INTRA:          -7.831
REMARK INTER:                  -7.175
REMARK INTRA:                  -0.656
REMARK UNBOUND:                -0.655
REMARK SMILES CCCCCCCCCCCC(=O)[O-]
REMARK SMILES IDX 7 1 8 2 9 3 10 4 11 5 12 6 13 7 14 8 6 9 5 10 4 11 3 12 2 13
REMARK SMILES IDX 1 14
REMARK H PARENT
REMARK Flexibility Score: inf
ROOT
ATOM      1  C   UNL     1      14.273 -32.828  21.029  1.00  0.00     0.000 C 
ENDROOT
BRANCH   1   2
ATOM      2  C   UNL     1      14.578 -33.943  20.010  1.00  0.00     0.000 C 
BRANCH   2   3
ATOM      3  C   UNL     1      15.931 -34.651  20.206  1.00  0.00     0.000 C 
BRANCH   3   4
ATOM      4  C   UNL     1      17.010 -34.163  19.229  1.00  0.00     0.006 C 
BRANCH   4   5
ATOM      5  C   UNL     1      18.291 -33.778  19.975  1.00  0.00     0.053 C 
BRANCH   5   6
ATOM      6  C   UNL     1      18.031 -32.634  20.905  1.00  0.00     0.041 C 
ATOM      7  O   UNL     1      17.734 -31.499  20.447  1.00  0.00    -0.550 OA
ATOM      8  O   UNL     1      18.166 -32.809  22.276  1.00  0.00    -0.550 OA
ENDBRANCH   5   6
ENDBRANCH   4   5
ENDBRANCH   3   4
ENDBRANCH   2   3
ENDBRANCH   1   2
BRANCH   1   9
ATOM      9  C   UNL     1      13.277 -31.787  20.496  1.00  0.00     0.000 C 
BRANCH   9  10
ATOM     10  C   UNL     1      12.706 -30.939  21.644  1.00  0.00    -0.000 C 
BRANCH  10  11
ATOM     11  C   UNL     1      13.290 -31.342  23.011  1.00  0.00    -0.000 C 
BRANCH  11  12
ATOM     12  C   UNL     1      13.481 -30.145  23.969  1.00  0.00    -0.000 C 
BRANCH  12  13
ATOM     13  C   UNL     1      12.412 -29.051  23.804  1.00  0.00    -0.003 C 
ATOM     14  C   UNL     1      12.609 -27.877  24.760  1.00  0.00     0.004 C 
ENDBRANCH  12  13
ENDBRANCH  11  12
ENDBRANCH  10  11
ENDBRANCH   9  10
ENDBRANCH   1   9
TORSDOF 10
ENDMDL
MODEL 4
REMARK VINA RESULT:    -4.506      3.567      6.529
REMARK INTER + INTRA:          -7.795
REMARK INTER:                  -6.523
REMARK INTRA:                  -1.272
REMARK UNBOUND:                -0.655
REMARK SMILES CCCCCCCCCCCC(=O)[O-]
REMARK SMILES IDX 7 1 8 2 9 3 10 4 11 5 12 6 13 7 14 8 6 9 5 10 4 11 3 12 2 13
REMARK SMILES IDX 1 14
REMARK H PARENT
REMARK Flexibility Score: inf
ROOT
ATOM      1  C   UNL     1      14.887 -34.308  20.114  1.00  0.00     0.000 C 
ENDROOT
BRANCH   1   2
ATOM      2  C   UNL     1      14.651 -33.252  21.211  1.00  0.00     0.000 C 
BRANCH   2   3
ATOM      3  C   UNL     1      15.135 -33.653  22.616  1.00  0.00     0.000 C 
BRANCH   3   4
ATOM      4  C   UNL     1      14.669 -32.681  23.710  1.00  0.00     0.006 C 
BRANCH   4   5
ATOM      5  C   UNL     1      15.384 -31.332  23.586  1.00  0.00     0.053 C 
BRANCH   5   6
ATOM      6  C   UNL     1      14.392 -30.229  23.393  1.00  0.00     0.041 C 
ATOM      7  O   UNL     1      14.594 -29.339  22.525  1.00  0.00    -0.550 OA
ATOM      8  O   UNL     1      13.266 -30.157  24.203  1.00  0.00    -0.550 OA
ENDBRANCH   5   6
ENDBRANCH   4   5
ENDBRANCH   3   4
ENDBRANCH   2   3
ENDBRANCH   1   2
BRANCH   1   9
ATOM      9  C   UNL     1      16.052 -35.255  20.436  1.00  0.00     0.000 C 
BRANCH   9  10
ATOM     10  C   UNL     1      17.089 -35.252  19.303  1.00  0.00    -0.000 C 
BRANCH  10  11
ATOM     11  C   UNL     1      18.031 -34.036  19.378  1.00  0.00    -0.000 C 
BRANCH  11  12
ATOM     12  C   UNL     1      18.502 -33.718  20.815  1.00  0.00    -0.000 C 
BRANCH  12  13
ATOM     13  C   UNL     1      18.906 -32.247  21.015  1.00  0.00    -0.003 C 
ATOM     14  C   UNL     1      17.769 -31.272  20.724  1.00  0.00     0.004 C 
ENDBRANCH  12  13
ENDBRANCH  11  12
ENDBRANCH  10  11
ENDBRANCH   9  10
ENDBRANCH   1   9
TORSDOF 10
ENDMDL
MODEL 5
REMARK VINA RESULT:    -4.487      1.666      2.621
REMARK INTER + INTRA:          -7.766
REMARK INTER:                  -6.404
REMARK INTRA:                  -1.362
REMARK UNBOUND:                -0.655
REMARK SMILES CCCCCCCCCCCC(=O)[O-]
REMARK SMILES IDX 7 1 8 2 9 3 10 4 11 5 12 6 13 7 14 8 6 9 5 10 4 11 3 12 2 13
REMARK SMILES IDX 1 14
REMARK H PARENT
REMARK Flexibility Score: inf
ROOT
ATOM      1  C   UNL     1      15.995 -30.703  23.301  1.00  0.00     0.000 C 
ENDROOT
BRANCH   1   2
ATOM      2  C   UNL     1      16.413 -32.074  23.866  1.00  0.00     0.000 C 
BRANCH   2   3
ATOM      3  C   UNL     1      15.396 -33.208  23.644  1.00  0.00     0.000 C 
BRANCH   3   4
ATOM      4  C   UNL     1      15.961 -34.364  22.805  1.00  0.00     0.006 C 
BRANCH   4   5
ATOM      5  C   UNL     1      15.361 -34.362  21.396  1.00  0.00     0.053 C 
BRANCH   5   6
ATOM      6  C   UNL     1      16.445 -34.331  20.365  1.00  0.00     0.041 C 
ATOM      7  O   UNL     1      17.402 -33.519  20.476  1.00  0.00    -0.550 OA
ATOM      8  O   UNL     1      16.374 -35.165  19.257  1.00  0.00    -0.550 OA
ENDBRANCH   5   6
ENDBRANCH   4   5
ENDBRANCH   3   4
ENDBRANCH   2   3
ENDBRANCH   1   2
BRANCH   1   9
ATOM      9  C   UNL     1      15.949 -30.677  21.766  1.00  0.00     0.000 C 
BRANCH   9  10
ATOM     10  C   UNL     1      14.616 -30.098  21.268  1.00  0.00    -0.000 C 
BRANCH  10  11
ATOM     11  C   UNL     1      13.473 -31.128  21.331  1.00  0.00    -0.000 C 
BRANCH  11  12
ATOM     12  C   UNL     1      12.358 -30.742  22.327  1.00  0.00    -0.000 C 
BRANCH  12  13
ATOM     13  C   UNL     1      12.444 -29.283  22.808  1.00  0.00    -0.003 C 
ATOM     14  C   UNL     1      12.770 -29.165  24.295  1.00  0.00     0.004 C 
ENDBRANCH  12  13
ENDBRANCH  11  12
ENDBRANCH  10  11
ENDBRANCH   9  10
ENDBRANCH   1   9
TORSDOF 10
ENDMDL
MODEL 6
REMARK VINA RESULT:    -4.466      1.589      2.552
REMARK INTER + INTRA:          -7.732
REMARK INTER:                  -6.303
REMARK INTRA:                  -1.428
REMARK UNBOUND:                -0.655
REMARK SMILES CCCCCCCCCCCC(=O)[O-]
REMARK SMILES IDX 7 1 8 2 9 3 10 4 11 5 12 6 13 7 14 8 6 9 5 10 4 11 3 12 2 13
REMARK SMILES IDX 1 14
REMARK H PARENT
REMARK Flexibility Score: inf
ROOT
ATOM      1  C   UNL     1      16.893 -30.522  21.691  1.00  0.00     0.000 C 
ENDROOT
BRANCH   1   2
ATOM      2  C   UNL     1      16.844 -31.995  21.244  1.00  0.00     0.000 C 
BRANCH   2   3
ATOM      3  C   UNL     1      16.337 -32.983  22.310  1.00  0.00     0.000 C 
BRANCH   3   4
ATOM      4  C   UNL     1      16.017 -34.371  21.737  1.00  0.00     0.006 C 
BRANCH   4   5
ATOM      5  C   UNL     1      15.859 -34.312  20.215  1.00  0.00     0.053 C 
BRANCH   5   6
ATOM      6  C   UNL     1      16.809 -35.260  19.552  1.00  0.00     0.041 C 
ATOM      7  O   UNL     1      17.873 -34.831  19.033  1.00  0.00    -0.550 OA
ATOM      8  O   UNL     1      16.496 -36.610  19.466  1.00  0.00    -0.550 OA
ENDBRANCH   5   6
ENDBRANCH   4   5
ENDBRANCH   3   4
ENDBRANCH   2   3
ENDBRANCH   1   2
BRANCH   1   9
ATOM      9  C   UNL     1      16.340 -30.308  23.108  1.00  0.00     0.000 C 
BRANCH   9  10
ATOM     10  C   UNL     1      14.981 -29.592  23.063  1.00  0.00    -0.000 C 
BRANCH  10  11
ATOM     11  C   UNL     1      13.900 -30.345  23.860  1.00  0.00    -0.000 C 
BRANCH  11  12
ATOM     12  C   UNL     1      13.109 -31.361  23.006  1.00  0.00    -0.000 C 
BRANCH  12  13
ATOM     13  C   UNL     1      12.777 -30.847  21.595  1.00  0.00    -0.003 C 
ATOM     14  C   UNL     1      13.232 -31.801  20.493  1.00  0.00     0.004 C 
ENDBRANCH  12  13
ENDBRANCH  11  12
ENDBRANCH  10  11
ENDBRANCH   9  10
ENDBRANCH   1   9
TORSDOF 10
ENDMDL
MODEL 7
REMARK VINA RESULT:    -4.448      3.419      6.582
REMARK INTER + INTRA:          -7.703
REMARK INTER:                  -6.030
REMARK INTRA:                  -1.674
REMARK UNBOUND:                -0.655
REMARK SMILES CCCCCCCCCCCC(=O)[O-]
REMARK SMILES IDX 7 1 8 2 9 3 10 4 11 5 12 6 13 7 14 8 6 9 5 10 4 11 3 12 2 13
REMARK SMILES IDX 1 14
REMARK H PARENT
REMARK Flexibility Score: inf
ROOT
ATOM      1  C   UNL     1      18.950 -33.738  22.224  1.00  0.00     0.000 C 
ENDROOT
BRANCH   1   2
ATOM      2  C   UNL     1      17.745 -33.610  23.175  1.00  0.00     0.000 C 
BRANCH   2   3
ATOM      3  C   UNL     1      16.670 -34.700  23.014  1.00  0.00     0.000 C 
BRANCH   3   4
ATOM      4  C   UNL     1      15.271 -34.127  22.748  1.00  0.00     0.006 C 
BRANCH   4   5
ATOM      5  C   UNL     1      15.344 -32.633  22.420  1.00  0.00     0.053 C 
BRANCH   5   6
ATOM      6  C   UNL     1      14.334 -32.276  21.375  1.00  0.00     0.041 C 
ATOM      7  O   UNL     1      14.040 -33.101  20.469  1.00  0.00    -0.550 OA
ATOM      8  O   UNL     1      13.753 -31.014  21.371  1.00  0.00    -0.550 OA
ENDBRANCH   5   6
ENDBRANCH   4   5
ENDBRANCH   3   4
ENDBRANCH   2   3
ENDBRANCH   1   2
BRANCH   1   9
ATOM      9  C   UNL     1      19.018 -32.606  21.188  1.00  0.00     0.000 C 
BRANCH   9  10
ATOM     10  C   UNL     1      18.060 -32.876  20.018  1.00  0.00    -0.000 C 
BRANCH  10  11
ATOM     11  C   UNL     1      18.154 -34.328  19.512  1.00  0.00    -0.000 C 
BRANCH  11  12
ATOM     12  C   UNL     1      16.776 -34.963  19.221  1.00  0.00    -0.000 C 
BRANCH  12  13
ATOM     13  C   UNL     1      16.663 -36.422  19.692  1.00  0.00    -0.003 C 
ATOM     14  C   UNL     1      17.951 -36.946  20.322  1.00  0.00     0.004 C 
ENDBRANCH  12  13
ENDBRANCH  11  12
ENDBRANCH  10  11
ENDBRANCH   9  10
ENDBRANCH   1   9
TORSDOF 10
ENDMDL
MODEL 8
REMARK VINA RESULT:    -4.436      3.764      6.041
REMARK INTER + INTRA:          -7.684
REMARK INTER:                  -6.338
REMARK INTRA:                  -1.347
REMARK UNBOUND:                -0.655
REMARK SMILES CCCCCCCCCCCC(=O)[O-]
REMARK SMILES IDX 7 1 8 2 9 3 10 4 11 5 12 6 13 7 14 8 6 9 5 10 4 11 3 12 2 13
REMARK SMILES IDX 1 14
REMARK H PARENT
REMARK Flexibility Score: inf
ROOT
ATOM      1  C   UNL     1      15.005 -33.883  21.675  1.00  0.00     0.000 C 
ENDROOT
BRANCH   1   2
ATOM      2  C   UNL     1      14.457 -33.323  20.350  1.00  0.00     0.000 C 
BRANCH   2   3
ATOM      3  C   UNL     1      13.458 -32.161  20.497  1.00  0.00     0.000 C 
BRANCH   3   4
ATOM      4  C   UNL     1      13.988 -31.024  21.383  1.00  0.00     0.006 C 
BRANCH   4   5
ATOM      5  C   UNL     1      12.843 -30.334  22.132  1.00  0.00     0.053 C 
BRANCH   5   6
ATOM      6  C   UNL     1      13.125 -30.299  23.601  1.00  0.00     0.041 C 
ATOM      7  O   UNL     1      12.824 -29.281  24.280  1.00  0.00    -0.550 OA
ATOM      8  O   UNL     1      13.765 -31.369  24.212  1.00  0.00    -0.550 OA
ENDBRANCH   5   6
ENDBRANCH   4   5
ENDBRANCH   3   4
ENDBRANCH   2   3
ENDBRANCH   1   2
BRANCH   1   9
ATOM      9  C   UNL     1      16.534 -34.030  21.677  1.00  0.00     0.000 C 
BRANCH   9  10
ATOM     10  C   UNL     1      17.140 -33.450  20.390  1.00  0.00    -0.000 C 
BRANCH  10  11
ATOM     11  C   UNL     1      18.209 -32.380  20.681  1.00  0.00    -0.000 C 
BRANCH  11  12
ATOM     12  C   UNL     1      17.618 -30.966  20.882  1.00  0.00    -0.000 C 
BRANCH  12  13
ATOM     13  C   UNL     1      18.006 -30.326  22.225  1.00  0.00    -0.003 C 
ATOM     14  C   UNL     1      17.148 -30.818  23.389  1.00  0.00     0.004 C 
ENDBRANCH  12  13
ENDBRANCH  11  12
ENDBRANCH  10  11
ENDBRANCH   9  10
ENDBRANCH   1   9
TORSDOF 10
ENDMDL
MODEL 9
REMARK VINA RESULT:    -4.342      4.421      6.483
REMARK INTER + INTRA:          -7.536
REMARK INTER:                  -6.300
REMARK INTRA:                  -1.236
REMARK UNBOUND:                -0.655
REMARK SMILES CCCCCCCCCCCC(=O)[O-]
REMARK SMILES IDX 7 1 8 2 9 3 10 4 11 5 12 6 13 7 14 8 6 9 5 10 4 11 3 12 2 13
REMARK SMILES IDX 1 14
REMARK H PARENT
REMARK Flexibility Score: inf
ROOT
ATOM      1  C   UNL     1      15.003 -33.359  21.413  1.00  0.00     0.000 C 
ENDROOT
BRANCH   1   2
ATOM      2  C   UNL     1      13.844 -32.544  20.810  1.00  0.00     0.000 C 
BRANCH   2   3
ATOM      3  C   UNL     1      13.821 -31.056  21.202  1.00  0.00     0.000 C 
BRANCH   3   4
ATOM      4  C   UNL     1      12.620 -30.687  22.086  1.00  0.00     0.006 C 
BRANCH   4   5
ATOM      5  C   UNL     1      13.082 -30.037  23.394  1.00  0.00     0.053 C 
BRANCH   5   6
ATOM      6  C   UNL     1      12.225 -28.855  23.722  1.00  0.00     0.041 C 
ATOM      7  O   UNL     1      11.196 -28.609  23.039  1.00  0.00    -0.550 OA
ATOM      8  O   UNL     1      12.589 -27.997  24.752  1.00  0.00    -0.550 OA
ENDBRANCH   5   6
ENDBRANCH   4   5
ENDBRANCH   3   4
ENDBRANCH   2   3
ENDBRANCH   1   2
BRANCH   1   9
ATOM      9  C   UNL     1      15.276 -33.013  22.885  1.00  0.00     0.000 C 
BRANCH   9  10
ATOM     10  C   UNL     1      16.745 -32.609  23.088  1.00  0.00    -0.000 C 
BRANCH  10  11
ATOM     11  C   UNL     1      16.886 -31.158  23.584  1.00  0.00    -0.000 C 
BRANCH  11  12
ATOM     12  C   UNL     1      17.017 -30.131  22.437  1.00  0.00    -0.000 C 
BRANCH  12  13
ATOM     13  C   UNL     1      17.688 -30.703  21.177  1.00  0.00    -0.003 C 
ATOM     14  C   UNL     1      19.204 -30.513  21.172  1.00  0.00     0.004 C 
ENDBRANCH  12  13
ENDBRANCH  11  12
ENDBRANCH  10  11
ENDBRANCH   9  10
ENDBRANCH   1   9
TORSDOF 10
ENDMDL
