MODEL 1
REMARK VINA RESULT:    -4.861      0.000      0.000
REMARK INTER + INTRA:          -9.724
REMARK INTER:                  -8.271
REMARK INTRA:                  -1.453
REMARK UNBOUND:                -1.453
REMARK SMILES CCCCCCCCCCCCCC(=O)[O-]
REMARK SMILES IDX 8 1 9 2 10 3 11 4 12 5 13 6 14 7 15 8 16 9 7 10 6 11 5 12
REMARK SMILES IDX 4 13 3 14 2 15 1 16
REMARK H PARENT
REMARK Flexibility Score: inf
ROOT
ATOM      1  C   UNL     1       8.416  19.646  30.580  1.00  0.00     0.000 C 
ENDROOT
BRANCH   1   2
ATOM      2  C   UNL     1       9.471  18.538  30.434  1.00  0.00     0.000 C 
BRANCH   2   3
ATOM      3  C   UNL     1       9.629  17.755  31.742  1.00  0.00     0.000 C 
BRANCH   3   4
ATOM      4  C   UNL     1       8.554  18.159  32.759  1.00  0.00     0.000 C 
BRANCH   4   5
ATOM      5  C   UNL     1       9.026  17.893  34.196  1.00  0.00     0.006 C 
BRANCH   5   6
ATOM      6  C   UNL     1       8.059  18.464  35.241  1.00  0.00     0.053 C 
BRANCH   6   7
ATOM      7  C   UNL     1       8.768  18.852  36.502  1.00  0.00     0.041 C 
ATOM      8  O   UNL     1       8.115  19.049  37.561  1.00  0.00    -0.550 OA
ATOM      9  O   UNL     1      10.145  19.030  36.500  1.00  0.00    -0.550 OA
ENDBRANCH   6   7
ENDBRANCH   5   6
ENDBRANCH   4   5
ENDBRANCH   3   4
ENDBRANCH   2   3
ENDBRANCH   1   2
BRANCH   1  10
ATOM     10  C   UNL     1       8.122  20.364  29.253  1.00  0.00     0.000 C 
BRANCH  10  11
ATOM     11  C   UNL     1       7.900  21.874  29.433  1.00  0.00    -0.000 C 
BRANCH  11  12
ATOM     12  C   UNL     1       7.995  22.269  30.914  1.00  0.00    -0.000 C 
BRANCH  12  13
ATOM     13  C   UNL     1       9.309  22.993  31.252  1.00  0.00    -0.000 C 
BRANCH  13  14
ATOM     14  C   UNL     1      10.028  22.377  32.466  1.00  0.00    -0.000 C 
BRANCH  14  15
ATOM     15  C   UNL     1       9.048  21.786  33.492  1.00  0.00    -0.003 C 
ATOM     16  C   UNL     1       9.384  22.180  34.929  1.00  0.00     0.004 C 
ENDBRANCH  14  15
ENDBRANCH  13  14
ENDBRANCH  12  13
ENDBRANCH  11  12
ENDBRANCH  10  11
ENDBRANCH   1  10
TORSDOF 12
ENDMDL
MODEL 2
REMARK VINA RESULT:    -4.780      1.275      1.825
REMARK INTER + INTRA:          -9.586
REMARK INTER:                  -8.338
REMARK INTRA:                  -1.248
REMARK UNBOUND:                -1.453
REMARK SMILES CCCCCCCCCCCCCC(=O)[O-]
REMARK SMILES IDX 8 1 9 2 10 3 11 4 12 5 13 6 14 7 15 8 16 9 7 10 6 11 5 12
REMARK SMILES IDX 4 13 3 14 2 15 1 16
REMARK H PARENT
REMARK Flexibility Score: inf
ROOT
ATOM      1  C   UNL     1       8.006  20.296  29.390  1.00  0.00     0.000 C 
ENDROOT
BRANCH   1   2
ATOM      2  C   UNL     1       8.457  19.616  30.691  1.00  0.00     0.000 C 
BRANCH   2   3
ATOM      3  C   UNL     1       9.458  18.491  30.404  1.00  0.00     0.000 C 
BRANCH   3   4
ATOM      4  C   UNL     1       9.785  17.705  31.679  1.00  0.00     0.000 C 
BRANCH   4   5
ATOM      5  C   UNL     1       8.993  18.246  32.879  1.00  0.00     0.006 C 
BRANCH   5   6
ATOM      6  C   UNL     1       9.830  18.269  34.165  1.00  0.00     0.053 C 
BRANCH   6   7
ATOM      7  C   UNL     1       9.341  17.268  35.165  1.00  0.00     0.041 C 
ATOM      8  O   UNL     1       8.168  16.815  35.086  1.00  0.00    -0.550 OA
ATOM      9  O   UNL     1      10.167  16.859  36.204  1.00  0.00    -0.550 OA
ENDBRANCH   6   7
ENDBRANCH   5   6
ENDBRANCH   4   5
ENDBRANCH   3   4
ENDBRANCH   2   3
ENDBRANCH   1   2
BRANCH   1  10
ATOM     10  C   UNL     1       8.026  21.830  29.484  1.00  0.00     0.000 C 
BRANCH  10  11
ATOM     11  C   UNL     1       8.034  22.335  30.936  1.00  0.00    -0.000 C 
BRANCH  11  12
ATOM     12  C   UNL     1       9.369  23.018  31.270  1.00  0.00    -0.000 C 
BRANCH  12  13
ATOM     13  C   UNL     1      10.091  22.361  32.458  1.00  0.00    -0.000 C 
BRANCH  13  14
ATOM     14  C   UNL     1       9.132  22.001  33.607  1.00  0.00    -0.000 C 
BRANCH  14  15
ATOM     15  C   UNL     1       8.848  23.196  34.531  1.00  0.00    -0.003 C 
ATOM     16  C   UNL     1       9.762  23.230  35.755  1.00  0.00     0.004 C 
ENDBRANCH  14  15
ENDBRANCH  13  14
ENDBRANCH  12  13
ENDBRANCH  11  12
ENDBRANCH  10  11
ENDBRANCH   1  10
TORSDOF 12
ENDMDL
MODEL 3
REMARK VINA RESULT:    -4.777      1.048      2.059
REMARK INTER + INTRA:          -9.580
REMARK INTER:                  -7.898
REMARK INTRA:                  -1.683
REMARK UNBOUND:                -1.453
REMARK SMILES CCCCCCCCCCCCCC(=O)[O-]
REMARK SMILES IDX 8 1 9 2 10 3 11 4 12 5 13 6 14 7 15 8 16 9 7 10 6 11 5 12
REMARK SMILES IDX 4 13 3 14 2 15 1 16
REMARK H PARENT
REMARK Flexibility Score: inf
ROOT
ATOM      1  C   UNL     1      10.002  18.483  31.806  1.00  0.00     0.000 C 
ENDROOT
BRANCH   1   2
ATOM      2  C   UNL     1      10.145  17.230  32.684  1.00  0.00     0.000 C 
BRANCH   2   3
ATOM      3  C   UNL     1       9.472  17.435  34.046  1.00  0.00     0.000 C 
BRANCH   3   4
ATOM      4  C   UNL     1       8.140  18.181  33.895  1.00  0.00     0.000 C 
BRANCH   4   5
ATOM      5  C   UNL     1       8.032  19.327  34.912  1.00  0.00     0.006 C 
BRANCH   5   6
ATOM      6  C   UNL     1       9.282  19.443  35.793  1.00  0.00     0.053 C 
BRANCH   6   7
ATOM      7  C   UNL     1       8.998  19.069  37.215  1.00  0.00     0.041 C 
ATOM      8  O   UNL     1       9.751  18.259  37.819  1.00  0.00    -0.550 OA
ATOM      9  O   UNL     1       7.884  19.586  37.862  1.00  0.00    -0.550 OA
ENDBRANCH   6   7
ENDBRANCH   5   6
ENDBRANCH   4   5
ENDBRANCH   3   4
ENDBRANCH   2   3
ENDBRANCH   1   2
BRANCH   1  10
ATOM     10  C   UNL     1       9.485  18.162  30.394  1.00  0.00     0.000 C 
BRANCH  10  11
ATOM     11  C   UNL     1       8.717  19.334  29.763  1.00  0.00    -0.000 C 
BRANCH  11  12
ATOM     12  C   UNL     1       8.263  20.333  30.839  1.00  0.00    -0.000 C 
BRANCH  12  13
ATOM     13  C   UNL     1       8.339  21.793  30.363  1.00  0.00    -0.000 C 
BRANCH  13  14
ATOM     14  C   UNL     1       9.011  22.717  31.394  1.00  0.00    -0.000 C 
BRANCH  14  15
ATOM     15  C   UNL     1       9.296  22.003  32.725  1.00  0.00    -0.003 C 
ATOM     16  C   UNL     1      10.787  21.931  33.052  1.00  0.00     0.004 C 
ENDBRANCH  14  15
ENDBRANCH  13  14
ENDBRANCH  12  13
ENDBRANCH  11  12
ENDBRANCH  10  11
ENDBRANCH   1  10
TORSDOF 12
ENDMDL
MODEL 4
REMARK VINA RESULT:    -4.765      3.179      5.567
REMARK INTER + INTRA:          -9.560
REMARK INTER:                  -8.430
REMARK INTRA:                  -1.130
REMARK UNBOUND:                -1.453
REMARK SMILES CCCCCCCCCCCCCC(=O)[O-]
REMARK SMILES IDX 8 1 9 2 10 3 11 4 12 5 13 6 14 7 15 8 16 9 7 10 6 11 5 12
REMARK SMILES IDX 4 13 3 14 2 15 1 16
REMARK H PARENT
REMARK Flexibility Score: inf
ROOT
ATOM      1  C   UNL     1       7.875  21.871  29.705  1.00  0.00     0.000 C 
ENDROOT
BRANCH   1   2
ATOM      2  C   UNL     1       7.924  22.135  31.218  1.00  0.00     0.000 C 
BRANCH   2   3
ATOM      3  C   UNL     1       9.160  22.963  31.590  1.00  0.00     0.000 C 
BRANCH   3   4
ATOM      4  C   UNL     1       9.046  23.510  33.018  1.00  0.00     0.000 C 
BRANCH   4   5
ATOM      5  C   UNL     1       9.719  24.886  33.137  1.00  0.00     0.006 C 
BRANCH   5   6
ATOM      6  C   UNL     1      10.704  25.152  31.991  1.00  0.00     0.053 C 
BRANCH   6   7
ATOM      7  C   UNL     1      12.126  25.089  32.454  1.00  0.00     0.041 C 
ATOM      8  O   UNL     1      12.497  24.176  33.239  1.00  0.00    -0.550 OA
ATOM      9  O   UNL     1      13.035  26.056  32.047  1.00  0.00    -0.550 OA
ENDBRANCH   6   7
ENDBRANCH   5   6
ENDBRANCH   4   5
ENDBRANCH   3   4
ENDBRANCH   2   3
ENDBRANCH   1   2
BRANCH   1  10
ATOM     10  C   UNL     1       8.105  20.393  29.353  1.00  0.00     0.000 C 
BRANCH  10  11
ATOM     11  C   UNL     1       8.545  19.556  30.565  1.00  0.00    -0.000 C 
BRANCH  11  12
ATOM     12  C   UNL     1       9.368  18.338  30.119  1.00  0.00    -0.000 C 
BRANCH  12  13
ATOM     13  C   UNL     1       9.950  17.549  31.304  1.00  0.00    -0.000 C 
BRANCH  13  14
ATOM     14  C   UNL     1       9.621  18.194  32.662  1.00  0.00    -0.000 C 
BRANCH  14  15
ATOM     15  C   UNL     1      10.871  18.731  33.376  1.00  0.00    -0.003 C 
ATOM     16  C   UNL     1      11.197  20.175  32.995  1.00  0.00     0.004 C 
ENDBRANCH  14  15
ENDBRANCH  13  14
ENDBRANCH  12  13
ENDBRANCH  11  12
ENDBRANCH  10  11
ENDBRANCH   1  10
TORSDOF 12
ENDMDL
MODEL 5
REMARK VINA RESULT:    -4.738      1.655      3.308
REMARK INTER + INTRA:          -9.514
REMARK INTER:                  -8.174
REMARK INTRA:                  -1.340
REMARK UNBOUND:                -1.453
REMARK SMILES CCCCCCCCCCCCCC(=O)[O-]
REMARK SMILES IDX 8 1 9 2 10 3 11 4 12 5 13 6 14 7 15 8 16 9 7 10 6 11 5 12
REMARK SMILES IDX 4 13 3 14 2 15 1 16
REMARK H PARENT
REMARK Flexibility Score: inf
ROOT
ATOM      1  C   UNL     1       9.920  18.143  32.427  1.00  0.00     0.000 C 
ENDROOT
BRANCH   1   2
ATOM      2  C   UNL     1       9.907  17.141  33.591  1.00  0.00     0.000 C 
BRANCH   2   3
ATOM      3  C   UNL     1       8.803  17.486  34.598  1.00  0.00     0.000 C 
BRANCH   3   4
ATOM      4  C   UNL     1       8.220  18.877  34.322  1.00  0.00     0.000 C 
BRANCH   4   5
ATOM      5  C   UNL     1       8.697  19.894  35.369  1.00  0.00     0.006 C 
BRANCH   5   6
ATOM      6  C   UNL     1       9.682  20.913  34.782  1.00  0.00     0.053 C 
BRANCH   6   7
ATOM      7  C   UNL     1       9.538  22.259  35.424  1.00  0.00     0.041 C 
ATOM      8  O   UNL     1       8.786  23.128  34.911  1.00  0.00    -0.550 OA
ATOM      9  O   UNL     1      10.260  22.564  36.571  1.00  0.00    -0.550 OA
ENDBRANCH   6   7
ENDBRANCH   5   6
ENDBRANCH   4   5
ENDBRANCH   3   4
ENDBRANCH   2   3
ENDBRANCH   1   2
BRANCH   1  10
ATOM     10  C   UNL     1       9.994  17.457  31.053  1.00  0.00     0.000 C 
BRANCH  10  11
ATOM     11  C   UNL     1       9.250  18.239  29.959  1.00  0.00    -0.000 C 
BRANCH  11  12
ATOM     12  C   UNL     1       8.590  19.498  30.540  1.00  0.00    -0.000 C 
BRANCH  12  13
ATOM     13  C   UNL     1       8.025  20.427  29.452  1.00  0.00    -0.000 C 
BRANCH  13  14
ATOM     14  C   UNL     1       7.972  21.899  29.900  1.00  0.00    -0.000 C 
BRANCH  14  15
ATOM     15  C   UNL     1       8.413  22.085  31.360  1.00  0.00    -0.003 C 
ATOM     16  C   UNL     1       9.599  23.037  31.505  1.00  0.00     0.004 C 
ENDBRANCH  14  15
ENDBRANCH  13  14
ENDBRANCH  12  13
ENDBRANCH  11  12
ENDBRANCH  10  11
ENDBRANCH   1  10
TORSDOF 12
ENDMDL
MODEL 6
REMARK VINA RESULT:    -4.727      1.238      1.895
REMARK INTER + INTRA:          -9.496
REMARK INTER:                  -7.520
REMARK INTRA:                  -1.975
REMARK UNBOUND:                -1.453
REMARK SMILES CCCCCCCCCCCCCC(=O)[O-]
REMARK SMILES IDX 8 1 9 2 10 3 11 4 12 5 13 6 14 7 15 8 16 9 7 10 6 11 5 12
REMARK SMILES IDX 4 13 3 14 2 15 1 16
REMARK H PARENT
REMARK Flexibility Score: inf
ROOT
ATOM      1  C   UNL     1       8.852  18.128  31.506  1.00  0.00     0.000 C 
ENDROOT
BRANCH   1   2
ATOM      2  C   UNL     1      10.069  17.869  32.406  1.00  0.00     0.000 C 
BRANCH   2   3
ATOM      3  C   UNL     1       9.647  17.734  33.874  1.00  0.00     0.000 C 
BRANCH   3   4
ATOM      4  C   UNL     1       8.194  18.183  34.073  1.00  0.00     0.000 C 
BRANCH   4   5
ATOM      5  C   UNL     1       7.896  18.447  35.556  1.00  0.00     0.006 C 
BRANCH   5   6
ATOM      6  C   UNL     1       9.066  19.135  36.271  1.00  0.00     0.053 C 
BRANCH   6   7
ATOM      7  C   UNL     1       9.557  18.331  37.435  1.00  0.00     0.041 C 
ATOM      8  O   UNL     1       9.478  18.795  38.604  1.00  0.00    -0.550 OA
ATOM      9  O   UNL     1      10.133  17.085  37.228  1.00  0.00    -0.550 OA
ENDBRANCH   6   7
ENDBRANCH   5   6
ENDBRANCH   4   5
ENDBRANCH   3   4
ENDBRANCH   2   3
ENDBRANCH   1   2
BRANCH   1  10
ATOM     10  C   UNL     1       9.244  18.638  30.110  1.00  0.00     0.000 C 
BRANCH  10  11
ATOM     11  C   UNL     1       8.531  19.947  29.735  1.00  0.00    -0.000 C 
BRANCH  11  12
ATOM     12  C   UNL     1       8.004  20.662  30.988  1.00  0.00    -0.000 C 
BRANCH  12  13
ATOM     13  C   UNL     1       8.974  21.734  31.511  1.00  0.00    -0.000 C 
BRANCH  13  14
ATOM     14  C   UNL     1       9.010  21.800  33.049  1.00  0.00    -0.000 C 
BRANCH  14  15
ATOM     15  C   UNL     1      10.385  21.421  33.620  1.00  0.00    -0.003 C 
ATOM     16  C   UNL     1      11.462  21.299  32.543  1.00  0.00     0.004 C 
ENDBRANCH  14  15
ENDBRANCH  13  14
ENDBRANCH  12  13
ENDBRANCH  11  12
ENDBRANCH  10  11
ENDBRANCH   1  10
TORSDOF 12
ENDMDL
MODEL 7
REMARK VINA RESULT:    -4.658      1.500      2.657
REMARK INTER + INTRA:          -9.379
REMARK INTER:                  -7.655
REMARK INTRA:                  -1.724
REMARK UNBOUND:                -1.453
REMARK SMILES CCCCCCCCCCCCCC(=O)[O-]
REMARK SMILES IDX 8 1 9 2 10 3 11 4 12 5 13 6 14 7 15 8 16 9 7 10 6 11 5 12
REMARK SMILES IDX 4 13 3 14 2 15 1 16
REMARK H PARENT
REMARK Flexibility Score: inf
ROOT
ATOM      1  C   UNL     1      10.185  18.598  32.926  1.00  0.00     0.000 C 
ENDROOT
BRANCH   1   2
ATOM      2  C   UNL     1      10.059  19.784  33.894  1.00  0.00     0.000 C 
BRANCH   2   3
ATOM      3  C   UNL     1       8.640  19.875  34.468  1.00  0.00     0.000 C 
BRANCH   3   4
ATOM      4  C   UNL     1       7.898  18.542  34.315  1.00  0.00     0.000 C 
BRANCH   4   5
ATOM      5  C   UNL     1       7.876  17.767  35.642  1.00  0.00     0.006 C 
BRANCH   5   6
ATOM      6  C   UNL     1       9.012  16.741  35.735  1.00  0.00     0.053 C 
BRANCH   6   7
ATOM      7  C   UNL     1      10.124  17.221  36.615  1.00  0.00     0.041 C 
ATOM      8  O   UNL     1       9.926  18.160  37.431  1.00  0.00    -0.550 OA
ATOM      9  O   UNL     1      11.388  16.656  36.512  1.00  0.00    -0.550 OA
ENDBRANCH   6   7
ENDBRANCH   5   6
ENDBRANCH   4   5
ENDBRANCH   3   4
ENDBRANCH   2   3
ENDBRANCH   1   2
BRANCH   1  10
ATOM     10  C   UNL     1      10.221  19.036  31.453  1.00  0.00     0.000 C 
BRANCH  10  11
ATOM     11  C   UNL     1       8.916  18.718  30.707  1.00  0.00    -0.000 C 
BRANCH  11  12
ATOM     12  C   UNL     1       8.347  19.978  30.037  1.00  0.00    -0.000 C 
BRANCH  12  13
ATOM     13  C   UNL     1       8.019  21.091  31.047  1.00  0.00    -0.000 C 
BRANCH  13  14
ATOM     14  C   UNL     1       8.630  22.447  30.652  1.00  0.00    -0.000 C 
BRANCH  14  15
ATOM     15  C   UNL     1       9.528  23.030  31.755  1.00  0.00    -0.003 C 
ATOM     16  C   UNL     1       8.781  23.260  33.068  1.00  0.00     0.004 C 
ENDBRANCH  14  15
ENDBRANCH  13  14
ENDBRANCH  12  13
ENDBRANCH  11  12
ENDBRANCH  10  11
ENDBRANCH   1  10
TORSDOF 12
ENDMDL
MODEL 8
REMARK VINA RESULT:    -4.651      2.418      4.644
REMARK INTER + INTRA:          -9.366
REMARK INTER:                  -8.012
REMARK INTRA:                  -1.355
REMARK UNBOUND:                -1.453
REMARK SMILES CCCCCCCCCCCCCC(=O)[O-]
REMARK SMILES IDX 8 1 9 2 10 3 11 4 12 5 13 6 14 7 15 8 16 9 7 10 6 11 5 12
REMARK SMILES IDX 4 13 3 14 2 15 1 16
REMARK H PARENT
REMARK Flexibility Score: inf
ROOT
ATOM      1  C   UNL     1       9.777  17.763  30.818  1.00  0.00     0.000 C 
ENDROOT
BRANCH   1   2
ATOM      2  C   UNL     1       9.093  18.658  29.772  1.00  0.00     0.000 C 
BRANCH   2   3
ATOM      3  C   UNL     1       8.342  19.812  30.446  1.00  0.00     0.000 C 
BRANCH   3   4
ATOM      4  C   UNL     1       8.017  20.921  29.437  1.00  0.00     0.000 C 
BRANCH   4   5
ATOM      5  C   UNL     1       8.112  22.307  30.092  1.00  0.00     0.006 C 
BRANCH   5   6
ATOM      6  C   UNL     1       8.574  22.230  31.552  1.00  0.00     0.053 C 
BRANCH   6   7
ATOM      7  C   UNL     1       9.949  22.795  31.732  1.00  0.00     0.041 C 
ATOM      8  O   UNL     1      10.230  23.935  31.275  1.00  0.00    -0.550 OA
ATOM      9  O   UNL     1      10.930  22.051  32.373  1.00  0.00    -0.550 OA
ENDBRANCH   6   7
ENDBRANCH   5   6
ENDBRANCH   4   5
ENDBRANCH   3   4
ENDBRANCH   2   3
ENDBRANCH   1   2
BRANCH   1  10
ATOM     10  C   UNL     1       9.989  18.478  32.162  1.00  0.00     0.000 C 
BRANCH  10  11
ATOM     11  C   UNL     1       9.348  17.727  33.340  1.00  0.00    -0.000 C 
BRANCH  11  12
ATOM     12  C   UNL     1       8.280  18.594  34.025  1.00  0.00    -0.000 C 
BRANCH  12  13
ATOM     13  C   UNL     1       8.741  20.045  34.239  1.00  0.00    -0.000 C 
BRANCH  13  14
ATOM     14  C   UNL     1       9.336  20.277  35.640  1.00  0.00    -0.000 C 
BRANCH  14  15
ATOM     15  C   UNL     1       9.906  21.694  35.809  1.00  0.00    -0.003 C 
ATOM     16  C   UNL     1       8.981  22.776  35.252  1.00  0.00     0.004 C 
ENDBRANCH  14  15
ENDBRANCH  13  14
ENDBRANCH  12  13
ENDBRANCH  11  12
ENDBRANCH  10  11
ENDBRANCH   1  10
TORSDOF 12
ENDMDL
MODEL 9
REMARK VINA RESULT:    -4.503      1.602      2.523
REMARK INTER + INTRA:          -9.115
REMARK INTER:                  -7.341
REMARK INTRA:                  -1.775
REMARK UNBOUND:                -1.453
REMARK SMILES CCCCCCCCCCCCCC(=O)[O-]
REMARK SMILES IDX 8 1 9 2 10 3 11 4 12 5 13 6 14 7 15 8 16 9 7 10 6 11 5 12
REMARK SMILES IDX 4 13 3 14 2 15 1 16
REMARK H PARENT
REMARK Flexibility Score: inf
ROOT
ATOM      1  C   UNL     1      10.071  18.857  31.821  1.00  0.00     0.000 C 
ENDROOT
BRANCH   1   2
ATOM      2  C   UNL     1       9.758  17.896  32.978  1.00  0.00     0.000 C 
BRANCH   2   3
ATOM      3  C   UNL     1       8.330  18.106  33.494  1.00  0.00     0.000 C 
BRANCH   3   4
ATOM      4  C   UNL     1       8.260  19.307  34.446  1.00  0.00     0.000 C 
BRANCH   4   5
ATOM      5  C   UNL     1       9.313  19.192  35.558  1.00  0.00     0.006 C 
BRANCH   5   6
ATOM      6  C   UNL     1      10.069  20.508  35.780  1.00  0.00     0.053 C 
BRANCH   6   7
ATOM      7  C   UNL     1      11.505  20.401  35.369  1.00  0.00     0.041 C 
ATOM      8  O   UNL     1      12.058  19.273  35.287  1.00  0.00    -0.550 OA
ATOM      9  O   UNL     1      12.243  21.549  35.109  1.00  0.00    -0.550 OA
ENDBRANCH   6   7
ENDBRANCH   5   6
ENDBRANCH   4   5
ENDBRANCH   3   4
ENDBRANCH   2   3
ENDBRANCH   1   2
BRANCH   1  10
ATOM     10  C   UNL     1       9.364  18.462  30.514  1.00  0.00     0.000 C 
BRANCH  10  11
ATOM     11  C   UNL     1       8.608  19.636  29.871  1.00  0.00    -0.000 C 
BRANCH  11  12
ATOM     12  C   UNL     1       8.179  20.659  30.934  1.00  0.00    -0.000 C 
BRANCH  12  13
ATOM     13  C   UNL     1       8.287  22.110  30.439  1.00  0.00    -0.000 C 
BRANCH  13  14
ATOM     14  C   UNL     1       9.279  22.946  31.268  1.00  0.00    -0.000 C 
BRANCH  14  15
ATOM     15  C   UNL     1       9.445  22.411  32.699  1.00  0.00    -0.003 C 
ATOM     16  C   UNL     1       8.897  23.368  33.757  1.00  0.00     0.004 C 
ENDBRANCH  14  15
ENDBRANCH  13  14
ENDBRANCH  12  13
ENDBRANCH  11  12
ENDBRANCH  10  11
ENDBRANCH   1  10
TORSDOF 12
ENDMDL
