MODEL 1
REMARK VINA RESULT:    -3.873      0.000      0.000
REMARK INTER + INTRA:          -8.251
REMARK INTER:                  -7.496
REMARK INTRA:                  -0.755
REMARK UNBOUND:                -0.755
REMARK SMILES CCCCCCCCCCCCCCCCCC(=O)[O-]
REMARK SMILES IDX 10 1 11 2 12 3 13 4 14 5 15 6 16 7 17 8 18 9 19 10 20 11
REMARK SMILES IDX 9 12 8 13 7 14 6 15 5 16 4 17 3 18 2 19 1 20
REMARK H PARENT
REMARK Flexibility Score: inf
ROOT
ATOM      1  C   UNL     1    -116.546 -98.593  42.098  1.00  0.00     0.000 C 
ENDROOT
BRANCH   1   2
ATOM      2  C   UNL     1    -117.563 -98.306  43.216  1.00  0.00     0.000 C 
BRANCH   2   3
ATOM      3  C   UNL     1    -117.672 -99.460  44.225  1.00  0.00     0.000 C 
BRANCH   3   4
ATOM      4  C   UNL     1    -118.735 -99.203  45.303  1.00  0.00     0.000 C 
BRANCH   4   5
ATOM      5  C   UNL     1    -118.401 -99.957  46.596  1.00  0.00     0.000 C 
BRANCH   5   6
ATOM      6  C   UNL     1    -117.622 -99.060  47.570  1.00  0.00     0.000 C 
BRANCH   6   7
ATOM      7  C   UNL     1    -118.522 -98.033  48.283  1.00  0.00     0.006 C 
BRANCH   7   8
ATOM      8  C   UNL     1    -117.884 -96.646  48.457  1.00  0.00     0.053 C 
BRANCH   8   9
ATOM      9  C   UNL     1    -118.392 -95.664  47.448  1.00  0.00     0.041 C 
ATOM     10  O   UNL     1    -118.802 -94.531  47.815  1.00  0.00    -0.550 OA
ATOM     11  O   UNL     1    -118.382 -95.987  46.097  1.00  0.00    -0.550 OA
ENDBRANCH   8   9
ENDBRANCH   7   8
ENDBRANCH   6   7
ENDBRANCH   5   6
ENDBRANCH   4   5
ENDBRANCH   3   4
ENDBRANCH   2   3
ENDBRANCH   1   2
BRANCH   1  12
ATOM     12  C   UNL     1    -116.680-100.011  41.513  1.00  0.00     0.000 C 
BRANCH  12  13
ATOM     13  C   UNL     1    -117.583-100.125  40.272  1.00  0.00    -0.000 C 
BRANCH  13  14
ATOM     14  C   UNL     1    -117.003 -99.413  39.039  1.00  0.00    -0.000 C 
BRANCH  14  15
ATOM     15  C   UNL     1    -117.535 -99.980  37.711  1.00  0.00    -0.000 C 
BRANCH  15  16
ATOM     16  C   UNL     1    -116.503-100.058  36.571  1.00  0.00    -0.000 C 
BRANCH  16  17
ATOM     17  C   UNL     1    -116.010 -98.674  36.114  1.00  0.00    -0.000 C 
BRANCH  17  18
ATOM     18  C   UNL     1    -115.361 -98.709  34.721  1.00  0.00    -0.000 C 
BRANCH  18  19
ATOM     19  C   UNL     1    -116.364 -98.414  33.596  1.00  0.00    -0.003 C 
ATOM     20  C   UNL     1    -116.338 -96.938  33.210  1.00  0.00     0.004 C 
ENDBRANCH  18  19
ENDBRANCH  17  18
ENDBRANCH  16  17
ENDBRANCH  15  16
ENDBRANCH  14  15
ENDBRANCH  13  14
ENDBRANCH  12  13
ENDBRANCH   1  12
TORSDOF 16
ENDMDL
MODEL 2
REMARK VINA RESULT:    -3.547      4.892     11.627
REMARK INTER + INTRA:          -7.620
REMARK INTER:                  -6.978
REMARK INTRA:                  -0.642
REMARK UNBOUND:                -0.755
REMARK SMILES CCCCCCCCCCCCCCCCCC(=O)[O-]
REMARK SMILES IDX 10 1 11 2 12 3 13 4 14 5 15 6 16 7 17 8 18 9 19 10 20 11
REMARK SMILES IDX 9 12 8 13 7 14 6 15 5 16 4 17 3 18 2 19 1 20
REMARK H PARENT
REMARK Flexibility Score: inf
ROOT
ATOM      1  C   UNL     1    -117.261 -99.756  38.715  1.00  0.00     0.000 C 
ENDROOT
BRANCH   1   2
ATOM      2  C   UNL     1    -116.607 -98.966  37.569  1.00  0.00     0.000 C 
BRANCH   2   3
ATOM      3  C   UNL     1    -116.360 -99.830  36.322  1.00  0.00     0.000 C 
BRANCH   3   4
ATOM      4  C   UNL     1    -115.242 -99.271  35.430  1.00  0.00     0.000 C 
BRANCH   4   5
ATOM      5  C   UNL     1    -115.824 -98.484  34.249  1.00  0.00     0.000 C 
BRANCH   5   6
ATOM      6  C   UNL     1    -115.996 -99.387  33.018  1.00  0.00     0.000 C 
BRANCH   6   7
ATOM      7  C   UNL     1    -117.458 -99.820  32.797  1.00  0.00     0.006 C 
BRANCH   7   8
ATOM      8  C   UNL     1    -118.038 -99.415  31.433  1.00  0.00     0.053 C 
BRANCH   8   9
ATOM      9  C   UNL     1    -118.460 -97.979  31.407  1.00  0.00     0.041 C 
ATOM     10  O   UNL     1    -118.864 -97.417  32.459  1.00  0.00    -0.550 OA
ATOM     11  O   UNL     1    -118.375 -97.251  30.227  1.00  0.00    -0.550 OA
ENDBRANCH   8   9
ENDBRANCH   7   8
ENDBRANCH   6   7
ENDBRANCH   5   6
ENDBRANCH   4   5
ENDBRANCH   3   4
ENDBRANCH   2   3
ENDBRANCH   1   2
BRANCH   1  12
ATOM     12  C   UNL     1    -116.866 -99.231  40.108  1.00  0.00     0.000 C 
BRANCH  12  13
ATOM     13  C   UNL     1    -118.043 -98.928  41.052  1.00  0.00    -0.000 C 
BRANCH  13  14
ATOM     14  C   UNL     1    -117.980 -99.725  42.366  1.00  0.00    -0.000 C 
BRANCH  14  15
ATOM     15  C   UNL     1    -117.200 -98.996  43.475  1.00  0.00    -0.000 C 
BRANCH  15  16
ATOM     16  C   UNL     1    -118.044 -98.547  44.682  1.00  0.00    -0.000 C 
BRANCH  16  17
ATOM     17  C   UNL     1    -118.064 -99.585  45.818  1.00  0.00    -0.000 C 
BRANCH  17  18
ATOM     18  C   UNL     1    -117.981 -98.939  47.210  1.00  0.00    -0.000 C 
BRANCH  18  19
ATOM     19  C   UNL     1    -118.265 -97.430  47.177  1.00  0.00    -0.003 C 
ATOM     20  C   UNL     1    -117.671 -96.732  48.397  1.00  0.00     0.004 C 
ENDBRANCH  18  19
ENDBRANCH  17  18
ENDBRANCH  16  17
ENDBRANCH  15  16
ENDBRANCH  14  15
ENDBRANCH  13  14
ENDBRANCH  12  13
ENDBRANCH   1  12
TORSDOF 16
ENDMDL
MODEL 3
REMARK VINA RESULT:    -3.217      4.397     10.773
REMARK INTER + INTRA:          -6.981
REMARK INTER:                  -6.175
REMARK INTRA:                  -0.805
REMARK UNBOUND:                -0.755
REMARK SMILES CCCCCCCCCCCCCCCCCC(=O)[O-]
REMARK SMILES IDX 10 1 11 2 12 3 13 4 14 5 15 6 16 7 17 8 18 9 19 10 20 11
REMARK SMILES IDX 9 12 8 13 7 14 6 15 5 16 4 17 3 18 2 19 1 20
REMARK H PARENT
REMARK Flexibility Score: inf
ROOT
ATOM      1  C   UNL     1    -116.859 -98.311  42.367  1.00  0.00     0.000 C 
ENDROOT
BRANCH   1   2
ATOM      2  C   UNL     1    -116.629 -99.282  41.196  1.00  0.00     0.000 C 
BRANCH   2   3
ATOM      3  C   UNL     1    -117.861 -99.413  40.287  1.00  0.00     0.000 C 
BRANCH   3   4
ATOM      4  C   UNL     1    -117.524-100.029  38.922  1.00  0.00     0.000 C 
BRANCH   4   5
ATOM      5  C   UNL     1    -116.840 -99.003  38.010  1.00  0.00     0.000 C 
BRANCH   5   6
ATOM      6  C   UNL     1    -116.406 -99.649  36.685  1.00  0.00     0.000 C 
BRANCH   6   7
ATOM      7  C   UNL     1    -115.694 -98.659  35.744  1.00  0.00     0.006 C 
BRANCH   7   8
ATOM      8  C   UNL     1    -115.786 -99.024  34.255  1.00  0.00     0.053 C 
BRANCH   8   9
ATOM      9  C   UNL     1    -116.285 -97.880  33.427  1.00  0.00     0.041 C 
ATOM     10  O   UNL     1    -117.091 -98.086  32.481  1.00  0.00    -0.550 OA
ATOM     11  O   UNL     1    -115.885 -96.583  33.720  1.00  0.00    -0.550 OA
ENDBRANCH   8   9
ENDBRANCH   7   8
ENDBRANCH   6   7
ENDBRANCH   5   6
ENDBRANCH   4   5
ENDBRANCH   3   4
ENDBRANCH   2   3
ENDBRANCH   1   2
BRANCH   1  12
ATOM     12  C   UNL     1    -118.280 -98.401  42.952  1.00  0.00     0.000 C 
BRANCH  12  13
ATOM     13  C   UNL     1    -118.572 -99.670  43.772  1.00  0.00    -0.000 C 
BRANCH  13  14
ATOM     14  C   UNL     1    -117.996 -99.610  45.197  1.00  0.00    -0.000 C 
BRANCH  14  15
ATOM     15  C   UNL     1    -119.058 -99.850  46.285  1.00  0.00    -0.000 C 
BRANCH  15  16
ATOM     16  C   UNL     1    -119.124 -98.775  47.385  1.00  0.00    -0.000 C 
BRANCH  16  17
ATOM     17  C   UNL     1    -118.595 -97.407  46.917  1.00  0.00    -0.000 C 
BRANCH  17  18
ATOM     18  C   UNL     1    -117.543 -96.822  47.873  1.00  0.00    -0.000 C 
BRANCH  18  19
ATOM     19  C   UNL     1    -118.173 -96.127  49.088  1.00  0.00    -0.003 C 
ATOM     20  C   UNL     1    -119.079 -94.977  48.655  1.00  0.00     0.004 C 
ENDBRANCH  18  19
ENDBRANCH  17  18
ENDBRANCH  16  17
ENDBRANCH  15  16
ENDBRANCH  14  15
ENDBRANCH  13  14
ENDBRANCH  12  13
ENDBRANCH   1  12
TORSDOF 16
ENDMDL
MODEL 4
REMARK VINA RESULT:    -3.178      1.287      2.284
REMARK INTER + INTRA:          -6.905
REMARK INTER:                  -6.121
REMARK INTRA:                  -0.784
REMARK UNBOUND:                -0.755
REMARK SMILES CCCCCCCCCCCCCCCCCC(=O)[O-]
REMARK SMILES IDX 10 1 11 2 12 3 13 4 14 5 15 6 16 7 17 8 18 9 19 10 20 11
REMARK SMILES IDX 9 12 8 13 7 14 6 15 5 16 4 17 3 18 2 19 1 20
REMARK H PARENT
REMARK Flexibility Score: inf
ROOT
ATOM      1  C   UNL     1    -117.294 -98.539  39.866  1.00  0.00     0.000 C 
ENDROOT
BRANCH   1   2
ATOM      2  C   UNL     1    -117.758 -98.472  41.331  1.00  0.00     0.000 C 
BRANCH   2   3
ATOM      3  C   UNL     1    -118.519 -99.733  41.768  1.00  0.00     0.000 C 
BRANCH   3   4
ATOM      4  C   UNL     1    -118.227-100.123  43.225  1.00  0.00     0.000 C 
BRANCH   4   5
ATOM      5  C   UNL     1    -118.701 -99.031  44.191  1.00  0.00     0.000 C 
BRANCH   5   6
ATOM      6  C   UNL     1    -117.859 -99.032  45.476  1.00  0.00     0.000 C 
BRANCH   6   7
ATOM      7  C   UNL     1    -118.645 -98.534  46.704  1.00  0.00     0.006 C 
BRANCH   7   8
ATOM      8  C   UNL     1    -117.857 -97.581  47.616  1.00  0.00     0.053 C 
BRANCH   8   9
ATOM      9  C   UNL     1    -118.363 -96.175  47.528  1.00  0.00     0.041 C 
ATOM     10  O   UNL     1    -118.437 -95.596  46.412  1.00  0.00    -0.550 OA
ATOM     11  O   UNL     1    -118.784 -95.514  48.675  1.00  0.00    -0.550 OA
ENDBRANCH   8   9
ENDBRANCH   7   8
ENDBRANCH   6   7
ENDBRANCH   5   6
ENDBRANCH   4   5
ENDBRANCH   3   4
ENDBRANCH   2   3
ENDBRANCH   1   2
BRANCH   1  12
ATOM     12  C   UNL     1    -117.453 -99.941  39.250  1.00  0.00     0.000 C 
BRANCH  12  13
ATOM     13  C   UNL     1    -117.357 -99.997  37.714  1.00  0.00    -0.000 C 
BRANCH  13  14
ATOM     14  C   UNL     1    -116.293 -99.044  37.144  1.00  0.00    -0.000 C 
BRANCH  14  15
ATOM     15  C   UNL     1    -116.165 -99.133  35.613  1.00  0.00    -0.000 C 
BRANCH  15  16
ATOM     16  C   UNL     1    -117.449 -99.547  34.871  1.00  0.00    -0.000 C 
BRANCH  16  17
ATOM     17  C   UNL     1    -117.329 -99.411  33.343  1.00  0.00    -0.000 C 
BRANCH  17  18
ATOM     18  C   UNL     1    -118.424 -98.516  32.741  1.00  0.00    -0.000 C 
BRANCH  18  19
ATOM     19  C   UNL     1    -117.869 -97.190  32.201  1.00  0.00    -0.003 C 
ATOM     20  C   UNL     1    -116.439 -96.958  32.679  1.00  0.00     0.004 C 
ENDBRANCH  18  19
ENDBRANCH  17  18
ENDBRANCH  16  17
ENDBRANCH  15  16
ENDBRANCH  14  15
ENDBRANCH  13  14
ENDBRANCH  12  13
ENDBRANCH   1  12
TORSDOF 16
ENDMDL
MODEL 5
REMARK VINA RESULT:    -2.852      5.164     11.332
REMARK INTER + INTRA:          -6.274
REMARK INTER:                  -5.306
REMARK INTRA:                  -0.968
REMARK UNBOUND:                -0.755
REMARK SMILES CCCCCCCCCCCCCCCCCC(=O)[O-]
REMARK SMILES IDX 10 1 11 2 12 3 13 4 14 5 15 6 16 7 17 8 18 9 19 10 20 11
REMARK SMILES IDX 9 12 8 13 7 14 6 15 5 16 4 17 3 18 2 19 1 20
REMARK H PARENT
REMARK Flexibility Score: inf
ROOT
ATOM      1  C   UNL     1    -116.736 -99.086  36.908  1.00  0.00     0.000 C 
ENDROOT
BRANCH   1   2
ATOM      2  C   UNL     1    -115.534 -99.428  36.011  1.00  0.00     0.000 C 
BRANCH   2   3
ATOM      3  C   UNL     1    -115.082 -98.238  35.151  1.00  0.00     0.000 C 
BRANCH   3   4
ATOM      4  C   UNL     1    -116.117 -97.855  34.083  1.00  0.00     0.000 C 
BRANCH   4   5
ATOM      5  C   UNL     1    -115.852 -98.598  32.768  1.00  0.00     0.000 C 
BRANCH   5   6
ATOM      6  C   UNL     1    -116.852 -99.748  32.575  1.00  0.00     0.000 C 
BRANCH   6   7
ATOM      7  C   UNL     1    -118.313 -99.263  32.513  1.00  0.00     0.006 C 
BRANCH   7   8
ATOM      8  C   UNL     1    -118.788 -98.867  31.107  1.00  0.00     0.053 C 
BRANCH   8   9
ATOM      9  C   UNL     1    -118.731 -97.386  30.892  1.00  0.00     0.041 C 
ATOM     10  O   UNL     1    -118.381 -96.622  31.830  1.00  0.00    -0.550 OA
ATOM     11  O   UNL     1    -119.032 -96.852  29.645  1.00  0.00    -0.550 OA
ENDBRANCH   8   9
ENDBRANCH   7   8
ENDBRANCH   6   7
ENDBRANCH   5   6
ENDBRANCH   4   5
ENDBRANCH   3   4
ENDBRANCH   2   3
ENDBRANCH   1   2
BRANCH   1  12
ATOM     12  C   UNL     1    -116.959-100.115  38.032  1.00  0.00     0.000 C 
BRANCH  12  13
ATOM     13  C   UNL     1    -118.373-100.125  38.640  1.00  0.00    -0.000 C 
BRANCH  13  14
ATOM     14  C   UNL     1    -118.364-100.125  40.178  1.00  0.00    -0.000 C 
BRANCH  14  15
ATOM     15  C   UNL     1    -117.574 -98.947  40.775  1.00  0.00    -0.000 C 
BRANCH  15  16
ATOM     16  C   UNL     1    -118.347 -97.619  40.867  1.00  0.00    -0.000 C 
BRANCH  16  17
ATOM     17  C   UNL     1    -118.662 -97.208  42.316  1.00  0.00    -0.000 C 
BRANCH  17  18
ATOM     18  C   UNL     1    -118.853 -98.417  43.245  1.00  0.00    -0.000 C 
BRANCH  18  19
ATOM     19  C   UNL     1    -118.105 -98.259  44.577  1.00  0.00    -0.003 C 
ATOM     20  C   UNL     1    -118.657 -97.086  45.381  1.00  0.00     0.004 C 
ENDBRANCH  18  19
ENDBRANCH  17  18
ENDBRANCH  16  17
ENDBRANCH  15  16
ENDBRANCH  14  15
ENDBRANCH  13  14
ENDBRANCH  12  13
ENDBRANCH   1  12
TORSDOF 16
ENDMDL
MODEL 6
REMARK VINA RESULT:    -2.828      2.034      4.856
REMARK INTER + INTRA:          -6.227
REMARK INTER:                  -5.301
REMARK INTRA:                  -0.926
REMARK UNBOUND:                -0.755
REMARK SMILES CCCCCCCCCCCCCCCCCC(=O)[O-]
REMARK SMILES IDX 10 1 11 2 12 3 13 4 14 5 15 6 16 7 17 8 18 9 19 10 20 11
REMARK SMILES IDX 9 12 8 13 7 14 6 15 5 16 4 17 3 18 2 19 1 20
REMARK H PARENT
REMARK Flexibility Score: inf
ROOT
ATOM      1  C   UNL     1    -116.480 -98.736  36.742  1.00  0.00     0.000 C 
ENDROOT
BRANCH   1   2
ATOM      2  C   UNL     1    -116.553-100.005  37.609  1.00  0.00     0.000 C 
BRANCH   2   3
ATOM      3  C   UNL     1    -117.481 -99.839  38.822  1.00  0.00     0.000 C 
BRANCH   3   4
ATOM      4  C   UNL     1    -116.992 -98.756  39.795  1.00  0.00     0.000 C 
BRANCH   4   5
ATOM      5  C   UNL     1    -118.096 -98.370  40.788  1.00  0.00     0.000 C 
BRANCH   5   6
ATOM      6  C   UNL     1    -118.582 -99.598  41.573  1.00  0.00     0.000 C 
BRANCH   6   7
ATOM      7  C   UNL     1    -118.820 -99.295  43.064  1.00  0.00     0.006 C 
BRANCH   7   8
ATOM      8  C   UNL     1    -118.204 -97.973  43.548  1.00  0.00     0.053 C 
BRANCH   8   9
ATOM      9  C   UNL     1    -118.414 -97.759  45.015  1.00  0.00     0.041 C 
ATOM     10  O   UNL     1    -118.563 -98.745  45.784  1.00  0.00    -0.550 OA
ATOM     11  O   UNL     1    -118.414 -96.472  45.537  1.00  0.00    -0.550 OA
ENDBRANCH   8   9
ENDBRANCH   7   8
ENDBRANCH   6   7
ENDBRANCH   5   6
ENDBRANCH   4   5
ENDBRANCH   3   4
ENDBRANCH   2   3
ENDBRANCH   1   2
BRANCH   1  12
ATOM     12  C   UNL     1    -115.408 -98.822  35.640  1.00  0.00     0.000 C 
BRANCH  12  13
ATOM     13  C   UNL     1    -115.449-100.102  34.785  1.00  0.00    -0.000 C 
BRANCH  13  14
ATOM     14  C   UNL     1    -116.435-100.006  33.609  1.00  0.00    -0.000 C 
BRANCH  14  15
ATOM     15  C   UNL     1    -117.908-100.013  34.058  1.00  0.00    -0.000 C 
BRANCH  15  16
ATOM     16  C   UNL     1    -118.835 -99.065  33.275  1.00  0.00    -0.000 C 
BRANCH  16  17
ATOM     17  C   UNL     1    -118.347 -98.800  31.840  1.00  0.00    -0.000 C 
BRANCH  17  18
ATOM     18  C   UNL     1    -118.199 -97.302  31.532  1.00  0.00    -0.000 C 
BRANCH  18  19
ATOM     19  C   UNL     1    -116.775 -96.787  31.783  1.00  0.00    -0.003 C 
ATOM     20  C   UNL     1    -116.518 -96.584  33.274  1.00  0.00     0.004 C 
ENDBRANCH  18  19
ENDBRANCH  17  18
ENDBRANCH  16  17
ENDBRANCH  15  16
ENDBRANCH  14  15
ENDBRANCH  13  14
ENDBRANCH  12  13
ENDBRANCH   1  12
TORSDOF 16
ENDMDL
MODEL 7
REMARK VINA RESULT:    -2.786      4.598     10.889
REMARK INTER + INTRA:          -6.146
REMARK INTER:                  -5.260
REMARK INTRA:                  -0.886
REMARK UNBOUND:                -0.755
REMARK SMILES CCCCCCCCCCCCCCCCCC(=O)[O-]
REMARK SMILES IDX 10 1 11 2 12 3 13 4 14 5 15 6 16 7 17 8 18 9 19 10 20 11
REMARK SMILES IDX 9 12 8 13 7 14 6 15 5 16 4 17 3 18 2 19 1 20
REMARK H PARENT
REMARK Flexibility Score: inf
ROOT
ATOM      1  C   UNL     1    -116.741 -98.885  37.378  1.00  0.00     0.000 C 
ENDROOT
BRANCH   1   2
ATOM      2  C   UNL     1    -115.824 -99.434  36.272  1.00  0.00     0.000 C 
BRANCH   2   3
ATOM      3  C   UNL     1    -116.609-100.094  35.128  1.00  0.00     0.000 C 
BRANCH   3   4
ATOM      4  C   UNL     1    -118.122-100.125  35.391  1.00  0.00     0.000 C 
BRANCH   4   5
ATOM      5  C   UNL     1    -118.908 -99.766  34.125  1.00  0.00     0.000 C 
BRANCH   5   6
ATOM      6  C   UNL     1    -118.729 -98.282  33.769  1.00  0.00     0.000 C 
BRANCH   6   7
ATOM      7  C   UNL     1    -118.807 -98.020  32.253  1.00  0.00     0.006 C 
BRANCH   7   8
ATOM      8  C   UNL     1    -117.636 -97.197  31.693  1.00  0.00     0.053 C 
BRANCH   8   9
ATOM      9  C   UNL     1    -116.533 -97.038  32.693  1.00  0.00     0.041 C 
ATOM     10  O   UNL     1    -115.678 -97.950  32.845  1.00  0.00    -0.550 OA
ATOM     11  O   UNL     1    -116.430 -95.867  33.434  1.00  0.00    -0.550 OA
ENDBRANCH   8   9
ENDBRANCH   7   8
ENDBRANCH   6   7
ENDBRANCH   5   6
ENDBRANCH   4   5
ENDBRANCH   3   4
ENDBRANCH   2   3
ENDBRANCH   1   2
BRANCH   1  12
ATOM     12  C   UNL     1    -116.655 -99.694  38.685  1.00  0.00     0.000 C 
BRANCH  12  13
ATOM     13  C   UNL     1    -118.009-100.113  39.287  1.00  0.00    -0.000 C 
BRANCH  13  14
ATOM     14  C   UNL     1    -118.225 -99.577  40.712  1.00  0.00    -0.000 C 
BRANCH  14  15
ATOM     15  C   UNL     1    -117.101 -99.982  41.683  1.00  0.00    -0.000 C 
BRANCH  15  16
ATOM     16  C   UNL     1    -116.705 -98.907  42.712  1.00  0.00    -0.000 C 
BRANCH  16  17
ATOM     17  C   UNL     1    -117.906 -98.374  43.512  1.00  0.00    -0.000 C 
BRANCH  17  18
ATOM     18  C   UNL     1    -118.372 -99.353  44.602  1.00  0.00    -0.000 C 
BRANCH  18  19
ATOM     19  C   UNL     1    -117.643 -99.139  45.936  1.00  0.00    -0.003 C 
ATOM     20  C   UNL     1    -118.501 -99.599  47.111  1.00  0.00     0.004 C 
ENDBRANCH  18  19
ENDBRANCH  17  18
ENDBRANCH  16  17
ENDBRANCH  15  16
ENDBRANCH  14  15
ENDBRANCH  13  14
ENDBRANCH  12  13
ENDBRANCH   1  12
TORSDOF 16
ENDMDL
MODEL 8
REMARK VINA RESULT:    -2.585      3.218      6.712
REMARK INTER + INTRA:          -5.758
REMARK INTER:                  -4.410
REMARK INTRA:                  -1.348
REMARK UNBOUND:                -0.755
REMARK SMILES CCCCCCCCCCCCCCCCCC(=O)[O-]
REMARK SMILES IDX 10 1 11 2 12 3 13 4 14 5 15 6 16 7 17 8 18 9 19 10 20 11
REMARK SMILES IDX 9 12 8 13 7 14 6 15 5 16 4 17 3 18 2 19 1 20
REMARK H PARENT
REMARK Flexibility Score: inf
ROOT
ATOM      1  C   UNL     1    -115.221 -97.571  34.832  1.00  0.00     0.000 C 
ENDROOT
BRANCH   1   2
ATOM      2  C   UNL     1    -115.133 -98.550  36.016  1.00  0.00     0.000 C 
BRANCH   2   3
ATOM      3  C   UNL     1    -116.510 -98.885  36.609  1.00  0.00     0.000 C 
BRANCH   3   4
ATOM      4  C   UNL     1    -116.468-100.099  37.548  1.00  0.00     0.000 C 
BRANCH   4   5
ATOM      5  C   UNL     1    -117.383 -99.889  38.760  1.00  0.00     0.000 C 
BRANCH   5   6
ATOM      6  C   UNL     1    -117.126 -98.522  39.412  1.00  0.00     0.000 C 
BRANCH   6   7
ATOM      7  C   UNL     1    -118.164 -98.173  40.495  1.00  0.00     0.006 C 
BRANCH   7   8
ATOM      8  C   UNL     1    -118.446 -99.310  41.490  1.00  0.00     0.053 C 
BRANCH   8   9
ATOM      9  C   UNL     1    -118.047 -98.944  42.887  1.00  0.00     0.041 C 
ATOM     10  O   UNL     1    -118.927 -98.734  43.763  1.00  0.00    -0.550 OA
ATOM     11  O   UNL     1    -116.703 -98.868  43.229  1.00  0.00    -0.550 OA
ENDBRANCH   8   9
ENDBRANCH   7   8
ENDBRANCH   6   7
ENDBRANCH   5   6
ENDBRANCH   4   5
ENDBRANCH   3   4
ENDBRANCH   2   3
ENDBRANCH   1   2
BRANCH   1  12
ATOM     12  C   UNL     1    -116.457 -97.811  33.946  1.00  0.00     0.000 C 
BRANCH  12  13
ATOM     13  C   UNL     1    -116.274 -98.863  32.837  1.00  0.00    -0.000 C 
BRANCH  13  14
ATOM     14  C   UNL     1    -117.142-100.115  33.047  1.00  0.00    -0.000 C 
BRANCH  14  15
ATOM     15  C   UNL     1    -118.431-100.101  32.206  1.00  0.00    -0.000 C 
BRANCH  15  16
ATOM     16  C   UNL     1    -118.230 -99.835  30.703  1.00  0.00    -0.000 C 
BRANCH  16  17
ATOM     17  C   UNL     1    -119.125 -98.703  30.170  1.00  0.00    -0.000 C 
BRANCH  17  18
ATOM     18  C   UNL     1    -118.456 -97.323  30.273  1.00  0.00    -0.000 C 
BRANCH  18  19
ATOM     19  C   UNL     1    -118.841 -96.577  31.559  1.00  0.00    -0.003 C 
ATOM     20  C   UNL     1    -119.084 -95.096  31.284  1.00  0.00     0.004 C 
ENDBRANCH  18  19
ENDBRANCH  17  18
ENDBRANCH  16  17
ENDBRANCH  15  16
ENDBRANCH  14  15
ENDBRANCH  13  14
ENDBRANCH  12  13
ENDBRANCH   1  12
TORSDOF 16
ENDMDL
MODEL 9
REMARK VINA RESULT:    -2.576      5.401     11.495
REMARK INTER + INTRA:          -5.740
REMARK INTER:                  -4.904
REMARK INTRA:                  -0.836
REMARK UNBOUND:                -0.755
REMARK SMILES CCCCCCCCCCCCCCCCCC(=O)[O-]
REMARK SMILES IDX 10 1 11 2 12 3 13 4 14 5 15 6 16 7 17 8 18 9 19 10 20 11
REMARK SMILES IDX 9 12 8 13 7 14 6 15 5 16 4 17 3 18 2 19 1 20
REMARK H PARENT
REMARK Flexibility Score: inf
ROOT
ATOM      1  C   UNL     1    -115.667 -98.049  35.244  1.00  0.00     0.000 C 
ENDROOT
BRANCH   1   2
ATOM      2  C   UNL     1    -115.589 -98.134  33.710  1.00  0.00     0.000 C 
BRANCH   2   3
ATOM      3  C   UNL     1    -115.571 -96.750  33.042  1.00  0.00     0.000 C 
BRANCH   3   4
ATOM      4  C   UNL     1    -116.952 -96.078  33.041  1.00  0.00     0.000 C 
BRANCH   4   5
ATOM      5  C   UNL     1    -117.621 -96.200  31.667  1.00  0.00     0.000 C 
BRANCH   5   6
ATOM      6  C   UNL     1    -118.898 -97.050  31.751  1.00  0.00     0.000 C 
BRANCH   6   7
ATOM      7  C   UNL     1    -118.975 -97.881  33.045  1.00  0.00     0.006 C 
BRANCH   7   8
ATOM      8  C   UNL     1    -119.095 -99.396  32.818  1.00  0.00     0.053 C 
BRANCH   8   9
ATOM      9  C   UNL     1    -118.240 -99.862  31.681  1.00  0.00     0.041 C 
ATOM     10  O   UNL     1    -117.021-100.120  31.868  1.00  0.00    -0.550 OA
ATOM     11  O   UNL     1    -118.796-100.043  30.421  1.00  0.00    -0.550 OA
ENDBRANCH   8   9
ENDBRANCH   7   8
ENDBRANCH   6   7
ENDBRANCH   5   6
ENDBRANCH   4   5
ENDBRANCH   3   4
ENDBRANCH   2   3
ENDBRANCH   1   2
BRANCH   1  12
ATOM     12  C   UNL     1    -115.469 -99.413  35.931  1.00  0.00     0.000 C 
BRANCH  12  13
ATOM     13  C   UNL     1    -116.732-100.010  36.578  1.00  0.00    -0.000 C 
BRANCH  13  14
ATOM     14  C   UNL     1    -117.173 -99.254  37.843  1.00  0.00    -0.000 C 
BRANCH  14  15
ATOM     15  C   UNL     1    -117.022-100.091  39.126  1.00  0.00    -0.000 C 
BRANCH  15  16
ATOM     16  C   UNL     1    -116.920 -99.279  40.430  1.00  0.00    -0.000 C 
BRANCH  16  17
ATOM     17  C   UNL     1    -118.286 -99.045  41.099  1.00  0.00    -0.000 C 
BRANCH  17  18
ATOM     18  C   UNL     1    -118.345 -99.599  42.531  1.00  0.00    -0.000 C 
BRANCH  18  19
ATOM     19  C   UNL     1    -117.380 -98.876  43.482  1.00  0.00    -0.003 C 
ATOM     20  C   UNL     1    -118.120 -98.309  44.690  1.00  0.00     0.004 C 
ENDBRANCH  18  19
ENDBRANCH  17  18
ENDBRANCH  16  17
ENDBRANCH  15  16
ENDBRANCH  14  15
ENDBRANCH  13  14
ENDBRANCH  12  13
ENDBRANCH   1  12
TORSDOF 16
ENDMDL
