MODEL 1
REMARK VINA RESULT:    -5.882      0.000      0.000
REMARK INTER + INTRA:         -12.469
REMARK INTER:                 -10.695
REMARK INTRA:                  -1.774
REMARK UNBOUND:                -1.774
REMARK SMILES CCCCCCCCCCCCCCCC(=O)[O-]
REMARK SMILES IDX 9 1 10 2 11 3 12 4 13 5 14 6 15 7 16 8 17 9 18 10 8 11 7 12
REMARK SMILES IDX 6 13 5 14 4 15 3 16 2 17 1 18
REMARK H PARENT
REMARK Flexibility Score: inf
ROOT
ATOM      1  C   UNL     1      16.853  -0.641  16.891  1.00  0.00     0.000 C 
ENDROOT
BRANCH   1   2
ATOM      2  C   UNL     1      15.986   0.043  15.814  1.00  0.00     0.000 C 
BRANCH   2   3
ATOM      3  C   UNL     1      16.279   1.550  15.702  1.00  0.00     0.000 C 
BRANCH   3   4
ATOM      4  C   UNL     1      15.139   2.328  15.026  1.00  0.00     0.000 C 
BRANCH   4   5
ATOM      5  C   UNL     1      15.514   2.827  13.622  1.00  0.00     0.000 C 
BRANCH   5   6
ATOM      6  C   UNL     1      15.391   1.698  12.588  1.00  0.00     0.006 C 
BRANCH   6   7
ATOM      7  C   UNL     1      16.103   2.037  11.271  1.00  0.00     0.053 C 
BRANCH   7   8
ATOM      8  C   UNL     1      17.272   1.134  11.024  1.00  0.00     0.041 C 
ATOM      9  O   UNL     1      17.587   0.812   9.849  1.00  0.00    -0.550 OA
ATOM     10  O   UNL     1      17.994   0.623  12.095  1.00  0.00    -0.550 OA
ENDBRANCH   7   8
ENDBRANCH   6   7
ENDBRANCH   5   6
ENDBRANCH   4   5
ENDBRANCH   3   4
ENDBRANCH   2   3
ENDBRANCH   1   2
BRANCH   1  11
ATOM     11  C   UNL     1      17.768   0.334  17.653  1.00  0.00     0.000 C 
BRANCH  11  12
ATOM     12  C   UNL     1      17.525   0.317  19.171  1.00  0.00    -0.000 C 
BRANCH  12  13
ATOM     13  C   UNL     1      16.232  -0.418  19.555  1.00  0.00    -0.000 C 
BRANCH  13  14
ATOM     14  C   UNL     1      15.238   0.484  20.302  1.00  0.00    -0.000 C 
BRANCH  14  15
ATOM     15  C   UNL     1      13.830   0.371  19.697  1.00  0.00    -0.000 C 
BRANCH  15  16
ATOM     16  C   UNL     1      13.683   1.194  18.400  1.00  0.00    -0.000 C 
BRANCH  16  17
ATOM     17  C   UNL     1      14.122   2.660  18.548  1.00  0.00    -0.003 C 
ATOM     18  C   UNL     1      12.976   3.651  18.363  1.00  0.00     0.004 C 
ENDBRANCH  16  17
ENDBRANCH  15  16
ENDBRANCH  14  15
ENDBRANCH  13  14
ENDBRANCH  12  13
ENDBRANCH  11  12
ENDBRANCH   1  11
TORSDOF 14
ENDMDL
MODEL 2
REMARK VINA RESULT:    -5.818      2.323      6.663
REMARK INTER + INTRA:         -12.354
REMARK INTER:                 -10.918
REMARK INTRA:                  -1.436
REMARK UNBOUND:                -1.774
REMARK SMILES CCCCCCCCCCCCCCCC(=O)[O-]
REMARK SMILES IDX 9 1 10 2 11 3 12 4 13 5 14 6 15 7 16 8 17 9 18 10 8 11 7 12
REMARK SMILES IDX 6 13 5 14 4 15 3 16 2 17 1 18
REMARK H PARENT
REMARK Flexibility Score: inf
ROOT
ATOM      1  C   UNL     1      13.853   2.873  16.941  1.00  0.00     0.000 C 
ENDROOT
BRANCH   1   2
ATOM      2  C   UNL     1      13.423   2.734  18.415  1.00  0.00     0.000 C 
BRANCH   2   3
ATOM      3  C   UNL     1      13.785   1.356  18.999  1.00  0.00     0.000 C 
BRANCH   3   4
ATOM      4  C   UNL     1      14.726   1.452  20.210  1.00  0.00     0.000 C 
BRANCH   4   5
ATOM      5  C   UNL     1      15.622   0.214  20.365  1.00  0.00     0.000 C 
BRANCH   5   6
ATOM      6  C   UNL     1      16.612   0.103  19.195  1.00  0.00     0.006 C 
BRANCH   6   7
ATOM      7  C   UNL     1      16.737  -1.335  18.675  1.00  0.00     0.053 C 
BRANCH   7   8
ATOM      8  C   UNL     1      15.781  -1.605  17.553  1.00  0.00     0.041 C 
ATOM      9  O   UNL     1      14.684  -2.178  17.779  1.00  0.00    -0.550 OA
ATOM     10  O   UNL     1      16.119  -1.252  16.253  1.00  0.00    -0.550 OA
ENDBRANCH   7   8
ENDBRANCH   6   7
ENDBRANCH   5   6
ENDBRANCH   4   5
ENDBRANCH   3   4
ENDBRANCH   2   3
ENDBRANCH   1   2
BRANCH   1  11
ATOM     11  C   UNL     1      15.366   2.694  16.722  1.00  0.00     0.000 C 
BRANCH  11  12
ATOM     12  C   UNL     1      15.707   2.161  15.321  1.00  0.00    -0.000 C 
BRANCH  12  13
ATOM     13  C   UNL     1      14.610   2.464  14.290  1.00  0.00    -0.000 C 
BRANCH  13  14
ATOM     14  C   UNL     1      15.172   3.037  12.980  1.00  0.00    -0.000 C 
BRANCH  14  15
ATOM     15  C   UNL     1      15.507   1.916  11.986  1.00  0.00    -0.000 C 
BRANCH  15  16
ATOM     16  C   UNL     1      16.966   1.991  11.489  1.00  0.00    -0.000 C 
BRANCH  16  17
ATOM     17  C   UNL     1      17.691   0.634  11.502  1.00  0.00    -0.003 C 
ATOM     18  C   UNL     1      17.661  -0.049  12.867  1.00  0.00     0.004 C 
ENDBRANCH  16  17
ENDBRANCH  15  16
ENDBRANCH  14  15
ENDBRANCH  13  14
ENDBRANCH  12  13
ENDBRANCH  11  12
ENDBRANCH   1  11
TORSDOF 14
ENDMDL
MODEL 3
REMARK VINA RESULT:    -5.815      2.503      6.839
REMARK INTER + INTRA:         -12.347
REMARK INTER:                 -10.850
REMARK INTRA:                  -1.498
REMARK UNBOUND:                -1.774
REMARK SMILES CCCCCCCCCCCCCCCC(=O)[O-]
REMARK SMILES IDX 9 1 10 2 11 3 12 4 13 5 14 6 15 7 16 8 17 9 18 10 8 11 7 12
REMARK SMILES IDX 6 13 5 14 4 15 3 16 2 17 1 18
REMARK H PARENT
REMARK Flexibility Score: inf
ROOT
ATOM      1  C   UNL     1      15.601   2.719  16.889  1.00  0.00     0.000 C 
ENDROOT
BRANCH   1   2
ATOM      2  C   UNL     1      14.278   3.462  17.167  1.00  0.00     0.000 C 
BRANCH   2   3
ATOM      3  C   UNL     1      13.591   2.966  18.452  1.00  0.00     0.000 C 
BRANCH   3   4
ATOM      4  C   UNL     1      13.997   1.532  18.826  1.00  0.00     0.000 C 
BRANCH   4   5
ATOM      5  C   UNL     1      14.665   1.446  20.207  1.00  0.00     0.000 C 
BRANCH   5   6
ATOM      6  C   UNL     1      15.541   0.190  20.316  1.00  0.00     0.006 C 
BRANCH   6   7
ATOM      7  C   UNL     1      16.860   0.334  19.545  1.00  0.00     0.053 C 
BRANCH   7   8
ATOM      8  C   UNL     1      17.029  -0.753  18.528  1.00  0.00     0.041 C 
ATOM      9  O   UNL     1      17.202  -0.465  17.315  1.00  0.00    -0.550 OA
ATOM     10  O   UNL     1      16.964  -2.084  18.917  1.00  0.00    -0.550 OA
ENDBRANCH   7   8
ENDBRANCH   6   7
ENDBRANCH   5   6
ENDBRANCH   4   5
ENDBRANCH   3   4
ENDBRANCH   2   3
ENDBRANCH   1   2
BRANCH   1  11
ATOM     11  C   UNL     1      15.658   2.065  15.497  1.00  0.00     0.000 C 
BRANCH  11  12
ATOM     12  C   UNL     1      14.611   2.635  14.527  1.00  0.00    -0.000 C 
BRANCH  12  13
ATOM     13  C   UNL     1      15.212   3.020  13.167  1.00  0.00    -0.000 C 
BRANCH  13  14
ATOM     14  C   UNL     1      15.444   1.804  12.258  1.00  0.00    -0.000 C 
BRANCH  14  15
ATOM     15  C   UNL     1      16.707   1.988  11.403  1.00  0.00    -0.000 C 
BRANCH  15  16
ATOM     16  C   UNL     1      17.794   0.943  11.733  1.00  0.00    -0.000 C 
BRANCH  16  17
ATOM     17  C   UNL     1      17.392  -0.030  12.854  1.00  0.00    -0.003 C 
ATOM     18  C   UNL     1      18.544  -0.366  13.797  1.00  0.00     0.004 C 
ENDBRANCH  16  17
ENDBRANCH  15  16
ENDBRANCH  14  15
ENDBRANCH  13  14
ENDBRANCH  12  13
ENDBRANCH  11  12
ENDBRANCH   1  11
TORSDOF 14
ENDMDL
MODEL 4
REMARK VINA RESULT:    -5.776      3.196      6.743
REMARK INTER + INTRA:         -12.278
REMARK INTER:                 -10.562
REMARK INTRA:                  -1.716
REMARK UNBOUND:                -1.774
REMARK SMILES CCCCCCCCCCCCCCCC(=O)[O-]
REMARK SMILES IDX 9 1 10 2 11 3 12 4 13 5 14 6 15 7 16 8 17 9 18 10 8 11 7 12
REMARK SMILES IDX 6 13 5 14 4 15 3 16 2 17 1 18
REMARK H PARENT
REMARK Flexibility Score: inf
ROOT
ATOM      1  C   UNL     1      15.477   3.236  12.823  1.00  0.00     0.000 C 
ENDROOT
BRANCH   1   2
ATOM      2  C   UNL     1      15.283   2.883  14.312  1.00  0.00     0.000 C 
BRANCH   2   3
ATOM      3  C   UNL     1      13.996   2.073  14.554  1.00  0.00     0.000 C 
BRANCH   3   4
ATOM      4  C   UNL     1      13.086   2.707  15.618  1.00  0.00     0.000 C 
BRANCH   4   5
ATOM      5  C   UNL     1      13.873   3.260  16.816  1.00  0.00     0.000 C 
BRANCH   5   6
ATOM      6  C   UNL     1      13.216   2.847  18.142  1.00  0.00     0.006 C 
BRANCH   6   7
ATOM      7  C   UNL     1      14.241   2.338  19.164  1.00  0.00     0.053 C 
BRANCH   7   8
ATOM      8  C   UNL     1      14.049   0.883  19.465  1.00  0.00     0.041 C 
ATOM      9  O   UNL     1      14.330   0.430  20.605  1.00  0.00    -0.550 OA
ATOM     10  O   UNL     1      13.589   0.024  18.476  1.00  0.00    -0.550 OA
ENDBRANCH   7   8
ENDBRANCH   6   7
ENDBRANCH   5   6
ENDBRANCH   4   5
ENDBRANCH   3   4
ENDBRANCH   2   3
ENDBRANCH   1   2
BRANCH   1  11
ATOM     11  C   UNL     1      15.549   2.004  11.904  1.00  0.00     0.000 C 
BRANCH  11  12
ATOM     12  C   UNL     1      16.885   1.901  11.149  1.00  0.00    -0.000 C 
BRANCH  12  13
ATOM     13  C   UNL     1      17.680   0.640  11.523  1.00  0.00    -0.000 C 
BRANCH  13  14
ATOM     14  C   UNL     1      17.294   0.085  12.902  1.00  0.00    -0.000 C 
BRANCH  14  15
ATOM     15  C   UNL     1      18.533  -0.405  13.665  1.00  0.00    -0.000 C 
BRANCH  15  16
ATOM     16  C   UNL     1      18.282  -0.505  15.185  1.00  0.00    -0.000 C 
BRANCH  16  17
ATOM     17  C   UNL     1      16.813  -0.283  15.582  1.00  0.00    -0.003 C 
ATOM     18  C   UNL     1      16.652   0.609  16.811  1.00  0.00     0.004 C 
ENDBRANCH  16  17
ENDBRANCH  15  16
ENDBRANCH  14  15
ENDBRANCH  13  14
ENDBRANCH  12  13
ENDBRANCH  11  12
ENDBRANCH   1  11
TORSDOF 14
ENDMDL
MODEL 5
REMARK VINA RESULT:    -5.773      1.670      3.955
REMARK INTER + INTRA:         -12.271
REMARK INTER:                 -10.673
REMARK INTRA:                  -1.598
REMARK UNBOUND:                -1.774
REMARK SMILES CCCCCCCCCCCCCCCC(=O)[O-]
REMARK SMILES IDX 9 1 10 2 11 3 12 4 13 5 14 6 15 7 16 8 17 9 18 10 8 11 7 12
REMARK SMILES IDX 6 13 5 14 4 15 3 16 2 17 1 18
REMARK H PARENT
REMARK Flexibility Score: inf
ROOT
ATOM      1  C   UNL     1      13.096   3.746  17.393  1.00  0.00     0.000 C 
ENDROOT
BRANCH   1   2
ATOM      2  C   UNL     1      13.241   2.510  16.482  1.00  0.00     0.000 C 
BRANCH   2   3
ATOM      3  C   UNL     1      13.765   2.877  15.082  1.00  0.00     0.000 C 
BRANCH   3   4
ATOM      4  C   UNL     1      15.242   2.505  14.884  1.00  0.00     0.000 C 
BRANCH   4   5
ATOM      5  C   UNL     1      15.858   1.841  16.126  1.00  0.00     0.000 C 
BRANCH   5   6
ATOM      6  C   UNL     1      16.915   0.801  15.725  1.00  0.00     0.006 C 
BRANCH   6   7
ATOM      7  C   UNL     1      16.496  -0.005  14.489  1.00  0.00     0.053 C 
BRANCH   7   8
ATOM      8  C   UNL     1      17.588  -0.056  13.464  1.00  0.00     0.041 C 
ATOM      9  O   UNL     1      18.678  -0.629  13.728  1.00  0.00    -0.550 OA
ATOM     10  O   UNL     1      17.413   0.557  12.231  1.00  0.00    -0.550 OA
ENDBRANCH   7   8
ENDBRANCH   6   7
ENDBRANCH   5   6
ENDBRANCH   4   5
ENDBRANCH   3   4
ENDBRANCH   2   3
ENDBRANCH   1   2
BRANCH   1  11
ATOM     11  C   UNL     1      13.605   3.515  18.827  1.00  0.00     0.000 C 
BRANCH  11  12
ATOM     12  C   UNL     1      13.971   2.048  19.101  1.00  0.00    -0.000 C 
BRANCH  12  13
ATOM     13  C   UNL     1      14.706   1.861  20.437  1.00  0.00    -0.000 C 
BRANCH  13  14
ATOM     14  C   UNL     1      15.263   0.440  20.611  1.00  0.00    -0.000 C 
BRANCH  14  15
ATOM     15  C   UNL     1      16.413   0.175  19.628  1.00  0.00    -0.000 C 
BRANCH  15  16
ATOM     16  C   UNL     1      16.354  -1.246  19.028  1.00  0.00    -0.000 C 
BRANCH  16  17
ATOM     17  C   UNL     1      17.669  -1.688  18.364  1.00  0.00    -0.003 C 
ATOM     18  C   UNL     1      17.453  -2.515  17.099  1.00  0.00     0.004 C 
ENDBRANCH  16  17
ENDBRANCH  15  16
ENDBRANCH  14  15
ENDBRANCH  13  14
ENDBRANCH  12  13
ENDBRANCH  11  12
ENDBRANCH   1  11
TORSDOF 14
ENDMDL
MODEL 6
REMARK VINA RESULT:    -5.771      1.107      3.066
REMARK INTER + INTRA:         -12.267
REMARK INTER:                 -10.258
REMARK INTRA:                  -2.009
REMARK UNBOUND:                -1.774
REMARK SMILES CCCCCCCCCCCCCCCC(=O)[O-]
REMARK SMILES IDX 9 1 10 2 11 3 12 4 13 5 14 6 15 7 16 8 17 9 18 10 8 11 7 12
REMARK SMILES IDX 6 13 5 14 4 15 3 16 2 17 1 18
REMARK H PARENT
REMARK Flexibility Score: inf
ROOT
ATOM      1  C   UNL     1      14.979   1.841  18.318  1.00  0.00     0.000 C 
ENDROOT
BRANCH   1   2
ATOM      2  C   UNL     1      13.890   1.594  17.253  1.00  0.00     0.000 C 
BRANCH   2   3
ATOM      3  C   UNL     1      13.706   2.804  16.319  1.00  0.00     0.000 C 
BRANCH   3   4
ATOM      4  C   UNL     1      13.666   2.407  14.835  1.00  0.00     0.000 C 
BRANCH   4   5
ATOM      5  C   UNL     1      15.020   2.599  14.135  1.00  0.00     0.000 C 
BRANCH   5   6
ATOM      6  C   UNL     1      15.132   1.695  12.899  1.00  0.00     0.006 C 
BRANCH   6   7
ATOM      7  C   UNL     1      16.128   2.241  11.868  1.00  0.00     0.053 C 
BRANCH   7   8
ATOM      8  C   UNL     1      17.100   1.190  11.424  1.00  0.00     0.041 C 
ATOM      9  O   UNL     1      17.682   0.466  12.274  1.00  0.00    -0.550 OA
ATOM     10  O   UNL     1      17.387   1.035  10.075  1.00  0.00    -0.550 OA
ENDBRANCH   7   8
ENDBRANCH   6   7
ENDBRANCH   5   6
ENDBRANCH   4   5
ENDBRANCH   3   4
ENDBRANCH   2   3
ENDBRANCH   1   2
BRANCH   1  11
ATOM     11  C   UNL     1      14.543   1.456  19.743  1.00  0.00     0.000 C 
BRANCH  11  12
ATOM     12  C   UNL     1      15.484   0.434  20.399  1.00  0.00    -0.000 C 
BRANCH  12  13
ATOM     13  C   UNL     1      16.659   0.042  19.490  1.00  0.00    -0.000 C 
BRANCH  13  14
ATOM     14  C   UNL     1      16.696  -1.464  19.189  1.00  0.00    -0.000 C 
BRANCH  14  15
ATOM     15  C   UNL     1      17.139  -1.726  17.742  1.00  0.00    -0.000 C 
BRANCH  15  16
ATOM     16  C   UNL     1      16.010  -1.455  16.726  1.00  0.00    -0.000 C 
BRANCH  16  17
ATOM     17  C   UNL     1      16.445  -0.574  15.542  1.00  0.00    -0.003 C 
ATOM     18  C   UNL     1      17.543   0.421  15.907  1.00  0.00     0.004 C 
ENDBRANCH  16  17
ENDBRANCH  15  16
ENDBRANCH  14  15
ENDBRANCH  13  14
ENDBRANCH  12  13
ENDBRANCH  11  12
ENDBRANCH   1  11
TORSDOF 14
ENDMDL
MODEL 7
REMARK VINA RESULT:    -5.760      2.966      5.060
REMARK INTER + INTRA:         -12.248
REMARK INTER:                 -10.648
REMARK INTRA:                  -1.600
REMARK UNBOUND:                -1.774
REMARK SMILES CCCCCCCCCCCCCCCC(=O)[O-]
REMARK SMILES IDX 9 1 10 2 11 3 12 4 13 5 14 6 15 7 16 8 17 9 18 10 8 11 7 12
REMARK SMILES IDX 6 13 5 14 4 15 3 16 2 17 1 18
REMARK H PARENT
REMARK Flexibility Score: inf
ROOT
ATOM      1  C   UNL     1      17.831   0.879  11.730  1.00  0.00     0.000 C 
ENDROOT
BRANCH   1   2
ATOM      2  C   UNL     1      16.711   1.759  11.136  1.00  0.00     0.000 C 
BRANCH   2   3
ATOM      3  C   UNL     1      15.480   1.833  12.057  1.00  0.00     0.000 C 
BRANCH   3   4
ATOM      4  C   UNL     1      15.440   3.122  12.892  1.00  0.00     0.000 C 
BRANCH   4   5
ATOM      5  C   UNL     1      15.284   2.850  14.396  1.00  0.00     0.000 C 
BRANCH   5   6
ATOM      6  C   UNL     1      13.956   2.137  14.690  1.00  0.00     0.006 C 
BRANCH   6   7
ATOM      7  C   UNL     1      13.086   2.918  15.684  1.00  0.00     0.053 C 
BRANCH   7   8
ATOM      8  C   UNL     1      13.597   2.793  17.087  1.00  0.00     0.041 C 
ATOM      9  O   UNL     1      13.418   1.728  17.734  1.00  0.00    -0.550 OA
ATOM     10  O   UNL     1      14.243   3.865  17.689  1.00  0.00    -0.550 OA
ENDBRANCH   7   8
ENDBRANCH   6   7
ENDBRANCH   5   6
ENDBRANCH   4   5
ENDBRANCH   3   4
ENDBRANCH   2   3
ENDBRANCH   1   2
BRANCH   1  11
ATOM     11  C   UNL     1      17.363  -0.003  12.901  1.00  0.00     0.000 C 
BRANCH  11  12
ATOM     12  C   UNL     1      18.530  -0.555  13.735  1.00  0.00    -0.000 C 
BRANCH  12  13
ATOM     13  C   UNL     1      18.357  -0.297  15.240  1.00  0.00    -0.000 C 
BRANCH  13  14
ATOM     14  C   UNL     1      16.883  -0.286  15.672  1.00  0.00    -0.000 C 
BRANCH  14  15
ATOM     15  C   UNL     1      16.689   0.542  16.951  1.00  0.00    -0.000 C 
BRANCH  15  16
ATOM     16  C   UNL     1      16.375  -0.341  18.177  1.00  0.00    -0.000 C 
BRANCH  16  17
ATOM     17  C   UNL     1      16.728   0.322  19.519  1.00  0.00    -0.003 C 
ATOM     18  C   UNL     1      15.504   0.615  20.383  1.00  0.00     0.004 C 
ENDBRANCH  16  17
ENDBRANCH  15  16
ENDBRANCH  14  15
ENDBRANCH  13  14
ENDBRANCH  12  13
ENDBRANCH  11  12
ENDBRANCH   1  11
TORSDOF 14
ENDMDL
MODEL 8
REMARK VINA RESULT:    -5.711      1.987      4.063
REMARK INTER + INTRA:         -12.158
REMARK INTER:                 -10.473
REMARK INTRA:                  -1.685
REMARK UNBOUND:                -1.774
REMARK SMILES CCCCCCCCCCCCCCCC(=O)[O-]
REMARK SMILES IDX 9 1 10 2 11 3 12 4 13 5 14 6 15 7 16 8 17 9 18 10 8 11 7 12
REMARK SMILES IDX 6 13 5 14 4 15 3 16 2 17 1 18
REMARK H PARENT
REMARK Flexibility Score: inf
ROOT
ATOM      1  C   UNL     1      15.135   2.639  14.826  1.00  0.00     0.000 C 
ENDROOT
BRANCH   1   2
ATOM      2  C   UNL     1      15.306   3.017  13.340  1.00  0.00     0.000 C 
BRANCH   2   3
ATOM      3  C   UNL     1      15.398   1.777  12.432  1.00  0.00     0.000 C 
BRANCH   3   4
ATOM      4  C   UNL     1      16.473   1.916  11.343  1.00  0.00     0.000 C 
BRANCH   4   5
ATOM      5  C   UNL     1      17.733   1.090  11.645  1.00  0.00     0.000 C 
BRANCH   5   6
ATOM      6  C   UNL     1      17.405  -0.094  12.566  1.00  0.00     0.006 C 
BRANCH   6   7
ATOM      7  C   UNL     1      18.491  -0.323  13.626  1.00  0.00     0.053 C 
BRANCH   7   8
ATOM      8  C   UNL     1      17.915  -0.376  15.008  1.00  0.00     0.041 C 
ATOM      9  O   UNL     1      16.672  -0.486  15.173  1.00  0.00    -0.550 OA
ATOM     10  O   UNL     1      18.750  -0.269  16.113  1.00  0.00    -0.550 OA
ENDBRANCH   7   8
ENDBRANCH   6   7
ENDBRANCH   5   6
ENDBRANCH   4   5
ENDBRANCH   3   4
ENDBRANCH   2   3
ENDBRANCH   1   2
BRANCH   1  11
ATOM     11  C   UNL     1      13.688   2.283  15.207  1.00  0.00     0.000 C 
BRANCH  11  12
ATOM     12  C   UNL     1      13.096   3.236  16.258  1.00  0.00    -0.000 C 
BRANCH  12  13
ATOM     13  C   UNL     1      14.109   3.618  17.348  1.00  0.00    -0.000 C 
BRANCH  13  14
ATOM     14  C   UNL     1      13.554   3.422  18.767  1.00  0.00    -0.000 C 
BRANCH  14  15
ATOM     15  C   UNL     1      14.290   2.288  19.495  1.00  0.00    -0.000 C 
BRANCH  15  16
ATOM     16  C   UNL     1      13.951   0.900  18.912  1.00  0.00    -0.000 C 
BRANCH  16  17
ATOM     17  C   UNL     1      15.177   0.141  18.377  1.00  0.00    -0.003 C 
ATOM     18  C   UNL     1      16.470   0.948  18.472  1.00  0.00     0.004 C 
ENDBRANCH  16  17
ENDBRANCH  15  16
ENDBRANCH  14  15
ENDBRANCH  13  14
ENDBRANCH  12  13
ENDBRANCH  11  12
ENDBRANCH   1  11
TORSDOF 14
ENDMDL
MODEL 9
REMARK VINA RESULT:    -5.710      1.420      5.461
REMARK INTER + INTRA:         -12.157
REMARK INTER:                 -10.524
REMARK INTRA:                  -1.633
REMARK UNBOUND:                -1.774
REMARK SMILES CCCCCCCCCCCCCCCC(=O)[O-]
REMARK SMILES IDX 9 1 10 2 11 3 12 4 13 5 14 6 15 7 16 8 17 9 18 10 8 11 7 12
REMARK SMILES IDX 6 13 5 14 4 15 3 16 2 17 1 18
REMARK H PARENT
REMARK Flexibility Score: inf
ROOT
ATOM      1  C   UNL     1      13.600   1.115  18.627  1.00  0.00     0.000 C 
ENDROOT
BRANCH   1   2
ATOM      2  C   UNL     1      14.043   0.425  19.934  1.00  0.00     0.000 C 
BRANCH   2   3
ATOM      3  C   UNL     1      15.518   0.709  20.270  1.00  0.00     0.000 C 
BRANCH   3   4
ATOM      4  C   UNL     1      16.482  -0.278  19.593  1.00  0.00     0.000 C 
BRANCH   4   5
ATOM      5  C   UNL     1      17.643   0.426  18.874  1.00  0.00     0.000 C 
BRANCH   5   6
ATOM      6  C   UNL     1      17.196   0.962  17.505  1.00  0.00     0.006 C 
BRANCH   6   7
ATOM      7  C   UNL     1      16.866  -0.167  16.520  1.00  0.00     0.053 C 
BRANCH   7   8
ATOM      8  C   UNL     1      17.741  -0.118  15.305  1.00  0.00     0.041 C 
ATOM      9  O   UNL     1      17.230  -0.126  14.155  1.00  0.00    -0.550 OA
ATOM     10  O   UNL     1      19.123  -0.096  15.445  1.00  0.00    -0.550 OA
ENDBRANCH   7   8
ENDBRANCH   6   7
ENDBRANCH   5   6
ENDBRANCH   4   5
ENDBRANCH   3   4
ENDBRANCH   2   3
ENDBRANCH   1   2
BRANCH   1  11
ATOM     11  C   UNL     1      14.009   2.596  18.545  1.00  0.00     0.000 C 
BRANCH  11  12
ATOM     12  C   UNL     1      13.163   3.393  17.539  1.00  0.00    -0.000 C 
BRANCH  12  13
ATOM     13  C   UNL     1      13.213   2.801  16.123  1.00  0.00    -0.000 C 
BRANCH  13  14
ATOM     14  C   UNL     1      14.635   2.778  15.541  1.00  0.00    -0.000 C 
BRANCH  14  15
ATOM     15  C   UNL     1      14.654   2.111  14.158  1.00  0.00    -0.000 C 
BRANCH  15  16
ATOM     16  C   UNL     1      15.432   2.944  13.117  1.00  0.00    -0.000 C 
BRANCH  16  17
ATOM     17  C   UNL     1      15.597   2.236  11.762  1.00  0.00    -0.003 C 
ATOM     18  C   UNL     1      17.053   2.118  11.321  1.00  0.00     0.004 C 
ENDBRANCH  16  17
ENDBRANCH  15  16
ENDBRANCH  14  15
ENDBRANCH  13  14
ENDBRANCH  12  13
ENDBRANCH  11  12
ENDBRANCH   1  11
TORSDOF 14
ENDMDL
