MODEL 1
REMARK VINA RESULT:    -3.896      0.000      0.000
REMARK INTER + INTRA:         -10.165
REMARK INTER:                  -7.540
REMARK INTRA:                  -2.625
REMARK UNBOUND:                -2.625
REMARK SMILES CCCCCCCCCCCCCCCCCC(=O)[O-]
REMARK SMILES IDX 10 1 11 2 12 3 13 4 14 5 15 6 16 7 17 8 18 9 19 10 20 11
REMARK SMILES IDX 9 12 8 13 7 14 6 15 5 16 4 17 3 18 2 19 1 20
REMARK H PARENT
REMARK Flexibility Score: inf
ROOT
ATOM      1  C   UNL     1      13.587  23.812  24.377  1.00  0.00     0.000 C 
ENDROOT
BRANCH   1   2
ATOM      2  C   UNL     1      14.841  23.024  24.793  1.00  0.00     0.000 C 
BRANCH   2   3
ATOM      3  C   UNL     1      16.133  23.839  24.634  1.00  0.00     0.000 C 
BRANCH   3   4
ATOM      4  C   UNL     1      17.035  23.230  23.555  1.00  0.00     0.000 C 
BRANCH   4   5
ATOM      5  C   UNL     1      17.339  21.757  23.856  1.00  0.00     0.000 C 
BRANCH   5   6
ATOM      6  C   UNL     1      17.519  20.956  22.557  1.00  0.00     0.000 C 
BRANCH   6   7
ATOM      7  C   UNL     1      16.758  19.618  22.572  1.00  0.00     0.006 C 
BRANCH   7   8
ATOM      8  C   UNL     1      15.857  19.417  23.801  1.00  0.00     0.053 C 
BRANCH   8   9
ATOM      9  C   UNL     1      14.807  18.376  23.560  1.00  0.00     0.041 C 
ATOM     10  O   UNL     1      13.650  18.520  24.037  1.00  0.00    -0.550 OA
ATOM     11  O   UNL     1      15.096  17.261  22.784  1.00  0.00    -0.550 OA
ENDBRANCH   8   9
ENDBRANCH   7   8
ENDBRANCH   6   7
ENDBRANCH   5   6
ENDBRANCH   4   5
ENDBRANCH   3   4
ENDBRANCH   2   3
ENDBRANCH   1   2
BRANCH   1  12
ATOM     12  C   UNL     1      13.011  23.338  23.032  1.00  0.00     0.000 C 
BRANCH  12  13
ATOM     13  C   UNL     1      13.089  21.812  22.861  1.00  0.00    -0.000 C 
BRANCH  13  14
ATOM     14  C   UNL     1      13.733  21.396  21.526  1.00  0.00    -0.000 C 
BRANCH  14  15
ATOM     15  C   UNL     1      14.529  22.537  20.871  1.00  0.00    -0.000 C 
BRANCH  15  16
ATOM     16  C   UNL     1      14.211  22.696  19.376  1.00  0.00    -0.000 C 
BRANCH  16  17
ATOM     17  C   UNL     1      12.704  22.826  19.097  1.00  0.00    -0.000 C 
BRANCH  17  18
ATOM     18  C   UNL     1      12.102  24.171  19.560  1.00  0.00    -0.000 C 
BRANCH  18  19
ATOM     19  C   UNL     1      10.587  24.242  19.314  1.00  0.00    -0.003 C 
ATOM     20  C   UNL     1      10.278  24.444  17.834  1.00  0.00     0.004 C 
ENDBRANCH  18  19
ENDBRANCH  17  18
ENDBRANCH  16  17
ENDBRANCH  15  16
ENDBRANCH  14  15
ENDBRANCH  13  14
ENDBRANCH  12  13
ENDBRANCH   1  12
TORSDOF 16
ENDMDL
MODEL 2
REMARK VINA RESULT:    -3.846      8.155     11.270
REMARK INTER + INTRA:         -10.068
REMARK INTER:                  -7.975
REMARK INTRA:                  -2.093
REMARK UNBOUND:                -2.625
REMARK SMILES CCCCCCCCCCCCCCCCCC(=O)[O-]
REMARK SMILES IDX 10 1 11 2 12 3 13 4 14 5 15 6 16 7 17 8 18 9 19 10 20 11
REMARK SMILES IDX 9 12 8 13 7 14 6 15 5 16 4 17 3 18 2 19 1 20
REMARK H PARENT
REMARK Flexibility Score: inf
ROOT
ATOM      1  C   UNL     1      10.996  16.551  28.538  1.00  0.00     0.000 C 
ENDROOT
BRANCH   1   2
ATOM      2  C   UNL     1      12.347  16.272  27.858  1.00  0.00     0.000 C 
BRANCH   2   3
ATOM      3  C   UNL     1      12.562  17.123  26.598  1.00  0.00     0.000 C 
BRANCH   3   4
ATOM      4  C   UNL     1      13.803  18.012  26.741  1.00  0.00     0.000 C 
BRANCH   4   5
ATOM      5  C   UNL     1      13.428  19.498  26.681  1.00  0.00     0.000 C 
BRANCH   5   6
ATOM      6  C   UNL     1      12.446  19.863  27.804  1.00  0.00     0.000 C 
BRANCH   6   7
ATOM      7  C   UNL     1      13.146  20.474  29.032  1.00  0.00     0.006 C 
BRANCH   7   8
ATOM      8  C   UNL     1      12.387  20.280  30.354  1.00  0.00     0.053 C 
BRANCH   8   9
ATOM      9  C   UNL     1      11.138  21.104  30.408  1.00  0.00     0.041 C 
ATOM     10  O   UNL     1      11.138  22.285  29.969  1.00  0.00    -0.550 OA
ATOM     11  O   UNL     1       9.965  20.560  30.916  1.00  0.00    -0.550 OA
ENDBRANCH   8   9
ENDBRANCH   7   8
ENDBRANCH   6   7
ENDBRANCH   5   6
ENDBRANCH   4   5
ENDBRANCH   3   4
ENDBRANCH   2   3
ENDBRANCH   1   2
BRANCH   1  12
ATOM     12  C   UNL     1      10.730  15.617  29.731  1.00  0.00     0.000 C 
BRANCH  12  13
ATOM     13  C   UNL     1      11.824  15.710  30.808  1.00  0.00    -0.000 C 
BRANCH  13  14
ATOM     14  C   UNL     1      11.687  16.967  31.685  1.00  0.00    -0.000 C 
BRANCH  14  15
ATOM     15  C   UNL     1      10.750  16.754  32.885  1.00  0.00    -0.000 C 
BRANCH  15  16
ATOM     16  C   UNL     1       9.395  17.457  32.707  1.00  0.00    -0.000 C 
BRANCH  16  17
ATOM     17  C   UNL     1       8.250  16.478  32.395  1.00  0.00    -0.000 C 
BRANCH  17  18
ATOM     18  C   UNL     1       8.471  15.063  32.972  1.00  0.00    -0.000 C 
BRANCH  18  19
ATOM     19  C   UNL     1       8.262  13.967  31.916  1.00  0.00    -0.003 C 
ATOM     20  C   UNL     1       9.431  12.987  31.900  1.00  0.00     0.004 C 
ENDBRANCH  18  19
ENDBRANCH  17  18
ENDBRANCH  16  17
ENDBRANCH  15  16
ENDBRANCH  14  15
ENDBRANCH  13  14
ENDBRANCH  12  13
ENDBRANCH   1  12
TORSDOF 16
ENDMDL
MODEL 3
REMARK VINA RESULT:    -3.844      6.255      9.156
REMARK INTER + INTRA:         -10.066
REMARK INTER:                  -8.054
REMARK INTRA:                  -2.011
REMARK UNBOUND:                -2.625
REMARK SMILES CCCCCCCCCCCCCCCCCC(=O)[O-]
REMARK SMILES IDX 10 1 11 2 12 3 13 4 14 5 15 6 16 7 17 8 18 9 19 10 20 11
REMARK SMILES IDX 9 12 8 13 7 14 6 15 5 16 4 17 3 18 2 19 1 20
REMARK H PARENT
REMARK Flexibility Score: inf
ROOT
ATOM      1  C   UNL     1      11.081  16.324  28.654  1.00  0.00     0.000 C 
ENDROOT
BRANCH   1   2
ATOM      2  C   UNL     1      12.455  16.569  28.007  1.00  0.00     0.000 C 
BRANCH   2   3
ATOM      3  C   UNL     1      12.427  17.699  26.967  1.00  0.00     0.000 C 
BRANCH   3   4
ATOM      4  C   UNL     1      13.694  18.558  27.056  1.00  0.00     0.000 C 
BRANCH   4   5
ATOM      5  C   UNL     1      14.880  17.863  26.375  1.00  0.00     0.000 C 
BRANCH   5   6
ATOM      6  C   UNL     1      14.927  18.196  24.877  1.00  0.00     0.000 C 
BRANCH   6   7
ATOM      7  C   UNL     1      14.689  19.690  24.590  1.00  0.00     0.006 C 
BRANCH   7   8
ATOM      8  C   UNL     1      15.123  20.142  23.187  1.00  0.00     0.053 C 
BRANCH   8   9
ATOM      9  C   UNL     1      16.577  19.883  22.941  1.00  0.00     0.041 C 
ATOM     10  O   UNL     1      17.453  20.497  23.606  1.00  0.00    -0.550 OA
ATOM     11  O   UNL     1      16.967  18.941  21.997  1.00  0.00    -0.550 OA
ENDBRANCH   8   9
ENDBRANCH   7   8
ENDBRANCH   6   7
ENDBRANCH   5   6
ENDBRANCH   4   5
ENDBRANCH   3   4
ENDBRANCH   2   3
ENDBRANCH   1   2
BRANCH   1  12
ATOM     12  C   UNL     1      11.169  15.450  29.916  1.00  0.00     0.000 C 
BRANCH  12  13
ATOM     13  C   UNL     1      11.838  16.179  31.093  1.00  0.00    -0.000 C 
BRANCH  13  14
ATOM     14  C   UNL     1      11.011  16.097  32.389  1.00  0.00    -0.000 C 
BRANCH  14  15
ATOM     15  C   UNL     1      10.007  17.252  32.526  1.00  0.00    -0.000 C 
BRANCH  15  16
ATOM     16  C   UNL     1      10.608  18.608  32.124  1.00  0.00    -0.000 C 
BRANCH  16  17
ATOM     17  C   UNL     1       9.842  19.284  30.975  1.00  0.00    -0.000 C 
BRANCH  17  18
ATOM     18  C   UNL     1      10.748  19.745  29.812  1.00  0.00    -0.000 C 
BRANCH  18  19
ATOM     19  C   UNL     1      12.233  19.748  30.201  1.00  0.00    -0.003 C 
ATOM     20  C   UNL     1      12.757  21.171  30.369  1.00  0.00     0.004 C 
ENDBRANCH  18  19
ENDBRANCH  17  18
ENDBRANCH  16  17
ENDBRANCH  15  16
ENDBRANCH  14  15
ENDBRANCH  13  14
ENDBRANCH  12  13
ENDBRANCH   1  12
TORSDOF 16
ENDMDL
MODEL 4
REMARK VINA RESULT:    -3.843      2.004      3.658
REMARK INTER + INTRA:         -10.064
REMARK INTER:                  -7.573
REMARK INTRA:                  -2.491
REMARK UNBOUND:                -2.625
REMARK SMILES CCCCCCCCCCCCCCCCCC(=O)[O-]
REMARK SMILES IDX 10 1 11 2 12 3 13 4 14 5 15 6 16 7 17 8 18 9 19 10 20 11
REMARK SMILES IDX 9 12 8 13 7 14 6 15 5 16 4 17 3 18 2 19 1 20
REMARK H PARENT
REMARK Flexibility Score: inf
ROOT
ATOM      1  C   UNL     1      17.014  22.462  23.763  1.00  0.00     0.000 C 
ENDROOT
BRANCH   1   2
ATOM      2  C   UNL     1      15.700  23.250  23.637  1.00  0.00     0.000 C 
BRANCH   2   3
ATOM      3  C   UNL     1      15.298  23.945  24.947  1.00  0.00     0.000 C 
BRANCH   3   4
ATOM      4  C   UNL     1      14.036  23.309  25.540  1.00  0.00     0.000 C 
BRANCH   4   5
ATOM      5  C   UNL     1      13.562  22.125  24.688  1.00  0.00     0.000 C 
BRANCH   5   6
ATOM      6  C   UNL     1      12.602  21.225  25.481  1.00  0.00     0.000 C 
BRANCH   6   7
ATOM      7  C   UNL     1      13.013  19.742  25.453  1.00  0.00     0.006 C 
BRANCH   7   8
ATOM      8  C   UNL     1      13.447  19.180  26.816  1.00  0.00     0.053 C 
BRANCH   8   9
ATOM      9  C   UNL     1      14.090  17.834  26.687  1.00  0.00     0.041 C 
ATOM     10  O   UNL     1      15.273  17.733  26.267  1.00  0.00    -0.550 OA
ATOM     11  O   UNL     1      13.394  16.691  27.059  1.00  0.00    -0.550 OA
ENDBRANCH   8   9
ENDBRANCH   7   8
ENDBRANCH   6   7
ENDBRANCH   5   6
ENDBRANCH   4   5
ENDBRANCH   3   4
ENDBRANCH   2   3
ENDBRANCH   1   2
BRANCH   1  12
ATOM     12  C   UNL     1      17.004  21.160  22.945  1.00  0.00     0.000 C 
BRANCH  12  13
ATOM     13  C   UNL     1      16.416  19.975  23.730  1.00  0.00    -0.000 C 
BRANCH  13  14
ATOM     14  C   UNL     1      15.565  19.043  22.849  1.00  0.00    -0.000 C 
BRANCH  14  15
ATOM     15  C   UNL     1      14.971  19.761  21.626  1.00  0.00    -0.000 C 
BRANCH  15  16
ATOM     16  C   UNL     1      13.456  19.985  21.752  1.00  0.00    -0.000 C 
BRANCH  16  17
ATOM     17  C   UNL     1      12.902  20.938  20.678  1.00  0.00    -0.000 C 
BRANCH  17  18
ATOM     18  C   UNL     1      13.285  22.416  20.904  1.00  0.00    -0.000 C 
BRANCH  18  19
ATOM     19  C   UNL     1      13.333  23.210  19.591  1.00  0.00    -0.003 C 
ATOM     20  C   UNL     1      14.717  23.136  18.952  1.00  0.00     0.004 C 
ENDBRANCH  18  19
ENDBRANCH  17  18
ENDBRANCH  16  17
ENDBRANCH  15  16
ENDBRANCH  14  15
ENDBRANCH  13  14
ENDBRANCH  12  13
ENDBRANCH   1  12
TORSDOF 16
ENDMDL
MODEL 5
REMARK VINA RESULT:    -3.835      3.221      6.495
REMARK INTER + INTRA:         -10.047
REMARK INTER:                  -7.566
REMARK INTRA:                  -2.481
REMARK UNBOUND:                -2.625
REMARK SMILES CCCCCCCCCCCCCCCCCC(=O)[O-]
REMARK SMILES IDX 10 1 11 2 12 3 13 4 14 5 15 6 16 7 17 8 18 9 19 10 20 11
REMARK SMILES IDX 9 12 8 13 7 14 6 15 5 16 4 17 3 18 2 19 1 20
REMARK H PARENT
REMARK Flexibility Score: inf
ROOT
ATOM      1  C   UNL     1      15.284  16.935  21.916  1.00  0.00     0.000 C 
ENDROOT
BRANCH   1   2
ATOM      2  C   UNL     1      16.401  17.151  20.881  1.00  0.00     0.000 C 
BRANCH   2   3
ATOM      3  C   UNL     1      17.281  18.367  21.204  1.00  0.00     0.000 C 
BRANCH   3   4
ATOM      4  C   UNL     1      16.602  19.277  22.234  1.00  0.00     0.000 C 
BRANCH   4   5
ATOM      5  C   UNL     1      16.641  20.744  21.785  1.00  0.00     0.000 C 
BRANCH   5   6
ATOM      6  C   UNL     1      15.234  21.250  21.436  1.00  0.00     0.000 C 
BRANCH   6   7
ATOM      7  C   UNL     1      14.842  22.512  22.227  1.00  0.00     0.006 C 
BRANCH   7   8
ATOM      8  C   UNL     1      15.747  22.810  23.433  1.00  0.00     0.053 C 
BRANCH   8   9
ATOM      9  C   UNL     1      15.056  23.660  24.454  1.00  0.00     0.041 C 
ATOM     10  O   UNL     1      14.099  23.193  25.126  1.00  0.00    -0.550 OA
ATOM     11  O   UNL     1      15.488  24.960  24.684  1.00  0.00    -0.550 OA
ENDBRANCH   8   9
ENDBRANCH   7   8
ENDBRANCH   6   7
ENDBRANCH   5   6
ENDBRANCH   4   5
ENDBRANCH   3   4
ENDBRANCH   2   3
ENDBRANCH   1   2
BRANCH   1  12
ATOM     12  C   UNL     1      14.030  16.286  21.306  1.00  0.00     0.000 C 
BRANCH  12  13
ATOM     13  C   UNL     1      12.728  16.934  21.803  1.00  0.00    -0.000 C 
BRANCH  13  14
ATOM     14  C   UNL     1      12.879  18.444  22.065  1.00  0.00    -0.000 C 
BRANCH  14  15
ATOM     15  C   UNL     1      12.261  18.879  23.404  1.00  0.00    -0.000 C 
BRANCH  15  16
ATOM     16  C   UNL     1      13.033  20.032  24.064  1.00  0.00    -0.000 C 
BRANCH  16  17
ATOM     17  C   UNL     1      13.687  19.628  25.395  1.00  0.00    -0.000 C 
BRANCH  17  18
ATOM     18  C   UNL     1      14.868  18.646  25.233  1.00  0.00    -0.000 C 
BRANCH  18  19
ATOM     19  C   UNL     1      14.983  17.678  26.419  1.00  0.00    -0.003 C 
ATOM     20  C   UNL     1      13.608  17.203  26.879  1.00  0.00     0.004 C 
ENDBRANCH  18  19
ENDBRANCH  17  18
ENDBRANCH  16  17
ENDBRANCH  15  16
ENDBRANCH  14  15
ENDBRANCH  13  14
ENDBRANCH  12  13
ENDBRANCH   1  12
TORSDOF 16
ENDMDL
MODEL 6
REMARK VINA RESULT:    -3.821      2.227      4.707
REMARK INTER + INTRA:         -10.020
REMARK INTER:                  -7.575
REMARK INTRA:                  -2.445
REMARK UNBOUND:                -2.625
REMARK SMILES CCCCCCCCCCCCCCCCCC(=O)[O-]
REMARK SMILES IDX 10 1 11 2 12 3 13 4 14 5 15 6 16 7 17 8 18 9 19 10 20 11
REMARK SMILES IDX 9 12 8 13 7 14 6 15 5 16 4 17 3 18 2 19 1 20
REMARK H PARENT
REMARK Flexibility Score: inf
ROOT
ATOM      1  C   UNL     1      16.728  19.827  21.492  1.00  0.00     0.000 C 
ENDROOT
BRANCH   1   2
ATOM      2  C   UNL     1      16.312  18.352  21.370  1.00  0.00     0.000 C 
BRANCH   2   3
ATOM      3  C   UNL     1      15.435  17.884  22.541  1.00  0.00     0.000 C 
BRANCH   3   4
ATOM      4  C   UNL     1      14.234  18.817  22.734  1.00  0.00     0.000 C 
BRANCH   4   5
ATOM      5  C   UNL     1      13.936  19.032  24.224  1.00  0.00     0.000 C 
BRANCH   5   6
ATOM      6  C   UNL     1      15.043  18.426  25.099  1.00  0.00     0.000 C 
BRANCH   6   7
ATOM      7  C   UNL     1      14.614  18.252  26.567  1.00  0.00     0.006 C 
BRANCH   7   8
ATOM      8  C   UNL     1      13.639  17.089  26.808  1.00  0.00     0.053 C 
BRANCH   8   9
ATOM      9  C   UNL     1      12.292  17.570  27.250  1.00  0.00     0.041 C 
ATOM     10  O   UNL     1      12.152  18.119  28.375  1.00  0.00    -0.550 OA
ATOM     11  O   UNL     1      11.195  17.440  26.408  1.00  0.00    -0.550 OA
ENDBRANCH   8   9
ENDBRANCH   7   8
ENDBRANCH   6   7
ENDBRANCH   5   6
ENDBRANCH   4   5
ENDBRANCH   3   4
ENDBRANCH   2   3
ENDBRANCH   1   2
BRANCH   1  12
ATOM     12  C   UNL     1      17.988  20.017  22.353  1.00  0.00     0.000 C 
BRANCH  12  13
ATOM     13  C   UNL     1      17.676  20.632  23.727  1.00  0.00    -0.000 C 
BRANCH  13  14
ATOM     14  C   UNL     1      17.294  22.121  23.638  1.00  0.00    -0.000 C 
BRANCH  14  15
ATOM     15  C   UNL     1      15.834  22.383  24.041  1.00  0.00    -0.000 C 
BRANCH  15  16
ATOM     16  C   UNL     1      15.050  23.143  22.959  1.00  0.00    -0.000 C 
BRANCH  16  17
ATOM     17  C   UNL     1      13.732  22.448  22.578  1.00  0.00    -0.000 C 
BRANCH  17  18
ATOM     18  C   UNL     1      13.740  21.839  21.159  1.00  0.00    -0.000 C 
BRANCH  18  19
ATOM     19  C   UNL     1      14.314  22.809  20.116  1.00  0.00    -0.003 C 
ATOM     20  C   UNL     1      13.212  23.380  19.228  1.00  0.00     0.004 C 
ENDBRANCH  18  19
ENDBRANCH  17  18
ENDBRANCH  16  17
ENDBRANCH  15  16
ENDBRANCH  14  15
ENDBRANCH  13  14
ENDBRANCH  12  13
ENDBRANCH   1  12
TORSDOF 16
ENDMDL
MODEL 7
REMARK VINA RESULT:    -3.779      4.432      6.562
REMARK INTER + INTRA:          -9.939
REMARK INTER:                  -7.923
REMARK INTRA:                  -2.015
REMARK UNBOUND:                -2.625
REMARK SMILES CCCCCCCCCCCCCCCCCC(=O)[O-]
REMARK SMILES IDX 10 1 11 2 12 3 13 4 14 5 15 6 16 7 17 8 18 9 19 10 20 11
REMARK SMILES IDX 9 12 8 13 7 14 6 15 5 16 4 17 3 18 2 19 1 20
REMARK H PARENT
REMARK Flexibility Score: inf
ROOT
ATOM      1  C   UNL     1      13.272  20.088  23.748  1.00  0.00     0.000 C 
ENDROOT
BRANCH   1   2
ATOM      2  C   UNL     1      13.824  19.834  25.161  1.00  0.00     0.000 C 
BRANCH   2   3
ATOM      3  C   UNL     1      14.791  18.643  25.214  1.00  0.00     0.000 C 
BRANCH   3   4
ATOM      4  C   UNL     1      14.502  17.754  26.429  1.00  0.00     0.000 C 
BRANCH   4   5
ATOM      5  C   UNL     1      13.044  17.901  26.885  1.00  0.00     0.000 C 
BRANCH   5   6
ATOM      6  C   UNL     1      12.596  16.678  27.699  1.00  0.00     0.000 C 
BRANCH   6   7
ATOM      7  C   UNL     1      11.809  17.060  28.965  1.00  0.00     0.006 C 
BRANCH   7   8
ATOM      8  C   UNL     1      11.721  15.943  30.017  1.00  0.00     0.053 C 
BRANCH   8   9
ATOM      9  C   UNL     1      11.406  16.481  31.379  1.00  0.00     0.041 C 
ATOM     10  O   UNL     1      11.410  17.723  31.587  1.00  0.00    -0.550 OA
ATOM     11  O   UNL     1      11.077  15.612  32.412  1.00  0.00    -0.550 OA
ENDBRANCH   8   9
ENDBRANCH   7   8
ENDBRANCH   6   7
ENDBRANCH   5   6
ENDBRANCH   4   5
ENDBRANCH   3   4
ENDBRANCH   2   3
ENDBRANCH   1   2
BRANCH   1  12
ATOM     12  C   UNL     1      14.164  19.487  22.649  1.00  0.00     0.000 C 
BRANCH  12  13
ATOM     13  C   UNL     1      14.635  20.539  21.631  1.00  0.00    -0.000 C 
BRANCH  13  14
ATOM     14  C   UNL     1      16.169  20.618  21.526  1.00  0.00    -0.000 C 
BRANCH  14  15
ATOM     15  C   UNL     1      16.881  19.872  22.666  1.00  0.00    -0.000 C 
BRANCH  15  16
ATOM     16  C   UNL     1      17.770  20.798  23.512  1.00  0.00    -0.000 C 
BRANCH  16  17
ATOM     17  C   UNL     1      17.390  22.282  23.372  1.00  0.00    -0.000 C 
BRANCH  17  18
ATOM     18  C   UNL     1      16.290  22.735  24.356  1.00  0.00    -0.000 C 
BRANCH  18  19
ATOM     19  C   UNL     1      15.237  23.624  23.679  1.00  0.00    -0.003 C 
ATOM     20  C   UNL     1      13.936  23.644  24.477  1.00  0.00     0.004 C 
ENDBRANCH  18  19
ENDBRANCH  17  18
ENDBRANCH  16  17
ENDBRANCH  15  16
ENDBRANCH  14  15
ENDBRANCH  13  14
ENDBRANCH  12  13
ENDBRANCH   1  12
TORSDOF 16
ENDMDL
MODEL 8
REMARK VINA RESULT:    -3.766      3.921      6.706
REMARK INTER + INTRA:          -9.913
REMARK INTER:                  -7.569
REMARK INTRA:                  -2.343
REMARK UNBOUND:                -2.625
REMARK SMILES CCCCCCCCCCCCCCCCCC(=O)[O-]
REMARK SMILES IDX 10 1 11 2 12 3 13 4 14 5 15 6 16 7 17 8 18 9 19 10 20 11
REMARK SMILES IDX 9 12 8 13 7 14 6 15 5 16 4 17 3 18 2 19 1 20
REMARK H PARENT
REMARK Flexibility Score: inf
ROOT
ATOM      1  C   UNL     1      15.513  18.308  21.378  1.00  0.00     0.000 C 
ENDROOT
BRANCH   1   2
ATOM      2  C   UNL     1      16.705  19.086  21.961  1.00  0.00     0.000 C 
BRANCH   2   3
ATOM      3  C   UNL     1      16.478  20.605  21.959  1.00  0.00     0.000 C 
BRANCH   3   4
ATOM      4  C   UNL     1      17.419  21.301  22.950  1.00  0.00     0.000 C 
BRANCH   4   5
ATOM      5  C   UNL     1      16.665  22.343  23.787  1.00  0.00     0.000 C 
BRANCH   5   6
ATOM      6  C   UNL     1      15.379  22.793  23.077  1.00  0.00     0.000 C 
BRANCH   6   7
ATOM      7  C   UNL     1      14.304  23.299  24.056  1.00  0.00     0.006 C 
BRANCH   7   8
ATOM      8  C   UNL     1      14.865  23.955  25.328  1.00  0.00     0.053 C 
BRANCH   8   9
ATOM      9  C   UNL     1      13.970  25.043  25.837  1.00  0.00     0.041 C 
ATOM     10  O   UNL     1      12.868  24.757  26.375  1.00  0.00    -0.550 OA
ATOM     11  O   UNL     1      14.367  26.371  25.745  1.00  0.00    -0.550 OA
ENDBRANCH   8   9
ENDBRANCH   7   8
ENDBRANCH   6   7
ENDBRANCH   5   6
ENDBRANCH   4   5
ENDBRANCH   3   4
ENDBRANCH   2   3
ENDBRANCH   1   2
BRANCH   1  12
ATOM     12  C   UNL     1      14.161  18.963  21.710  1.00  0.00     0.000 C 
BRANCH  12  13
ATOM     13  C   UNL     1      13.434  18.259  22.868  1.00  0.00    -0.000 C 
BRANCH  13  14
ATOM     14  C   UNL     1      12.977  19.239  23.964  1.00  0.00    -0.000 C 
BRANCH  14  15
ATOM     15  C   UNL     1      14.140  19.736  24.837  1.00  0.00    -0.000 C 
BRANCH  15  16
ATOM     16  C   UNL     1      15.091  18.603  25.254  1.00  0.00    -0.000 C 
BRANCH  16  17
ATOM     17  C   UNL     1      14.540  17.759  26.416  1.00  0.00    -0.000 C 
BRANCH  17  18
ATOM     18  C   UNL     1      13.510  18.506  27.291  1.00  0.00    -0.000 C 
BRANCH  18  19
ATOM     19  C   UNL     1      12.296  17.629  27.632  1.00  0.00    -0.003 C 
ATOM     20  C   UNL     1      12.315  16.328  26.835  1.00  0.00     0.004 C 
ENDBRANCH  18  19
ENDBRANCH  17  18
ENDBRANCH  16  17
ENDBRANCH  15  16
ENDBRANCH  14  15
ENDBRANCH  13  14
ENDBRANCH  12  13
ENDBRANCH   1  12
TORSDOF 16
ENDMDL
MODEL 9
REMARK VINA RESULT:    -3.731      3.866      6.559
REMARK INTER + INTRA:          -9.845
REMARK INTER:                  -7.464
REMARK INTRA:                  -2.381
REMARK UNBOUND:                -2.625
REMARK SMILES CCCCCCCCCCCCCCCCCC(=O)[O-]
REMARK SMILES IDX 10 1 11 2 12 3 13 4 14 5 15 6 16 7 17 8 18 9 19 10 20 11
REMARK SMILES IDX 9 12 8 13 7 14 6 15 5 16 4 17 3 18 2 19 1 20
REMARK H PARENT
REMARK Flexibility Score: inf
ROOT
ATOM      1  C   UNL     1      17.135  20.550  21.956  1.00  0.00     0.000 C 
ENDROOT
BRANCH   1   2
ATOM      2  C   UNL     1      17.394  21.003  23.402  1.00  0.00     0.000 C 
BRANCH   2   3
ATOM      3  C   UNL     1      16.592  22.257  23.783  1.00  0.00     0.000 C 
BRANCH   3   4
ATOM      4  C   UNL     1      15.355  22.408  22.891  1.00  0.00     0.000 C 
BRANCH   4   5
ATOM      5  C   UNL     1      14.265  23.227  23.595  1.00  0.00     0.000 C 
BRANCH   5   6
ATOM      6  C   UNL     1      14.302  23.003  25.114  1.00  0.00     0.000 C 
BRANCH   6   7
ATOM      7  C   UNL     1      14.413  24.317  25.908  1.00  0.00     0.006 C 
BRANCH   7   8
ATOM      8  C   UNL     1      13.415  25.403  25.476  1.00  0.00     0.053 C 
BRANCH   8   9
ATOM      9  C   UNL     1      12.016  25.078  25.900  1.00  0.00     0.041 C 
ATOM     10  O   UNL     1      11.729  24.989  27.123  1.00  0.00    -0.550 OA
ATOM     11  O   UNL     1      11.022  24.902  24.946  1.00  0.00    -0.550 OA
ENDBRANCH   8   9
ENDBRANCH   7   8
ENDBRANCH   6   7
ENDBRANCH   5   6
ENDBRANCH   4   5
ENDBRANCH   3   4
ENDBRANCH   2   3
ENDBRANCH   1   2
BRANCH   1  12
ATOM     12  C   UNL     1      17.033  19.021  21.825  1.00  0.00     0.000 C 
BRANCH  12  13
ATOM     13  C   UNL     1      15.662  18.563  21.300  1.00  0.00    -0.000 C 
BRANCH  13  14
ATOM     14  C   UNL     1      15.233  17.198  21.870  1.00  0.00    -0.000 C 
BRANCH  14  15
ATOM     15  C   UNL     1      14.169  17.324  22.972  1.00  0.00    -0.000 C 
BRANCH  15  16
ATOM     16  C   UNL     1      13.699  18.772  23.176  1.00  0.00    -0.000 C 
BRANCH  16  17
ATOM     17  C   UNL     1      14.047  19.322  24.570  1.00  0.00    -0.000 C 
BRANCH  17  18
ATOM     18  C   UNL     1      15.126  18.501  25.309  1.00  0.00    -0.000 C 
BRANCH  18  19
ATOM     19  C   UNL     1      14.690  18.116  26.730  1.00  0.00    -0.003 C 
ATOM     20  C   UNL     1      13.314  17.455  26.724  1.00  0.00     0.004 C 
ENDBRANCH  18  19
ENDBRANCH  17  18
ENDBRANCH  16  17
ENDBRANCH  15  16
ENDBRANCH  14  15
ENDBRANCH  13  14
ENDBRANCH  12  13
ENDBRANCH   1  12
TORSDOF 16
ENDMDL
