MODEL 1
REMARK VINA RESULT:    -3.387      0.000      0.000
REMARK INTER + INTRA:          -6.728
REMARK INTER:                  -5.467
REMARK INTRA:                  -1.262
REMARK UNBOUND:                -1.262
REMARK SMILES CCCCCCCCCCCCO
REMARK SMILES IDX 7 1 6 2 5 3 4 4 3 5 2 6 1 7 8 8 9 9 10 10 11 11 12 12 13 13
REMARK H PARENT 13 14
REMARK Flexibility Score: inf
ROOT
ATOM      1  C   UNL     1     136.916 138.214 129.784  1.00  0.00     0.000 C 
ENDROOT
BRANCH   1   2
ATOM      2  C   UNL     1     136.546 138.063 128.297  1.00  0.00    -0.000 C 
BRANCH   2   3
ATOM      3  C   UNL     1     135.031 137.909 128.073  1.00  0.00    -0.000 C 
BRANCH   3   4
ATOM      4  C   UNL     1     134.338 136.874 128.981  1.00  0.00    -0.000 C 
BRANCH   4   5
ATOM      5  C   UNL     1     134.710 135.403 128.704  1.00  0.00    -0.000 C 
BRANCH   5   6
ATOM      6  C   UNL     1     135.058 134.579 129.956  1.00  0.00    -0.003 C 
ATOM      7  C   UNL     1     134.890 135.368 131.254  1.00  0.00     0.004 C 
ENDBRANCH   5   6
ENDBRANCH   4   5
ENDBRANCH   3   4
ENDBRANCH   2   3
ENDBRANCH   1   2
BRANCH   1   8
ATOM      8  C   UNL     1     138.057 137.275 130.205  1.00  0.00     0.000 C 
BRANCH   8   9
ATOM      9  C   UNL     1     138.976 136.897 129.030  1.00  0.00     0.000 C 
BRANCH   9  10
ATOM     10  C   UNL     1     139.548 135.477 129.161  1.00  0.00     0.002 C 
BRANCH  10  11
ATOM     11  C   UNL     1     138.502 134.386 128.878  1.00  0.00     0.028 C 
BRANCH  11  12
ATOM     12  C   UNL     1     139.014 133.350 127.875  1.00  0.00     0.156 C 
BRANCH  12  13
ATOM     13  O   UNL     1     138.574 132.063 128.222  1.00  0.00    -0.396 OA
ATOM     14  H   UNL     1     139.381 131.490 128.287  1.00  0.00     0.210 HD
ENDBRANCH  12  13
ENDBRANCH  11  12
ENDBRANCH  10  11
ENDBRANCH   9  10
ENDBRANCH   8   9
ENDBRANCH   1   8
TORSDOF 11
ENDMDL
MODEL 2
REMARK VINA RESULT:    -3.347      2.614      3.966
REMARK INTER + INTRA:          -6.663
REMARK INTER:                  -5.055
REMARK INTRA:                  -1.608
REMARK UNBOUND:                -1.262
REMARK SMILES CCCCCCCCCCCCO
REMARK SMILES IDX 7 1 6 2 5 3 4 4 3 5 2 6 1 7 8 8 9 9 10 10 11 11 12 12 13 13
REMARK H PARENT 13 14
REMARK Flexibility Score: inf
ROOT
ATOM      1  C   UNL     1     138.022 140.115 128.893  1.00  0.00     0.000 C 
ENDROOT
BRANCH   1   2
ATOM      2  C   UNL     1     136.864 141.109 129.090  1.00  0.00    -0.000 C 
BRANCH   2   3
ATOM      3  C   UNL     1     135.500 140.524 128.682  1.00  0.00    -0.000 C 
BRANCH   3   4
ATOM      4  C   UNL     1     134.605 140.073 129.854  1.00  0.00    -0.000 C 
BRANCH   4   5
ATOM      5  C   UNL     1     135.139 140.420 131.258  1.00  0.00    -0.000 C 
BRANCH   5   6
ATOM      6  C   UNL     1     135.615 139.213 132.085  1.00  0.00    -0.003 C 
ATOM      7  C   UNL     1     137.099 139.286 132.446  1.00  0.00     0.004 C 
ENDBRANCH   5   6
ENDBRANCH   4   5
ENDBRANCH   3   4
ENDBRANCH   2   3
ENDBRANCH   1   2
BRANCH   1   8
ATOM      8  C   UNL     1     137.568 138.806 128.226  1.00  0.00     0.000 C 
BRANCH   8   9
ATOM      9  C   UNL     1     137.738 137.585 129.147  1.00  0.00     0.000 C 
BRANCH   9  10
ATOM     10  C   UNL     1     136.424 136.820 129.362  1.00  0.00     0.002 C 
BRANCH  10  11
ATOM     11  C   UNL     1     135.558 136.757 128.093  1.00  0.00     0.028 C 
BRANCH  11  12
ATOM     12  C   UNL     1     134.220 136.057 128.348  1.00  0.00     0.156 C 
BRANCH  12  13
ATOM     13  O   UNL     1     134.425 134.763 128.849  1.00  0.00    -0.396 OA
ATOM     14  H   UNL     1     134.020 134.736 129.754  1.00  0.00     0.210 HD
ENDBRANCH  12  13
ENDBRANCH  11  12
ENDBRANCH  10  11
ENDBRANCH   9  10
ENDBRANCH   8   9
ENDBRANCH   1   8
TORSDOF 11
ENDMDL
MODEL 3
REMARK VINA RESULT:    -3.346      2.730      4.366
REMARK INTER + INTRA:          -6.662
REMARK INTER:                  -5.300
REMARK INTRA:                  -1.362
REMARK UNBOUND:                -1.262
REMARK SMILES CCCCCCCCCCCCO
REMARK SMILES IDX 7 1 6 2 5 3 4 4 3 5 2 6 1 7 8 8 9 9 10 10 11 11 12 12 13 13
REMARK H PARENT 13 14
REMARK Flexibility Score: inf
ROOT
ATOM      1  C   UNL     1     135.805 139.260 132.075  1.00  0.00     0.000 C 
ENDROOT
BRANCH   1   2
ATOM      2  C   UNL     1     135.227 140.458 131.301  1.00  0.00    -0.000 C 
BRANCH   2   3
ATOM      3  C   UNL     1     134.623 140.055 129.944  1.00  0.00    -0.000 C 
BRANCH   3   4
ATOM      4  C   UNL     1     135.436 140.495 128.710  1.00  0.00    -0.000 C 
BRANCH   4   5
ATOM      5  C   UNL     1     136.799 141.145 129.020  1.00  0.00    -0.000 C 
BRANCH   5   6
ATOM      6  C   UNL     1     138.014 140.220 128.830  1.00  0.00    -0.003 C 
ATOM      7  C   UNL     1     138.943 140.201 130.043  1.00  0.00     0.004 C 
ENDBRANCH   5   6
ENDBRANCH   4   5
ENDBRANCH   3   4
ENDBRANCH   2   3
ENDBRANCH   1   2
BRANCH   1   8
ATOM      8  C   UNL     1     135.529 137.918 131.377  1.00  0.00     0.000 C 
BRANCH   8   9
ATOM      9  C   UNL     1     136.801 137.290 130.782  1.00  0.00     0.000 C 
BRANCH   9  10
ATOM     10  C   UNL     1     136.559 136.658 129.403  1.00  0.00     0.002 C 
BRANCH  10  11
ATOM     11  C   UNL     1     136.477 135.124 129.458  1.00  0.00     0.028 C 
BRANCH  11  12
ATOM     12  C   UNL     1     135.043 134.634 129.675  1.00  0.00     0.156 C 
BRANCH  12  13
ATOM     13  O   UNL     1     134.203 135.086 128.646  1.00  0.00    -0.396 OA
ATOM     14  H   UNL     1     133.846 134.280 128.190  1.00  0.00     0.210 HD
ENDBRANCH  12  13
ENDBRANCH  11  12
ENDBRANCH  10  11
ENDBRANCH   9  10
ENDBRANCH   8   9
ENDBRANCH   1   8
TORSDOF 11
ENDMDL
MODEL 4
REMARK VINA RESULT:    -3.335      3.606      5.558
REMARK INTER + INTRA:          -6.643
REMARK INTER:                  -5.209
REMARK INTRA:                  -1.435
REMARK UNBOUND:                -1.262
REMARK SMILES CCCCCCCCCCCCO
REMARK SMILES IDX 7 1 6 2 5 3 4 4 3 5 2 6 1 7 8 8 9 9 10 10 11 11 12 12 13 13
REMARK H PARENT 13 14
REMARK Flexibility Score: inf
ROOT
ATOM      1  C   UNL     1     134.471 135.758 128.654  1.00  0.00     0.000 C 
ENDROOT
BRANCH   1   2
ATOM      2  C   UNL     1     135.339 134.847 129.538  1.00  0.00    -0.000 C 
BRANCH   2   3
ATOM      3  C   UNL     1     136.840 134.956 129.215  1.00  0.00    -0.000 C 
BRANCH   3   4
ATOM      4  C   UNL     1     137.666 135.786 130.218  1.00  0.00    -0.000 C 
BRANCH   4   5
ATOM      5  C   UNL     1     137.226 135.665 131.690  1.00  0.00    -0.000 C 
BRANCH   5   6
ATOM      6  C   UNL     1     136.732 136.975 132.327  1.00  0.00    -0.003 C 
ATOM      7  C   UNL     1     135.304 136.876 132.864  1.00  0.00     0.004 C 
ENDBRANCH   5   6
ENDBRANCH   4   5
ENDBRANCH   3   4
ENDBRANCH   2   3
ENDBRANCH   1   2
BRANCH   1   8
ATOM      8  C   UNL     1     134.265 137.153 129.267  1.00  0.00     0.000 C 
BRANCH   8   9
ATOM      9  C   UNL     1     135.118 138.233 128.579  1.00  0.00     0.000 C 
BRANCH   9  10
ATOM     10  C   UNL     1     135.740 139.219 129.579  1.00  0.00     0.002 C 
BRANCH  10  11
ATOM     11  C   UNL     1     134.701 140.167 130.203  1.00  0.00     0.028 C 
BRANCH  11  12
ATOM     12  C   UNL     1     135.004 140.457 131.675  1.00  0.00     0.156 C 
BRANCH  12  13
ATOM     13  O   UNL     1     134.020 141.288 132.230  1.00  0.00    -0.396 OA
ATOM     14  H   UNL     1     134.141 141.261 133.215  1.00  0.00     0.210 HD
ENDBRANCH  12  13
ENDBRANCH  11  12
ENDBRANCH  10  11
ENDBRANCH   9  10
ENDBRANCH   8   9
ENDBRANCH   1   8
TORSDOF 11
ENDMDL
MODEL 5
REMARK VINA RESULT:    -3.331      2.628      5.106
REMARK INTER + INTRA:          -6.637
REMARK INTER:                  -5.325
REMARK INTRA:                  -1.312
REMARK UNBOUND:                -1.262
REMARK SMILES CCCCCCCCCCCCO
REMARK SMILES IDX 7 1 6 2 5 3 4 4 3 5 2 6 1 7 8 8 9 9 10 10 11 11 12 12 13 13
REMARK H PARENT 13 14
REMARK Flexibility Score: inf
ROOT
ATOM      1  C   UNL     1     137.881 135.402 130.679  1.00  0.00     0.000 C 
ENDROOT
BRANCH   1   2
ATOM      2  C   UNL     1     139.313 135.938 130.848  1.00  0.00    -0.000 C 
BRANCH   2   3
ATOM      3  C   UNL     1     140.084 136.010 129.518  1.00  0.00    -0.000 C 
BRANCH   3   4
ATOM      4  C   UNL     1     140.332 137.434 128.982  1.00  0.00    -0.000 C 
BRANCH   4   5
ATOM      5  C   UNL     1     139.082 138.160 128.445  1.00  0.00    -0.000 C 
BRANCH   5   6
ATOM      6  C   UNL     1     138.554 139.289 129.347  1.00  0.00    -0.003 C 
ATOM      7  C   UNL     1     137.164 138.998 129.913  1.00  0.00     0.004 C 
ENDBRANCH   5   6
ENDBRANCH   4   5
ENDBRANCH   3   4
ENDBRANCH   2   3
ENDBRANCH   1   2
BRANCH   1   8
ATOM      8  C   UNL     1     137.643 134.784 129.292  1.00  0.00     0.000 C 
BRANCH   8   9
ATOM      9  C   UNL     1     136.460 135.433 128.551  1.00  0.00     0.000 C 
BRANCH   9  10
ATOM     10  C   UNL     1     135.260 135.697 129.472  1.00  0.00     0.002 C 
BRANCH  10  11
ATOM     11  C   UNL     1     134.325 136.792 128.932  1.00  0.00     0.028 C 
BRANCH  11  12
ATOM     12  C   UNL     1     133.359 136.249 127.876  1.00  0.00     0.156 C 
BRANCH  12  13
ATOM     13  O   UNL     1     132.037 136.605 128.182  1.00  0.00    -0.396 OA
ATOM     14  H   UNL     1     132.037 137.579 128.373  1.00  0.00     0.210 HD
ENDBRANCH  12  13
ENDBRANCH  11  12
ENDBRANCH  10  11
ENDBRANCH   9  10
ENDBRANCH   8   9
ENDBRANCH   1   8
TORSDOF 11
ENDMDL
MODEL 6
REMARK VINA RESULT:    -3.323      3.434      5.607
REMARK INTER + INTRA:          -6.624
REMARK INTER:                  -5.207
REMARK INTRA:                  -1.417
REMARK UNBOUND:                -1.262
REMARK SMILES CCCCCCCCCCCCO
REMARK SMILES IDX 7 1 6 2 5 3 4 4 3 5 2 6 1 7 8 8 9 9 10 10 11 11 12 12 13 13
REMARK H PARENT 13 14
REMARK Flexibility Score: inf
ROOT
ATOM      1  C   UNL     1     138.458 140.174 129.384  1.00  0.00     0.000 C 
ENDROOT
BRANCH   1   2
ATOM      2  C   UNL     1     139.948 140.302 129.746  1.00  0.00    -0.000 C 
BRANCH   2   3
ATOM      3  C   UNL     1     140.605 138.945 130.055  1.00  0.00    -0.000 C 
BRANCH   3   4
ATOM      4  C   UNL     1     139.887 138.100 131.125  1.00  0.00    -0.000 C 
BRANCH   4   5
ATOM      5  C   UNL     1     139.426 136.704 130.659  1.00  0.00    -0.000 C 
BRANCH   5   6
ATOM      6  C   UNL     1     140.343 136.036 129.620  1.00  0.00    -0.003 C 
ATOM      7  C   UNL     1     139.586 135.550 128.384  1.00  0.00     0.004 C 
ENDBRANCH   5   6
ENDBRANCH   4   5
ENDBRANCH   3   4
ENDBRANCH   2   3
ENDBRANCH   1   2
BRANCH   1   8
ATOM      8  C   UNL     1     138.240 139.560 127.992  1.00  0.00     0.000 C 
BRANCH   8   9
ATOM      9  C   UNL     1     137.229 138.399 128.009  1.00  0.00     0.000 C 
BRANCH   9  10
ATOM     10  C   UNL     1     136.503 138.269 129.357  1.00  0.00     0.002 C 
BRANCH  10  11
ATOM     11  C   UNL     1     134.999 138.571 129.253  1.00  0.00     0.028 C 
BRANCH  11  12
ATOM     12  C   UNL     1     134.663 139.980 129.747  1.00  0.00     0.156 C 
BRANCH  12  13
ATOM     13  O   UNL     1     134.871 140.925 128.732  1.00  0.00    -0.396 OA
ATOM     14  H   UNL     1     135.229 140.433 127.949  1.00  0.00     0.210 HD
ENDBRANCH  12  13
ENDBRANCH  11  12
ENDBRANCH  10  11
ENDBRANCH   9  10
ENDBRANCH   8   9
ENDBRANCH   1   8
TORSDOF 11
ENDMDL
MODEL 7
REMARK VINA RESULT:    -3.313      2.999      4.284
REMARK INTER + INTRA:          -6.608
REMARK INTER:                  -5.159
REMARK INTRA:                  -1.449
REMARK UNBOUND:                -1.262
REMARK SMILES CCCCCCCCCCCCO
REMARK SMILES IDX 7 1 6 2 5 3 4 4 3 5 2 6 1 7 8 8 9 9 10 10 11 11 12 12 13 13
REMARK H PARENT 13 14
REMARK Flexibility Score: inf
ROOT
ATOM      1  C   UNL     1     135.010 138.154 129.228  1.00  0.00     0.000 C 
ENDROOT
BRANCH   1   2
ATOM      2  C   UNL     1     134.012 137.009 128.981  1.00  0.00    -0.000 C 
BRANCH   2   3
ATOM      3  C   UNL     1     134.683 135.744 128.416  1.00  0.00    -0.000 C 
BRANCH   3   4
ATOM      4  C   UNL     1     135.571 134.974 129.414  1.00  0.00    -0.000 C 
BRANCH   4   5
ATOM      5  C   UNL     1     137.082 135.009 129.110  1.00  0.00    -0.000 C 
BRANCH   5   6
ATOM      6  C   UNL     1     137.956 135.574 130.244  1.00  0.00    -0.003 C 
ATOM      7  C   UNL     1     137.139 136.046 131.446  1.00  0.00     0.004 C 
ENDBRANCH   5   6
ENDBRANCH   4   5
ENDBRANCH   3   4
ENDBRANCH   2   3
ENDBRANCH   1   2
BRANCH   1   8
ATOM      8  C   UNL     1     135.747 138.580 127.949  1.00  0.00     0.000 C 
BRANCH   8   9
ATOM      9  C   UNL     1     137.251 138.805 128.180  1.00  0.00     0.000 C 
BRANCH   9  10
ATOM     10  C   UNL     1     137.551 139.425 129.553  1.00  0.00     0.002 C 
BRANCH  10  11
ATOM     11  C   UNL     1     138.994 139.170 130.019  1.00  0.00     0.028 C 
BRANCH  11  12
ATOM     12  C   UNL     1     140.017 139.876 129.124  1.00  0.00     0.156 C 
BRANCH  12  13
ATOM     13  O   UNL     1     140.496 141.041 129.742  1.00  0.00    -0.396 OA
ATOM     14  H   UNL     1     139.747 141.415 130.274  1.00  0.00     0.210 HD
ENDBRANCH  12  13
ENDBRANCH  11  12
ENDBRANCH  10  11
ENDBRANCH   9  10
ENDBRANCH   8   9
ENDBRANCH   1   8
TORSDOF 11
ENDMDL
MODEL 8
REMARK VINA RESULT:    -3.281      2.791      4.319
REMARK INTER + INTRA:          -6.557
REMARK INTER:                  -5.121
REMARK INTRA:                  -1.436
REMARK UNBOUND:                -1.262
REMARK SMILES CCCCCCCCCCCCO
REMARK SMILES IDX 7 1 6 2 5 3 4 4 3 5 2 6 1 7 8 8 9 9 10 10 11 11 12 12 13 13
REMARK H PARENT 13 14
REMARK Flexibility Score: inf
ROOT
ATOM      1  C   UNL     1     139.442 135.048 130.696  1.00  0.00     0.000 C 
ENDROOT
BRANCH   1   2
ATOM      2  C   UNL     1     140.290 134.979 129.413  1.00  0.00    -0.000 C 
BRANCH   2   3
ATOM      3  C   UNL     1     139.436 134.993 128.133  1.00  0.00    -0.000 C 
BRANCH   3   4
ATOM      4  C   UNL     1     137.956 134.608 128.330  1.00  0.00    -0.000 C 
BRANCH   4   5
ATOM      5  C   UNL     1     136.943 135.743 128.079  1.00  0.00    -0.000 C 
BRANCH   5   6
ATOM      6  C   UNL     1     135.527 135.475 128.618  1.00  0.00    -0.003 C 
ATOM      7  C   UNL     1     135.524 134.989 130.067  1.00  0.00     0.004 C 
ENDBRANCH   5   6
ENDBRANCH   4   5
ENDBRANCH   3   4
ENDBRANCH   2   3
ENDBRANCH   1   2
BRANCH   1   8
ATOM      8  C   UNL     1     139.559 136.405 131.408  1.00  0.00     0.000 C 
BRANCH   8   9
ATOM      9  C   UNL     1     138.416 137.367 131.038  1.00  0.00     0.000 C 
BRANCH   9  10
ATOM     10  C   UNL     1     138.841 138.419 130.004  1.00  0.00     0.002 C 
BRANCH  10  11
ATOM     11  C   UNL     1     140.361 138.651 129.980  1.00  0.00     0.028 C 
BRANCH  11  12
ATOM     12  C   UNL     1     140.918 138.647 128.555  1.00  0.00     0.156 C 
BRANCH  12  13
ATOM     13  O   UNL     1     141.530 139.874 128.257  1.00  0.00    -0.396 OA
ATOM     14  H   UNL     1     142.309 139.962 128.865  1.00  0.00     0.210 HD
ENDBRANCH  12  13
ENDBRANCH  11  12
ENDBRANCH  10  11
ENDBRANCH   9  10
ENDBRANCH   8   9
ENDBRANCH   1   8
TORSDOF 11
ENDMDL
MODEL 9
REMARK VINA RESULT:    -3.274      2.105      3.817
REMARK INTER + INTRA:          -6.545
REMARK INTER:                  -5.041
REMARK INTRA:                  -1.503
REMARK UNBOUND:                -1.262
REMARK SMILES CCCCCCCCCCCCO
REMARK SMILES IDX 7 1 6 2 5 3 4 4 3 5 2 6 1 7 8 8 9 9 10 10 11 11 12 12 13 13
REMARK H PARENT 13 14
REMARK Flexibility Score: inf
ROOT
ATOM      1  C   UNL     1     135.155 138.057 129.638  1.00  0.00     0.000 C 
ENDROOT
BRANCH   1   2
ATOM      2  C   UNL     1     134.726 139.532 129.731  1.00  0.00    -0.000 C 
BRANCH   2   3
ATOM      3  C   UNL     1     135.514 140.443 128.774  1.00  0.00    -0.000 C 
BRANCH   3   4
ATOM      4  C   UNL     1     136.788 141.074 129.371  1.00  0.00    -0.000 C 
BRANCH   4   5
ATOM      5  C   UNL     1     138.103 140.347 129.028  1.00  0.00    -0.000 C 
BRANCH   5   6
ATOM      6  C   UNL     1     138.967 139.968 130.244  1.00  0.00    -0.003 C 
ATOM      7  C   UNL     1     138.140 139.484 131.435  1.00  0.00     0.004 C 
ENDBRANCH   5   6
ENDBRANCH   4   5
ENDBRANCH   3   4
ENDBRANCH   2   3
ENDBRANCH   1   2
BRANCH   1   8
ATOM      8  C   UNL     1     135.376 137.598 128.188  1.00  0.00     0.000 C 
BRANCH   8   9
ATOM      9  C   UNL     1     136.783 137.018 127.960  1.00  0.00     0.000 C 
BRANCH   9  10
ATOM     10  C   UNL     1     137.432 136.514 129.257  1.00  0.00     0.002 C 
BRANCH  10  11
ATOM     11  C   UNL     1     138.950 136.310 129.123  1.00  0.00     0.028 C 
BRANCH  11  12
ATOM     12  C   UNL     1     139.290 134.986 128.432  1.00  0.00     0.156 C 
BRANCH  12  13
ATOM     13  O   UNL     1     140.491 134.461 128.930  1.00  0.00    -0.396 OA
ATOM     14  H   UNL     1     140.520 133.505 128.665  1.00  0.00     0.210 HD
ENDBRANCH  12  13
ENDBRANCH  11  12
ENDBRANCH  10  11
ENDBRANCH   9  10
ENDBRANCH   8   9
ENDBRANCH   1   8
TORSDOF 11
ENDMDL
