MODEL 1
REMARK VINA RESULT:    -4.258      0.000      0.000
REMARK INTER + INTRA:          -4.630
REMARK INTER:                  -5.254
REMARK INTRA:                   0.624
REMARK UNBOUND:                 0.624
REMARK SMILES C=C1[C@@H]2CC[C@H]3[C@@H]2C(C)(C)CCC[C@@]13C
REMARK SMILES IDX 14 1 6 2 7 3 3 4 2 5 1 6 4 7 5 8 15 9 8 10 9 11 10 12 11 13
REMARK SMILES IDX 13 15 12 16
REMARK H PARENT
REMARK Flexibility Score: 80.00
ROOT
ATOM      1  C   UNL     1     -42.468 -49.890  30.321  1.00  0.00    -0.008 C 
ATOM      2  C   UNL     1     -43.816 -49.074  30.410  1.00  0.00     0.003 C 
ATOM      3  C   UNL     1     -44.926 -50.139  30.299  1.00  0.00     0.006 C 
ATOM      4  C   UNL     1     -44.348 -50.750  29.022  1.00  0.00     0.019 C 
ATOM      5  C   UNL     1     -42.920 -51.007  29.414  1.00  0.00    -0.068 C 
ATOM      6  C   UNL     1     -42.164 -52.011  28.954  1.00  0.00     0.009 C 
ATOM      7  C   UNL     1     -44.332 -49.517  28.088  1.00  0.00     0.008 C 
ATOM      8  C   UNL     1     -44.069 -48.342  29.063  1.00  0.00     0.005 C 
ATOM      9  C   UNL     1     -41.302 -49.095  29.672  1.00  0.00     0.016 C 
ENDROOT
BRANCH   3  10
ATOM     10  C   UNL     1     -45.257 -51.072  31.542  1.00  0.00    -0.032 C 
ATOM     11  C   UNL     1     -46.586 -50.572  32.172  1.00  0.00     0.011 C 
ATOM     12  C   UNL     1     -45.513 -52.536  31.102  1.00  0.00     0.011 C 
BRANCH  10  13
ATOM     13  C   UNL     1     -44.213 -51.024  32.695  1.00  0.00     0.007 CG0
ATOM     14  G   UNL     1     -42.803 -51.484  32.335  1.00  0.00     0.000 G0
ENDBRANCH  10  13
ENDBRANCH   3  10
BRANCH   1  15
ATOM     15  C   UNL     1     -41.973 -50.387  31.706  1.00  0.00     0.011 C 
BRANCH  15  16
ATOM     16  C   UNL     1     -42.801 -51.493  32.353  1.00  0.00     0.001 CG0
ATOM     17  G   UNL     1     -44.214 -51.034  32.705  1.00  0.00     0.000 G0
ENDBRANCH  15  16
ENDBRANCH   1  15
TORSDOF 0
ENDMDL
MODEL 2
REMARK VINA RESULT:    -4.215      9.835     11.951
REMARK INTER + INTRA:          -4.577
REMARK INTER:                  -5.214
REMARK INTRA:                   0.638
REMARK UNBOUND:                 0.624
REMARK SMILES C=C1[C@@H]2CC[C@H]3[C@@H]2C(C)(C)CCC[C@@]13C
REMARK SMILES IDX 14 1 6 2 7 3 3 4 2 5 1 6 4 7 5 8 15 9 8 10 9 11 10 12 11 13
REMARK SMILES IDX 13 15 12 16
REMARK H PARENT
REMARK Flexibility Score: 80.00
ROOT
ATOM      1  C   UNL     1     -49.076 -48.242  22.070  1.00  0.00    -0.008 C 
ATOM      2  C   UNL     1     -49.371 -49.761  22.385  1.00  0.00     0.003 C 
ATOM      3  C   UNL     1     -50.862 -49.949  22.039  1.00  0.00     0.006 C 
ATOM      4  C   UNL     1     -51.312 -48.766  22.899  1.00  0.00     0.019 C 
ATOM      5  C   UNL     1     -50.427 -47.659  22.399  1.00  0.00    -0.068 C 
ATOM      6  C   UNL     1     -50.768 -46.365  22.347  1.00  0.00     0.009 C 
ATOM      7  C   UNL     1     -50.758 -49.182  24.282  1.00  0.00     0.008 C 
ATOM      8  C   UNL     1     -49.468 -49.961  23.923  1.00  0.00     0.005 C 
ATOM      9  C   UNL     1     -47.977 -47.622  22.976  1.00  0.00     0.016 C 
ENDROOT
BRANCH   3  10
ATOM     10  C   UNL     1     -51.319 -50.040  20.520  1.00  0.00    -0.032 C 
ATOM     11  C   UNL     1     -51.659 -51.525  20.214  1.00  0.00     0.011 C 
ATOM     12  C   UNL     1     -52.621 -49.238  20.268  1.00  0.00     0.011 C 
BRANCH  10  13
ATOM     13  C   UNL     1     -50.227 -49.648  19.482  1.00  0.00     0.007 CG0
ATOM     14  G   UNL     1     -49.738 -48.204  19.545  1.00  0.00     0.000 G0
ENDBRANCH  10  13
ENDBRANCH   3  10
BRANCH   1  15
ATOM     15  C   UNL     1     -48.648 -48.006  20.596  1.00  0.00     0.011 C 
BRANCH  15  16
ATOM     16  C   UNL     1     -49.737 -48.200  19.546  1.00  0.00     0.001 CG0
ATOM     17  G   UNL     1     -50.233 -49.642  19.479  1.00  0.00     0.000 G0
ENDBRANCH  15  16
ENDBRANCH   1  15
TORSDOF 0
ENDMDL
MODEL 3
REMARK VINA RESULT:    -4.214     10.653     12.671
REMARK INTER + INTRA:          -4.576
REMARK INTER:                  -5.213
REMARK INTRA:                   0.637
REMARK UNBOUND:                 0.624
REMARK SMILES C=C1[C@@H]2CC[C@H]3[C@@H]2C(C)(C)CCC[C@@]13C
REMARK SMILES IDX 14 1 6 2 7 3 3 4 2 5 1 6 4 7 5 8 15 9 8 10 9 11 10 12 11 13
REMARK SMILES IDX 13 15 12 16
REMARK H PARENT
REMARK Flexibility Score: 80.00
ROOT
ATOM      1  C   UNL     1     -50.135 -47.982  21.444  1.00  0.00    -0.008 C 
ATOM      2  C   UNL     1     -50.208 -47.899  19.869  1.00  0.00     0.003 C 
ATOM      3  C   UNL     1     -50.488 -49.345  19.414  1.00  0.00     0.006 C 
ATOM      4  C   UNL     1     -49.321 -49.927  20.213  1.00  0.00     0.019 C 
ATOM      5  C   UNL     1     -49.574 -49.374  21.588  1.00  0.00    -0.068 C 
ATOM      6  C   UNL     1     -49.262 -49.990  22.734  1.00  0.00     0.009 C 
ATOM      7  C   UNL     1     -48.136 -49.125  19.627  1.00  0.00     0.008 C 
ATOM      8  C   UNL     1     -48.773 -47.754  19.290  1.00  0.00     0.005 C 
ATOM      9  C   UNL     1     -49.175 -46.937  22.077  1.00  0.00     0.016 C 
ENDROOT
BRANCH   3  10
ATOM     10  C   UNL     1     -51.944 -49.961  19.580  1.00  0.00    -0.032 C 
ATOM     11  C   UNL     1     -52.604 -50.008  18.174  1.00  0.00     0.011 C 
ATOM     12  C   UNL     1     -51.889 -51.427  20.079  1.00  0.00     0.011 C 
BRANCH  10  13
ATOM     13  C   UNL     1     -52.915 -49.121  20.460  1.00  0.00     0.007 CG0
ATOM     14  G   UNL     1     -52.512 -48.955  21.922  1.00  0.00     0.000 G0
ENDBRANCH  10  13
ENDBRANCH   3  10
BRANCH   1  15
ATOM     15  C   UNL     1     -51.521 -47.806  22.121  1.00  0.00     0.011 C 
BRANCH  15  16
ATOM     16  C   UNL     1     -52.512 -48.948  21.918  1.00  0.00     0.001 CG0
ATOM     17  G   UNL     1     -52.919 -49.115  20.457  1.00  0.00     0.000 G0
ENDBRANCH  15  16
ENDBRANCH   1  15
TORSDOF 0
ENDMDL
MODEL 4
REMARK VINA RESULT:    -4.123      4.535      6.375
REMARK INTER + INTRA:          -4.463
REMARK INTER:                  -5.095
REMARK INTRA:                   0.632
REMARK UNBOUND:                 0.624
REMARK SMILES C=C1[C@@H]2CC[C@H]3[C@@H]2C(C)(C)CCC[C@@]13C
REMARK SMILES IDX 14 1 6 2 7 3 3 4 2 5 1 6 4 7 5 8 15 9 8 10 9 11 10 12 11 13
REMARK SMILES IDX 13 15 12 16
REMARK H PARENT
REMARK Flexibility Score: 80.00
ROOT
ATOM      1  C   UNL     1     -42.269 -46.919  26.739  1.00  0.00    -0.008 C 
ATOM      2  C   UNL     1     -41.768 -48.339  26.262  1.00  0.00     0.003 C 
ATOM      3  C   UNL     1     -43.025 -49.232  26.308  1.00  0.00     0.006 C 
ATOM      4  C   UNL     1     -43.362 -48.854  27.751  1.00  0.00     0.019 C 
ATOM      5  C   UNL     1     -43.352 -47.352  27.694  1.00  0.00    -0.068 C 
ATOM      6  C   UNL     1     -44.121 -46.549  28.440  1.00  0.00     0.009 C 
ATOM      7  C   UNL     1     -42.061 -49.275  28.475  1.00  0.00     0.008 C 
ATOM      8  C   UNL     1     -40.968 -49.018  27.409  1.00  0.00     0.005 C 
ATOM      9  C   UNL     1     -41.182 -46.095  27.482  1.00  0.00     0.016 C 
ENDROOT
BRANCH   3  10
ATOM     10  C   UNL     1     -44.133 -49.098  25.177  1.00  0.00    -0.032 C 
ATOM     11  C   UNL     1     -44.000 -50.325  24.233  1.00  0.00     0.011 C 
ATOM     12  C   UNL     1     -45.564 -49.164  25.771  1.00  0.00     0.011 C 
BRANCH  10  13
ATOM     13  C   UNL     1     -43.983 -47.854  24.254  1.00  0.00     0.007 CG0
ATOM     14  G   UNL     1     -44.102 -46.497  24.943  1.00  0.00     0.000 G0
ENDBRANCH  10  13
ENDBRANCH   3  10
BRANCH   1  15
ATOM     15  C   UNL     1     -42.794 -46.043  25.570  1.00  0.00     0.011 C 
BRANCH  15  16
ATOM     16  C   UNL     1     -44.108 -46.493  24.938  1.00  0.00     0.001 CG0
ATOM     17  G   UNL     1     -43.991 -47.852  24.254  1.00  0.00     0.000 G0
ENDBRANCH  15  16
ENDBRANCH   1  15
TORSDOF 0
ENDMDL
MODEL 5
REMARK VINA RESULT:    -4.097      2.863      4.880
REMARK INTER + INTRA:          -4.430
REMARK INTER:                  -5.065
REMARK INTRA:                   0.635
REMARK UNBOUND:                 0.624
REMARK SMILES C=C1[C@@H]2CC[C@H]3[C@@H]2C(C)(C)CCC[C@@]13C
REMARK SMILES IDX 14 1 6 2 7 3 3 4 2 5 1 6 4 7 5 8 15 9 8 10 9 11 10 12 11 13
REMARK SMILES IDX 13 15 12 16
REMARK H PARENT
REMARK Flexibility Score: 80.00
ROOT
ATOM      1  C   UNL     1     -43.246 -48.135  26.133  1.00  0.00    -0.008 C 
ATOM      2  C   UNL     1     -41.823 -48.268  26.803  1.00  0.00     0.003 C 
ATOM      3  C   UNL     1     -42.082 -48.078  28.312  1.00  0.00     0.006 C 
ATOM      4  C   UNL     1     -42.847 -46.768  28.116  1.00  0.00     0.019 C 
ATOM      5  C   UNL     1     -43.875 -47.153  27.089  1.00  0.00    -0.068 C 
ATOM      6  C   UNL     1     -45.105 -46.634  27.000  1.00  0.00     0.009 C 
ATOM      7  C   UNL     1     -41.786 -45.917  27.378  1.00  0.00     0.008 C 
ATOM      8  C   UNL     1     -41.008 -46.969  26.549  1.00  0.00     0.005 C 
ATOM      9  C   UNL     1     -43.204 -47.549  24.695  1.00  0.00     0.016 C 
ENDROOT
BRANCH   3  10
ATOM     10  C   UNL     1     -42.734 -49.254  29.158  1.00  0.00    -0.032 C 
ATOM     11  C   UNL     1     -41.613 -49.897  30.022  1.00  0.00     0.011 C 
ATOM     12  C   UNL     1     -43.793 -48.718  30.155  1.00  0.00     0.011 C 
BRANCH  10  13
ATOM     13  C   UNL     1     -43.321 -50.422  28.314  1.00  0.00     0.007 CG0
ATOM     14  G   UNL     1     -44.483 -50.059  27.393  1.00  0.00     0.000 G0
ENDBRANCH  10  13
ENDBRANCH   3  10
BRANCH   1  15
ATOM     15  C   UNL     1     -44.004 -49.489  26.058  1.00  0.00     0.011 C 
BRANCH  15  16
ATOM     16  C   UNL     1     -44.480 -50.061  27.389  1.00  0.00     0.001 CG0
ATOM     17  G   UNL     1     -43.323 -50.420  28.317  1.00  0.00     0.000 G0
ENDBRANCH  15  16
ENDBRANCH   1  15
TORSDOF 0
ENDMDL
MODEL 6
REMARK VINA RESULT:    -4.082      3.243      5.435
REMARK INTER + INTRA:          -4.412
REMARK INTER:                  -5.044
REMARK INTRA:                   0.632
REMARK UNBOUND:                 0.624
REMARK SMILES C=C1[C@@H]2CC[C@H]3[C@@H]2C(C)(C)CCC[C@@]13C
REMARK SMILES IDX 14 1 6 2 7 3 3 4 2 5 1 6 4 7 5 8 15 9 8 10 9 11 10 12 11 13
REMARK SMILES IDX 13 15 12 16
REMARK H PARENT
REMARK Flexibility Score: 80.00
ROOT
ATOM      1  C   UNL     1     -45.011 -47.718  25.981  1.00  0.00    -0.008 C 
ATOM      2  C   UNL     1     -45.070 -49.248  26.368  1.00  0.00     0.003 C 
ATOM      3  C   UNL     1     -43.604 -49.639  26.642  1.00  0.00     0.006 C 
ATOM      4  C   UNL     1     -43.104 -49.086  25.307  1.00  0.00     0.019 C 
ATOM      5  C   UNL     1     -43.657 -47.689  25.317  1.00  0.00    -0.068 C 
ATOM      6  C   UNL     1     -43.075 -46.626  24.748  1.00  0.00     0.009 C 
ATOM      7  C   UNL     1     -43.970 -49.895  24.312  1.00  0.00     0.008 C 
ATOM      8  C   UNL     1     -45.295 -50.098  25.087  1.00  0.00     0.005 C 
ATOM      9  C   UNL     1     -46.120 -47.287  24.982  1.00  0.00     0.016 C 
ENDROOT
BRANCH   3  10
ATOM     10  C   UNL     1     -42.903 -49.189  27.996  1.00  0.00    -0.032 C 
ATOM     11  C   UNL     1     -42.803 -50.436  28.917  1.00  0.00     0.011 C 
ATOM     12  C   UNL     1     -41.448 -48.714  27.753  1.00  0.00     0.011 C 
BRANCH  10  13
ATOM     13  C   UNL     1     -43.691 -48.131  28.822  1.00  0.00     0.007 CG0
ATOM     14  G   UNL     1     -43.905 -46.781  28.143  1.00  0.00     0.000 G0
ENDBRANCH  10  13
ENDBRANCH   3  10
BRANCH   1  15
ATOM     15  C   UNL     1     -45.110 -46.781  27.214  1.00  0.00     0.011 C 
BRANCH  15  16
ATOM     16  C   UNL     1     -43.904 -46.777  28.148  1.00  0.00     0.001 CG0
ATOM     17  G   UNL     1     -43.685 -48.129  28.823  1.00  0.00     0.000 G0
ENDBRANCH  15  16
ENDBRANCH   1  15
TORSDOF 0
ENDMDL
MODEL 7
REMARK VINA RESULT:    -4.051      2.618      4.976
REMARK INTER + INTRA:          -4.374
REMARK INTER:                  -5.000
REMARK INTRA:                   0.626
REMARK UNBOUND:                 0.624
REMARK SMILES C=C1[C@@H]2CC[C@H]3[C@@H]2C(C)(C)CCC[C@@]13C
REMARK SMILES IDX 14 1 6 2 7 3 3 4 2 5 1 6 4 7 5 8 15 9 8 10 9 11 10 12 11 13
REMARK SMILES IDX 13 15 12 16
REMARK H PARENT
REMARK Flexibility Score: 80.00
ROOT
ATOM      1  C   UNL     1     -43.924 -49.144  29.535  1.00  0.00    -0.008 C 
ATOM      2  C   UNL     1     -42.445 -49.203  30.083  1.00  0.00     0.003 C 
ATOM      3  C   UNL     1     -41.565 -49.329  28.823  1.00  0.00     0.006 C 
ATOM      4  C   UNL     1     -42.351 -50.521  28.274  1.00  0.00     0.019 C 
ATOM      5  C   UNL     1     -43.764 -50.011  28.312  1.00  0.00    -0.068 C 
ATOM      6  C   UNL     1     -44.729 -50.352  27.448  1.00  0.00     0.009 C 
ATOM      7  C   UNL     1     -42.214 -51.525  29.442  1.00  0.00     0.008 C 
ATOM      8  C   UNL     1     -42.173 -50.608  30.690  1.00  0.00     0.005 C 
ATOM      9  C   UNL     1     -44.971 -49.754  30.506  1.00  0.00     0.016 C 
ENDROOT
BRANCH   3  10
ATOM     10  C   UNL     1     -41.312 -48.058  27.903  1.00  0.00    -0.032 C 
ATOM     11  C   UNL     1     -39.863 -47.561  28.166  1.00  0.00     0.011 C 
ATOM     12  C   UNL     1     -41.376 -48.423  26.398  1.00  0.00     0.011 C 
BRANCH  10  13
ATOM     13  C   UNL     1     -42.225 -46.835  28.207  1.00  0.00     0.007 CG0
ATOM     14  G   UNL     1     -43.722 -47.056  28.001  1.00  0.00     0.000 G0
ENDBRANCH  10  13
ENDBRANCH   3  10
BRANCH   1  15
ATOM     15  C   UNL     1     -44.386 -47.698  29.206  1.00  0.00     0.011 C 
BRANCH  15  16
ATOM     16  C   UNL     1     -43.721 -47.043  27.999  1.00  0.00     0.001 CG0
ATOM     17  G   UNL     1     -42.223 -46.833  28.201  1.00  0.00     0.000 G0
ENDBRANCH  15  16
ENDBRANCH   1  15
TORSDOF 0
ENDMDL
MODEL 8
REMARK VINA RESULT:    -4.045      9.478     11.500
REMARK INTER + INTRA:          -4.366
REMARK INTER:                  -4.999
REMARK INTRA:                   0.632
REMARK UNBOUND:                 0.624
REMARK SMILES C=C1[C@@H]2CC[C@H]3[C@@H]2C(C)(C)CCC[C@@]13C
REMARK SMILES IDX 14 1 6 2 7 3 3 4 2 5 1 6 4 7 5 8 15 9 8 10 9 11 10 12 11 13
REMARK SMILES IDX 13 15 12 16
REMARK H PARENT
REMARK Flexibility Score: 80.00
ROOT
ATOM      1  C   UNL     1     -50.638 -47.919  23.943  1.00  0.00    -0.008 C 
ATOM      2  C   UNL     1     -52.076 -48.226  23.369  1.00  0.00     0.003 C 
ATOM      3  C   UNL     1     -51.955 -47.972  21.853  1.00  0.00     0.006 C 
ATOM      4  C   UNL     1     -51.358 -46.576  22.035  1.00  0.00     0.019 C 
ATOM      5  C   UNL     1     -50.216 -46.842  22.976  1.00  0.00    -0.068 C 
ATOM      6  C   UNL     1     -49.062 -46.165  22.995  1.00  0.00     0.009 C 
ATOM      7  C   UNL     1     -52.465 -45.890  22.870  1.00  0.00     0.008 C 
ATOM      8  C   UNL     1     -53.035 -47.054  23.718  1.00  0.00     0.005 C 
ATOM      9  C   UNL     1     -50.653 -47.374  25.397  1.00  0.00     0.016 C 
ENDROOT
BRANCH   3  10
ATOM     10  C   UNL     1     -51.217 -49.032  20.928  1.00  0.00    -0.032 C 
ATOM     11  C   UNL     1     -52.303 -49.803  20.126  1.00  0.00     0.011 C 
ATOM     12  C   UNL     1     -50.315 -48.339  19.875  1.00  0.00     0.011 C 
BRANCH  10  13
ATOM     13  C   UNL     1     -50.419 -50.128  21.693  1.00  0.00     0.007 CG0
ATOM     14  G   UNL     1     -49.257 -49.629  22.548  1.00  0.00     0.000 G0
ENDBRANCH  10  13
ENDBRANCH   3  10
BRANCH   1  15
ATOM     15  C   UNL     1     -49.706 -49.160  23.924  1.00  0.00     0.011 C 
BRANCH  15  16
ATOM     16  C   UNL     1     -49.254 -49.634  22.546  1.00  0.00     0.001 CG0
ATOM     17  G   UNL     1     -50.415 -50.132  21.691  1.00  0.00     0.000 G0
ENDBRANCH  15  16
ENDBRANCH   1  15
TORSDOF 0
ENDMDL
MODEL 9
REMARK VINA RESULT:    -4.040      8.872     10.977
REMARK INTER + INTRA:          -4.361
REMARK INTER:                  -4.993
REMARK INTRA:                   0.632
REMARK UNBOUND:                 0.624
REMARK SMILES C=C1[C@@H]2CC[C@H]3[C@@H]2C(C)(C)CCC[C@@]13C
REMARK SMILES IDX 14 1 6 2 7 3 3 4 2 5 1 6 4 7 5 8 15 9 8 10 9 11 10 12 11 13
REMARK SMILES IDX 13 15 12 16
REMARK H PARENT
REMARK Flexibility Score: 80.00
ROOT
ATOM      1  C   UNL     1     -49.387 -47.603  23.996  1.00  0.00    -0.008 C 
ATOM      2  C   UNL     1     -49.134 -49.084  23.514  1.00  0.00     0.003 C 
ATOM      3  C   UNL     1     -50.526 -49.603  23.098  1.00  0.00     0.006 C 
ATOM      4  C   UNL     1     -51.179 -49.205  24.423  1.00  0.00     0.019 C 
ATOM      5  C   UNL     1     -50.781 -47.762  24.549  1.00  0.00    -0.068 C 
ATOM      6  C   UNL     1     -51.515 -46.810  25.139  1.00  0.00     0.009 C 
ATOM      7  C   UNL     1     -50.305 -49.993  25.428  1.00  0.00     0.008 C 
ATOM      8  C   UNL     1     -48.912 -50.000  24.750  1.00  0.00     0.005 C 
ATOM      9  C   UNL     1     -48.407 -47.135  25.107  1.00  0.00     0.016 C 
ENDROOT
BRANCH   3  10
ATOM     10  C   UNL     1     -51.171 -49.128  21.725  1.00  0.00    -0.032 C 
ATOM     11  C   UNL     1     -51.063 -50.305  20.717  1.00  0.00     0.011 C 
ATOM     12  C   UNL     1     -52.684 -48.830  21.881  1.00  0.00     0.011 C 
BRANCH  10  13
ATOM     13  C   UNL     1     -50.447 -47.934  21.039  1.00  0.00     0.007 CG0
ATOM     14  G   UNL     1     -50.435 -46.624  21.823  1.00  0.00     0.000 G0
ENDBRANCH  10  13
ENDBRANCH   3  10
BRANCH   1  15
ATOM     15  C   UNL     1     -49.300 -46.571  22.839  1.00  0.00     0.011 C 
BRANCH  15  16
ATOM     16  C   UNL     1     -50.430 -46.620  21.815  1.00  0.00     0.001 CG0
ATOM     17  G   UNL     1     -50.455 -47.933  21.037  1.00  0.00     0.000 G0
ENDBRANCH  15  16
ENDBRANCH   1  15
TORSDOF 0
ENDMDL
