MODEL 1
REMARK VINA RESULT:     5.922      0.000      0.000
REMARK INTER + INTRA:           6.392
REMARK INTER:                   6.441
REMARK INTRA:                  -0.049
REMARK UNBOUND:                -0.049
REMARK SMILES COc1cc2ccc(=O)oc2cc1O
REMARK SMILES IDX 3 1 13 2 12 3 11 4 5 5 4 6 6 7 7 8 8 9 9 10 10 11 2 12 1 13
REMARK SMILES IDX 14 14
REMARK H PARENT 14 15
REMARK Flexibility Score: inf
ROOT
ATOM      1  C   UNL     1      20.210  43.022  11.765  1.00  0.00     0.161 A 
ATOM      2  C   UNL     1      20.811  41.750  11.838  1.00  0.00     0.161 A 
ATOM      3  C   UNL     1      20.173  40.636  11.279  1.00  0.00     0.098 A 
ATOM      4  C   UNL     1      18.937  40.774  10.645  1.00  0.00     0.142 A 
ATOM      5  C   UNL     1      18.327  42.042  10.566  1.00  0.00     0.022 A 
ATOM      6  C   UNL     1      18.962  43.161  11.125  1.00  0.00     0.062 A 
ATOM      7  C   UNL     1      17.089  42.148   9.925  1.00  0.00     0.019 A 
ATOM      8  C   UNL     1      16.498  41.007   9.385  1.00  0.00     0.094 A 
ATOM      9  C   UNL     1      17.161  39.781   9.501  1.00  0.00     0.336 A 
ATOM     10  O   UNL     1      16.644  38.739   9.019  1.00  0.00    -0.246 OA
ATOM     11  O   UNL     1      18.339  39.709  10.116  1.00  0.00    -0.423 OA
ENDROOT
BRANCH   1  12
ATOM     12  O   UNL     1      20.877  44.119  12.336  1.00  0.00    -0.493 OA
ATOM     13  C   UNL     1      20.249  45.125  13.125  1.00  0.00     0.278 C 
ENDBRANCH   1  12
BRANCH   2  14
ATOM     14  O   UNL     1      22.045  41.573  12.463  1.00  0.00    -0.504 OA
ATOM     15  H   UNL     1      22.881  42.053  12.154  1.00  0.00     0.293 HD
ENDBRANCH   2  14
TORSDOF 2
ENDMDL
MODEL 2
REMARK VINA RESULT:     7.231      1.357      5.378
REMARK INTER + INTRA:           7.815
REMARK INTER:                   6.933
REMARK INTRA:                   0.882
REMARK UNBOUND:                -0.049
REMARK SMILES COc1cc2ccc(=O)oc2cc1O
REMARK SMILES IDX 3 1 13 2 12 3 11 4 5 5 4 6 6 7 7 8 8 9 9 10 10 11 2 12 1 13
REMARK SMILES IDX 14 14
REMARK H PARENT 14 15
REMARK Flexibility Score: inf
ROOT
ATOM      1  C   UNL     1      18.220  40.353  10.269  1.00  0.00     0.161 A 
ATOM      2  C   UNL     1      17.626  41.574   9.894  1.00  0.00     0.161 A 
ATOM      3  C   UNL     1      18.100  42.780  10.423  1.00  0.00     0.098 A 
ATOM      4  C   UNL     1      19.164  42.787  11.327  1.00  0.00     0.142 A 
ATOM      5  C   UNL     1      19.765  41.571  11.709  1.00  0.00     0.022 A 
ATOM      6  C   UNL     1      19.295  40.359  11.182  1.00  0.00     0.062 A 
ATOM      7  C   UNL     1      20.829  41.610  12.616  1.00  0.00     0.019 A 
ATOM      8  C   UNL     1      21.261  42.839  13.112  1.00  0.00     0.094 A 
ATOM      9  C   UNL     1      20.616  44.005  12.688  1.00  0.00     0.336 A 
ATOM     10  O   UNL     1      20.991  45.125  13.124  1.00  0.00    -0.246 OA
ATOM     11  O   UNL     1      19.606  43.939  11.824  1.00  0.00    -0.423 OA
ENDROOT
BRANCH   1  12
ATOM     12  O   UNL     1      17.722  39.160   9.719  1.00  0.00    -0.493 OA
ATOM     13  C   UNL     1      16.508  39.055   8.983  1.00  0.00     0.278 C 
ENDBRANCH   1  12
BRANCH   2  14
ATOM     14  O   UNL     1      16.562  41.607   8.993  1.00  0.00    -0.504 OA
ATOM     15  H   UNL     1      15.606  41.434   9.279  1.00  0.00     0.293 HD
ENDBRANCH   2  14
TORSDOF 2
ENDMDL
MODEL 3
REMARK VINA RESULT:     7.725      1.210      4.826
REMARK INTER + INTRA:           8.353
REMARK INTER:                   8.416
REMARK INTRA:                  -0.063
REMARK UNBOUND:                -0.049
REMARK SMILES COc1cc2ccc(=O)oc2cc1O
REMARK SMILES IDX 3 1 13 2 12 3 11 4 5 5 4 6 6 7 7 8 8 9 9 10 10 11 2 12 1 13
REMARK SMILES IDX 14 14
REMARK H PARENT 14 15
REMARK Flexibility Score: inf
ROOT
ATOM      1  C   UNL     1      17.230  41.075   9.926  1.00  0.00     0.161 A 
ATOM      2  C   UNL     1      18.094  39.967  10.015  1.00  0.00     0.161 A 
ATOM      3  C   UNL     1      19.320  40.081  10.681  1.00  0.00     0.098 A 
ATOM      4  C   UNL     1      19.698  41.292  11.264  1.00  0.00     0.142 A 
ATOM      5  C   UNL     1      18.840  42.407  11.181  1.00  0.00     0.022 A 
ATOM      6  C   UNL     1      17.611  42.298  10.515  1.00  0.00     0.062 A 
ATOM      7  C   UNL     1      19.247  43.606  11.775  1.00  0.00     0.019 A 
ATOM      8  C   UNL     1      20.478  43.665  12.426  1.00  0.00     0.094 A 
ATOM      9  C   UNL     1      21.277  42.518  12.468  1.00  0.00     0.336 A 
ATOM     10  O   UNL     1      22.393  42.550  13.052  1.00  0.00    -0.246 OA
ATOM     11  O   UNL     1      20.866  41.390  11.895  1.00  0.00    -0.423 OA
ENDROOT
BRANCH   1  12
ATOM     12  O   UNL     1      16.006  40.927   9.251  1.00  0.00    -0.493 OA
ATOM     13  C   UNL     1      14.733  40.879   9.886  1.00  0.00     0.278 C 
ENDBRANCH   1  12
BRANCH   2  14
ATOM     14  O   UNL     1      17.751  38.740   9.446  1.00  0.00    -0.504 OA
ATOM     15  H   UNL     1      18.180  37.871   9.737  1.00  0.00     0.293 HD
ENDBRANCH   2  14
TORSDOF 2
ENDMDL
