MODEL 1
REMARK VINA RESULT:    -4.833      0.000      0.000
REMARK INTER + INTRA:          -9.886
REMARK INTER:                  -8.506
REMARK INTRA:                  -1.381
REMARK UNBOUND:                -1.381
REMARK SMILES CCCCCCC=CCCCCCCCC(=O)[O-]
REMARK SMILES IDX 10 1 11 2 12 3 13 4 14 5 15 6 16 7 17 8 18 9 9 10 8 11 7 12
REMARK SMILES IDX 6 13 5 14 4 15 3 16 2 17 1 18
REMARK H PARENT
REMARK Flexibility Score: inf
ROOT
ATOM      1  C   UNL     1       5.759  42.605  14.716  1.00  0.00     0.004 C 
ENDROOT
BRANCH   1   2
ATOM      2  C   UNL     1       5.016  41.524  15.515  1.00  0.00     0.000 C 
BRANCH   2   3
ATOM      3  C   UNL     1       4.571  40.341  14.640  1.00  0.00     0.000 C 
BRANCH   3   4
ATOM      4  C   UNL     1       4.827  40.581  13.144  1.00  0.00     0.000 C 
BRANCH   4   5
ATOM      5  C   UNL     1       3.660  40.054  12.296  1.00  0.00     0.006 C 
BRANCH   5   6
ATOM      6  C   UNL     1       4.141  39.271  11.067  1.00  0.00     0.053 C 
BRANCH   6   7
ATOM      7  C   UNL     1       3.049  39.098  10.055  1.00  0.00     0.041 C 
ATOM      8  O   UNL     1       2.218  40.023   9.858  1.00  0.00    -0.550 OA
ATOM      9  O   UNL     1       2.930  37.904   9.357  1.00  0.00    -0.550 OA
ENDBRANCH   6   7
ENDBRANCH   5   6
ENDBRANCH   4   5
ENDBRANCH   3   4
ENDBRANCH   2   3
ENDBRANCH   1   2
BRANCH   1  10
ATOM     10  C   UNL     1       4.885  43.851  14.535  1.00  0.00     0.027 C 
BRANCH  10  11
ATOM     11  C   UNL     1       5.232  44.911  15.542  1.00  0.00    -0.031 C 
ATOM     12  C   UNL     1       6.310  44.803  16.335  1.00  0.00    -0.031 C 
BRANCH  12  13
ATOM     13  C   UNL     1       6.657  45.864  17.342  1.00  0.00     0.027 C 
BRANCH  13  14
ATOM     14  C   UNL     1       5.962  45.599  18.686  1.00  0.00     0.004 C 
BRANCH  14  15
ATOM     15  C   UNL     1       4.713  46.473  18.896  1.00  0.00     0.000 C 
BRANCH  15  16
ATOM     16  C   UNL     1       3.369  45.722  18.809  1.00  0.00    -0.000 C 
BRANCH  16  17
ATOM     17  C   UNL     1       3.460  44.202  19.026  1.00  0.00    -0.003 C 
ATOM     18  C   UNL     1       2.854  43.397  17.878  1.00  0.00     0.004 C 
ENDBRANCH  16  17
ENDBRANCH  15  16
ENDBRANCH  14  15
ENDBRANCH  13  14
ENDBRANCH  12  13
ENDBRANCH  10  11
ENDBRANCH   1  10
TORSDOF 13
ENDMDL
MODEL 2
REMARK VINA RESULT:    -4.803     12.215     14.667
REMARK INTER + INTRA:          -9.833
REMARK INTER:                  -7.879
REMARK INTRA:                  -1.954
REMARK UNBOUND:                -1.381
REMARK SMILES CCCCCCC=CCCCCCCCC(=O)[O-]
REMARK SMILES IDX 10 1 11 2 12 3 13 4 14 5 15 6 16 7 17 8 18 9 9 10 8 11 7 12
REMARK SMILES IDX 6 13 5 14 4 15 3 16 2 17 1 18
REMARK H PARENT
REMARK Flexibility Score: inf
ROOT
ATOM      1  C   UNL     1       5.447  31.086   8.715  1.00  0.00     0.004 C 
ENDROOT
BRANCH   1   2
ATOM      2  C   UNL     1       5.659  32.239   7.722  1.00  0.00     0.000 C 
BRANCH   2   3
ATOM      3  C   UNL     1       4.890  33.510   8.117  1.00  0.00     0.000 C 
BRANCH   3   4
ATOM      4  C   UNL     1       4.683  34.469   6.934  1.00  0.00     0.000 C 
BRANCH   4   5
ATOM      5  C   UNL     1       4.875  33.739   5.596  1.00  0.00     0.006 C 
BRANCH   5   6
ATOM      6  C   UNL     1       5.386  34.673   4.491  1.00  0.00     0.053 C 
BRANCH   6   7
ATOM      7  C   UNL     1       6.868  34.878   4.578  1.00  0.00     0.041 C 
ATOM      8  O   UNL     1       7.404  35.867   4.012  1.00  0.00    -0.550 OA
ATOM      9  O   UNL     1       7.660  33.959   5.255  1.00  0.00    -0.550 OA
ENDBRANCH   6   7
ENDBRANCH   5   6
ENDBRANCH   4   5
ENDBRANCH   3   4
ENDBRANCH   2   3
ENDBRANCH   1   2
BRANCH   1  10
ATOM     10  C   UNL     1       4.901  29.843   8.003  1.00  0.00     0.027 C 
BRANCH  10  11
ATOM     11  C   UNL     1       4.296  30.198   6.674  1.00  0.00    -0.031 C 
ATOM     12  C   UNL     1       3.566  29.315   5.974  1.00  0.00    -0.031 C 
BRANCH  12  13
ATOM     13  C   UNL     1       2.960  29.671   4.645  1.00  0.00     0.027 C 
BRANCH  13  14
ATOM     14  C   UNL     1       2.023  30.881   4.772  1.00  0.00     0.004 C 
BRANCH  14  15
ATOM     15  C   UNL     1       0.752  30.570   5.581  1.00  0.00     0.000 C 
BRANCH  15  16
ATOM     16  C   UNL     1       0.717  31.178   6.999  1.00  0.00    -0.000 C 
BRANCH  16  17
ATOM     17  C   UNL     1       1.539  32.467   7.172  1.00  0.00    -0.003 C 
ATOM     18  C   UNL     1       0.691  33.660   7.611  1.00  0.00     0.004 C 
ENDBRANCH  16  17
ENDBRANCH  15  16
ENDBRANCH  14  15
ENDBRANCH  13  14
ENDBRANCH  12  13
ENDBRANCH  10  11
ENDBRANCH   1  10
TORSDOF 13
ENDMDL
MODEL 3
REMARK VINA RESULT:    -4.740      2.529      3.249
REMARK INTER + INTRA:          -9.723
REMARK INTER:                  -8.772
REMARK INTRA:                  -0.951
REMARK UNBOUND:                -1.381
REMARK SMILES CCCCCCC=CCCCCCCCC(=O)[O-]
REMARK SMILES IDX 10 1 11 2 12 3 13 4 14 5 15 6 16 7 17 8 18 9 9 10 8 11 7 12
REMARK SMILES IDX 6 13 5 14 4 15 3 16 2 17 1 18
REMARK H PARENT
REMARK Flexibility Score: inf
ROOT
ATOM      1  C   UNL     1       4.638  43.367  15.026  1.00  0.00     0.004 C 
ENDROOT
BRANCH   1   2
ATOM      2  C   UNL     1       5.603  42.417  14.301  1.00  0.00     0.000 C 
BRANCH   2   3
ATOM      3  C   UNL     1       5.672  41.028  14.956  1.00  0.00     0.000 C 
BRANCH   3   4
ATOM      4  C   UNL     1       4.707  40.020  14.312  1.00  0.00     0.000 C 
BRANCH   4   5
ATOM      5  C   UNL     1       4.632  40.227  12.792  1.00  0.00     0.006 C 
BRANCH   5   6
ATOM      6  C   UNL     1       3.230  39.949  12.235  1.00  0.00     0.053 C 
BRANCH   6   7
ATOM      7  C   UNL     1       3.271  39.580  10.783  1.00  0.00     0.041 C 
ATOM      8  O   UNL     1       4.240  38.918  10.326  1.00  0.00    -0.550 OA
ATOM      9  O   UNL     1       2.258  39.997   9.929  1.00  0.00    -0.550 OA
ENDBRANCH   6   7
ENDBRANCH   5   6
ENDBRANCH   4   5
ENDBRANCH   3   4
ENDBRANCH   2   3
ENDBRANCH   1   2
BRANCH   1  10
ATOM     10  C   UNL     1       5.272  44.748  15.221  1.00  0.00     0.027 C 
BRANCH  10  11
ATOM     11  C   UNL     1       6.010  44.830  16.528  1.00  0.00    -0.031 C 
ATOM     12  C   UNL     1       7.264  44.369  16.658  1.00  0.00    -0.031 C 
BRANCH  12  13
ATOM     13  C   UNL     1       8.001  44.451  17.966  1.00  0.00     0.027 C 
BRANCH  13  14
ATOM     14  C   UNL     1       8.772  43.153  18.248  1.00  0.00     0.004 C 
BRANCH  14  15
ATOM     15  C   UNL     1       8.082  42.264  19.297  1.00  0.00     0.000 C 
BRANCH  15  16
ATOM     16  C   UNL     1       7.141  41.186  18.721  1.00  0.00    -0.000 C 
BRANCH  16  17
ATOM     17  C   UNL     1       6.896  39.979  19.643  1.00  0.00    -0.003 C 
ATOM     18  C   UNL     1       8.190  39.320  20.120  1.00  0.00     0.004 C 
ENDBRANCH  16  17
ENDBRANCH  15  16
ENDBRANCH  14  15
ENDBRANCH  13  14
ENDBRANCH  12  13
ENDBRANCH  10  11
ENDBRANCH   1  10
TORSDOF 13
ENDMDL
MODEL 4
REMARK VINA RESULT:    -4.733     10.776     12.373
REMARK INTER + INTRA:          -9.711
REMARK INTER:                  -8.195
REMARK INTRA:                  -1.516
REMARK UNBOUND:                -1.381
REMARK SMILES CCCCCCC=CCCCCCCCC(=O)[O-]
REMARK SMILES IDX 10 1 11 2 12 3 13 4 14 5 15 6 16 7 17 8 18 9 9 10 8 11 7 12
REMARK SMILES IDX 6 13 5 14 4 15 3 16 2 17 1 18
REMARK H PARENT
REMARK Flexibility Score: inf
ROOT
ATOM      1  C   UNL     1      -7.950  37.722  16.466  1.00  0.00     0.004 C 
ENDROOT
BRANCH   1   2
ATOM      2  C   UNL     1      -9.072  36.711  16.189  1.00  0.00     0.000 C 
BRANCH   2   3
ATOM      3  C   UNL     1      -8.803  35.337  16.825  1.00  0.00     0.000 C 
BRANCH   3   4
ATOM      4  C   UNL     1      -8.948  34.182  15.823  1.00  0.00     0.000 C 
BRANCH   4   5
ATOM      5  C   UNL     1      -7.604  33.867  15.150  1.00  0.00     0.006 C 
BRANCH   5   6
ATOM      6  C   UNL     1      -7.644  34.098  13.633  1.00  0.00     0.053 C 
BRANCH   6   7
ATOM      7  C   UNL     1      -6.517  34.973  13.174  1.00  0.00     0.041 C 
ATOM      8  O   UNL     1      -6.559  36.215  13.377  1.00  0.00    -0.550 OA
ATOM      9  O   UNL     1      -5.439  34.422  12.494  1.00  0.00    -0.550 OA
ENDBRANCH   6   7
ENDBRANCH   5   6
ENDBRANCH   4   5
ENDBRANCH   3   4
ENDBRANCH   2   3
ENDBRANCH   1   2
BRANCH   1  10
ATOM     10  C   UNL     1      -6.669  37.009  16.914  1.00  0.00     0.027 C 
BRANCH  10  11
ATOM     11  C   UNL     1      -5.978  37.769  18.012  1.00  0.00    -0.031 C 
ATOM     12  C   UNL     1      -6.513  38.880  18.542  1.00  0.00    -0.031 C 
BRANCH  12  13
ATOM     13  C   UNL     1      -5.822  39.639  19.641  1.00  0.00     0.027 C 
BRANCH  13  14
ATOM     14  C   UNL     1      -5.884  41.153  19.390  1.00  0.00     0.004 C 
BRANCH  14  15
ATOM     15  C   UNL     1      -4.577  41.716  18.804  1.00  0.00     0.000 C 
BRANCH  15  16
ATOM     16  C   UNL     1      -3.374  40.751  18.850  1.00  0.00    -0.000 C 
BRANCH  16  17
ATOM     17  C   UNL     1      -2.552  40.678  17.552  1.00  0.00    -0.003 C 
ATOM     18  C   UNL     1      -2.761  39.373  16.786  1.00  0.00     0.004 C 
ENDBRANCH  16  17
ENDBRANCH  15  16
ENDBRANCH  14  15
ENDBRANCH  13  14
ENDBRANCH  12  13
ENDBRANCH  10  11
ENDBRANCH   1  10
TORSDOF 13
ENDMDL
MODEL 5
REMARK VINA RESULT:    -4.699     11.688     13.744
REMARK INTER + INTRA:          -9.650
REMARK INTER:                  -7.404
REMARK INTRA:                  -2.246
REMARK UNBOUND:                -1.381
REMARK SMILES CCCCCCC=CCCCCCCCC(=O)[O-]
REMARK SMILES IDX 10 1 11 2 12 3 13 4 14 5 15 6 16 7 17 8 18 9 9 10 8 11 7 12
REMARK SMILES IDX 6 13 5 14 4 15 3 16 2 17 1 18
REMARK H PARENT
REMARK Flexibility Score: inf
ROOT
ATOM      1  C   UNL     1       5.164  30.405   7.217  1.00  0.00     0.004 C 
ENDROOT
BRANCH   1   2
ATOM      2  C   UNL     1       3.778  29.768   7.038  1.00  0.00     0.000 C 
BRANCH   2   3
ATOM      3  C   UNL     1       2.844  30.618   6.162  1.00  0.00     0.000 C 
BRANCH   3   4
ATOM      4  C   UNL     1       1.480  30.872   6.823  1.00  0.00     0.000 C 
BRANCH   4   5
ATOM      5  C   UNL     1       1.383  32.314   7.343  1.00  0.00     0.006 C 
BRANCH   5   6
ATOM      6  C   UNL     1       0.675  33.245   6.350  1.00  0.00     0.053 C 
BRANCH   6   7
ATOM      7  C   UNL     1       0.559  34.641   6.882  1.00  0.00     0.041 C 
ATOM      8  O   UNL     1       0.786  34.875   8.098  1.00  0.00    -0.550 OA
ATOM      9  O   UNL     1       0.167  35.676   6.043  1.00  0.00    -0.550 OA
ENDBRANCH   6   7
ENDBRANCH   5   6
ENDBRANCH   4   5
ENDBRANCH   3   4
ENDBRANCH   2   3
ENDBRANCH   1   2
BRANCH   1  10
ATOM     10  C   UNL     1       5.287  31.075   8.590  1.00  0.00     0.027 C 
BRANCH  10  11
ATOM     11  C   UNL     1       4.849  32.512   8.535  1.00  0.00    -0.031 C 
ATOM     12  C   UNL     1       5.015  33.256   7.431  1.00  0.00    -0.031 C 
BRANCH  12  13
ATOM     13  C   UNL     1       4.576  34.694   7.376  1.00  0.00     0.027 C 
BRANCH  13  14
ATOM     14  C   UNL     1       4.006  35.045   5.993  1.00  0.00     0.004 C 
BRANCH  14  15
ATOM     15  C   UNL     1       4.274  33.954   4.942  1.00  0.00     0.000 C 
BRANCH  15  16
ATOM     16  C   UNL     1       5.296  34.336   3.851  1.00  0.00    -0.000 C 
BRANCH  16  17
ATOM     17  C   UNL     1       6.577  35.011   4.371  1.00  0.00    -0.003 C 
ATOM     18  C   UNL     1       7.597  34.013   4.917  1.00  0.00     0.004 C 
ENDBRANCH  16  17
ENDBRANCH  15  16
ENDBRANCH  14  15
ENDBRANCH  13  14
ENDBRANCH  12  13
ENDBRANCH  10  11
ENDBRANCH   1  10
TORSDOF 13
ENDMDL
MODEL 6
REMARK VINA RESULT:    -4.681     13.148     15.156
REMARK INTER + INTRA:          -9.620
REMARK INTER:                  -8.237
REMARK INTRA:                  -1.382
REMARK UNBOUND:                -1.381
REMARK SMILES CCCCCCC=CCCCCCCCC(=O)[O-]
REMARK SMILES IDX 10 1 11 2 12 3 13 4 14 5 15 6 16 7 17 8 18 9 9 10 8 11 7 12
REMARK SMILES IDX 6 13 5 14 4 15 3 16 2 17 1 18
REMARK H PARENT
REMARK Flexibility Score: inf
ROOT
ATOM      1  C   UNL     1      -0.610  33.009   7.243  1.00  0.00     0.004 C 
ENDROOT
BRANCH   1   2
ATOM      2  C   UNL     1      -1.814  33.680   6.564  1.00  0.00     0.000 C 
BRANCH   2   3
ATOM      3  C   UNL     1      -2.079  33.133   5.152  1.00  0.00     0.000 C 
BRANCH   3   4
ATOM      4  C   UNL     1      -2.053  34.230   4.077  1.00  0.00     0.000 C 
BRANCH   4   5
ATOM      5  C   UNL     1      -1.959  35.623   4.717  1.00  0.00     0.006 C 
BRANCH   5   6
ATOM      6  C   UNL     1      -2.717  36.687   3.911  1.00  0.00     0.053 C 
BRANCH   6   7
ATOM      7  C   UNL     1      -3.957  37.142   4.618  1.00  0.00     0.041 C 
ATOM      8  O   UNL     1      -4.254  36.663   5.744  1.00  0.00    -0.550 OA
ATOM      9  O   UNL     1      -4.800  38.069   4.019  1.00  0.00    -0.550 OA
ENDBRANCH   6   7
ENDBRANCH   5   6
ENDBRANCH   4   5
ENDBRANCH   3   4
ENDBRANCH   2   3
ENDBRANCH   1   2
BRANCH   1  10
ATOM     10  C   UNL     1       0.693  33.734   6.889  1.00  0.00     0.027 C 
BRANCH  10  11
ATOM     11  C   UNL     1       1.733  32.772   6.386  1.00  0.00    -0.031 C 
ATOM     12  C   UNL     1       1.548  32.060   5.264  1.00  0.00    -0.031 C 
BRANCH  12  13
ATOM     13  C   UNL     1       2.589  31.098   4.761  1.00  0.00     0.027 C 
BRANCH  13  14
ATOM     14  C   UNL     1       2.484  29.745   5.481  1.00  0.00     0.004 C 
BRANCH  14  15
ATOM     15  C   UNL     1       3.840  29.241   6.007  1.00  0.00     0.000 C 
BRANCH  15  16
ATOM     16  C   UNL     1       4.249  29.792   7.388  1.00  0.00    -0.000 C 
BRANCH  16  17
ATOM     17  C   UNL     1       5.192  31.007   7.349  1.00  0.00    -0.003 C 
ATOM     18  C   UNL     1       5.201  31.798   8.656  1.00  0.00     0.004 C 
ENDBRANCH  16  17
ENDBRANCH  15  16
ENDBRANCH  14  15
ENDBRANCH  13  14
ENDBRANCH  12  13
ENDBRANCH  10  11
ENDBRANCH   1  10
TORSDOF 13
ENDMDL
MODEL 7
REMARK VINA RESULT:    -4.632     11.917     14.539
REMARK INTER + INTRA:          -9.532
REMARK INTER:                  -7.510
REMARK INTRA:                  -2.022
REMARK UNBOUND:                -1.381
REMARK SMILES CCCCCCC=CCCCCCCCC(=O)[O-]
REMARK SMILES IDX 10 1 11 2 12 3 13 4 14 5 15 6 16 7 17 8 18 9 9 10 8 11 7 12
REMARK SMILES IDX 6 13 5 14 4 15 3 16 2 17 1 18
REMARK H PARENT
REMARK Flexibility Score: inf
ROOT
ATOM      1  C   UNL     1       5.250  32.511   8.362  1.00  0.00     0.004 C 
ENDROOT
BRANCH   1   2
ATOM      2  C   UNL     1       5.903  32.758   6.994  1.00  0.00     0.000 C 
BRANCH   2   3
ATOM      3  C   UNL     1       5.145  33.799   6.154  1.00  0.00     0.000 C 
BRANCH   3   4
ATOM      4  C   UNL     1       4.299  34.751   7.013  1.00  0.00     0.000 C 
BRANCH   4   5
ATOM      5  C   UNL     1       2.825  34.715   6.581  1.00  0.00     0.006 C 
BRANCH   5   6
ATOM      6  C   UNL     1       2.542  35.652   5.400  1.00  0.00     0.053 C 
BRANCH   6   7
ATOM      7  C   UNL     1       1.096  35.631   5.007  1.00  0.00     0.041 C 
ATOM      8  O   UNL     1       0.768  35.422   3.810  1.00  0.00    -0.550 OA
ATOM      9  O   UNL     1       0.113  35.875   5.958  1.00  0.00    -0.550 OA
ENDBRANCH   6   7
ENDBRANCH   5   6
ENDBRANCH   4   5
ENDBRANCH   3   4
ENDBRANCH   2   3
ENDBRANCH   1   2
BRANCH   1  10
ATOM     10  C   UNL     1       5.263  31.019   8.714  1.00  0.00     0.027 C 
BRANCH  10  11
ATOM     11  C   UNL     1       5.083  30.168   7.487  1.00  0.00    -0.031 C 
ATOM     12  C   UNL     1       3.879  29.999   6.920  1.00  0.00    -0.031 C 
BRANCH  12  13
ATOM     13  C   UNL     1       3.699  29.149   5.693  1.00  0.00     0.027 C 
BRANCH  13  14
ATOM     14  C   UNL     1       2.791  29.844   4.667  1.00  0.00     0.004 C 
BRANCH  14  15
ATOM     15  C   UNL     1       2.516  31.318   5.015  1.00  0.00     0.000 C 
BRANCH  15  16
ATOM     16  C   UNL     1       1.132  31.843   4.580  1.00  0.00    -0.000 C 
BRANCH  16  17
ATOM     17  C   UNL     1       0.177  32.190   5.735  1.00  0.00    -0.003 C 
ATOM     18  C   UNL     1       0.670  31.683   7.089  1.00  0.00     0.004 C 
ENDBRANCH  16  17
ENDBRANCH  15  16
ENDBRANCH  14  15
ENDBRANCH  13  14
ENDBRANCH  12  13
ENDBRANCH  10  11
ENDBRANCH   1  10
TORSDOF 13
ENDMDL
MODEL 8
REMARK VINA RESULT:    -4.590     11.361     13.952
REMARK INTER + INTRA:          -9.459
REMARK INTER:                  -7.191
REMARK INTRA:                  -2.269
REMARK UNBOUND:                -1.381
REMARK SMILES CCCCCCC=CCCCCCCCC(=O)[O-]
REMARK SMILES IDX 10 1 11 2 12 3 13 4 14 5 15 6 16 7 17 8 18 9 9 10 8 11 7 12
REMARK SMILES IDX 6 13 5 14 4 15 3 16 2 17 1 18
REMARK H PARENT
REMARK Flexibility Score: inf
ROOT
ATOM      1  C   UNL     1       5.419  34.752   4.314  1.00  0.00     0.004 C 
ENDROOT
BRANCH   1   2
ATOM      2  C   UNL     1       4.327  33.761   3.881  1.00  0.00     0.000 C 
BRANCH   2   3
ATOM      3  C   UNL     1       3.028  34.462   3.452  1.00  0.00     0.000 C 
BRANCH   3   4
ATOM      4  C   UNL     1       2.713  35.700   4.304  1.00  0.00     0.000 C 
BRANCH   4   5
ATOM      5  C   UNL     1       1.665  35.374   5.379  1.00  0.00     0.006 C 
BRANCH   5   6
ATOM      6  C   UNL     1       2.197  35.604   6.800  1.00  0.00     0.053 C 
BRANCH   6   7
ATOM      7  C   UNL     1       1.115  35.467   7.828  1.00  0.00     0.041 C 
ATOM      8  O   UNL     1       0.240  34.570   7.709  1.00  0.00    -0.550 OA
ATOM      9  O   UNL     1       1.055  36.351   8.898  1.00  0.00    -0.550 OA
ENDBRANCH   6   7
ENDBRANCH   5   6
ENDBRANCH   4   5
ENDBRANCH   3   4
ENDBRANCH   2   3
ENDBRANCH   1   2
BRANCH   1  10
ATOM     10  C   UNL     1       6.240  34.188   5.479  1.00  0.00     0.027 C 
BRANCH  10  11
ATOM     11  C   UNL     1       5.350  33.577   6.526  1.00  0.00    -0.031 C 
ATOM     12  C   UNL     1       5.801  32.635   7.369  1.00  0.00    -0.031 C 
BRANCH  12  13
ATOM     13  C   UNL     1       4.911  32.025   8.417  1.00  0.00     0.027 C 
BRANCH  13  14
ATOM     14  C   UNL     1       5.028  30.493   8.417  1.00  0.00     0.004 C 
BRANCH  14  15
ATOM     15  C   UNL     1       4.938  29.886   7.006  1.00  0.00     0.000 C 
BRANCH  15  16
ATOM     16  C   UNL     1       3.505  29.689   6.472  1.00  0.00    -0.000 C 
BRANCH  16  17
ATOM     17  C   UNL     1       3.042  30.742   5.450  1.00  0.00    -0.003 C 
ATOM     18  C   UNL     1       2.008  31.712   6.019  1.00  0.00     0.004 C 
ENDBRANCH  16  17
ENDBRANCH  15  16
ENDBRANCH  14  15
ENDBRANCH  13  14
ENDBRANCH  12  13
ENDBRANCH  10  11
ENDBRANCH   1  10
TORSDOF 13
ENDMDL
MODEL 9
REMARK VINA RESULT:    -4.511     12.077     14.086
REMARK INTER + INTRA:          -9.321
REMARK INTER:                  -7.101
REMARK INTRA:                  -2.219
REMARK UNBOUND:                -1.381
REMARK SMILES CCCCCCC=CCCCCCCCC(=O)[O-]
REMARK SMILES IDX 10 1 11 2 12 3 13 4 14 5 15 6 16 7 17 8 18 9 9 10 8 11 7 12
REMARK SMILES IDX 6 13 5 14 4 15 3 16 2 17 1 18
REMARK H PARENT
REMARK Flexibility Score: inf
ROOT
ATOM      1  C   UNL     1       3.952  29.804   7.403  1.00  0.00     0.004 C 
ENDROOT
BRANCH   1   2
ATOM      2  C   UNL     1       3.752  29.566   5.898  1.00  0.00     0.000 C 
BRANCH   2   3
ATOM      3  C   UNL     1       2.613  30.414   5.310  1.00  0.00     0.000 C 
BRANCH   3   4
ATOM      4  C   UNL     1       1.283  30.216   6.051  1.00  0.00     0.000 C 
BRANCH   4   5
ATOM      5  C   UNL     1       0.581  31.561   6.289  1.00  0.00     0.006 C 
BRANCH   5   6
ATOM      6  C   UNL     1       1.298  32.412   7.347  1.00  0.00     0.053 C 
BRANCH   6   7
ATOM      7  C   UNL     1       0.502  33.627   7.715  1.00  0.00     0.041 C 
ATOM      8  O   UNL     1      -0.732  33.530   7.943  1.00  0.00    -0.550 OA
ATOM      9  O   UNL     1       1.117  34.871   7.773  1.00  0.00    -0.550 OA
ENDBRANCH   6   7
ENDBRANCH   5   6
ENDBRANCH   4   5
ENDBRANCH   3   4
ENDBRANCH   2   3
ENDBRANCH   1   2
BRANCH   1  10
ATOM     10  C   UNL     1       5.246  30.582   7.667  1.00  0.00     0.027 C 
BRANCH  10  11
ATOM     11  C   UNL     1       5.205  31.941   7.027  1.00  0.00    -0.031 C 
ATOM     12  C   UNL     1       4.798  33.026   7.705  1.00  0.00    -0.031 C 
BRANCH  12  13
ATOM     13  C   UNL     1       4.759  34.386   7.065  1.00  0.00     0.027 C 
BRANCH  13  14
ATOM     14  C   UNL     1       5.530  34.394   5.737  1.00  0.00     0.004 C 
BRANCH  14  15
ATOM     15  C   UNL     1       4.644  34.762   4.533  1.00  0.00     0.000 C 
BRANCH  15  16
ATOM     16  C   UNL     1       3.455  33.811   4.285  1.00  0.00    -0.000 C 
BRANCH  16  17
ATOM     17  C   UNL     1       2.072  34.486   4.295  1.00  0.00    -0.003 C 
ATOM     18  C   UNL     1       2.143  35.987   4.571  1.00  0.00     0.004 C 
ENDBRANCH  16  17
ENDBRANCH  15  16
ENDBRANCH  14  15
ENDBRANCH  13  14
ENDBRANCH  12  13
ENDBRANCH  10  11
ENDBRANCH   1  10
TORSDOF 13
ENDMDL
