MODEL 1
REMARK VINA RESULT:    -5.316      0.000      0.000
REMARK INTER + INTRA:          -6.401
REMARK INTER:                  -6.249
REMARK INTRA:                  -0.152
REMARK UNBOUND:                -0.152
REMARK SMILES O=c1c(O)c(-c2ccc(O)c(O)c2)oc2cc(O)ccc12
REMARK SMILES IDX 5 1 3 2 2 3 1 4 21 5 15 6 14 7 16 8 17 9 19 10 20 11 6 12
REMARK SMILES IDX 7 13 8 14 9 15 13 16 11 17 10 18 12 20 4 22 18 24
REMARK H PARENT 10 19 12 21 4 23 18 25
REMARK Flexibility Score: inf
ROOT
ATOM      1  C   UNL     1      -3.879   6.744   7.237  1.00  0.00     0.180 A 
ATOM      2  C   UNL     1      -3.769   7.247   5.924  1.00  0.00     0.208 A 
ATOM      3  C   UNL     1      -2.648   8.022   5.588  1.00  0.00     0.235 A 
ATOM      4  O   UNL     1      -2.533   8.493   4.423  1.00  0.00    -0.285 OA
ATOM      5  C   UNL     1      -1.658   8.260   6.555  1.00  0.00     0.069 A 
ATOM      6  C   UNL     1      -1.830   7.701   7.839  1.00  0.00     0.142 A 
ATOM      7  O   UNL     1      -2.911   6.981   8.120  1.00  0.00    -0.452 OA
ATOM      8  C   UNL     1      -0.861   7.907   8.828  1.00  0.00     0.094 A 
ATOM      9  C   UNL     1       0.282   8.669   8.548  1.00  0.00     0.119 A 
ATOM     10  C   UNL     1       0.453   9.225   7.276  1.00  0.00     0.047 A 
ATOM     11  C   UNL     1      -0.509   9.024   6.281  1.00  0.00     0.020 A 
ENDROOT
BRANCH   1  12
ATOM     12  C   UNL     1      -5.038   5.935   7.675  1.00  0.00     0.025 A 
ATOM     13  C   UNL     1      -6.344   6.457   7.659  1.00  0.00     0.016 A 
ATOM     14  C   UNL     1      -7.421   5.683   8.099  1.00  0.00     0.051 A 
ATOM     15  C   UNL     1      -7.208   4.381   8.573  1.00  0.00     0.157 A 
ATOM     16  C   UNL     1      -4.829   4.637   8.170  1.00  0.00     0.062 A 
ATOM     17  C   UNL     1      -5.909   3.859   8.610  1.00  0.00     0.158 A 
BRANCH  15  18
ATOM     18  O   UNL     1      -8.279   3.606   9.011  1.00  0.00    -0.504 OA
ATOM     19  H   UNL     1      -8.593   3.632   9.974  1.00  0.00     0.293 HD
ENDBRANCH  15  18
BRANCH  17  20
ATOM     20  O   UNL     1      -5.699   2.567   9.089  1.00  0.00    -0.504 OA
ATOM     21  H   UNL     1      -4.800   2.278   9.459  1.00  0.00     0.293 HD
ENDBRANCH  17  20
ENDBRANCH   1  12
BRANCH   2  22
ATOM     22  O   UNL     1      -4.746   6.953   4.969  1.00  0.00    -0.502 OA
ATOM     23  H   UNL     1      -5.629   7.448   4.927  1.00  0.00     0.293 HD
ENDBRANCH   2  22
BRANCH   9  24
ATOM     24  O   UNL     1       1.251   8.879   9.525  1.00  0.00    -0.508 OA
ATOM     25  H   UNL     1       2.199   8.538   9.414  1.00  0.00     0.293 HD
ENDBRANCH   9  24
TORSDOF 5
ENDMDL
MODEL 2
REMARK VINA RESULT:    -5.217      1.893      7.181
REMARK INTER + INTRA:          -6.284
REMARK INTER:                  -5.992
REMARK INTRA:                  -0.292
REMARK UNBOUND:                -0.152
REMARK SMILES O=c1c(O)c(-c2ccc(O)c(O)c2)oc2cc(O)ccc12
REMARK SMILES IDX 5 1 3 2 2 3 1 4 21 5 15 6 14 7 16 8 17 9 19 10 20 11 6 12
REMARK SMILES IDX 7 13 8 14 9 15 13 16 11 17 10 18 12 20 4 22 18 24
REMARK H PARENT 10 19 12 21 4 23 18 25
REMARK Flexibility Score: inf
ROOT
ATOM      1  C   UNL     1      -5.725   5.619   7.877  1.00  0.00     0.180 A 
ATOM      2  C   UNL     1      -7.005   6.199   7.779  1.00  0.00     0.208 A 
ATOM      3  C   UNL     1      -8.127   5.423   8.113  1.00  0.00     0.235 A 
ATOM      4  O   UNL     1      -9.285   5.916   8.022  1.00  0.00    -0.285 OA
ATOM      5  C   UNL     1      -7.946   4.103   8.554  1.00  0.00     0.069 A 
ATOM      6  C   UNL     1      -6.630   3.603   8.648  1.00  0.00     0.142 A 
ATOM      7  O   UNL     1      -5.596   4.367   8.314  1.00  0.00    -0.452 OA
ATOM      8  C   UNL     1      -6.408   2.295   9.093  1.00  0.00     0.094 A 
ATOM      9  C   UNL     1      -7.489   1.476   9.445  1.00  0.00     0.119 A 
ATOM     10  C   UNL     1      -8.795   1.969   9.350  1.00  0.00     0.047 A 
ATOM     11  C   UNL     1      -9.027   3.274   8.908  1.00  0.00     0.020 A 
ENDROOT
BRANCH   1  12
ATOM     12  C   UNL     1      -4.494   6.364   7.527  1.00  0.00     0.025 A 
ATOM     13  C   UNL     1      -3.712   6.992   8.512  1.00  0.00     0.016 A 
ATOM     14  C   UNL     1      -2.567   7.710   8.156  1.00  0.00     0.051 A 
ATOM     15  C   UNL     1      -2.195   7.822   6.810  1.00  0.00     0.157 A 
ATOM     16  C   UNL     1      -4.128   6.498   6.177  1.00  0.00     0.062 A 
ATOM     17  C   UNL     1      -2.979   7.217   5.819  1.00  0.00     0.158 A 
BRANCH  15  18
ATOM     18  O   UNL     1      -1.054   8.536   6.450  1.00  0.00    -0.504 OA
ATOM     19  H   UNL     1      -1.071   9.221   5.704  1.00  0.00     0.293 HD
ENDBRANCH  15  18
BRANCH  17  20
ATOM     20  O   UNL     1      -2.610   7.337   4.480  1.00  0.00    -0.504 OA
ATOM     21  H   UNL     1      -2.247   6.547   3.958  1.00  0.00     0.293 HD
ENDBRANCH  17  20
ENDBRANCH   1  12
BRANCH   2  22
ATOM     22  O   UNL     1      -7.151   7.531   7.384  1.00  0.00    -0.502 OA
ATOM     23  H   UNL     1      -7.543   7.791   6.487  1.00  0.00     0.293 HD
ENDBRANCH   2  22
BRANCH   9  24
ATOM     24  O   UNL     1      -7.277   0.173   9.888  1.00  0.00    -0.508 OA
ATOM     25  H   UNL     1      -6.437  -0.339   9.645  1.00  0.00     0.293 HD
ENDBRANCH   9  24
TORSDOF 5
ENDMDL
MODEL 3
REMARK VINA RESULT:    -4.945      1.708      6.679
REMARK INTER + INTRA:          -5.964
REMARK INTER:                  -5.644
REMARK INTRA:                  -0.321
REMARK UNBOUND:                -0.152
REMARK SMILES O=c1c(O)c(-c2ccc(O)c(O)c2)oc2cc(O)ccc12
REMARK SMILES IDX 5 1 3 2 2 3 1 4 21 5 15 6 14 7 16 8 17 9 19 10 20 11 6 12
REMARK SMILES IDX 7 13 8 14 9 15 13 16 11 17 10 18 12 20 4 22 18 24
REMARK H PARENT 10 19 12 21 4 23 18 25
REMARK Flexibility Score: inf
ROOT
ATOM      1  C   UNL     1      -4.446   6.992   7.033  1.00  0.00     0.180 A 
ATOM      2  C   UNL     1      -5.735   7.534   6.853  1.00  0.00     0.208 A 
ATOM      3  C   UNL     1      -6.846   6.798   7.296  1.00  0.00     0.235 A 
ATOM      4  O   UNL     1      -8.011   7.257   7.135  1.00  0.00    -0.285 OA
ATOM      5  C   UNL     1      -6.648   5.558   7.923  1.00  0.00     0.069 A 
ATOM      6  C   UNL     1      -5.324   5.096   8.088  1.00  0.00     0.142 A 
ATOM      7  O   UNL     1      -4.301   5.818   7.646  1.00  0.00    -0.452 OA
ATOM      8  C   UNL     1      -5.085   3.869   8.717  1.00  0.00     0.094 A 
ATOM      9  C   UNL     1      -6.155   3.095   9.184  1.00  0.00     0.119 A 
ATOM     10  C   UNL     1      -7.467   3.551   9.020  1.00  0.00     0.047 A 
ATOM     11  C   UNL     1      -7.717   4.775   8.394  1.00  0.00     0.020 A 
ENDROOT
BRANCH   1  12
ATOM     12  C   UNL     1      -3.226   7.696   6.578  1.00  0.00     0.025 A 
ATOM     13  C   UNL     1      -2.676   7.458   5.305  1.00  0.00     0.016 A 
ATOM     14  C   UNL     1      -1.510   8.117   4.905  1.00  0.00     0.051 A 
ATOM     15  C   UNL     1      -0.870   9.011   5.774  1.00  0.00     0.157 A 
ATOM     16  C   UNL     1      -2.569   8.578   7.452  1.00  0.00     0.062 A 
ATOM     17  C   UNL     1      -1.400   9.239   7.050  1.00  0.00     0.158 A 
BRANCH  15  18
ATOM     18  O   UNL     1       0.291   9.671   5.378  1.00  0.00    -0.504 OA
ATOM     19  H   UNL     1       1.193   9.442   5.779  1.00  0.00     0.293 HD
ENDBRANCH  15  18
BRANCH  17  20
ATOM     20  O   UNL     1      -0.757  10.124   7.914  1.00  0.00    -0.504 OA
ATOM     21  H   UNL     1      -0.579   9.883   8.883  1.00  0.00     0.293 HD
ENDBRANCH  17  20
ENDBRANCH   1  12
BRANCH   2  22
ATOM     22  O   UNL     1      -5.899   8.793   6.270  1.00  0.00    -0.502 OA
ATOM     23  H   UNL     1      -6.793   9.269   6.251  1.00  0.00     0.293 HD
ENDBRANCH   2  22
BRANCH   9  24
ATOM     24  O   UNL     1      -5.926   1.873   9.811  1.00  0.00    -0.508 OA
ATOM     25  H   UNL     1      -5.124   1.299   9.575  1.00  0.00     0.293 HD
ENDBRANCH   9  24
TORSDOF 5
ENDMDL
MODEL 4
REMARK VINA RESULT:    -4.736      2.219      7.460
REMARK INTER + INTRA:          -5.719
REMARK INTER:                  -5.434
REMARK INTRA:                  -0.285
REMARK UNBOUND:                -0.152
REMARK SMILES O=c1c(O)c(-c2ccc(O)c(O)c2)oc2cc(O)ccc12
REMARK SMILES IDX 5 1 3 2 2 3 1 4 21 5 15 6 14 7 16 8 17 9 19 10 20 11 6 12
REMARK SMILES IDX 7 13 8 14 9 15 13 16 11 17 10 18 12 20 4 22 18 24
REMARK H PARENT 10 19 12 21 4 23 18 25
REMARK Flexibility Score: inf
ROOT
ATOM      1  C   UNL     1      -6.135   5.110   8.285  1.00  0.00     0.180 A 
ATOM      2  C   UNL     1      -7.423   5.673   8.398  1.00  0.00     0.208 A 
ATOM      3  C   UNL     1      -8.519   4.819   8.599  1.00  0.00     0.235 A 
ATOM      4  O   UNL     1      -9.683   5.298   8.692  1.00  0.00    -0.285 OA
ATOM      5  C   UNL     1      -8.307   3.436   8.701  1.00  0.00     0.069 A 
ATOM      6  C   UNL     1      -6.984   2.953   8.602  1.00  0.00     0.142 A 
ATOM      7  O   UNL     1      -5.975   3.794   8.403  1.00  0.00    -0.452 OA
ATOM      8  C   UNL     1      -6.730   1.581   8.708  1.00  0.00     0.094 A 
ATOM      9  C   UNL     1      -7.786   0.681   8.913  1.00  0.00     0.119 A 
ATOM     10  C   UNL     1      -9.097   1.158   9.011  1.00  0.00     0.047 A 
ATOM     11  C   UNL     1      -9.361   2.527   8.907  1.00  0.00     0.020 A 
ENDROOT
BRANCH   1  12
ATOM     12  C   UNL     1      -4.931   5.941   8.055  1.00  0.00     0.025 A 
ATOM     13  C   UNL     1      -4.632   6.460   6.783  1.00  0.00     0.016 A 
ATOM     14  C   UNL     1      -3.478   7.222   6.584  1.00  0.00     0.051 A 
ATOM     15  C   UNL     1      -2.600   7.464   7.648  1.00  0.00     0.157 A 
ATOM     16  C   UNL     1      -4.036   6.170   9.114  1.00  0.00     0.062 A 
ATOM     17  C   UNL     1      -2.879   6.935   8.914  1.00  0.00     0.158 A 
BRANCH  15  18
ATOM     18  O   UNL     1      -1.448   8.225   7.454  1.00  0.00    -0.504 OA
ATOM     19  H   UNL     1      -0.657   7.865   6.933  1.00  0.00     0.293 HD
ENDBRANCH  15  18
BRANCH  17  20
ATOM     20  O   UNL     1      -1.999   7.172   9.970  1.00  0.00    -0.504 OA
ATOM     21  H   UNL     1      -1.784   6.453  10.652  1.00  0.00     0.293 HD
ENDBRANCH  17  20
ENDBRANCH   1  12
BRANCH   2  22
ATOM     22  O   UNL     1      -7.598   7.058   8.342  1.00  0.00    -0.502 OA
ATOM     23  H   UNL     1      -6.839   7.691   8.116  1.00  0.00     0.293 HD
ENDBRANCH   2  22
BRANCH   9  24
ATOM     24  O   UNL     1      -7.542  -0.685   9.021  1.00  0.00    -0.508 OA
ATOM     25  H   UNL     1      -7.885  -1.341   8.329  1.00  0.00     0.293 HD
ENDBRANCH   9  24
TORSDOF 5
ENDMDL
MODEL 5
REMARK VINA RESULT:    -4.575      2.034      6.392
REMARK INTER + INTRA:          -5.529
REMARK INTER:                  -5.316
REMARK INTRA:                  -0.214
REMARK UNBOUND:                -0.152
REMARK SMILES O=c1c(O)c(-c2ccc(O)c(O)c2)oc2cc(O)ccc12
REMARK SMILES IDX 5 1 3 2 2 3 1 4 21 5 15 6 14 7 16 8 17 9 19 10 20 11 6 12
REMARK SMILES IDX 7 13 8 14 9 15 13 16 11 17 10 18 12 20 4 22 18 24
REMARK H PARENT 10 19 12 21 4 23 18 25
REMARK Flexibility Score: inf
ROOT
ATOM      1  C   UNL     1      -3.667   7.741   7.268  1.00  0.00     0.180 A 
ATOM      2  C   UNL     1      -4.109   7.614   5.935  1.00  0.00     0.208 A 
ATOM      3  C   UNL     1      -5.453   7.283   5.697  1.00  0.00     0.235 A 
ATOM      4  O   UNL     1      -5.870   7.152   4.513  1.00  0.00    -0.285 OA
ATOM      5  C   UNL     1      -6.323   7.107   6.784  1.00  0.00     0.069 A 
ATOM      6  C   UNL     1      -5.809   7.275   8.087  1.00  0.00     0.142 A 
ATOM      7  O   UNL     1      -4.529   7.579   8.270  1.00  0.00    -0.452 OA
ATOM      8  C   UNL     1      -6.648   7.117   9.196  1.00  0.00     0.094 A 
ATOM      9  C   UNL     1      -7.999   6.791   9.019  1.00  0.00     0.119 A 
ATOM     10  C   UNL     1      -8.510   6.623   7.728  1.00  0.00     0.047 A 
ATOM     11  C   UNL     1      -7.681   6.779   6.613  1.00  0.00     0.020 A 
ENDROOT
BRANCH   1  12
ATOM     12  C   UNL     1      -2.263   8.069   7.603  1.00  0.00     0.025 A 
ATOM     13  C   UNL     1      -1.730   9.346   7.351  1.00  0.00     0.016 A 
ATOM     14  C   UNL     1      -0.395   9.627   7.654  1.00  0.00     0.051 A 
ATOM     15  C   UNL     1       0.429   8.635   8.200  1.00  0.00     0.157 A 
ATOM     16  C   UNL     1      -1.426   7.072   8.130  1.00  0.00     0.062 A 
ATOM     17  C   UNL     1      -0.087   7.354   8.435  1.00  0.00     0.158 A 
BRANCH  15  18
ATOM     18  O   UNL     1       1.760   8.911   8.504  1.00  0.00    -0.504 OA
ATOM     19  H   UNL     1       2.235   9.720   8.120  1.00  0.00     0.293 HD
ENDBRANCH  15  18
BRANCH  17  20
ATOM     20  O   UNL     1       0.738   6.366   8.971  1.00  0.00    -0.504 OA
ATOM     21  H   UNL     1       1.038   5.570   8.420  1.00  0.00     0.293 HD
ENDBRANCH  17  20
ENDBRANCH   1  12
BRANCH   2  22
ATOM     22  O   UNL     1      -3.231   7.844   4.873  1.00  0.00    -0.502 OA
ATOM     23  H   UNL     1      -2.712   8.708   4.777  1.00  0.00     0.293 HD
ENDBRANCH   2  22
BRANCH   9  24
ATOM     24  O   UNL     1      -8.840   6.632  10.117  1.00  0.00    -0.508 OA
ATOM     25  H   UNL     1      -8.689   5.898  10.799  1.00  0.00     0.293 HD
ENDBRANCH   9  24
TORSDOF 5
ENDMDL
MODEL 6
REMARK VINA RESULT:    -4.352      2.473      3.662
REMARK INTER + INTRA:          -5.268
REMARK INTER:                  -4.957
REMARK INTRA:                  -0.311
REMARK UNBOUND:                -0.152
REMARK SMILES O=c1c(O)c(-c2ccc(O)c(O)c2)oc2cc(O)ccc12
REMARK SMILES IDX 5 1 3 2 2 3 1 4 21 5 15 6 14 7 16 8 17 9 19 10 20 11 6 12
REMARK SMILES IDX 7 13 8 14 9 15 13 16 11 17 10 18 12 20 4 22 18 24
REMARK H PARENT 10 19 12 21 4 23 18 25
REMARK Flexibility Score: inf
ROOT
ATOM      1  C   UNL     1      -5.244   5.931   8.407  1.00  0.00     0.180 A 
ATOM      2  C   UNL     1      -5.671   7.114   9.043  1.00  0.00     0.208 A 
ATOM      3  C   UNL     1      -5.200   8.347   8.564  1.00  0.00     0.235 A 
ATOM      4  O   UNL     1      -5.559   9.420   9.124  1.00  0.00    -0.285 OA
ATOM      5  C   UNL     1      -4.337   8.374   7.458  1.00  0.00     0.069 A 
ATOM      6  C   UNL     1      -3.975   7.147   6.862  1.00  0.00     0.142 A 
ATOM      7  O   UNL     1      -4.435   6.001   7.351  1.00  0.00    -0.452 OA
ATOM      8  C   UNL     1      -3.124   7.133   5.751  1.00  0.00     0.094 A 
ATOM      9  C   UNL     1      -2.626   8.334   5.227  1.00  0.00     0.119 A 
ATOM     10  C   UNL     1      -2.983   9.550   5.818  1.00  0.00     0.047 A 
ATOM     11  C   UNL     1      -3.833   9.576   6.927  1.00  0.00     0.020 A 
ENDROOT
BRANCH   1  12
ATOM     12  C   UNL     1      -5.680   4.591   8.862  1.00  0.00     0.025 A 
ATOM     13  C   UNL     1      -4.886   3.817   9.727  1.00  0.00     0.016 A 
ATOM     14  C   UNL     1      -5.307   2.545  10.125  1.00  0.00     0.051 A 
ATOM     15  C   UNL     1      -6.520   2.024   9.655  1.00  0.00     0.157 A 
ATOM     16  C   UNL     1      -6.885   4.054   8.378  1.00  0.00     0.062 A 
ATOM     17  C   UNL     1      -7.308   2.779   8.778  1.00  0.00     0.158 A 
BRANCH  15  18
ATOM     18  O   UNL     1      -6.944   0.757  10.051  1.00  0.00    -0.504 OA
ATOM     19  H   UNL     1      -6.546  -0.084   9.650  1.00  0.00     0.293 HD
ENDBRANCH  15  18
BRANCH  17  20
ATOM     20  O   UNL     1      -8.511   2.255   8.307  1.00  0.00    -0.504 OA
ATOM     21  H   UNL     1      -9.062   1.610   8.863  1.00  0.00     0.293 HD
ENDBRANCH  17  20
ENDBRANCH   1  12
BRANCH   2  22
ATOM     22  O   UNL     1      -6.570   7.059  10.111  1.00  0.00    -0.502 OA
ATOM     23  H   UNL     1      -7.518   7.410  10.040  1.00  0.00     0.293 HD
ENDBRANCH   2  22
BRANCH   9  24
ATOM     24  O   UNL     1      -1.779   8.329   4.123  1.00  0.00    -0.508 OA
ATOM     25  H   UNL     1      -1.601   9.170   3.587  1.00  0.00     0.293 HD
ENDBRANCH   9  24
TORSDOF 5
ENDMDL
MODEL 7
REMARK VINA RESULT:    -4.342      2.602      3.833
REMARK INTER + INTRA:          -5.255
REMARK INTER:                  -5.269
REMARK INTRA:                   0.014
REMARK UNBOUND:                -0.152
REMARK SMILES O=c1c(O)c(-c2ccc(O)c(O)c2)oc2cc(O)ccc12
REMARK SMILES IDX 5 1 3 2 2 3 1 4 21 5 15 6 14 7 16 8 17 9 19 10 20 11 6 12
REMARK SMILES IDX 7 13 8 14 9 15 13 16 11 17 10 18 12 20 4 22 18 24
REMARK H PARENT 10 19 12 21 4 23 18 25
REMARK Flexibility Score: inf
ROOT
ATOM      1  C   UNL     1      -6.884   4.930   8.249  1.00  0.00     0.180 A 
ATOM      2  C   UNL     1      -7.452   6.002   7.532  1.00  0.00     0.208 A 
ATOM      3  C   UNL     1      -6.700   7.176   7.363  1.00  0.00     0.235 A 
ATOM      4  O   UNL     1      -7.191   8.154   6.735  1.00  0.00    -0.285 OA
ATOM      5  C   UNL     1      -5.401   7.246   7.890  1.00  0.00     0.069 A 
ATOM      6  C   UNL     1      -4.895   6.120   8.574  1.00  0.00     0.142 A 
ATOM      7  O   UNL     1      -5.643   5.032   8.721  1.00  0.00    -0.452 OA
ATOM      8  C   UNL     1      -3.601   6.147   9.105  1.00  0.00     0.094 A 
ATOM      9  C   UNL     1      -2.803   7.290   8.962  1.00  0.00     0.119 A 
ATOM     10  C   UNL     1      -3.303   8.407   8.285  1.00  0.00     0.047 A 
ATOM     11  C   UNL     1      -4.594   8.390   7.750  1.00  0.00     0.020 A 
ENDROOT
BRANCH   1  12
ATOM     12  C   UNL     1      -7.618   3.666   8.487  1.00  0.00     0.025 A 
ATOM     13  C   UNL     1      -8.944   3.667   8.956  1.00  0.00     0.016 A 
ATOM     14  C   UNL     1      -9.610   2.462   9.196  1.00  0.00     0.051 A 
ATOM     15  C   UNL     1      -8.958   1.241   8.984  1.00  0.00     0.157 A 
ATOM     16  C   UNL     1      -6.963   2.439   8.296  1.00  0.00     0.062 A 
ATOM     17  C   UNL     1      -7.631   1.230   8.536  1.00  0.00     0.158 A 
BRANCH  15  18
ATOM     18  O   UNL     1      -9.619   0.037   9.221  1.00  0.00    -0.504 OA
ATOM     19  H   UNL     1     -10.312  -0.051   9.954  1.00  0.00     0.293 HD
ENDBRANCH  15  18
BRANCH  17  20
ATOM     20  O   UNL     1      -6.982   0.013   8.333  1.00  0.00    -0.504 OA
ATOM     21  H   UNL     1      -6.202  -0.275   8.914  1.00  0.00     0.293 HD
ENDBRANCH  17  20
ENDBRANCH   1  12
BRANCH   2  22
ATOM     22  O   UNL     1      -8.729   5.886   6.977  1.00  0.00    -0.502 OA
ATOM     23  H   UNL     1      -8.903   6.020   5.988  1.00  0.00     0.293 HD
ENDBRANCH   2  22
BRANCH   9  24
ATOM     24  O   UNL     1      -1.514   7.325   9.487  1.00  0.00    -0.508 OA
ATOM     25  H   UNL     1      -0.894   8.108   9.318  1.00  0.00     0.293 HD
ENDBRANCH   9  24
TORSDOF 5
ENDMDL
MODEL 8
REMARK VINA RESULT:    -4.153     15.286     16.925
REMARK INTER + INTRA:          -5.034
REMARK INTER:                  -4.796
REMARK INTRA:                  -0.238
REMARK UNBOUND:                -0.152
REMARK SMILES O=c1c(O)c(-c2ccc(O)c(O)c2)oc2cc(O)ccc12
REMARK SMILES IDX 5 1 3 2 2 3 1 4 21 5 15 6 14 7 16 8 17 9 19 10 20 11 6 12
REMARK SMILES IDX 7 13 8 14 9 15 13 16 11 17 10 18 12 20 4 22 18 24
REMARK H PARENT 10 19 12 21 4 23 18 25
REMARK Flexibility Score: inf
ROOT
ATOM      1  C   UNL     1      -3.449   7.769  -8.747  1.00  0.00     0.180 A 
ATOM      2  C   UNL     1      -2.478   8.772  -8.941  1.00  0.00     0.208 A 
ATOM      3  C   UNL     1      -1.182   8.393  -9.326  1.00  0.00     0.235 A 
ATOM      4  O   UNL     1      -0.292   9.271  -9.495  1.00  0.00    -0.285 OA
ATOM      5  C   UNL     1      -0.891   7.034  -9.526  1.00  0.00     0.069 A 
ATOM      6  C   UNL     1      -1.925   6.093  -9.335  1.00  0.00     0.142 A 
ATOM      7  O   UNL     1      -3.136   6.493  -8.962  1.00  0.00    -0.452 OA
ATOM      8  C   UNL     1      -1.677   4.730  -9.534  1.00  0.00     0.094 A 
ATOM      9  C   UNL     1      -0.403   4.294  -9.923  1.00  0.00     0.119 A 
ATOM     10  C   UNL     1       0.623   5.225 -10.112  1.00  0.00     0.047 A 
ATOM     11  C   UNL     1       0.385   6.589  -9.916  1.00  0.00     0.020 A 
ENDROOT
BRANCH   1  12
ATOM     12  C   UNL     1      -4.833   8.085  -8.324  1.00  0.00     0.025 A 
ATOM     13  C   UNL     1      -5.287   7.788  -7.027  1.00  0.00     0.016 A 
ATOM     14  C   UNL     1      -6.604   8.074  -6.656  1.00  0.00     0.051 A 
ATOM     15  C   UNL     1      -7.489   8.647  -7.580  1.00  0.00     0.157 A 
ATOM     16  C   UNL     1      -5.730   8.640  -9.251  1.00  0.00     0.062 A 
ATOM     17  C   UNL     1      -7.051   8.928  -8.880  1.00  0.00     0.158 A 
BRANCH  15  18
ATOM     18  O   UNL     1      -8.802   8.935  -7.214  1.00  0.00    -0.504 OA
ATOM     19  H   UNL     1      -9.245   8.478  -6.425  1.00  0.00     0.293 HD
ENDBRANCH  15  18
BRANCH  17  20
ATOM     20  O   UNL     1      -7.935   9.492  -9.798  1.00  0.00    -0.504 OA
ATOM     21  H   UNL     1      -7.842   9.326 -10.794  1.00  0.00     0.293 HD
ENDBRANCH  17  20
ENDBRANCH   1  12
BRANCH   2  22
ATOM     22  O   UNL     1      -2.810  10.120  -8.782  1.00  0.00    -0.502 OA
ATOM     23  H   UNL     1      -2.270  10.745  -8.196  1.00  0.00     0.293 HD
ENDBRANCH   2  22
BRANCH   9  24
ATOM     24  O   UNL     1      -0.148   2.940 -10.124  1.00  0.00    -0.508 OA
ATOM     25  H   UNL     1       0.540   2.443  -9.570  1.00  0.00     0.293 HD
ENDBRANCH   9  24
TORSDOF 5
ENDMDL
