MODEL 1
REMARK VINA RESULT:    -6.553      0.000      0.000
REMARK INTER + INTRA:          -8.178
REMARK INTER:                  -8.085
REMARK INTRA:                  -0.093
REMARK UNBOUND:                -0.093
REMARK SMILES O=c1c(O)c(-c2cc(O)c(O)c(O)c2)oc2cc(O)cc(O)c12
REMARK SMILES IDX 5 1 3 2 2 3 1 4 23 5 21 6 20 7 18 8 17 9 16 10 15 11 6 12
REMARK SMILES IDX 7 13 8 14 14 15 10 16 12 17 9 18 11 20 13 22 4 24 22 26
REMARK SMILES IDX 19 28
REMARK H PARENT 9 19 11 21 13 23 4 25 22 27 19 29
REMARK Flexibility Score: inf
ROOT
ATOM      1  C   UNL     1      45.259  45.409   9.893  1.00  0.00     0.180 A 
ATOM      2  C   UNL     1      45.697  44.557  10.922  1.00  0.00     0.208 A 
ATOM      3  C   UNL     1      45.631  43.168  10.729  1.00  0.00     0.238 A 
ATOM      4  O   UNL     1      46.074  42.411  11.632  1.00  0.00    -0.285 OA
ATOM      5  C   UNL     1      45.115  42.648   9.518  1.00  0.00     0.111 A 
ATOM      6  C   UNL     1      44.965  41.258   9.231  1.00  0.00     0.134 A 
ATOM      7  C   UNL     1      44.566  40.856   7.951  1.00  0.00     0.093 A 
ATOM      8  C   UNL     1      44.248  41.794   6.968  1.00  0.00     0.123 A 
ATOM      9  C   UNL     1      44.334  43.156   7.256  1.00  0.00     0.094 A 
ATOM     10  C   UNL     1      44.764  43.588   8.513  1.00  0.00     0.146 A 
ATOM     11  O   UNL     1      44.842  44.892   8.744  1.00  0.00    -0.452 OA
ENDROOT
BRANCH   1  12
ATOM     12  C   UNL     1      45.275  46.883  10.032  1.00  0.00     0.029 A 
ATOM     13  C   UNL     1      44.107  47.647   9.854  1.00  0.00     0.062 A 
ATOM     14  C   UNL     1      44.145  49.043   9.965  1.00  0.00     0.162 A 
ATOM     15  C   UNL     1      46.488  47.542  10.288  1.00  0.00     0.062 A 
ATOM     16  C   UNL     1      45.361  49.691  10.245  1.00  0.00     0.200 A 
ATOM     17  C   UNL     1      46.532  48.937  10.402  1.00  0.00     0.162 A 
BRANCH  14  18
ATOM     18  O   UNL     1      42.980  49.791   9.795  1.00  0.00    -0.504 OA
ATOM     19  H   UNL     1      42.462  50.154  10.585  1.00  0.00     0.293 HD
ENDBRANCH  14  18
BRANCH  16  20
ATOM     20  O   UNL     1      45.423  51.079  10.365  1.00  0.00    -0.502 OA
ATOM     21  H   UNL     1      44.724  51.608  10.871  1.00  0.00     0.293 HD
ENDBRANCH  16  20
BRANCH  17  22
ATOM     22  O   UNL     1      47.737  49.584  10.671  1.00  0.00    -0.504 OA
ATOM     23  H   UNL     1      47.785  50.373  11.305  1.00  0.00     0.293 HD
ENDBRANCH  17  22
ENDBRANCH   1  12
BRANCH   2  24
ATOM     24  O   UNL     1      46.223  45.092  12.102  1.00  0.00    -0.502 OA
ATOM     25  H   UNL     1      47.179  44.928  12.395  1.00  0.00     0.293 HD
ENDBRANCH   2  24
BRANCH   6  26
ATOM     26  O   UNL     1      45.167  40.242  10.169  1.00  0.00    -0.507 OA
ATOM     27  H   UNL     1      44.460  39.591  10.473  1.00  0.00     0.293 HD
ENDBRANCH   6  26
BRANCH   8  28
ATOM     28  O   UNL     1      43.838  41.358   5.710  1.00  0.00    -0.508 OA
ATOM     29  H   UNL     1      43.577  42.012   4.981  1.00  0.00     0.293 HD
ENDBRANCH   8  28
TORSDOF 7
ENDMDL
MODEL 2
REMARK VINA RESULT:    -6.541      5.743      9.083
REMARK INTER + INTRA:          -8.164
REMARK INTER:                  -7.891
REMARK INTRA:                  -0.273
REMARK UNBOUND:                -0.093
REMARK SMILES O=c1c(O)c(-c2cc(O)c(O)c(O)c2)oc2cc(O)cc(O)c12
REMARK SMILES IDX 5 1 3 2 2 3 1 4 23 5 21 6 20 7 18 8 17 9 16 10 15 11 6 12
REMARK SMILES IDX 7 13 8 14 14 15 10 16 12 17 9 18 11 20 13 22 4 24 22 26
REMARK SMILES IDX 19 28
REMARK H PARENT 9 19 11 21 13 23 4 25 22 27 19 29
REMARK Flexibility Score: inf
ROOT
ATOM      1  C   UNL     1      51.301  47.372  12.061  1.00  0.00     0.180 A 
ATOM      2  C   UNL     1      51.555  48.675  12.524  1.00  0.00     0.208 A 
ATOM      3  C   UNL     1      50.488  49.585  12.614  1.00  0.00     0.238 A 
ATOM      4  O   UNL     1      50.711  50.732  13.080  1.00  0.00    -0.285 OA
ATOM      5  C   UNL     1      49.186  49.184  12.228  1.00  0.00     0.111 A 
ATOM      6  C   UNL     1      48.040  50.035  12.241  1.00  0.00     0.134 A 
ATOM      7  C   UNL     1      46.777  49.497  11.963  1.00  0.00     0.093 A 
ATOM      8  C   UNL     1      46.629  48.156  11.608  1.00  0.00     0.123 A 
ATOM      9  C   UNL     1      47.750  47.330  11.534  1.00  0.00     0.094 A 
ATOM     10  C   UNL     1      49.018  47.829  11.841  1.00  0.00     0.146 A 
ATOM     11  O   UNL     1      50.058  47.008  11.769  1.00  0.00    -0.452 OA
ENDROOT
BRANCH   1  12
ATOM     12  C   UNL     1      52.377  46.366  11.914  1.00  0.00     0.029 A 
ATOM     13  C   UNL     1      52.971  45.761  13.036  1.00  0.00     0.062 A 
ATOM     14  C   UNL     1      54.005  44.828  12.880  1.00  0.00     0.162 A 
ATOM     15  C   UNL     1      52.858  46.049  10.634  1.00  0.00     0.062 A 
ATOM     16  C   UNL     1      54.463  44.500  11.592  1.00  0.00     0.200 A 
ATOM     17  C   UNL     1      53.890  45.115  10.471  1.00  0.00     0.162 A 
BRANCH  14  18
ATOM     18  O   UNL     1      54.582  44.228  13.998  1.00  0.00    -0.504 OA
ATOM     19  H   UNL     1      54.506  44.641  14.920  1.00  0.00     0.293 HD
ENDBRANCH  14  18
BRANCH  16  20
ATOM     20  O   UNL     1      55.487  43.571  11.410  1.00  0.00    -0.502 OA
ATOM     21  H   UNL     1      55.527  42.966  10.599  1.00  0.00     0.293 HD
ENDBRANCH  16  20
BRANCH  17  22
ATOM     22  O   UNL     1      54.353  44.793   9.196  1.00  0.00    -0.504 OA
ATOM     23  H   UNL     1      54.651  45.509   8.544  1.00  0.00     0.293 HD
ENDBRANCH  17  22
ENDBRANCH   1  12
BRANCH   2  24
ATOM     24  O   UNL     1      52.844  49.043  12.920  1.00  0.00    -0.502 OA
ATOM     25  H   UNL     1      53.273  48.691  13.767  1.00  0.00     0.293 HD
ENDBRANCH   2  24
BRANCH   6  26
ATOM     26  O   UNL     1      48.090  51.409  12.493  1.00  0.00    -0.507 OA
ATOM     27  H   UNL     1      47.411  52.078  12.166  1.00  0.00     0.293 HD
ENDBRANCH   6  26
BRANCH   8  28
ATOM     28  O   UNL     1      45.360  47.658  11.321  1.00  0.00    -0.508 OA
ATOM     29  H   UNL     1      44.975  46.865  11.822  1.00  0.00     0.293 HD
ENDBRANCH   8  28
TORSDOF 7
ENDMDL
MODEL 3
REMARK VINA RESULT:    -6.330      5.103      9.748
REMARK INTER + INTRA:          -7.903
REMARK INTER:                  -7.567
REMARK INTRA:                  -0.336
REMARK UNBOUND:                -0.093
REMARK SMILES O=c1c(O)c(-c2cc(O)c(O)c(O)c2)oc2cc(O)cc(O)c12
REMARK SMILES IDX 5 1 3 2 2 3 1 4 23 5 21 6 20 7 18 8 17 9 16 10 15 11 6 12
REMARK SMILES IDX 7 13 8 14 14 15 10 16 12 17 9 18 11 20 13 22 4 24 22 26
REMARK SMILES IDX 19 28
REMARK H PARENT 9 19 11 21 13 23 4 25 22 27 19 29
REMARK Flexibility Score: inf
ROOT
ATOM      1  C   UNL     1      44.427  38.041   9.345  1.00  0.00     0.180 A 
ATOM      2  C   UNL     1      45.155  39.075   9.958  1.00  0.00     0.208 A 
ATOM      3  C   UNL     1      45.162  40.348   9.363  1.00  0.00     0.238 A 
ATOM      4  O   UNL     1      45.771  41.283   9.944  1.00  0.00    -0.285 OA
ATOM      5  C   UNL     1      44.452  40.566   8.157  1.00  0.00     0.111 A 
ATOM      6  C   UNL     1      44.423  41.804   7.448  1.00  0.00     0.134 A 
ATOM      7  C   UNL     1      43.582  41.943   6.337  1.00  0.00     0.093 A 
ATOM      8  C   UNL     1      42.822  40.870   5.870  1.00  0.00     0.123 A 
ATOM      9  C   UNL     1      42.889  39.638   6.521  1.00  0.00     0.094 A 
ATOM     10  C   UNL     1      43.690  39.479   7.655  1.00  0.00     0.146 A 
ATOM     11  O   UNL     1      43.718  38.294   8.251  1.00  0.00    -0.452 OA
ENDROOT
BRANCH   1  12
ATOM     12  C   UNL     1      44.392  36.668   9.898  1.00  0.00     0.029 A 
ATOM     13  C   UNL     1      45.458  35.772   9.698  1.00  0.00     0.062 A 
ATOM     14  C   UNL     1      45.398  34.469  10.208  1.00  0.00     0.162 A 
ATOM     15  C   UNL     1      43.251  36.228  10.586  1.00  0.00     0.062 A 
ATOM     16  C   UNL     1      44.260  34.045  10.916  1.00  0.00     0.200 A 
ATOM     17  C   UNL     1      43.186  34.926  11.100  1.00  0.00     0.162 A 
BRANCH  14  18
ATOM     18  O   UNL     1      46.463  33.591  10.011  1.00  0.00    -0.504 OA
ATOM     19  H   UNL     1      46.357  32.740   9.471  1.00  0.00     0.293 HD
ENDBRANCH  14  18
BRANCH  16  20
ATOM     20  O   UNL     1      44.178  32.754  11.437  1.00  0.00    -0.502 OA
ATOM     21  H   UNL     1      43.900  31.961  10.871  1.00  0.00     0.293 HD
ENDBRANCH  16  20
BRANCH  17  22
ATOM     22  O   UNL     1      42.056  34.499  11.795  1.00  0.00    -0.504 OA
ATOM     23  H   UNL     1      41.131  34.549  11.385  1.00  0.00     0.293 HD
ENDBRANCH  17  22
ENDBRANCH   1  12
BRANCH   2  24
ATOM     24  O   UNL     1      45.831  38.844  11.159  1.00  0.00    -0.502 OA
ATOM     25  H   UNL     1      46.515  38.104  11.265  1.00  0.00     0.293 HD
ENDBRANCH   2  24
BRANCH   6  26
ATOM     26  O   UNL     1      45.212  42.910   7.774  1.00  0.00    -0.507 OA
ATOM     27  H   UNL     1      45.146  43.813   7.332  1.00  0.00     0.293 HD
ENDBRANCH   6  26
BRANCH   8  28
ATOM     28  O   UNL     1      42.009  41.039   4.752  1.00  0.00    -0.508 OA
ATOM     29  H   UNL     1      41.705  41.958   4.450  1.00  0.00     0.293 HD
ENDBRANCH   8  28
TORSDOF 7
ENDMDL
MODEL 4
REMARK VINA RESULT:    -6.302      4.617      7.455
REMARK INTER + INTRA:          -7.869
REMARK INTER:                  -8.302
REMARK INTRA:                   0.432
REMARK UNBOUND:                -0.093
REMARK SMILES O=c1c(O)c(-c2cc(O)c(O)c(O)c2)oc2cc(O)cc(O)c12
REMARK SMILES IDX 5 1 3 2 2 3 1 4 23 5 21 6 20 7 18 8 17 9 16 10 15 11 6 12
REMARK SMILES IDX 7 13 8 14 14 15 10 16 12 17 9 18 11 20 13 22 4 24 22 26
REMARK SMILES IDX 19 28
REMARK H PARENT 9 19 11 21 13 23 4 25 22 27 19 29
REMARK Flexibility Score: inf
ROOT
ATOM      1  C   UNL     1      44.689  39.114   9.015  1.00  0.00     0.180 A 
ATOM      2  C   UNL     1      44.144  37.827   8.874  1.00  0.00     0.208 A 
ATOM      3  C   UNL     1      44.577  36.806   9.737  1.00  0.00     0.238 A 
ATOM      4  O   UNL     1      44.045  35.669   9.641  1.00  0.00    -0.285 OA
ATOM      5  C   UNL     1      45.559  37.082  10.718  1.00  0.00     0.111 A 
ATOM      6  C   UNL     1      46.099  36.115  11.618  1.00  0.00     0.134 A 
ATOM      7  C   UNL     1      46.969  36.528  12.635  1.00  0.00     0.093 A 
ATOM      8  C   UNL     1      47.371  37.859  12.742  1.00  0.00     0.123 A 
ATOM      9  C   UNL     1      46.895  38.803  11.831  1.00  0.00     0.094 A 
ATOM     10  C   UNL     1      45.997  38.428  10.828  1.00  0.00     0.146 A 
ATOM     11  O   UNL     1      45.560  39.357   9.988  1.00  0.00    -0.452 OA
ENDROOT
BRANCH   1  12
ATOM     12  C   UNL     1      44.302  40.235   8.128  1.00  0.00     0.029 A 
ATOM     13  C   UNL     1      43.462  40.032   7.018  1.00  0.00     0.062 A 
ATOM     14  C   UNL     1      43.125  41.100   6.176  1.00  0.00     0.162 A 
ATOM     15  C   UNL     1      44.828  41.515   8.361  1.00  0.00     0.062 A 
ATOM     16  C   UNL     1      43.639  42.383   6.431  1.00  0.00     0.200 A 
ATOM     17  C   UNL     1      44.494  42.587   7.523  1.00  0.00     0.162 A 
BRANCH  14  18
ATOM     18  O   UNL     1      42.286  40.891   5.082  1.00  0.00    -0.504 OA
ATOM     19  H   UNL     1      41.758  40.033   4.976  1.00  0.00     0.293 HD
ENDBRANCH  14  18
BRANCH  16  20
ATOM     20  O   UNL     1      43.315  43.463   5.610  1.00  0.00    -0.502 OA
ATOM     21  H   UNL     1      43.758  44.368   5.710  1.00  0.00     0.293 HD
ENDBRANCH  16  20
BRANCH  17  22
ATOM     22  O   UNL     1      45.007  43.859   7.769  1.00  0.00    -0.504 OA
ATOM     23  H   UNL     1      44.903  44.611   7.098  1.00  0.00     0.293 HD
ENDBRANCH  17  22
ENDBRANCH   1  12
BRANCH   2  24
ATOM     24  O   UNL     1      43.159  37.581   7.913  1.00  0.00    -0.502 OA
ATOM     25  H   UNL     1      42.925  36.646   7.601  1.00  0.00     0.293 HD
ENDBRANCH   2  24
BRANCH   6  26
ATOM     26  O   UNL     1      45.835  34.744  11.541  1.00  0.00    -0.507 OA
ATOM     27  H   UNL     1      44.918  34.331  11.608  1.00  0.00     0.293 HD
ENDBRANCH   6  26
BRANCH   8  28
ATOM     28  O   UNL     1      48.251  38.232  13.755  1.00  0.00    -0.508 OA
ATOM     29  H   UNL     1      47.969  38.859  14.499  1.00  0.00     0.293 HD
ENDBRANCH   8  28
TORSDOF 7
ENDMDL
MODEL 5
REMARK VINA RESULT:    -6.288      3.831      9.151
REMARK INTER + INTRA:          -7.851
REMARK INTER:                  -7.664
REMARK INTRA:                  -0.188
REMARK UNBOUND:                -0.093
REMARK SMILES O=c1c(O)c(-c2cc(O)c(O)c(O)c2)oc2cc(O)cc(O)c12
REMARK SMILES IDX 5 1 3 2 2 3 1 4 23 5 21 6 20 7 18 8 17 9 16 10 15 11 6 12
REMARK SMILES IDX 7 13 8 14 14 15 10 16 12 17 9 18 11 20 13 22 4 24 22 26
REMARK SMILES IDX 19 28
REMARK H PARENT 9 19 11 21 13 23 4 25 22 27 19 29
REMARK Flexibility Score: inf
ROOT
ATOM      1  C   UNL     1      45.357  38.974  10.198  1.00  0.00     0.180 A 
ATOM      2  C   UNL     1      45.624  39.842  11.271  1.00  0.00     0.208 A 
ATOM      3  C   UNL     1      45.557  41.228  11.057  1.00  0.00     0.238 A 
ATOM      4  O   UNL     1      45.743  41.999  12.034  1.00  0.00    -0.285 OA
ATOM      5  C   UNL     1      45.239  41.729   9.771  1.00  0.00     0.111 A 
ATOM      6  C   UNL     1      45.182  43.114   9.433  1.00  0.00     0.134 A 
ATOM      7  C   UNL     1      44.729  43.497   8.164  1.00  0.00     0.093 A 
ATOM      8  C   UNL     1      44.395  42.544   7.201  1.00  0.00     0.123 A 
ATOM      9  C   UNL     1      44.503  41.186   7.503  1.00  0.00     0.094 A 
ATOM     10  C   UNL     1      44.917  40.774   8.772  1.00  0.00     0.146 A 
ATOM     11  O   UNL     1      44.997  39.473   9.021  1.00  0.00    -0.452 OA
ENDROOT
BRANCH   1  12
ATOM     12  C   UNL     1      45.432  37.502  10.339  1.00  0.00     0.029 A 
ATOM     13  C   UNL     1      46.634  36.860  10.686  1.00  0.00     0.062 A 
ATOM     14  C   UNL     1      46.693  35.464  10.791  1.00  0.00     0.162 A 
ATOM     15  C   UNL     1      44.297  36.722  10.064  1.00  0.00     0.062 A 
ATOM     16  C   UNL     1      45.545  34.694  10.537  1.00  0.00     0.200 A 
ATOM     17  C   UNL     1      44.349  35.326  10.170  1.00  0.00     0.162 A 
BRANCH  14  18
ATOM     18  O   UNL     1      47.888  34.839  11.143  1.00  0.00    -0.504 OA
ATOM     19  H   UNL     1      48.716  35.371  11.382  1.00  0.00     0.293 HD
ENDBRANCH  14  18
BRANCH  16  20
ATOM     20  O   UNL     1      45.577  33.303  10.640  1.00  0.00    -0.502 OA
ATOM     21  H   UNL     1      45.237  32.701   9.900  1.00  0.00     0.293 HD
ENDBRANCH  16  20
BRANCH  17  22
ATOM     22  O   UNL     1      43.215  34.557   9.911  1.00  0.00    -0.504 OA
ATOM     23  H   UNL     1      43.250  33.545   9.905  1.00  0.00     0.293 HD
ENDBRANCH  17  22
ENDBRANCH   1  12
BRANCH   2  24
ATOM     24  O   UNL     1      45.915  39.326  12.537  1.00  0.00    -0.502 OA
ATOM     25  H   UNL     1      45.713  39.834  13.390  1.00  0.00     0.293 HD
ENDBRANCH   2  24
BRANCH   6  26
ATOM     26  O   UNL     1      45.582  44.144  10.289  1.00  0.00    -0.507 OA
ATOM     27  H   UNL     1      46.356  44.766  10.117  1.00  0.00     0.293 HD
ENDBRANCH   6  26
BRANCH   8  28
ATOM     28  O   UNL     1      43.964  42.961   5.944  1.00  0.00    -0.508 OA
ATOM     29  H   UNL     1      43.611  43.898   5.787  1.00  0.00     0.293 HD
ENDBRANCH   8  28
TORSDOF 7
ENDMDL
MODEL 6
REMARK VINA RESULT:    -6.251      3.737      6.854
REMARK INTER + INTRA:          -7.806
REMARK INTER:                  -7.918
REMARK INTRA:                   0.112
REMARK UNBOUND:                -0.093
REMARK SMILES O=c1c(O)c(-c2cc(O)c(O)c(O)c2)oc2cc(O)cc(O)c12
REMARK SMILES IDX 5 1 3 2 2 3 1 4 23 5 21 6 20 7 18 8 17 9 16 10 15 11 6 12
REMARK SMILES IDX 7 13 8 14 14 15 10 16 12 17 9 18 11 20 13 22 4 24 22 26
REMARK SMILES IDX 19 28
REMARK H PARENT 9 19 11 21 13 23 4 25 22 27 19 29
REMARK Flexibility Score: inf
ROOT
ATOM      1  C   UNL     1      45.087  39.435   9.450  1.00  0.00     0.180 A 
ATOM      2  C   UNL     1      44.225  38.444   8.950  1.00  0.00     0.208 A 
ATOM      3  C   UNL     1      44.423  37.109   9.341  1.00  0.00     0.238 A 
ATOM      4  O   UNL     1      43.615  36.235   8.933  1.00  0.00    -0.285 OA
ATOM      5  C   UNL     1      45.488  36.781  10.214  1.00  0.00     0.111 A 
ATOM      6  C   UNL     1      45.805  35.458  10.643  1.00  0.00     0.134 A 
ATOM      7  C   UNL     1      46.798  35.265  11.611  1.00  0.00     0.093 A 
ATOM      8  C   UNL     1      47.531  36.340  12.115  1.00  0.00     0.123 A 
ATOM      9  C   UNL     1      47.269  37.632  11.658  1.00  0.00     0.094 A 
ATOM     10  C   UNL     1      46.259  37.860  10.720  1.00  0.00     0.146 A 
ATOM     11  O   UNL     1      46.035  39.105  10.319  1.00  0.00    -0.452 OA
ENDROOT
BRANCH   1  12
ATOM     12  C   UNL     1      44.957  40.859   9.065  1.00  0.00     0.029 A 
ATOM     13  C   UNL     1      44.613  41.233   7.753  1.00  0.00     0.062 A 
ATOM     14  C   UNL     1      44.518  42.586   7.401  1.00  0.00     0.162 A 
ATOM     15  C   UNL     1      45.239  41.859  10.008  1.00  0.00     0.062 A 
ATOM     16  C   UNL     1      44.780  43.580   8.359  1.00  0.00     0.200 A 
ATOM     17  C   UNL     1      45.144  43.213   9.662  1.00  0.00     0.162 A 
BRANCH  14  18
ATOM     18  O   UNL     1      44.170  42.947   6.100  1.00  0.00    -0.504 OA
ATOM     19  H   UNL     1      43.383  43.556   5.911  1.00  0.00     0.293 HD
ENDBRANCH  14  18
BRANCH  16  20
ATOM     20  O   UNL     1      44.688  44.933   8.033  1.00  0.00    -0.502 OA
ATOM     21  H   UNL     1      43.798  45.409   7.956  1.00  0.00     0.293 HD
ENDBRANCH  16  20
BRANCH  17  22
ATOM     22  O   UNL     1      45.411  44.202  10.607  1.00  0.00    -0.504 OA
ATOM     23  H   UNL     1      45.574  43.975  11.581  1.00  0.00     0.293 HD
ENDBRANCH  17  22
ENDBRANCH   1  12
BRANCH   2  24
ATOM     24  O   UNL     1      43.166  38.793   8.106  1.00  0.00    -0.502 OA
ATOM     25  H   UNL     1      42.625  38.103   7.599  1.00  0.00     0.293 HD
ENDBRANCH   2  24
BRANCH   6  26
ATOM     26  O   UNL     1      45.197  34.306  10.136  1.00  0.00    -0.507 OA
ATOM     27  H   UNL     1      44.756  33.594  10.697  1.00  0.00     0.293 HD
ENDBRANCH   6  26
BRANCH   8  28
ATOM     28  O   UNL     1      48.524  36.110  13.064  1.00  0.00    -0.508 OA
ATOM     29  H   UNL     1      48.327  35.621  13.930  1.00  0.00     0.293 HD
ENDBRANCH   8  28
TORSDOF 7
ENDMDL
MODEL 7
REMARK VINA RESULT:    -6.242      1.346      6.763
REMARK INTER + INTRA:          -7.794
REMARK INTER:                  -8.190
REMARK INTRA:                   0.396
REMARK UNBOUND:                -0.093
REMARK SMILES O=c1c(O)c(-c2cc(O)c(O)c(O)c2)oc2cc(O)cc(O)c12
REMARK SMILES IDX 5 1 3 2 2 3 1 4 23 5 21 6 20 7 18 8 17 9 16 10 15 11 6 12
REMARK SMILES IDX 7 13 8 14 14 15 10 16 12 17 9 18 11 20 13 22 4 24 22 26
REMARK SMILES IDX 19 28
REMARK H PARENT 9 19 11 21 13 23 4 25 22 27 19 29
REMARK Flexibility Score: inf
ROOT
ATOM      1  C   UNL     1      45.276  44.236   9.787  1.00  0.00     0.180 A 
ATOM      2  C   UNL     1      45.712  43.779  11.043  1.00  0.00     0.208 A 
ATOM      3  C   UNL     1      46.202  44.711  11.974  1.00  0.00     0.238 A 
ATOM      4  O   UNL     1      46.539  44.303  13.115  1.00  0.00    -0.285 OA
ATOM      5  C   UNL     1      46.264  46.083  11.631  1.00  0.00     0.111 A 
ATOM      6  C   UNL     1      46.779  47.107  12.481  1.00  0.00     0.134 A 
ATOM      7  C   UNL     1      46.671  48.448  12.091  1.00  0.00     0.093 A 
ATOM      8  C   UNL     1      46.128  48.796  10.854  1.00  0.00     0.123 A 
ATOM      9  C   UNL     1      45.676  47.798   9.990  1.00  0.00     0.094 A 
ATOM     10  C   UNL     1      45.737  46.454  10.367  1.00  0.00     0.146 A 
ATOM     11  O   UNL     1      45.286  45.537   9.521  1.00  0.00    -0.452 OA
ENDROOT
BRANCH   1  12
ATOM     12  C   UNL     1      44.771  43.313   8.746  1.00  0.00     0.029 A 
ATOM     13  C   UNL     1      44.933  41.921   8.861  1.00  0.00     0.062 A 
ATOM     14  C   UNL     1      44.469  41.063   7.854  1.00  0.00     0.162 A 
ATOM     15  C   UNL     1      44.169  43.836   7.590  1.00  0.00     0.062 A 
ATOM     16  C   UNL     1      43.847  41.597   6.712  1.00  0.00     0.200 A 
ATOM     17  C   UNL     1      43.702  42.984   6.581  1.00  0.00     0.162 A 
BRANCH  14  18
ATOM     18  O   UNL     1      44.628  39.684   7.982  1.00  0.00    -0.504 OA
ATOM     19  H   UNL     1      43.835  39.069   8.120  1.00  0.00     0.293 HD
ENDBRANCH  14  18
BRANCH  16  20
ATOM     20  O   UNL     1      43.373  40.764   5.699  1.00  0.00    -0.502 OA
ATOM     21  H   UNL     1      43.473  40.998   4.719  1.00  0.00     0.293 HD
ENDBRANCH  16  20
BRANCH  17  22
ATOM     22  O   UNL     1      43.091  43.509   5.443  1.00  0.00    -0.504 OA
ATOM     23  H   UNL     1      42.410  44.256   5.504  1.00  0.00     0.293 HD
ENDBRANCH  17  22
ENDBRANCH   1  12
BRANCH   2  24
ATOM     24  O   UNL     1      45.621  42.423  11.369  1.00  0.00    -0.502 OA
ATOM     25  H   UNL     1      46.039  42.035  12.206  1.00  0.00     0.293 HD
ENDBRANCH   2  24
BRANCH   6  26
ATOM     26  O   UNL     1      47.425  46.862  13.696  1.00  0.00    -0.507 OA
ATOM     27  H   UNL     1      46.958  46.621  14.556  1.00  0.00     0.293 HD
ENDBRANCH   6  26
BRANCH   8  28
ATOM     28  O   UNL     1      46.052  50.138  10.490  1.00  0.00    -0.508 OA
ATOM     29  H   UNL     1      46.859  50.749  10.540  1.00  0.00     0.293 HD
ENDBRANCH   8  28
TORSDOF 7
ENDMDL
MODEL 8
REMARK VINA RESULT:    -6.151      4.339      7.339
REMARK INTER + INTRA:          -7.682
REMARK INTER:                  -7.331
REMARK INTRA:                  -0.351
REMARK UNBOUND:                -0.093
REMARK SMILES O=c1c(O)c(-c2cc(O)c(O)c(O)c2)oc2cc(O)cc(O)c12
REMARK SMILES IDX 5 1 3 2 2 3 1 4 23 5 21 6 20 7 18 8 17 9 16 10 15 11 6 12
REMARK SMILES IDX 7 13 8 14 14 15 10 16 12 17 9 18 11 20 13 22 4 24 22 26
REMARK SMILES IDX 19 28
REMARK H PARENT 9 19 11 21 13 23 4 25 22 27 19 29
REMARK Flexibility Score: inf
ROOT
ATOM      1  C   UNL     1      44.741  39.503  10.193  1.00  0.00     0.180 A 
ATOM      2  C   UNL     1      43.696  39.245  11.097  1.00  0.00     0.208 A 
ATOM      3  C   UNL     1      43.905  38.321  12.134  1.00  0.00     0.238 A 
ATOM      4  O   UNL     1      42.985  38.134  12.971  1.00  0.00    -0.285 OA
ATOM      5  C   UNL     1      45.151  37.656  12.245  1.00  0.00     0.111 A 
ATOM      6  C   UNL     1      45.458  36.673  13.232  1.00  0.00     0.134 A 
ATOM      7  C   UNL     1      46.764  36.177  13.329  1.00  0.00     0.093 A 
ATOM      8  C   UNL     1      47.756  36.579  12.434  1.00  0.00     0.123 A 
ATOM      9  C   UNL     1      47.450  37.496  11.428  1.00  0.00     0.094 A 
ATOM     10  C   UNL     1      46.165  38.036  11.328  1.00  0.00     0.146 A 
ATOM     11  O   UNL     1      45.918  38.913  10.364  1.00  0.00    -0.452 OA
ENDROOT
BRANCH   1  12
ATOM     12  C   UNL     1      44.588  40.444   9.061  1.00  0.00     0.029 A 
ATOM     13  C   UNL     1      44.957  41.796   9.179  1.00  0.00     0.062 A 
ATOM     14  C   UNL     1      44.783  42.679   8.104  1.00  0.00     0.162 A 
ATOM     15  C   UNL     1      44.010  39.997   7.862  1.00  0.00     0.062 A 
ATOM     16  C   UNL     1      44.225  42.215   6.900  1.00  0.00     0.200 A 
ATOM     17  C   UNL     1      43.835  40.874   6.784  1.00  0.00     0.162 A 
BRANCH  14  18
ATOM     18  O   UNL     1      45.159  44.015   8.229  1.00  0.00    -0.504 OA
ATOM     19  H   UNL     1      45.895  44.303   8.862  1.00  0.00     0.293 HD
ENDBRANCH  14  18
BRANCH  16  20
ATOM     20  O   UNL     1      44.046  43.073   5.815  1.00  0.00    -0.502 OA
ATOM     21  H   UNL     1      44.255  44.062   5.870  1.00  0.00     0.293 HD
ENDBRANCH  16  20
BRANCH  17  22
ATOM     22  O   UNL     1      43.274  40.420   5.591  1.00  0.00    -0.504 OA
ATOM     23  H   UNL     1      43.150  39.432   5.406  1.00  0.00     0.293 HD
ENDBRANCH  17  22
ENDBRANCH   1  12
BRANCH   2  24
ATOM     24  O   UNL     1      42.481  39.928  10.982  1.00  0.00    -0.502 OA
ATOM     25  H   UNL     1      42.389  40.788  10.455  1.00  0.00     0.293 HD
ENDBRANCH   2  24
BRANCH   6  26
ATOM     26  O   UNL     1      44.520  36.134  14.116  1.00  0.00    -0.507 OA
ATOM     27  H   UNL     1      44.050  36.652  14.842  1.00  0.00     0.293 HD
ENDBRANCH   6  26
BRANCH   8  28
ATOM     28  O   UNL     1      49.040  36.054  12.549  1.00  0.00    -0.508 OA
ATOM     29  H   UNL     1      49.449  35.843  13.453  1.00  0.00     0.293 HD
ENDBRANCH   8  28
TORSDOF 7
ENDMDL
MODEL 9
REMARK VINA RESULT:    -6.123      4.311      6.886
REMARK INTER + INTRA:          -7.648
REMARK INTER:                  -8.160
REMARK INTRA:                   0.512
REMARK UNBOUND:                -0.093
REMARK SMILES O=c1c(O)c(-c2cc(O)c(O)c(O)c2)oc2cc(O)cc(O)c12
REMARK SMILES IDX 5 1 3 2 2 3 1 4 23 5 21 6 20 7 18 8 17 9 16 10 15 11 6 12
REMARK SMILES IDX 7 13 8 14 14 15 10 16 12 17 9 18 11 20 13 22 4 24 22 26
REMARK SMILES IDX 19 28
REMARK H PARENT 9 19 11 21 13 23 4 25 22 27 19 29
REMARK Flexibility Score: inf
ROOT
ATOM      1  C   UNL     1      45.033  39.580   9.503  1.00  0.00     0.180 A 
ATOM      2  C   UNL     1      45.730  39.968  10.660  1.00  0.00     0.208 A 
ATOM      3  C   UNL     1      46.117  38.983  11.585  1.00  0.00     0.238 A 
ATOM      4  O   UNL     1      46.787  39.329  12.591  1.00  0.00    -0.285 OA
ATOM      5  C   UNL     1      45.789  37.626  11.347  1.00  0.00     0.111 A 
ATOM      6  C   UNL     1      46.095  36.552  12.234  1.00  0.00     0.134 A 
ATOM      7  C   UNL     1      45.840  35.233  11.837  1.00  0.00     0.093 A 
ATOM      8  C   UNL     1      45.229  34.956  10.614  1.00  0.00     0.123 A 
ATOM      9  C   UNL     1      44.871  36.003   9.764  1.00  0.00     0.094 A 
ATOM     10  C   UNL     1      45.146  37.326  10.117  1.00  0.00     0.146 A 
ATOM     11  O   UNL     1      44.799  38.293   9.277  1.00  0.00    -0.452 OA
ENDROOT
BRANCH   1  12
ATOM     12  C   UNL     1      44.571  40.562   8.496  1.00  0.00     0.029 A 
ATOM     13  C   UNL     1      43.812  40.164   7.381  1.00  0.00     0.062 A 
ATOM     14  C   UNL     1      43.403  41.104   6.425  1.00  0.00     0.162 A 
ATOM     15  C   UNL     1      44.945  41.909   8.621  1.00  0.00     0.062 A 
ATOM     16  C   UNL     1      43.763  42.454   6.572  1.00  0.00     0.200 A 
ATOM     17  C   UNL     1      44.538  42.854   7.670  1.00  0.00     0.162 A 
BRANCH  14  18
ATOM     18  O   UNL     1      42.644  40.700   5.327  1.00  0.00    -0.504 OA
ATOM     19  H   UNL     1      41.647  40.870   5.280  1.00  0.00     0.293 HD
ENDBRANCH  14  18
BRANCH  16  20
ATOM     20  O   UNL     1      43.365  43.409   5.636  1.00  0.00    -0.502 OA
ATOM     21  H   UNL     1      42.988  44.308   5.911  1.00  0.00     0.293 HD
ENDBRANCH  16  20
BRANCH  17  22
ATOM     22  O   UNL     1      44.900  44.193   7.807  1.00  0.00    -0.504 OA
ATOM     23  H   UNL     1      44.227  44.899   8.080  1.00  0.00     0.293 HD
ENDBRANCH  17  22
ENDBRANCH   1  12
BRANCH   2  24
ATOM     24  O   UNL     1      46.063  41.310  10.865  1.00  0.00    -0.502 OA
ATOM     25  H   UNL     1      46.790  41.777  10.337  1.00  0.00     0.293 HD
ENDBRANCH   2  24
BRANCH   6  26
ATOM     26  O   UNL     1      46.623  36.725  13.517  1.00  0.00    -0.507 OA
ATOM     27  H   UNL     1      46.078  36.732  14.366  1.00  0.00     0.293 HD
ENDBRANCH   6  26
BRANCH   8  28
ATOM     28  O   UNL     1      44.974  33.634  10.257  1.00  0.00    -0.508 OA
ATOM     29  H   UNL     1      45.662  32.903  10.401  1.00  0.00     0.293 HD
ENDBRANCH   8  28
TORSDOF 7
ENDMDL
