MODEL 1
REMARK VINA RESULT:    -2.617      0.000      0.000
REMARK INTER + INTRA:          -6.099
REMARK INTER:                  -4.453
REMARK INTRA:                  -1.646
REMARK UNBOUND:                -1.646
REMARK SMILES CCCCCCCCCCCCCC(=O)[O-]
REMARK SMILES IDX 8 1 9 2 10 3 11 4 12 5 13 6 14 7 15 8 16 9 7 10 6 11 5 12
REMARK SMILES IDX 4 13 3 14 2 15 1 16
REMARK H PARENT
REMARK Flexibility Score: inf
ROOT
ATOM      1  C   UNL     1       5.209  22.315   7.368  1.00  0.00     0.000 C 
ENDROOT
BRANCH   1   2
ATOM      2  C   UNL     1       3.776  22.007   6.899  1.00  0.00     0.000 C 
BRANCH   2   3
ATOM      3  C   UNL     1       2.925  23.275   6.727  1.00  0.00     0.000 C 
BRANCH   3   4
ATOM      4  C   UNL     1       1.419  22.976   6.685  1.00  0.00     0.000 C 
BRANCH   4   5
ATOM      5  C   UNL     1       0.978  22.574   5.273  1.00  0.00     0.006 C 
BRANCH   5   6
ATOM      6  C   UNL     1      -0.398  23.157   4.940  1.00  0.00     0.053 C 
BRANCH   6   7
ATOM      7  C   UNL     1      -0.397  23.748   3.565  1.00  0.00     0.041 C 
ATOM      8  O   UNL     1      -1.165  24.707   3.288  1.00  0.00    -0.550 OA
ATOM      9  O   UNL     1       0.416  23.209   2.576  1.00  0.00    -0.550 OA
ENDBRANCH   6   7
ENDBRANCH   5   6
ENDBRANCH   4   5
ENDBRANCH   3   4
ENDBRANCH   2   3
ENDBRANCH   1   2
BRANCH   1  10
ATOM     10  C   UNL     1       5.555  23.808   7.267  1.00  0.00     0.000 C 
BRANCH  10  11
ATOM     11  C   UNL     1       6.955  24.052   6.686  1.00  0.00    -0.000 C 
BRANCH  11  12
ATOM     12  C   UNL     1       6.885  24.967   5.454  1.00  0.00    -0.000 C 
BRANCH  12  13
ATOM     13  C   UNL     1       6.268  24.275   4.226  1.00  0.00    -0.000 C 
BRANCH  13  14
ATOM     14  C   UNL     1       4.994  24.943   3.671  1.00  0.00    -0.000 C 
BRANCH  14  15
ATOM     15  C   UNL     1       3.851  23.973   3.322  1.00  0.00    -0.003 C 
ATOM     16  C   UNL     1       4.297  22.512   3.299  1.00  0.00     0.004 C 
ENDBRANCH  14  15
ENDBRANCH  13  14
ENDBRANCH  12  13
ENDBRANCH  11  12
ENDBRANCH  10  11
ENDBRANCH   1  10
TORSDOF 12
ENDMDL
MODEL 2
REMARK VINA RESULT:    -2.582      1.518      2.098
REMARK INTER + INTRA:          -6.039
REMARK INTER:                  -4.120
REMARK INTRA:                  -1.919
REMARK UNBOUND:                -1.646
REMARK SMILES CCCCCCCCCCCCCC(=O)[O-]
REMARK SMILES IDX 8 1 9 2 10 3 11 4 12 5 13 6 14 7 15 8 16 9 7 10 6 11 5 12
REMARK SMILES IDX 4 13 3 14 2 15 1 16
REMARK H PARENT
REMARK Flexibility Score: inf
ROOT
ATOM      1  C   UNL     1       5.920  21.939   8.003  1.00  0.00     0.000 C 
ENDROOT
BRANCH   1   2
ATOM      2  C   UNL     1       5.755  20.909   6.872  1.00  0.00     0.000 C 
BRANCH   2   3
ATOM      3  C   UNL     1       4.435  21.081   6.104  1.00  0.00     0.000 C 
BRANCH   3   4
ATOM      4  C   UNL     1       3.306  21.636   6.985  1.00  0.00     0.000 C 
BRANCH   4   5
ATOM      5  C   UNL     1       2.632  22.842   6.321  1.00  0.00     0.006 C 
BRANCH   5   6
ATOM      6  C   UNL     1       1.647  22.394   5.239  1.00  0.00     0.053 C 
BRANCH   6   7
ATOM      7  C   UNL     1       0.243  22.732   5.635  1.00  0.00     0.041 C 
ATOM      8  O   UNL     1      -0.442  23.517   4.928  1.00  0.00    -0.550 OA
ATOM      9  O   UNL     1      -0.290  22.219   6.810  1.00  0.00    -0.550 OA
ENDBRANCH   6   7
ENDBRANCH   5   6
ENDBRANCH   4   5
ENDBRANCH   3   4
ENDBRANCH   2   3
ENDBRANCH   1   2
BRANCH   1  10
ATOM     10  C   UNL     1       6.817  23.120   7.601  1.00  0.00     0.000 C 
BRANCH  10  11
ATOM     11  C   UNL     1       6.011  24.356   7.178  1.00  0.00    -0.000 C 
BRANCH  11  12
ATOM     12  C   UNL     1       6.491  24.884   5.818  1.00  0.00    -0.000 C 
BRANCH  12  13
ATOM     13  C   UNL     1       6.727  23.763   4.789  1.00  0.00    -0.000 C 
BRANCH  13  14
ATOM     14  C   UNL     1       5.641  23.635   3.703  1.00  0.00    -0.000 C 
BRANCH  14  15
ATOM     15  C   UNL     1       4.568  24.738   3.723  1.00  0.00    -0.003 C 
ATOM     16  C   UNL     1       3.428  24.479   2.740  1.00  0.00     0.004 C 
ENDBRANCH  14  15
ENDBRANCH  13  14
ENDBRANCH  12  13
ENDBRANCH  11  12
ENDBRANCH  10  11
ENDBRANCH   1  10
TORSDOF 12
ENDMDL
MODEL 3
REMARK VINA RESULT:    -2.550      0.930      2.628
REMARK INTER + INTRA:          -5.985
REMARK INTER:                  -4.281
REMARK INTRA:                  -1.704
REMARK UNBOUND:                -1.646
REMARK SMILES CCCCCCCCCCCCCC(=O)[O-]
REMARK SMILES IDX 8 1 9 2 10 3 11 4 12 5 13 6 14 7 15 8 16 9 7 10 6 11 5 12
REMARK SMILES IDX 4 13 3 14 2 15 1 16
REMARK H PARENT
REMARK Flexibility Score: inf
ROOT
ATOM      1  C   UNL     1       3.758  23.686   3.997  1.00  0.00     0.000 C 
ENDROOT
BRANCH   1   2
ATOM      2  C   UNL     1       3.294  22.587   4.969  1.00  0.00     0.000 C 
BRANCH   2   3
ATOM      3  C   UNL     1       2.835  23.152   6.323  1.00  0.00     0.000 C 
BRANCH   3   4
ATOM      4  C   UNL     1       1.387  22.769   6.664  1.00  0.00     0.000 C 
BRANCH   4   5
ATOM      5  C   UNL     1       0.646  22.262   5.421  1.00  0.00     0.006 C 
BRANCH   5   6
ATOM      6  C   UNL     1      -0.504  23.201   5.046  1.00  0.00     0.053 C 
BRANCH   6   7
ATOM      7  C   UNL     1      -0.347  23.685   3.638  1.00  0.00     0.041 C 
ATOM      8  O   UNL     1      -1.018  24.668   3.228  1.00  0.00    -0.550 OA
ATOM      9  O   UNL     1       0.503  23.019   2.764  1.00  0.00    -0.550 OA
ENDBRANCH   6   7
ENDBRANCH   5   6
ENDBRANCH   4   5
ENDBRANCH   3   4
ENDBRANCH   2   3
ENDBRANCH   1   2
BRANCH   1  10
ATOM     10  C   UNL     1       5.268  23.631   3.720  1.00  0.00     0.000 C 
BRANCH  10  11
ATOM     11  C   UNL     1       5.987  24.932   4.106  1.00  0.00    -0.000 C 
BRANCH  11  12
ATOM     12  C   UNL     1       6.909  24.710   5.314  1.00  0.00    -0.000 C 
BRANCH  12  13
ATOM     13  C   UNL     1       6.154  24.722   6.655  1.00  0.00    -0.000 C 
BRANCH  13  14
ATOM     14  C   UNL     1       6.405  23.497   7.557  1.00  0.00    -0.000 C 
BRANCH  14  15
ATOM     15  C   UNL     1       6.719  22.191   6.805  1.00  0.00    -0.003 C 
ATOM     16  C   UNL     1       5.843  21.022   7.252  1.00  0.00     0.004 C 
ENDBRANCH  14  15
ENDBRANCH  13  14
ENDBRANCH  12  13
ENDBRANCH  11  12
ENDBRANCH  10  11
ENDBRANCH   1  10
TORSDOF 12
ENDMDL
MODEL 4
REMARK VINA RESULT:    -2.536      1.303      3.246
REMARK INTER + INTRA:          -5.962
REMARK INTER:                  -4.198
REMARK INTRA:                  -1.764
REMARK UNBOUND:                -1.646
REMARK SMILES CCCCCCCCCCCCCC(=O)[O-]
REMARK SMILES IDX 8 1 9 2 10 3 11 4 12 5 13 6 14 7 15 8 16 9 7 10 6 11 5 12
REMARK SMILES IDX 4 13 3 14 2 15 1 16
REMARK H PARENT
REMARK Flexibility Score: inf
ROOT
ATOM      1  C   UNL     1       6.230  24.397   4.526  1.00  0.00     0.000 C 
ENDROOT
BRANCH   1   2
ATOM      2  C   UNL     1       4.703  24.570   4.458  1.00  0.00     0.000 C 
BRANCH   2   3
ATOM      3  C   UNL     1       4.128  24.209   3.079  1.00  0.00     0.000 C 
BRANCH   3   4
ATOM      4  C   UNL     1       3.211  22.978   3.124  1.00  0.00     0.000 C 
BRANCH   4   5
ATOM      5  C   UNL     1       1.736  23.388   3.037  1.00  0.00     0.006 C 
BRANCH   5   6
ATOM      6  C   UNL     1       0.823  22.260   3.524  1.00  0.00     0.053 C 
BRANCH   6   7
ATOM      7  C   UNL     1      -0.364  22.820   4.243  1.00  0.00     0.041 C 
ATOM      8  O   UNL     1      -0.667  24.035   4.113  1.00  0.00    -0.550 OA
ATOM      9  O   UNL     1      -1.107  22.012   5.094  1.00  0.00    -0.550 OA
ENDBRANCH   6   7
ENDBRANCH   5   6
ENDBRANCH   4   5
ENDBRANCH   3   4
ENDBRANCH   2   3
ENDBRANCH   1   2
BRANCH   1  10
ATOM     10  C   UNL     1       6.824  24.903   5.850  1.00  0.00     0.000 C 
BRANCH  10  11
ATOM     11  C   UNL     1       6.014  24.446   7.072  1.00  0.00    -0.000 C 
BRANCH  11  12
ATOM     12  C   UNL     1       6.295  22.972   7.396  1.00  0.00    -0.000 C 
BRANCH  12  13
ATOM     13  C   UNL     1       5.025  22.188   7.774  1.00  0.00    -0.000 C 
BRANCH  13  14
ATOM     14  C   UNL     1       4.281  21.540   6.589  1.00  0.00    -0.000 C 
BRANCH  14  15
ATOM     15  C   UNL     1       2.754  21.739   6.594  1.00  0.00    -0.003 C 
ATOM     16  C   UNL     1       2.344  23.190   6.838  1.00  0.00     0.004 C 
ENDBRANCH  14  15
ENDBRANCH  13  14
ENDBRANCH  12  13
ENDBRANCH  11  12
ENDBRANCH  10  11
ENDBRANCH   1  10
TORSDOF 12
ENDMDL
MODEL 5
REMARK VINA RESULT:    -2.472      1.662      3.590
REMARK INTER + INTRA:          -5.853
REMARK INTER:                  -4.276
REMARK INTRA:                  -1.577
REMARK UNBOUND:                -1.646
REMARK SMILES CCCCCCCCCCCCCC(=O)[O-]
REMARK SMILES IDX 8 1 9 2 10 3 11 4 12 5 13 6 14 7 15 8 16 9 7 10 6 11 5 12
REMARK SMILES IDX 4 13 3 14 2 15 1 16
REMARK H PARENT
REMARK Flexibility Score: inf
ROOT
ATOM      1  C   UNL     1       4.707  24.725   3.946  1.00  0.00     0.000 C 
ENDROOT
BRANCH   1   2
ATOM      2  C   UNL     1       4.068  23.492   3.283  1.00  0.00     0.000 C 
BRANCH   2   3
ATOM      3  C   UNL     1       4.486  22.176   3.959  1.00  0.00     0.000 C 
BRANCH   3   4
ATOM      4  C   UNL     1       3.303  21.445   4.612  1.00  0.00     0.000 C 
BRANCH   4   5
ATOM      5  C   UNL     1       2.140  22.409   4.876  1.00  0.00     0.006 C 
BRANCH   5   6
ATOM      6  C   UNL     1       1.445  22.082   6.200  1.00  0.00     0.053 C 
BRANCH   6   7
ATOM      7  C   UNL     1      -0.003  22.455   6.139  1.00  0.00     0.041 C 
ATOM      8  O   UNL     1      -0.808  22.014   7.000  1.00  0.00    -0.550 OA
ATOM      9  O   UNL     1      -0.473  23.251   5.102  1.00  0.00    -0.550 OA
ENDBRANCH   6   7
ENDBRANCH   5   6
ENDBRANCH   4   5
ENDBRANCH   3   4
ENDBRANCH   2   3
ENDBRANCH   1   2
BRANCH   1  10
ATOM     10  C   UNL     1       6.204  24.858   3.628  1.00  0.00     0.000 C 
BRANCH  10  11
ATOM     11  C   UNL     1       7.089  24.696   4.872  1.00  0.00    -0.000 C 
BRANCH  11  12
ATOM     12  C   UNL     1       6.281  24.942   6.155  1.00  0.00    -0.000 C 
BRANCH  12  13
ATOM     13  C   UNL     1       6.294  23.737   7.113  1.00  0.00    -0.000 C 
BRANCH  13  14
ATOM     14  C   UNL     1       4.905  23.185   7.488  1.00  0.00    -0.000 C 
BRANCH  14  15
ATOM     15  C   UNL     1       4.891  21.715   7.944  1.00  0.00    -0.003 C 
ATOM     16  C   UNL     1       6.163  21.311   8.689  1.00  0.00     0.004 C 
ENDBRANCH  14  15
ENDBRANCH  13  14
ENDBRANCH  12  13
ENDBRANCH  11  12
ENDBRANCH  10  11
ENDBRANCH   1  10
TORSDOF 12
ENDMDL
MODEL 6
REMARK VINA RESULT:    -2.432      1.329      2.792
REMARK INTER + INTRA:          -5.785
REMARK INTER:                  -4.391
REMARK INTRA:                  -1.394
REMARK UNBOUND:                -1.646
REMARK SMILES CCCCCCCCCCCCCC(=O)[O-]
REMARK SMILES IDX 8 1 9 2 10 3 11 4 12 5 13 6 14 7 15 8 16 9 7 10 6 11 5 12
REMARK SMILES IDX 4 13 3 14 2 15 1 16
REMARK H PARENT
REMARK Flexibility Score: inf
ROOT
ATOM      1  C   UNL     1       2.912  22.432   5.869  1.00  0.00     0.000 C 
ENDROOT
BRANCH   1   2
ATOM      2  C   UNL     1       1.789  23.064   6.710  1.00  0.00     0.000 C 
BRANCH   2   3
ATOM      3  C   UNL     1       0.693  22.054   7.086  1.00  0.00     0.000 C 
BRANCH   3   4
ATOM      4  C   UNL     1      -0.590  22.237   6.262  1.00  0.00     0.000 C 
BRANCH   4   5
ATOM      5  C   UNL     1      -0.499  21.486   4.929  1.00  0.00     0.006 C 
BRANCH   5   6
ATOM      6  C   UNL     1      -1.133  22.297   3.796  1.00  0.00     0.053 C 
BRANCH   6   7
ATOM      7  C   UNL     1      -0.349  23.547   3.545  1.00  0.00     0.041 C 
ATOM      8  O   UNL     1      -0.899  24.673   3.662  1.00  0.00    -0.550 OA
ATOM      9  O   UNL     1       0.975  23.467   3.132  1.00  0.00    -0.550 OA
ENDBRANCH   6   7
ENDBRANCH   5   6
ENDBRANCH   4   5
ENDBRANCH   3   4
ENDBRANCH   2   3
ENDBRANCH   1   2
BRANCH   1  10
ATOM     10  C   UNL     1       3.371  21.074   6.422  1.00  0.00     0.000 C 
BRANCH  10  11
ATOM     11  C   UNL     1       4.439  21.213   7.517  1.00  0.00    -0.000 C 
BRANCH  11  12
ATOM     12  C   UNL     1       5.769  21.703   6.927  1.00  0.00    -0.000 C 
BRANCH  12  13
ATOM     13  C   UNL     1       6.372  22.885   7.707  1.00  0.00    -0.000 C 
BRANCH  13  14
ATOM     14  C   UNL     1       5.914  24.280   7.236  1.00  0.00    -0.000 C 
BRANCH  14  15
ATOM     15  C   UNL     1       6.579  24.779   5.941  1.00  0.00    -0.003 C 
ATOM     16  C   UNL     1       5.658  24.688   4.725  1.00  0.00     0.004 C 
ENDBRANCH  14  15
ENDBRANCH  13  14
ENDBRANCH  12  13
ENDBRANCH  11  12
ENDBRANCH  10  11
ENDBRANCH   1  10
TORSDOF 12
ENDMDL
MODEL 7
REMARK VINA RESULT:    -2.419      1.889      4.024
REMARK INTER + INTRA:          -5.762
REMARK INTER:                  -3.895
REMARK INTRA:                  -1.867
REMARK UNBOUND:                -1.646
REMARK SMILES CCCCCCCCCCCCCC(=O)[O-]
REMARK SMILES IDX 8 1 9 2 10 3 11 4 12 5 13 6 14 7 15 8 16 9 7 10 6 11 5 12
REMARK SMILES IDX 4 13 3 14 2 15 1 16
REMARK H PARENT
REMARK Flexibility Score: inf
ROOT
ATOM      1  C   UNL     1       6.172  24.086   7.483  1.00  0.00     0.000 C 
ENDROOT
BRANCH   1   2
ATOM      2  C   UNL     1       6.062  24.694   6.074  1.00  0.00     0.000 C 
BRANCH   2   3
ATOM      3  C   UNL     1       6.633  23.771   4.986  1.00  0.00     0.000 C 
BRANCH   3   4
ATOM      4  C   UNL     1       5.673  23.590   3.800  1.00  0.00     0.000 C 
BRANCH   4   5
ATOM      5  C   UNL     1       4.802  24.836   3.604  1.00  0.00     0.006 C 
BRANCH   5   6
ATOM      6  C   UNL     1       4.263  24.911   2.173  1.00  0.00     0.053 C 
BRANCH   6   7
ATOM      7  C   UNL     1       3.228  25.986   2.058  1.00  0.00     0.041 C 
ATOM      8  O   UNL     1       3.576  27.191   1.948  1.00  0.00    -0.550 OA
ATOM      9  O   UNL     1       1.879  25.662   2.123  1.00  0.00    -0.550 OA
ENDBRANCH   6   7
ENDBRANCH   5   6
ENDBRANCH   4   5
ENDBRANCH   3   4
ENDBRANCH   2   3
ENDBRANCH   1   2
BRANCH   1  10
ATOM     10  C   UNL     1       6.582  22.606   7.457  1.00  0.00     0.000 C 
BRANCH  10  11
ATOM     11  C   UNL     1       5.453  21.672   7.918  1.00  0.00    -0.000 C 
BRANCH  11  12
ATOM     12  C   UNL     1       4.606  21.206   6.724  1.00  0.00    -0.000 C 
BRANCH  12  13
ATOM     13  C   UNL     1       3.128  21.622   6.838  1.00  0.00    -0.000 C 
BRANCH  13  14
ATOM     14  C   UNL     1       2.754  22.915   6.087  1.00  0.00    -0.000 C 
BRANCH  14  15
ATOM     15  C   UNL     1       1.845  22.714   4.861  1.00  0.00    -0.003 C 
ATOM     16  C   UNL     1       2.446  21.766   3.824  1.00  0.00     0.004 C 
ENDBRANCH  14  15
ENDBRANCH  13  14
ENDBRANCH  12  13
ENDBRANCH  11  12
ENDBRANCH  10  11
ENDBRANCH   1  10
TORSDOF 12
ENDMDL
MODEL 8
REMARK VINA RESULT:    -2.361      1.994      2.476
REMARK INTER + INTRA:          -5.664
REMARK INTER:                  -3.917
REMARK INTRA:                  -1.747
REMARK UNBOUND:                -1.646
REMARK SMILES CCCCCCCCCCCCCC(=O)[O-]
REMARK SMILES IDX 8 1 9 2 10 3 11 4 12 5 13 6 14 7 15 8 16 9 7 10 6 11 5 12
REMARK SMILES IDX 4 13 3 14 2 15 1 16
REMARK H PARENT
REMARK Flexibility Score: inf
ROOT
ATOM      1  C   UNL     1       3.105  22.514   6.538  1.00  0.00     0.000 C 
ENDROOT
BRANCH   1   2
ATOM      2  C   UNL     1       3.138  21.267   5.637  1.00  0.00     0.000 C 
BRANCH   2   3
ATOM      3  C   UNL     1       2.784  21.585   4.175  1.00  0.00     0.000 C 
BRANCH   3   4
ATOM      4  C   UNL     1       2.007  22.902   4.027  1.00  0.00     0.000 C 
BRANCH   4   5
ATOM      5  C   UNL     1       0.521  22.636   3.761  1.00  0.00     0.006 C 
BRANCH   5   6
ATOM      6  C   UNL     1      -0.352  23.237   4.866  1.00  0.00     0.053 C 
BRANCH   6   7
ATOM      7  C   UNL     1      -0.834  22.165   5.793  1.00  0.00     0.041 C 
ATOM      8  O   UNL     1      -0.430  22.131   6.985  1.00  0.00    -0.550 OA
ATOM      9  O   UNL     1      -1.691  21.176   5.328  1.00  0.00    -0.550 OA
ENDBRANCH   6   7
ENDBRANCH   5   6
ENDBRANCH   4   5
ENDBRANCH   3   4
ENDBRANCH   2   3
ENDBRANCH   1   2
BRANCH   1  10
ATOM     10  C   UNL     1       4.490  22.877   7.095  1.00  0.00     0.000 C 
BRANCH  10  11
ATOM     11  C   UNL     1       5.221  23.915   6.231  1.00  0.00    -0.000 C 
BRANCH  11  12
ATOM     12  C   UNL     1       6.175  23.230   5.242  1.00  0.00    -0.000 C 
BRANCH  12  13
ATOM     13  C   UNL     1       6.065  23.795   3.814  1.00  0.00    -0.000 C 
BRANCH  13  14
ATOM     14  C   UNL     1       5.049  24.941   3.641  1.00  0.00    -0.000 C 
BRANCH  14  15
ATOM     15  C   UNL     1       4.454  25.074   2.228  1.00  0.00    -0.003 C 
ATOM     16  C   UNL     1       3.217  25.970   2.185  1.00  0.00     0.004 C 
ENDBRANCH  14  15
ENDBRANCH  13  14
ENDBRANCH  12  13
ENDBRANCH  11  12
ENDBRANCH  10  11
ENDBRANCH   1  10
TORSDOF 12
ENDMDL
MODEL 9
REMARK VINA RESULT:    -2.361      2.506      5.339
REMARK INTER + INTRA:          -5.664
REMARK INTER:                  -3.843
REMARK INTRA:                  -1.821
REMARK UNBOUND:                -1.646
REMARK SMILES CCCCCCCCCCCCCC(=O)[O-]
REMARK SMILES IDX 8 1 9 2 10 3 11 4 12 5 13 6 14 7 15 8 16 9 7 10 6 11 5 12
REMARK SMILES IDX 4 13 3 14 2 15 1 16
REMARK H PARENT
REMARK Flexibility Score: inf
ROOT
ATOM      1  C   UNL     1       1.142  22.770   6.575  1.00  0.00     0.000 C 
ENDROOT
BRANCH   1   2
ATOM      2  C   UNL     1       1.954  21.483   6.806  1.00  0.00     0.000 C 
BRANCH   2   3
ATOM      3  C   UNL     1       3.471  21.725   6.748  1.00  0.00     0.000 C 
BRANCH   3   4
ATOM      4  C   UNL     1       3.835  23.216   6.795  1.00  0.00     0.000 C 
BRANCH   4   5
ATOM      5  C   UNL     1       5.219  23.425   7.421  1.00  0.00     0.006 C 
BRANCH   5   6
ATOM      6  C   UNL     1       5.989  24.530   6.695  1.00  0.00     0.053 C 
BRANCH   6   7
ATOM      7  C   UNL     1       6.152  24.191   5.246  1.00  0.00     0.041 C 
ATOM      8  O   UNL     1       5.733  24.981   4.360  1.00  0.00    -0.550 OA
ATOM      9  O   UNL     1       6.721  22.980   4.875  1.00  0.00    -0.550 OA
ENDBRANCH   6   7
ENDBRANCH   5   6
ENDBRANCH   4   5
ENDBRANCH   3   4
ENDBRANCH   2   3
ENDBRANCH   1   2
BRANCH   1  10
ATOM     10  C   UNL     1      -0.157  22.516   5.795  1.00  0.00     0.000 C 
BRANCH  10  11
ATOM     11  C   UNL     1      -0.002  21.420   4.730  1.00  0.00    -0.000 C 
BRANCH  11  12
ATOM     12  C   UNL     1      -0.290  21.974   3.327  1.00  0.00    -0.000 C 
BRANCH  12  13
ATOM     13  C   UNL     1       0.162  23.436   3.156  1.00  0.00    -0.000 C 
BRANCH  13  14
ATOM     14  C   UNL     1       1.483  23.625   2.384  1.00  0.00    -0.000 C 
BRANCH  14  15
ATOM     15  C   UNL     1       2.755  23.546   3.247  1.00  0.00    -0.003 C 
ATOM     16  C   UNL     1       3.485  22.211   3.110  1.00  0.00     0.004 C 
ENDBRANCH  14  15
ENDBRANCH  13  14
ENDBRANCH  12  13
ENDBRANCH  11  12
ENDBRANCH  10  11
ENDBRANCH   1  10
TORSDOF 12
ENDMDL
