MODEL 1
REMARK VINA RESULT:     0.548      0.000      0.000
REMARK INTER + INTRA:           0.486
REMARK INTER:                   0.868
REMARK INTRA:                  -0.382
REMARK UNBOUND:                -0.382
REMARK SMILES CCCCCCCCCCCC(=O)[O-]
REMARK SMILES IDX 7 1 8 2 9 3 10 4 11 5 12 6 13 7 14 8 6 9 5 10 4 11 3 12 2 13
REMARK SMILES IDX 1 14
REMARK H PARENT
REMARK Flexibility Score: inf
ROOT
ATOM      1  C   UNL     1     -16.679   5.937 -15.679  1.00  0.00     0.000 C 
ENDROOT
BRANCH   1   2
ATOM      2  C   UNL     1     -17.991   6.457 -16.278  1.00  0.00     0.000 C 
BRANCH   2   3
ATOM      3  C   UNL     1     -19.166   6.219 -15.322  1.00  0.00     0.000 C 
BRANCH   3   4
ATOM      4  C   UNL     1     -19.664   4.770 -15.413  1.00  0.00     0.006 C 
BRANCH   4   5
ATOM      5  C   UNL     1     -19.261   3.939 -14.188  1.00  0.00     0.053 C 
BRANCH   5   6
ATOM      6  C   UNL     1     -19.183   2.477 -14.507  1.00  0.00     0.041 C 
ATOM      7  O   UNL     1     -18.343   1.745 -13.920  1.00  0.00    -0.550 OA
ATOM      8  O   UNL     1     -20.015   1.931 -15.476  1.00  0.00    -0.550 OA
ENDBRANCH   5   6
ENDBRANCH   4   5
ENDBRANCH   3   4
ENDBRANCH   2   3
ENDBRANCH   1   2
BRANCH   1   9
ATOM      9  C   UNL     1     -15.974   7.026 -14.862  1.00  0.00     0.000 C 
BRANCH   9  10
ATOM     10  C   UNL     1     -14.969   6.412 -13.876  1.00  0.00    -0.000 C 
BRANCH  10  11
ATOM     11  C   UNL     1     -13.608   7.125 -13.897  1.00  0.00    -0.000 C 
BRANCH  11  12
ATOM     12  C   UNL     1     -12.502   6.270 -14.541  1.00  0.00    -0.000 C 
BRANCH  12  13
ATOM     13  C   UNL     1     -11.173   7.030 -14.670  1.00  0.00    -0.003 C 
ATOM     14  C   UNL     1     -10.098   6.220 -15.393  1.00  0.00     0.004 C 
ENDBRANCH  12  13
ENDBRANCH  11  12
ENDBRANCH  10  11
ENDBRANCH   9  10
ENDBRANCH   1   9
TORSDOF 10
ENDMDL
MODEL 2
REMARK VINA RESULT:     1.511      4.219      7.431
REMARK INTER + INTRA:           2.012
REMARK INTER:                   2.579
REMARK INTRA:                  -0.567
REMARK UNBOUND:                -0.382
REMARK SMILES CCCCCCCCCCCC(=O)[O-]
REMARK SMILES IDX 7 1 8 2 9 3 10 4 11 5 12 6 13 7 14 8 6 9 5 10 4 11 3 12 2 13
REMARK SMILES IDX 1 14
REMARK H PARENT
REMARK Flexibility Score: inf
ROOT
ATOM      1  C   UNL     1     -15.921   6.799 -15.861  1.00  0.00     0.000 C 
ENDROOT
BRANCH   1   2
ATOM      2  C   UNL     1     -14.425   7.117 -15.758  1.00  0.00     0.000 C 
BRANCH   2   3
ATOM      3  C   UNL     1     -13.876   6.739 -14.378  1.00  0.00     0.000 C 
BRANCH   3   4
ATOM      4  C   UNL     1     -12.388   7.102 -14.260  1.00  0.00     0.006 C 
BRANCH   4   5
ATOM      5  C   UNL     1     -11.639   6.919 -15.586  1.00  0.00     0.053 C 
BRANCH   5   6
ATOM      6  C   UNL     1     -10.167   6.737 -15.374  1.00  0.00     0.041 C 
ATOM      7  O   UNL     1      -9.357   6.998 -16.302  1.00  0.00    -0.550 OA
ATOM      8  O   UNL     1      -9.694   6.249 -14.163  1.00  0.00    -0.550 OA
ENDBRANCH   5   6
ENDBRANCH   4   5
ENDBRANCH   3   4
ENDBRANCH   2   3
ENDBRANCH   1   2
BRANCH   1   9
ATOM      9  C   UNL     1     -16.534   6.567 -14.474  1.00  0.00     0.000 C 
BRANCH   9  10
ATOM     10  C   UNL     1     -18.027   6.928 -14.465  1.00  0.00    -0.000 C 
BRANCH  10  11
ATOM     11  C   UNL     1     -18.904   5.834 -15.094  1.00  0.00    -0.000 C 
BRANCH  11  12
ATOM     12  C   UNL     1     -19.647   6.321 -16.350  1.00  0.00    -0.000 C 
BRANCH  12  13
ATOM     13  C   UNL     1     -18.861   6.044 -17.641  1.00  0.00    -0.003 C 
ATOM     14  C   UNL     1     -19.179   7.045 -18.751  1.00  0.00     0.004 C 
ENDBRANCH  12  13
ENDBRANCH  11  12
ENDBRANCH  10  11
ENDBRANCH   9  10
ENDBRANCH   1   9
TORSDOF 10
ENDMDL
