MODEL 1
REMARK VINA RESULT:    -3.247      0.000      0.000
REMARK INTER + INTRA:          -3.855
REMARK INTER:                  -3.817
REMARK INTRA:                  -0.038
REMARK UNBOUND:                -0.038
REMARK SMILES CCCCC(=O)[O-]
REMARK SMILES IDX 4 1 5 2 6 3 7 4 3 5 2 6 1 7
REMARK H PARENT
REMARK Flexibility Score: inf
ROOT
ATOM      1  C   UNL     1     163.624 163.764 149.996  1.00  0.00     0.053 C 
ENDROOT
BRANCH   1   2
ATOM      2  C   UNL     1     165.110 163.942 150.018  1.00  0.00     0.041 C 
ATOM      3  O   UNL     1     165.620 164.933 150.604  1.00  0.00    -0.550 OA
ATOM      4  O   UNL     1     165.928 163.041 149.347  1.00  0.00    -0.550 OA
ENDBRANCH   1   2
BRANCH   1   5
ATOM      5  C   UNL     1     163.261 162.281 150.142  1.00  0.00     0.006 C 
BRANCH   5   6
ATOM      6  C   UNL     1     161.839 161.971 149.649  1.00  0.00    -0.003 C 
ATOM      7  C   UNL     1     161.133 163.198 149.073  1.00  0.00     0.004 C 
ENDBRANCH   5   6
ENDBRANCH   1   5
TORSDOF 3
ENDMDL
MODEL 2
REMARK VINA RESULT:    -3.241      5.962      7.161
REMARK INTER + INTRA:          -3.848
REMARK INTER:                  -3.816
REMARK INTRA:                  -0.032
REMARK UNBOUND:                -0.038
REMARK SMILES CCCCC(=O)[O-]
REMARK SMILES IDX 4 1 5 2 6 3 7 4 3 5 2 6 1 7
REMARK H PARENT
REMARK Flexibility Score: inf
ROOT
ATOM      1  C   UNL     1     159.151 158.116 147.629  1.00  0.00     0.053 C 
ENDROOT
BRANCH   1   2
ATOM      2  C   UNL     1     160.202 159.182 147.627  1.00  0.00     0.041 C 
ATOM      3  O   UNL     1     161.251 159.039 148.308  1.00  0.00    -0.550 OA
ATOM      4  O   UNL     1     159.999 160.355 146.912  1.00  0.00    -0.550 OA
ENDBRANCH   1   2
BRANCH   1   5
ATOM      5  C   UNL     1     159.411 157.112 148.759  1.00  0.00     0.006 C 
BRANCH   5   6
ATOM      6  C   UNL     1     158.145 156.339 149.162  1.00  0.00    -0.003 C 
ATOM      7  C   UNL     1     157.132 157.210 149.905  1.00  0.00     0.004 C 
ENDBRANCH   5   6
ENDBRANCH   1   5
TORSDOF 3
ENDMDL
MODEL 3
REMARK VINA RESULT:    -3.223      5.500      6.684
REMARK INTER + INTRA:          -3.827
REMARK INTER:                  -3.717
REMARK INTRA:                  -0.110
REMARK UNBOUND:                -0.038
REMARK SMILES CCCCC(=O)[O-]
REMARK SMILES IDX 4 1 5 2 6 3 7 4 3 5 2 6 1 7
REMARK H PARENT
REMARK Flexibility Score: inf
ROOT
ATOM      1  C   UNL     1     158.477 160.192 148.415  1.00  0.00     0.053 C 
ENDROOT
BRANCH   1   2
ATOM      2  C   UNL     1     159.625 160.429 147.485  1.00  0.00     0.041 C 
ATOM      3  O   UNL     1     159.841 159.636 146.531  1.00  0.00    -0.550 OA
ATOM      4  O   UNL     1     160.486 161.497 147.701  1.00  0.00    -0.550 OA
ENDBRANCH   1   2
BRANCH   1   5
ATOM      5  C   UNL     1     158.830 159.101 149.433  1.00  0.00     0.006 C 
BRANCH   5   6
ATOM      6  C   UNL     1     158.062 157.793 149.184  1.00  0.00    -0.003 C 
ATOM      7  C   UNL     1     158.928 156.712 148.538  1.00  0.00     0.004 C 
ENDBRANCH   5   6
ENDBRANCH   1   5
TORSDOF 3
ENDMDL
MODEL 4
REMARK VINA RESULT:    -3.198      4.382      5.436
REMARK INTER + INTRA:          -3.797
REMARK INTER:                  -3.717
REMARK INTRA:                  -0.080
REMARK UNBOUND:                -0.038
REMARK SMILES CCCCC(=O)[O-]
REMARK SMILES IDX 4 1 5 2 6 3 7 4 3 5 2 6 1 7
REMARK H PARENT
REMARK Flexibility Score: inf
ROOT
ATOM      1  C   UNL     1     159.401 162.469 150.027  1.00  0.00     0.053 C 
ENDROOT
BRANCH   1   2
ATOM      2  C   UNL     1     158.923 161.071 149.787  1.00  0.00     0.041 C 
ATOM      3  O   UNL     1     158.896 160.240 150.731  1.00  0.00    -0.550 OA
ATOM      4  O   UNL     1     158.556 160.673 148.507  1.00  0.00    -0.550 OA
ENDBRANCH   1   2
BRANCH   1   5
ATOM      5  C   UNL     1     160.672 162.747 149.215  1.00  0.00     0.006 C 
BRANCH   5   6
ATOM      6  C   UNL     1     161.844 161.843 149.627  1.00  0.00    -0.003 C 
ATOM      7  C   UNL     1     163.098 162.635 149.999  1.00  0.00     0.004 C 
ENDBRANCH   5   6
ENDBRANCH   1   5
TORSDOF 3
ENDMDL
MODEL 5
REMARK VINA RESULT:    -3.182      5.682      6.758
REMARK INTER + INTRA:          -3.778
REMARK INTER:                  -3.690
REMARK INTRA:                  -0.088
REMARK UNBOUND:                -0.038
REMARK SMILES CCCCC(=O)[O-]
REMARK SMILES IDX 4 1 5 2 6 3 7 4 3 5 2 6 1 7
REMARK H PARENT
REMARK Flexibility Score: inf
ROOT
ATOM      1  C   UNL     1     160.364 158.911 147.687  1.00  0.00     0.053 C 
ENDROOT
BRANCH   1   2
ATOM      2  C   UNL     1     159.718 160.256 147.795  1.00  0.00     0.041 C 
ATOM      3  O   UNL     1     160.377 161.298 147.538  1.00  0.00    -0.550 OA
ATOM      4  O   UNL     1     158.402 160.362 148.227  1.00  0.00    -0.550 OA
ENDBRANCH   1   2
BRANCH   1   5
ATOM      5  C   UNL     1     159.983 158.036 148.888  1.00  0.00     0.006 C 
BRANCH   5   6
ATOM      6  C   UNL     1     159.045 156.882 148.501  1.00  0.00    -0.003 C 
ATOM      7  C   UNL     1     157.803 156.806 149.389  1.00  0.00     0.004 C 
ENDBRANCH   5   6
ENDBRANCH   1   5
TORSDOF 3
ENDMDL
MODEL 6
REMARK VINA RESULT:    -3.154      4.804      5.736
REMARK INTER + INTRA:          -3.746
REMARK INTER:                  -3.636
REMARK INTRA:                  -0.110
REMARK UNBOUND:                -0.038
REMARK SMILES CCCCC(=O)[O-]
REMARK SMILES IDX 4 1 5 2 6 3 7 4 3 5 2 6 1 7
REMARK H PARENT
REMARK Flexibility Score: inf
ROOT
ATOM      1  C   UNL     1     160.774 159.544 148.728  1.00  0.00     0.053 C 
ENDROOT
BRANCH   1   2
ATOM      2  C   UNL     1     159.663 159.831 147.767  1.00  0.00     0.041 C 
ATOM      3  O   UNL     1     159.832 159.651 146.532  1.00  0.00    -0.550 OA
ATOM      4  O   UNL     1     158.459 160.345 148.230  1.00  0.00    -0.550 OA
ENDBRANCH   1   2
BRANCH   1   5
ATOM      5  C   UNL     1     160.840 160.629 149.809  1.00  0.00     0.006 C 
BRANCH   5   6
ATOM      6  C   UNL     1     161.759 161.796 149.418  1.00  0.00    -0.003 C 
ATOM      7  C   UNL     1     160.984 163.055 149.029  1.00  0.00     0.004 C 
ENDBRANCH   5   6
ENDBRANCH   1   5
TORSDOF 3
ENDMDL
MODEL 7
REMARK VINA RESULT:    -3.136      2.670      3.594
REMARK INTER + INTRA:          -3.724
REMARK INTER:                  -3.615
REMARK INTRA:                  -0.109
REMARK UNBOUND:                -0.038
REMARK SMILES CCCCC(=O)[O-]
REMARK SMILES IDX 4 1 5 2 6 3 7 4 3 5 2 6 1 7
REMARK H PARENT
REMARK Flexibility Score: inf
ROOT
ATOM      1  C   UNL     1     160.797 162.996 148.862  1.00  0.00     0.053 C 
ENDROOT
BRANCH   1   2
ATOM      2  C   UNL     1     162.051 162.660 149.605  1.00  0.00     0.041 C 
ATOM      3  O   UNL     1     162.162 161.552 150.193  1.00  0.00    -0.550 OA
ATOM      4  O   UNL     1     163.079 163.591 149.689  1.00  0.00    -0.550 OA
ENDBRANCH   1   2
BRANCH   1   5
ATOM      5  C   UNL     1     159.672 162.027 149.246  1.00  0.00     0.006 C 
BRANCH   5   6
ATOM      6  C   UNL     1     158.760 162.590 150.348  1.00  0.00    -0.003 C 
ATOM      7  C   UNL     1     158.978 161.910 151.699  1.00  0.00     0.004 C 
ENDBRANCH   5   6
ENDBRANCH   1   5
TORSDOF 3
ENDMDL
MODEL 8
REMARK VINA RESULT:    -3.120      4.734      5.717
REMARK INTER + INTRA:          -3.705
REMARK INTER:                  -3.597
REMARK INTRA:                  -0.108
REMARK UNBOUND:                -0.038
REMARK SMILES CCCCC(=O)[O-]
REMARK SMILES IDX 4 1 5 2 6 3 7 4 3 5 2 6 1 7
REMARK H PARENT
REMARK Flexibility Score: inf
ROOT
ATOM      1  C   UNL     1     158.855 162.661 151.120  1.00  0.00     0.053 C 
ENDROOT
BRANCH   1   2
ATOM      2  C   UNL     1     158.910 161.639 152.210  1.00  0.00     0.041 C 
ATOM      3  O   UNL     1     159.613 160.603 152.072  1.00  0.00    -0.550 OA
ATOM      4  O   UNL     1     158.146 161.805 153.359  1.00  0.00    -0.550 OA
ENDBRANCH   1   2
BRANCH   1   5
ATOM      5  C   UNL     1     159.356 162.064 149.799  1.00  0.00     0.006 C 
BRANCH   5   6
ATOM      6  C   UNL     1     160.575 162.812 149.239  1.00  0.00    -0.003 C 
ATOM      7  C   UNL     1     161.902 162.190 149.675  1.00  0.00     0.004 C 
ENDBRANCH   5   6
ENDBRANCH   1   5
TORSDOF 3
ENDMDL
MODEL 9
REMARK VINA RESULT:    -3.103      6.638      7.303
REMARK INTER + INTRA:          -3.685
REMARK INTER:                  -3.579
REMARK INTRA:                  -0.106
REMARK UNBOUND:                -0.038
REMARK SMILES CCCCC(=O)[O-]
REMARK SMILES IDX 4 1 5 2 6 3 7 4 3 5 2 6 1 7
REMARK H PARENT
REMARK Flexibility Score: inf
ROOT
ATOM      1  C   UNL     1     160.497 156.940 150.753  1.00  0.00     0.053 C 
ENDROOT
BRANCH   1   2
ATOM      2  C   UNL     1     160.411 158.091 151.704  1.00  0.00     0.041 C 
ATOM      3  O   UNL     1     159.920 159.188 151.329  1.00  0.00    -0.550 OA
ATOM      4  O   UNL     1     160.920 157.969 152.991  1.00  0.00    -0.550 OA
ENDBRANCH   1   2
BRANCH   1   5
ATOM      5  C   UNL     1     160.022 157.362 149.357  1.00  0.00     0.006 C 
BRANCH   5   6
ATOM      6  C   UNL     1     158.810 156.548 148.876  1.00  0.00    -0.003 C 
ATOM      7  C   UNL     1     157.519 156.925 149.602  1.00  0.00     0.004 C 
ENDBRANCH   5   6
ENDBRANCH   1   5
TORSDOF 3
ENDMDL
