MODEL 1
REMARK VINA RESULT:     8.675      0.000      0.000
REMARK INTER + INTRA:          16.024
REMARK INTER:                  15.774
REMARK INTRA:                   0.250
REMARK UNBOUND:                 0.250
REMARK SMILES CCCCCCCCCCCCCC[C@@H](C)C(=O)[O-]
REMARK SMILES IDX 9 1 10 2 11 3 12 4 13 5 14 6 15 7 16 8 17 9 18 10 19 11 8 12
REMARK SMILES IDX 7 13 6 14 5 15 4 16 3 17 2 18 1 19
REMARK H PARENT
REMARK Flexibility Score: inf
ROOT
ATOM      1  C   UNL     1      -3.873 -16.589   7.310  1.00  0.00     0.000 C 
ENDROOT
BRANCH   1   2
ATOM      2  C   UNL     1      -5.095 -16.156   6.483  1.00  0.00     0.000 C 
BRANCH   2   3
ATOM      3  C   UNL     1      -6.399 -16.170   7.301  1.00  0.00     0.000 C 
BRANCH   3   4
ATOM      4  C   UNL     1      -7.101 -14.802   7.317  1.00  0.00     0.000 C 
BRANCH   4   5
ATOM      5  C   UNL     1      -6.842 -13.990   6.036  1.00  0.00     0.001 C 
BRANCH   5   6
ATOM      6  C   UNL     1      -5.361 -13.580   5.881  1.00  0.00     0.009 C 
BRANCH   6   7
ATOM      7  C   UNL     1      -5.053 -12.163   6.415  1.00  0.00     0.032 C 
ATOM      8  C   UNL     1      -6.352 -11.413   6.734  1.00  0.00     0.014 C 
BRANCH   7   9
ATOM      9  C   UNL     1      -4.174 -12.202   7.633  1.00  0.00     0.044 C 
ATOM     10  O   UNL     1      -4.094 -13.248   8.332  1.00  0.00    -0.550 OA
ATOM     11  O   UNL     1      -3.431 -11.083   7.988  1.00  0.00    -0.550 OA
ENDBRANCH   7   9
ENDBRANCH   6   7
ENDBRANCH   5   6
ENDBRANCH   4   5
ENDBRANCH   3   4
ENDBRANCH   2   3
ENDBRANCH   1   2
BRANCH   1  12
ATOM     12  C   UNL     1      -2.542 -16.216   6.635  1.00  0.00     0.000 C 
BRANCH  12  13
ATOM     13  C   UNL     1      -2.547 -14.786   6.071  1.00  0.00    -0.000 C 
BRANCH  13  14
ATOM     14  C   UNL     1      -1.357 -13.947   6.569  1.00  0.00    -0.000 C 
BRANCH  14  15
ATOM     15  C   UNL     1      -0.949 -14.301   8.008  1.00  0.00    -0.000 C 
BRANCH  15  16
ATOM     16  C   UNL     1       0.451 -13.774   8.369  1.00  0.00    -0.000 C 
BRANCH  16  17
ATOM     17  C   UNL     1       1.410 -14.894   8.804  1.00  0.00    -0.000 C 
BRANCH  17  18
ATOM     18  C   UNL     1       2.023 -14.641  10.189  1.00  0.00    -0.003 C 
ATOM     19  C   UNL     1       1.250 -15.384  11.275  1.00  0.00     0.004 C 
ENDBRANCH  17  18
ENDBRANCH  16  17
ENDBRANCH  15  16
ENDBRANCH  14  15
ENDBRANCH  13  14
ENDBRANCH  12  13
ENDBRANCH   1  12
TORSDOF 14
ENDMDL
MODEL 2
REMARK VINA RESULT:     8.961      2.400      6.201
REMARK INTER + INTRA:          16.545
REMARK INTER:                  17.322
REMARK INTRA:                  -0.777
REMARK UNBOUND:                 0.250
REMARK SMILES CCCCCCCCCCCCCC[C@@H](C)C(=O)[O-]
REMARK SMILES IDX 9 1 10 2 11 3 12 4 13 5 14 6 15 7 16 8 17 9 18 10 19 11 8 12
REMARK SMILES IDX 7 13 6 14 5 15 4 16 3 17 2 18 1 19
REMARK H PARENT
REMARK Flexibility Score: inf
ROOT
ATOM      1  C   UNL     1      -3.608 -16.820   6.665  1.00  0.00     0.000 C 
ENDROOT
BRANCH   1   2
ATOM      2  C   UNL     1      -2.807 -15.643   7.245  1.00  0.00     0.000 C 
BRANCH   2   3
ATOM      3  C   UNL     1      -2.226 -14.725   6.154  1.00  0.00     0.000 C 
BRANCH   3   4
ATOM      4  C   UNL     1      -1.144 -13.776   6.695  1.00  0.00     0.000 C 
BRANCH   4   5
ATOM      5  C   UNL     1      -0.902 -13.953   8.203  1.00  0.00     0.001 C 
BRANCH   5   6
ATOM      6  C   UNL     1       0.589 -13.825   8.585  1.00  0.00     0.009 C 
BRANCH   6   7
ATOM      7  C   UNL     1       1.195 -15.127   9.157  1.00  0.00     0.032 C 
ATOM      8  C   UNL     1       2.271 -15.680   8.216  1.00  0.00     0.014 C 
BRANCH   7   9
ATOM      9  C   UNL     1       1.774 -14.920  10.529  1.00  0.00     0.044 C 
ATOM     10  O   UNL     1       1.048 -15.030  11.554  1.00  0.00    -0.550 OA
ATOM     11  O   UNL     1       3.122 -14.619  10.674  1.00  0.00    -0.550 OA
ENDBRANCH   7   9
ENDBRANCH   6   7
ENDBRANCH   5   6
ENDBRANCH   4   5
ENDBRANCH   3   4
ENDBRANCH   2   3
ENDBRANCH   1   2
BRANCH   1  12
ATOM     12  C   UNL     1      -5.076 -16.818   7.124  1.00  0.00     0.000 C 
BRANCH  12  13
ATOM     13  C   UNL     1      -5.961 -15.903   6.262  1.00  0.00    -0.000 C 
BRANCH  13  14
ATOM     14  C   UNL     1      -6.573 -14.742   7.066  1.00  0.00    -0.000 C 
BRANCH  14  15
ATOM     15  C   UNL     1      -6.961 -13.550   6.176  1.00  0.00    -0.000 C 
BRANCH  15  16
ATOM     16  C   UNL     1      -6.030 -12.341   6.374  1.00  0.00    -0.000 C 
BRANCH  16  17
ATOM     17  C   UNL     1      -4.559 -12.750   6.547  1.00  0.00    -0.000 C 
BRANCH  17  18
ATOM     18  C   UNL     1      -4.023 -12.441   7.953  1.00  0.00    -0.003 C 
ATOM     19  C   UNL     1      -3.458 -11.025   8.027  1.00  0.00     0.004 C 
ENDBRANCH  17  18
ENDBRANCH  16  17
ENDBRANCH  15  16
ENDBRANCH  14  15
ENDBRANCH  13  14
ENDBRANCH  12  13
ENDBRANCH   1  12
TORSDOF 14
ENDMDL
MODEL 3
REMARK VINA RESULT:     9.136      2.291      5.636
REMARK INTER + INTRA:          16.863
REMARK INTER:                  17.598
REMARK INTRA:                  -0.735
REMARK UNBOUND:                 0.250
REMARK SMILES CCCCCCCCCCCCCC[C@@H](C)C(=O)[O-]
REMARK SMILES IDX 9 1 10 2 11 3 12 4 13 5 14 6 15 7 16 8 17 9 18 10 19 11 8 12
REMARK SMILES IDX 7 13 6 14 5 15 4 16 3 17 2 18 1 19
REMARK H PARENT
REMARK Flexibility Score: inf
ROOT
ATOM      1  C   UNL     1      -5.090 -16.263   6.372  1.00  0.00     0.000 C 
ENDROOT
BRANCH   1   2
ATOM      2  C   UNL     1      -3.916 -17.072   6.948  1.00  0.00     0.000 C 
BRANCH   2   3
ATOM      3  C   UNL     1      -2.705 -16.190   7.303  1.00  0.00     0.000 C 
BRANCH   3   4
ATOM      4  C   UNL     1      -2.497 -15.042   6.303  1.00  0.00     0.000 C 
BRANCH   4   5
ATOM      5  C   UNL     1      -1.434 -14.033   6.773  1.00  0.00     0.001 C 
BRANCH   5   6
ATOM      6  C   UNL     1      -0.794 -14.429   8.121  1.00  0.00     0.009 C 
BRANCH   6   7
ATOM      7  C   UNL     1       0.667 -13.951   8.275  1.00  0.00     0.032 C 
ATOM      8  C   UNL     1       0.719 -12.594   8.988  1.00  0.00     0.014 C 
BRANCH   7   9
ATOM      9  C   UNL     1       1.508 -14.951   9.020  1.00  0.00     0.044 C 
ATOM     10  O   UNL     1       2.043 -15.917   8.413  1.00  0.00    -0.550 OA
ATOM     11  O   UNL     1       1.710 -14.805  10.387  1.00  0.00    -0.550 OA
ENDBRANCH   7   9
ENDBRANCH   6   7
ENDBRANCH   5   6
ENDBRANCH   4   5
ENDBRANCH   3   4
ENDBRANCH   2   3
ENDBRANCH   1   2
BRANCH   1  12
ATOM     12  C   UNL     1      -6.331 -16.297   7.280  1.00  0.00     0.000 C 
BRANCH  12  13
ATOM     13  C   UNL     1      -7.123 -14.980   7.244  1.00  0.00    -0.000 C 
BRANCH  13  14
ATOM     14  C   UNL     1      -7.031 -14.269   5.883  1.00  0.00    -0.000 C 
BRANCH  14  15
ATOM     15  C   UNL     1      -6.552 -12.814   6.011  1.00  0.00    -0.000 C 
BRANCH  15  16
ATOM     16  C   UNL     1      -5.052 -12.714   6.341  1.00  0.00    -0.000 C 
BRANCH  16  17
ATOM     17  C   UNL     1      -4.750 -13.025   7.815  1.00  0.00    -0.000 C 
BRANCH  17  18
ATOM     18  C   UNL     1      -3.462 -12.347   8.308  1.00  0.00    -0.003 C 
ATOM     19  C   UNL     1      -3.430 -10.874   7.911  1.00  0.00     0.004 C 
ENDBRANCH  17  18
ENDBRANCH  16  17
ENDBRANCH  15  16
ENDBRANCH  14  15
ENDBRANCH  13  14
ENDBRANCH  12  13
ENDBRANCH   1  12
TORSDOF 14
ENDMDL
MODEL 4
REMARK VINA RESULT:     9.727      2.226      3.354
REMARK INTER + INTRA:          17.938
REMARK INTER:                  17.995
REMARK INTRA:                  -0.057
REMARK UNBOUND:                 0.250
REMARK SMILES CCCCCCCCCCCCCC[C@@H](C)C(=O)[O-]
REMARK SMILES IDX 9 1 10 2 11 3 12 4 13 5 14 6 15 7 16 8 17 9 18 10 19 11 8 12
REMARK SMILES IDX 7 13 6 14 5 15 4 16 3 17 2 18 1 19
REMARK H PARENT
REMARK Flexibility Score: inf
ROOT
ATOM      1  C   UNL     1      -1.840 -14.905   8.352  1.00  0.00     0.000 C 
ENDROOT
BRANCH   1   2
ATOM      2  C   UNL     1      -2.565 -15.496   7.131  1.00  0.00     0.000 C 
BRANCH   2   3
ATOM      3  C   UNL     1      -3.500 -16.661   7.504  1.00  0.00     0.000 C 
BRANCH   3   4
ATOM      4  C   UNL     1      -4.475 -17.021   6.371  1.00  0.00     0.000 C 
BRANCH   4   5
ATOM      5  C   UNL     1      -5.850 -16.350   6.539  1.00  0.00     0.001 C 
BRANCH   5   6
ATOM      6  C   UNL     1      -5.755 -14.955   7.193  1.00  0.00     0.009 C 
BRANCH   6   7
ATOM      7  C   UNL     1      -5.525 -13.811   6.179  1.00  0.00     0.032 C 
ATOM      8  C   UNL     1      -6.797 -12.971   6.016  1.00  0.00     0.014 C 
BRANCH   7   9
ATOM      9  C   UNL     1      -4.378 -12.927   6.583  1.00  0.00     0.044 C 
ATOM     10  O   UNL     1      -4.485 -12.149   7.569  1.00  0.00    -0.550 OA
ATOM     11  O   UNL     1      -3.183 -12.975   5.875  1.00  0.00    -0.550 OA
ENDBRANCH   7   9
ENDBRANCH   6   7
ENDBRANCH   5   6
ENDBRANCH   4   5
ENDBRANCH   3   4
ENDBRANCH   2   3
ENDBRANCH   1   2
BRANCH   1  12
ATOM     12  C   UNL     1      -1.045 -13.634   8.008  1.00  0.00     0.000 C 
BRANCH  12  13
ATOM     13  C   UNL     1       0.428 -13.931   7.682  1.00  0.00    -0.000 C 
BRANCH  13  14
ATOM     14  C   UNL     1       1.114 -14.785   8.762  1.00  0.00    -0.000 C 
BRANCH  14  15
ATOM     15  C   UNL     1       2.127 -15.779   8.171  1.00  0.00    -0.000 C 
BRANCH  15  16
ATOM     16  C   UNL     1       1.446 -16.962   7.462  1.00  0.00    -0.000 C 
BRANCH  16  17
ATOM     17  C   UNL     1       2.321 -17.572   6.356  1.00  0.00    -0.000 C 
BRANCH  17  18
ATOM     18  C   UNL     1       1.839 -18.964   5.921  1.00  0.00    -0.003 C 
ATOM     19  C   UNL     1       1.993 -19.976   7.053  1.00  0.00     0.004 C 
ENDBRANCH  17  18
ENDBRANCH  16  17
ENDBRANCH  15  16
ENDBRANCH  14  15
ENDBRANCH  13  14
ENDBRANCH  12  13
ENDBRANCH   1  12
TORSDOF 14
ENDMDL
MODEL 5
REMARK VINA RESULT:     9.777     14.575     16.899
REMARK INTER + INTRA:          18.029
REMARK INTER:                  18.846
REMARK INTRA:                  -0.817
REMARK UNBOUND:                 0.250
REMARK SMILES CCCCCCCCCCCCCC[C@@H](C)C(=O)[O-]
REMARK SMILES IDX 9 1 10 2 11 3 12 4 13 5 14 6 15 7 16 8 17 9 18 10 19 11 8 12
REMARK SMILES IDX 7 13 6 14 5 15 4 16 3 17 2 18 1 19
REMARK H PARENT
REMARK Flexibility Score: inf
ROOT
ATOM      1  C   UNL     1      -0.765  -7.760  22.015  1.00  0.00     0.000 C 
ENDROOT
BRANCH   1   2
ATOM      2  C   UNL     1      -0.964  -8.344  20.607  1.00  0.00     0.000 C 
BRANCH   2   3
ATOM      3  C   UNL     1      -2.316  -7.947  19.986  1.00  0.00     0.000 C 
BRANCH   3   4
ATOM      4  C   UNL     1      -2.895  -9.044  19.078  1.00  0.00     0.000 C 
BRANCH   4   5
ATOM      5  C   UNL     1      -3.791 -10.033  19.844  1.00  0.00     0.001 C 
BRANCH   5   6
ATOM      6  C   UNL     1      -3.687 -11.474  19.299  1.00  0.00     0.009 C 
BRANCH   6   7
ATOM      7  C   UNL     1      -4.667 -12.461  19.973  1.00  0.00     0.032 C 
ATOM      8  C   UNL     1      -4.120 -13.892  19.911  1.00  0.00     0.014 C 
BRANCH   7   9
ATOM      9  C   UNL     1      -4.950 -12.084  21.400  1.00  0.00     0.044 C 
ATOM     10  O   UNL     1      -6.072 -11.613  21.728  1.00  0.00    -0.550 OA
ATOM     11  O   UNL     1      -3.974 -12.266  22.371  1.00  0.00    -0.550 OA
ENDBRANCH   7   9
ENDBRANCH   6   7
ENDBRANCH   5   6
ENDBRANCH   4   5
ENDBRANCH   3   4
ENDBRANCH   2   3
ENDBRANCH   1   2
BRANCH   1  12
ATOM     12  C   UNL     1      -1.551  -6.456  22.230  1.00  0.00     0.000 C 
BRANCH  12  13
ATOM     13  C   UNL     1      -1.774  -6.140  23.718  1.00  0.00    -0.000 C 
BRANCH  13  14
ATOM     14  C   UNL     1      -1.743  -4.631  24.015  1.00  0.00    -0.000 C 
BRANCH  14  15
ATOM     15  C   UNL     1      -3.065  -4.121  24.613  1.00  0.00    -0.000 C 
BRANCH  15  16
ATOM     16  C   UNL     1      -3.363  -4.736  25.991  1.00  0.00    -0.000 C 
BRANCH  16  17
ATOM     17  C   UNL     1      -4.819  -5.209  26.125  1.00  0.00    -0.000 C 
BRANCH  17  18
ATOM     18  C   UNL     1      -5.516  -5.363  24.765  1.00  0.00    -0.003 C 
ATOM     19  C   UNL     1      -7.030  -5.235  24.907  1.00  0.00     0.004 C 
ENDBRANCH  17  18
ENDBRANCH  16  17
ENDBRANCH  15  16
ENDBRANCH  14  15
ENDBRANCH  13  14
ENDBRANCH  12  13
ENDBRANCH   1  12
TORSDOF 14
ENDMDL
MODEL 6
REMARK VINA RESULT:    10.273      0.868      1.691
REMARK INTER + INTRA:          18.931
REMARK INTER:                  18.869
REMARK INTRA:                   0.062
REMARK UNBOUND:                 0.250
REMARK SMILES CCCCCCCCCCCCCC[C@@H](C)C(=O)[O-]
REMARK SMILES IDX 9 1 10 2 11 3 12 4 13 5 14 6 15 7 16 8 17 9 18 10 19 11 8 12
REMARK SMILES IDX 7 13 6 14 5 15 4 16 3 17 2 18 1 19
REMARK H PARENT
REMARK Flexibility Score: inf
ROOT
ATOM      1  C   UNL     1      -2.240 -15.974   6.439  1.00  0.00     0.000 C 
ENDROOT
BRANCH   1   2
ATOM      2  C   UNL     1      -3.256 -16.635   7.386  1.00  0.00     0.000 C 
BRANCH   2   3
ATOM      3  C   UNL     1      -4.518 -17.125   6.654  1.00  0.00     0.000 C 
BRANCH   3   4
ATOM      4  C   UNL     1      -5.811 -16.549   7.252  1.00  0.00     0.000 C 
BRANCH   4   5
ATOM      5  C   UNL     1      -6.585 -15.670   6.254  1.00  0.00     0.001 C 
BRANCH   5   6
ATOM      6  C   UNL     1      -6.967 -14.295   6.844  1.00  0.00     0.009 C 
BRANCH   6   7
ATOM      7  C   UNL     1      -6.198 -13.115   6.209  1.00  0.00     0.032 C 
ATOM      8  C   UNL     1      -7.125 -11.909   6.014  1.00  0.00     0.014 C 
BRANCH   7   9
ATOM      9  C   UNL     1      -5.006 -12.714   7.034  1.00  0.00     0.044 C 
ATOM     10  O   UNL     1      -4.448 -13.546   7.799  1.00  0.00    -0.550 OA
ATOM     11  O   UNL     1      -4.505 -11.422   6.946  1.00  0.00    -0.550 OA
ENDBRANCH   7   9
ENDBRANCH   6   7
ENDBRANCH   5   6
ENDBRANCH   4   5
ENDBRANCH   3   4
ENDBRANCH   2   3
ENDBRANCH   1   2
BRANCH   1  12
ATOM     12  C   UNL     1      -2.570 -14.499   6.157  1.00  0.00     0.000 C 
BRANCH  12  13
ATOM     13  C   UNL     1      -1.510 -13.540   6.724  1.00  0.00    -0.000 C 
BRANCH  13  14
ATOM     14  C   UNL     1      -0.872 -14.061   8.023  1.00  0.00    -0.000 C 
BRANCH  14  15
ATOM     15  C   UNL     1       0.581 -13.591   8.196  1.00  0.00    -0.000 C 
BRANCH  15  16
ATOM     16  C   UNL     1       1.447 -14.618   8.946  1.00  0.00    -0.000 C 
BRANCH  16  17
ATOM     17  C   UNL     1       0.762 -15.156  10.212  1.00  0.00    -0.000 C 
BRANCH  17  18
ATOM     18  C   UNL     1       1.691 -15.145  11.435  1.00  0.00    -0.003 C 
ATOM     19  C   UNL     1       3.146 -14.951  11.017  1.00  0.00     0.004 C 
ENDBRANCH  17  18
ENDBRANCH  16  17
ENDBRANCH  15  16
ENDBRANCH  14  15
ENDBRANCH  13  14
ENDBRANCH  12  13
ENDBRANCH   1  12
TORSDOF 14
ENDMDL
MODEL 7
REMARK VINA RESULT:    10.430      2.392      6.630
REMARK INTER + INTRA:          19.217
REMARK INTER:                  18.972
REMARK INTRA:                   0.244
REMARK UNBOUND:                 0.250
REMARK SMILES CCCCCCCCCCCCCC[C@@H](C)C(=O)[O-]
REMARK SMILES IDX 9 1 10 2 11 3 12 4 13 5 14 6 15 7 16 8 17 9 18 10 19 11 8 12
REMARK SMILES IDX 7 13 6 14 5 15 4 16 3 17 2 18 1 19
REMARK H PARENT
REMARK Flexibility Score: inf
ROOT
ATOM      1  C   UNL     1      -2.634 -14.954   5.928  1.00  0.00     0.000 C 
ENDROOT
BRANCH   1   2
ATOM      2  C   UNL     1      -3.061 -13.562   6.421  1.00  0.00     0.000 C 
BRANCH   2   3
ATOM      3  C   UNL     1      -3.102 -13.463   7.957  1.00  0.00     0.000 C 
BRANCH   3   4
ATOM      4  C   UNL     1      -1.767 -13.856   8.610  1.00  0.00     0.000 C 
BRANCH   4   5
ATOM      5  C   UNL     1      -0.551 -13.461   7.754  1.00  0.00     0.001 C 
BRANCH   5   6
ATOM      6  C   UNL     1       0.786 -13.626   8.509  1.00  0.00     0.009 C 
BRANCH   6   7
ATOM      7  C   UNL     1       1.003 -15.047   9.077  1.00  0.00     0.032 C 
ATOM      8  C   UNL     1       1.983 -15.834   8.200  1.00  0.00     0.014 C 
BRANCH   7   9
ATOM      9  C   UNL     1       1.502 -15.012  10.495  1.00  0.00     0.044 C 
ATOM     10  O   UNL     1       0.720 -15.249  11.455  1.00  0.00    -0.550 OA
ATOM     11  O   UNL     1       2.837 -14.731  10.754  1.00  0.00    -0.550 OA
ENDBRANCH   7   9
ENDBRANCH   6   7
ENDBRANCH   5   6
ENDBRANCH   4   5
ENDBRANCH   3   4
ENDBRANCH   2   3
ENDBRANCH   1   2
BRANCH   1  12
ATOM     12  C   UNL     1      -2.338 -15.925   7.084  1.00  0.00     0.000 C 
BRANCH  12  13
ATOM     13  C   UNL     1      -3.405 -17.023   7.219  1.00  0.00    -0.000 C 
BRANCH  13  14
ATOM     14  C   UNL     1      -4.669 -16.727   6.392  1.00  0.00    -0.000 C 
BRANCH  14  15
ATOM     15  C   UNL     1      -5.732 -15.961   7.196  1.00  0.00    -0.000 C 
BRANCH  15  16
ATOM     16  C   UNL     1      -6.776 -15.281   6.292  1.00  0.00    -0.000 C 
BRANCH  16  17
ATOM     17  C   UNL     1      -7.109 -13.851   6.747  1.00  0.00    -0.000 C 
BRANCH  17  18
ATOM     18  C   UNL     1      -6.374 -12.784   5.922  1.00  0.00    -0.003 C 
ATOM     19  C   UNL     1      -7.020 -11.413   6.099  1.00  0.00     0.004 C 
ENDBRANCH  17  18
ENDBRANCH  16  17
ENDBRANCH  15  16
ENDBRANCH  14  15
ENDBRANCH  13  14
ENDBRANCH  12  13
ENDBRANCH   1  12
TORSDOF 14
ENDMDL
MODEL 8
REMARK VINA RESULT:    10.610     13.970     16.390
REMARK INTER + INTRA:          19.544
REMARK INTER:                  20.113
REMARK INTRA:                  -0.569
REMARK UNBOUND:                 0.250
REMARK SMILES CCCCCCCCCCCCCC[C@@H](C)C(=O)[O-]
REMARK SMILES IDX 9 1 10 2 11 3 12 4 13 5 14 6 15 7 16 8 17 9 18 10 19 11 8 12
REMARK SMILES IDX 7 13 6 14 5 15 4 16 3 17 2 18 1 19
REMARK H PARENT
REMARK Flexibility Score: inf
ROOT
ATOM      1  C   UNL     1      -1.944  -8.147  19.542  1.00  0.00     0.000 C 
ENDROOT
BRANCH   1   2
ATOM      2  C   UNL     1      -0.699  -8.493  20.377  1.00  0.00     0.000 C 
BRANCH   2   3
ATOM      3  C   UNL     1      -0.875  -8.160  21.869  1.00  0.00     0.000 C 
BRANCH   3   4
ATOM      4  C   UNL     1      -1.550  -6.797  22.095  1.00  0.00     0.000 C 
BRANCH   4   5
ATOM      5  C   UNL     1      -1.417  -6.305  23.547  1.00  0.00     0.001 C 
BRANCH   5   6
ATOM      6  C   UNL     1      -2.330  -5.097  23.851  1.00  0.00     0.009 C 
BRANCH   6   7
ATOM      7  C   UNL     1      -3.270  -5.322  25.057  1.00  0.00     0.032 C 
ATOM      8  C   UNL     1      -3.220  -4.123  26.011  1.00  0.00     0.014 C 
BRANCH   7   9
ATOM      9  C   UNL     1      -4.689  -5.568  24.622  1.00  0.00     0.044 C 
ATOM     10  O   UNL     1      -5.642  -4.952  25.169  1.00  0.00    -0.550 OA
ATOM     11  O   UNL     1      -4.953  -6.472  23.600  1.00  0.00    -0.550 OA
ENDBRANCH   7   9
ENDBRANCH   6   7
ENDBRANCH   5   6
ENDBRANCH   4   5
ENDBRANCH   3   4
ENDBRANCH   2   3
ENDBRANCH   1   2
BRANCH   1  12
ATOM     12  C   UNL     1      -3.244  -8.669  20.177  1.00  0.00     0.000 C 
BRANCH  12  13
ATOM     13  C   UNL     1      -3.439 -10.179  19.965  1.00  0.00    -0.000 C 
BRANCH  13  14
ATOM     14  C   UNL     1      -4.084 -10.870  21.178  1.00  0.00    -0.000 C 
BRANCH  14  15
ATOM     15  C   UNL     1      -4.923 -12.095  20.781  1.00  0.00    -0.000 C 
BRANCH  15  16
ATOM     16  C   UNL     1      -4.341 -12.838  19.565  1.00  0.00    -0.000 C 
BRANCH  16  17
ATOM     17  C   UNL     1      -4.512 -14.362  19.666  1.00  0.00    -0.000 C 
BRANCH  17  18
ATOM     18  C   UNL     1      -3.168 -15.102  19.740  1.00  0.00    -0.003 C 
ATOM     19  C   UNL     1      -3.217 -16.228  20.769  1.00  0.00     0.004 C 
ENDBRANCH  17  18
ENDBRANCH  16  17
ENDBRANCH  15  16
ENDBRANCH  14  15
ENDBRANCH  13  14
ENDBRANCH  12  13
ENDBRANCH   1  12
TORSDOF 14
ENDMDL
