MODEL 1
REMARK VINA RESULT:    36.050      0.000      0.000
REMARK INTER + INTRA:          39.211
REMARK INTER:                  39.211
REMARK INTRA:                   0.000
REMARK UNBOUND:                 0.000
REMARK SMILES Cc1cc(O)c2c(c1)C(=O)c1cc(O)cc(O)c1C2=O
REMARK SMILES IDX 1 1 2 2 8 3 7 4 6 5 4 6 3 7 19 8 20 9 18 10 11 11 9 12 10 13
REMARK SMILES IDX 12 14 13 15 15 16 16 17 5 18 17 20 14 22
REMARK H PARENT 5 19 17 21 14 23
REMARK Flexibility Score: inf
ROOT
ATOM      1  C   UNL     1      25.873  22.148  27.868  1.00  0.00     0.044 C 
ATOM      2  C   UNL     1      25.384  21.003  28.707  1.00  0.00    -0.047 A 
ATOM      3  C   UNL     1      26.296  20.161  29.350  1.00  0.00     0.016 A 
ATOM      4  C   UNL     1      25.852  19.059  30.100  1.00  0.00     0.038 A 
ATOM      5  C   UNL     1      24.468  18.776  30.186  1.00  0.00     0.076 A 
ATOM      6  C   UNL     1      23.544  19.672  29.579  1.00  0.00     0.127 A 
ATOM      7  C   UNL     1      24.015  20.746  28.818  1.00  0.00     0.050 A 
ATOM      8  C   UNL     1      24.042  17.515  30.855  1.00  0.00     0.201 C 
ATOM      9  O   UNL     1      22.913  17.016  30.606  1.00  0.00    -0.288 OA
ATOM     10  C   UNL     1      24.991  16.778  31.731  1.00  0.00     0.076 A 
ATOM     11  C   UNL     1      26.363  17.107  31.688  1.00  0.00     0.041 A 
ATOM     12  C   UNL     1      26.832  18.200  30.805  1.00  0.00     0.194 C 
ATOM     13  O   UNL     1      28.068  18.410  30.669  1.00  0.00    -0.289 OA
ATOM     14  C   UNL     1      27.277  16.393  32.482  1.00  0.00     0.059 A 
ATOM     15  C   UNL     1      26.838  15.363  33.319  1.00  0.00     0.120 A 
ATOM     16  C   UNL     1      25.482  15.042  33.371  1.00  0.00     0.093 A 
ATOM     17  C   UNL     1      24.554  15.740  32.587  1.00  0.00     0.131 A 
ENDROOT
BRANCH   6  18
ATOM     18  O   UNL     1      22.161  19.557  29.732  1.00  0.00    -0.507 OA
ATOM     19  H   UNL     1      21.574  20.292  30.098  1.00  0.00     0.293 HD
ENDBRANCH   6  18
BRANCH  17  20
ATOM     20  O   UNL     1      23.202  15.406  32.667  1.00  0.00    -0.507 OA
ATOM     21  H   UNL     1      22.768  15.151  33.548  1.00  0.00     0.293 HD
ENDBRANCH  17  20
BRANCH  15  22
ATOM     22  O   UNL     1      27.742  14.655  34.108  1.00  0.00    -0.508 OA
ATOM     23  H   UNL     1      27.923  13.671  33.954  1.00  0.00     0.293 HD
ENDBRANCH  15  22
TORSDOF 3
ENDMDL
MODEL 2
REMARK VINA RESULT:    36.210      1.544      5.572
REMARK INTER + INTRA:          39.386
REMARK INTER:                  39.386
REMARK INTRA:                   0.000
REMARK UNBOUND:                 0.000
REMARK SMILES Cc1cc(O)c2c(c1)C(=O)c1cc(O)cc(O)c1C2=O
REMARK SMILES IDX 1 1 2 2 8 3 7 4 6 5 4 6 3 7 19 8 20 9 18 10 11 11 9 12 10 13
REMARK SMILES IDX 12 14 13 15 15 16 16 17 5 18 17 20 14 22
REMARK H PARENT 5 19 17 21 14 23
REMARK Flexibility Score: inf
ROOT
ATOM      1  C   UNL     1      27.487  14.983  33.507  1.00  0.00     0.044 C 
ATOM      2  C   UNL     1      26.639  15.885  32.657  1.00  0.00    -0.047 A 
ATOM      3  C   UNL     1      27.212  16.981  32.005  1.00  0.00     0.016 A 
ATOM      4  C   UNL     1      26.421  17.859  31.244  1.00  0.00     0.038 A 
ATOM      5  C   UNL     1      25.024  17.652  31.156  1.00  0.00     0.076 A 
ATOM      6  C   UNL     1      24.459  16.501  31.771  1.00  0.00     0.127 A 
ATOM      7  C   UNL     1      25.265  15.658  32.543  1.00  0.00     0.050 A 
ATOM      8  C   UNL     1      24.196  18.686  30.474  1.00  0.00     0.201 C 
ATOM      9  O   UNL     1      22.964  18.773  30.718  1.00  0.00    -0.288 OA
ATOM     10  C   UNL     1      24.840  19.695  29.592  1.00  0.00     0.076 A 
ATOM     11  C   UNL     1      26.242  19.854  29.638  1.00  0.00     0.041 A 
ATOM     12  C   UNL     1      27.052  18.995  30.531  1.00  0.00     0.194 C 
ATOM     13  O   UNL     1      28.285  19.220  30.670  1.00  0.00    -0.289 OA
ATOM     14  C   UNL     1      26.860  20.830  28.838  1.00  0.00     0.059 A 
ATOM     15  C   UNL     1      26.099  21.641  27.990  1.00  0.00     0.120 A 
ATOM     16  C   UNL     1      24.715  21.480  27.935  1.00  0.00     0.093 A 
ATOM     17  C   UNL     1      24.078  20.514  28.726  1.00  0.00     0.131 A 
ENDROOT
BRANCH   6  18
ATOM     18  O   UNL     1      23.120  16.136  31.617  1.00  0.00    -0.507 OA
ATOM     19  H   UNL     1      22.443  16.685  31.108  1.00  0.00     0.293 HD
ENDBRANCH   6  18
BRANCH  17  20
ATOM     20  O   UNL     1      22.693  20.366  28.642  1.00  0.00    -0.507 OA
ATOM     21  H   UNL     1      22.179  20.633  27.810  1.00  0.00     0.293 HD
ENDBRANCH  17  20
BRANCH  15  22
ATOM     22  O   UNL     1      26.710  22.607  27.195  1.00  0.00    -0.508 OA
ATOM     23  H   UNL     1      26.420  23.577  27.222  1.00  0.00     0.293 HD
ENDBRANCH  15  22
TORSDOF 3
ENDMDL
MODEL 3
REMARK VINA RESULT:    38.011      1.266      3.261
REMARK INTER + INTRA:          41.344
REMARK INTER:                  41.344
REMARK INTRA:                   0.000
REMARK UNBOUND:                 0.000
REMARK SMILES Cc1cc(O)c2c(c1)C(=O)c1cc(O)cc(O)c1C2=O
REMARK SMILES IDX 1 1 2 2 8 3 7 4 6 5 4 6 3 7 19 8 20 9 18 10 11 11 9 12 10 13
REMARK SMILES IDX 12 14 13 15 15 16 16 17 5 18 17 20 14 22
REMARK H PARENT 5 19 17 21 14 23
REMARK Flexibility Score: inf
ROOT
ATOM      1  C   UNL     1      22.137  21.333  28.078  1.00  0.00     0.044 C 
ATOM      2  C   UNL     1      23.347  20.668  28.667  1.00  0.00    -0.047 A 
ATOM      3  C   UNL     1      23.204  19.540  29.481  1.00  0.00     0.016 A 
ATOM      4  C   UNL     1      24.325  18.937  30.076  1.00  0.00     0.038 A 
ATOM      5  C   UNL     1      25.612  19.489  29.876  1.00  0.00     0.076 A 
ATOM      6  C   UNL     1      25.756  20.599  28.999  1.00  0.00     0.127 A 
ATOM      7  C   UNL     1      24.621  21.195  28.440  1.00  0.00     0.050 A 
ATOM      8  C   UNL     1      26.754  18.921  30.646  1.00  0.00     0.201 C 
ATOM      9  O   UNL     1      27.797  19.603  30.829  1.00  0.00    -0.288 OA
ATOM     10  C   UNL     1      26.626  17.592  31.300  1.00  0.00     0.076 A 
ATOM     11  C   UNL     1      25.345  17.016  31.441  1.00  0.00     0.041 A 
ATOM     12  C   UNL     1      24.158  17.720  30.906  1.00  0.00     0.194 C 
ATOM     13  O   UNL     1      23.003  17.271  31.143  1.00  0.00    -0.289 OA
ATOM     14  C   UNL     1      25.204  15.778  32.092  1.00  0.00     0.059 A 
ATOM     15  C   UNL     1      26.324  15.108  32.595  1.00  0.00     0.120 A 
ATOM     16  C   UNL     1      27.592  15.670  32.449  1.00  0.00     0.093 A 
ATOM     17  C   UNL     1      27.755  16.904  31.805  1.00  0.00     0.131 A 
ENDROOT
BRANCH   6  18
ATOM     18  O   UNL     1      26.997  21.119  28.626  1.00  0.00    -0.507 OA
ATOM     19  H   UNL     1      27.440  21.900  29.089  1.00  0.00     0.293 HD
ENDBRANCH   6  18
BRANCH  17  20
ATOM     20  O   UNL     1      29.036  17.437  31.662  1.00  0.00    -0.507 OA
ATOM     21  H   UNL     1      29.577  17.746  32.462  1.00  0.00     0.293 HD
ENDBRANCH  17  20
BRANCH  15  22
ATOM     22  O   UNL     1      26.187  13.881  33.238  1.00  0.00    -0.508 OA
ATOM     23  H   UNL     1      26.454  13.013  32.789  1.00  0.00     0.293 HD
ENDBRANCH  15  22
TORSDOF 3
ENDMDL
MODEL 4
REMARK VINA RESULT:    38.203      4.184      6.901
REMARK INTER + INTRA:          41.553
REMARK INTER:                  41.553
REMARK INTRA:                   0.000
REMARK UNBOUND:                 0.000
REMARK SMILES Cc1cc(O)c2c(c1)C(=O)c1cc(O)cc(O)c1C2=O
REMARK SMILES IDX 1 1 2 2 8 3 7 4 6 5 4 6 3 7 19 8 20 9 18 10 11 11 9 12 10 13
REMARK SMILES IDX 12 14 13 15 15 16 16 17 5 18 17 20 14 22
REMARK H PARENT 5 19 17 21 14 23
REMARK Flexibility Score: inf
ROOT
ATOM      1  C   UNL     1      30.936  26.614  28.387  1.00  0.00     0.044 C 
ATOM      2  C   UNL     1      29.836  25.699  27.934  1.00  0.00    -0.047 A 
ATOM      3  C   UNL     1      29.469  24.599  28.714  1.00  0.00     0.016 A 
ATOM      4  C   UNL     1      28.473  23.708  28.278  1.00  0.00     0.038 A 
ATOM      5  C   UNL     1      27.851  23.906  27.023  1.00  0.00     0.076 A 
ATOM      6  C   UNL     1      28.187  25.060  26.264  1.00  0.00     0.127 A 
ATOM      7  C   UNL     1      29.199  25.916  26.709  1.00  0.00     0.050 A 
ATOM      8  C   UNL     1      26.916  22.860  26.523  1.00  0.00     0.201 C 
ATOM      9  O   UNL     1      26.667  22.768  25.291  1.00  0.00    -0.288 OA
ATOM     10  C   UNL     1      26.362  21.845  27.458  1.00  0.00     0.076 A 
ATOM     11  C   UNL     1      26.946  21.695  28.734  1.00  0.00     0.041 A 
ATOM     12  C   UNL     1      28.072  22.568  29.136  1.00  0.00     0.194 C 
ATOM     13  O   UNL     1      28.677  22.351  30.222  1.00  0.00    -0.289 OA
ATOM     14  C   UNL     1      26.458  20.714  29.614  1.00  0.00     0.059 A 
ATOM     15  C   UNL     1      25.392  19.889  29.239  1.00  0.00     0.120 A 
ATOM     16  C   UNL     1      24.807  20.041  27.983  1.00  0.00     0.093 A 
ATOM     17  C   UNL     1      25.279  21.012  27.089  1.00  0.00     0.131 A 
ENDROOT
BRANCH   6  18
ATOM     18  O   UNL     1      27.524  25.416  25.086  1.00  0.00    -0.507 OA
ATOM     19  H   UNL     1      27.993  25.591  24.210  1.00  0.00     0.293 HD
ENDBRANCH   6  18
BRANCH  17  20
ATOM     20  O   UNL     1      24.666  21.151  25.843  1.00  0.00    -0.507 OA
ATOM     21  H   UNL     1      24.943  20.587  25.048  1.00  0.00     0.293 HD
ENDBRANCH  17  20
BRANCH  15  22
ATOM     22  O   UNL     1      24.906  18.918  30.110  1.00  0.00    -0.508 OA
ATOM     23  H   UNL     1      25.147  18.918  31.093  1.00  0.00     0.293 HD
ENDBRANCH  15  22
TORSDOF 3
ENDMDL
MODEL 5
REMARK VINA RESULT:    38.248      4.779      7.918
REMARK INTER + INTRA:          41.602
REMARK INTER:                  41.602
REMARK INTRA:                   0.000
REMARK UNBOUND:                 0.000
REMARK SMILES Cc1cc(O)c2c(c1)C(=O)c1cc(O)cc(O)c1C2=O
REMARK SMILES IDX 1 1 2 2 8 3 7 4 6 5 4 6 3 7 19 8 20 9 18 10 11 11 9 12 10 13
REMARK SMILES IDX 12 14 13 15 15 16 16 17 5 18 17 20 14 22
REMARK H PARENT 5 19 17 21 14 23
REMARK Flexibility Score: inf
ROOT
ATOM      1  C   UNL     1      23.673  20.459  24.939  1.00  0.00     0.044 C 
ATOM      2  C   UNL     1      24.648  20.949  25.970  1.00  0.00    -0.047 A 
ATOM      3  C   UNL     1      25.474  22.043  25.695  1.00  0.00     0.016 A 
ATOM      4  C   UNL     1      26.422  22.482  26.633  1.00  0.00     0.038 A 
ATOM      5  C   UNL     1      26.569  21.796  27.862  1.00  0.00     0.076 A 
ATOM      6  C   UNL     1      25.684  20.723  28.159  1.00  0.00     0.127 A 
ATOM      7  C   UNL     1      24.767  20.291  27.197  1.00  0.00     0.050 A 
ATOM      8  C   UNL     1      27.687  22.189  28.764  1.00  0.00     0.201 C 
ATOM      9  O   UNL     1      28.114  21.382  29.632  1.00  0.00    -0.288 OA
ATOM     10  C   UNL     1      28.381  23.489  28.570  1.00  0.00     0.076 A 
ATOM     11  C   UNL     1      28.183  24.201  27.367  1.00  0.00     0.041 A 
ATOM     12  C   UNL     1      27.263  23.666  26.337  1.00  0.00     0.194 C 
ATOM     13  O   UNL     1      27.183  24.233  25.213  1.00  0.00    -0.289 OA
ATOM     14  C   UNL     1      28.863  25.413  27.153  1.00  0.00     0.059 A 
ATOM     15  C   UNL     1      29.729  25.923  28.125  1.00  0.00     0.120 A 
ATOM     16  C   UNL     1      29.920  25.227  29.318  1.00  0.00     0.093 A 
ATOM     17  C   UNL     1      29.254  24.016  29.551  1.00  0.00     0.131 A 
ENDROOT
BRANCH   6  18
ATOM     18  O   UNL     1      25.655  20.082  29.400  1.00  0.00    -0.507 OA
ATOM     19  H   UNL     1      25.534  19.087  29.515  1.00  0.00     0.293 HD
ENDBRANCH   6  18
BRANCH  17  20
ATOM     20  O   UNL     1      29.454  23.347  30.759  1.00  0.00    -0.507 OA
ATOM     21  H   UNL     1      28.795  23.424  31.525  1.00  0.00     0.293 HD
ENDBRANCH  17  20
BRANCH  15  22
ATOM     22  O   UNL     1      30.402  27.124  27.916  1.00  0.00    -0.508 OA
ATOM     23  H   UNL     1      30.447  27.555  27.000  1.00  0.00     0.293 HD
ENDBRANCH  15  22
TORSDOF 3
ENDMDL
MODEL 6
REMARK VINA RESULT:    38.758      4.323      6.140
REMARK INTER + INTRA:          42.157
REMARK INTER:                  42.157
REMARK INTRA:                   0.000
REMARK UNBOUND:                 0.000
REMARK SMILES Cc1cc(O)c2c(c1)C(=O)c1cc(O)cc(O)c1C2=O
REMARK SMILES IDX 1 1 2 2 8 3 7 4 6 5 4 6 3 7 19 8 20 9 18 10 11 11 9 12 10 13
REMARK SMILES IDX 12 14 13 15 15 16 16 17 5 18 17 20 14 22
REMARK H PARENT 5 19 17 21 14 23
REMARK Flexibility Score: inf
ROOT
ATOM      1  C   UNL     1      26.553  11.647  30.196  1.00  0.00     0.044 C 
ATOM      2  C   UNL     1      26.723  12.891  31.019  1.00  0.00    -0.047 A 
ATOM      3  C   UNL     1      25.873  13.142  32.100  1.00  0.00     0.016 A 
ATOM      4  C   UNL     1      25.993  14.325  32.849  1.00  0.00     0.038 A 
ATOM      5  C   UNL     1      26.964  15.290  32.492  1.00  0.00     0.076 A 
ATOM      6  C   UNL     1      27.863  15.000  31.429  1.00  0.00     0.127 A 
ATOM      7  C   UNL     1      27.705  13.827  30.685  1.00  0.00     0.050 A 
ATOM      8  C   UNL     1      26.959  16.598  33.205  1.00  0.00     0.201 C 
ATOM      9  O   UNL     1      27.491  17.610  32.677  1.00  0.00    -0.288 OA
ATOM     10  C   UNL     1      26.226  16.744  34.490  1.00  0.00     0.076 A 
ATOM     11  C   UNL     1      25.304  15.747  34.873  1.00  0.00     0.041 A 
ATOM     12  C   UNL     1      25.107  14.557  34.014  1.00  0.00     0.194 C 
ATOM     13  O   UNL     1      24.194  13.730  34.287  1.00  0.00    -0.289 OA
ATOM     14  C   UNL     1      24.575  15.890  36.067  1.00  0.00     0.059 A 
ATOM     15  C   UNL     1      24.761  17.010  36.883  1.00  0.00     0.120 A 
ATOM     16  C   UNL     1      25.678  17.993  36.512  1.00  0.00     0.093 A 
ATOM     17  C   UNL     1      26.414  17.871  35.326  1.00  0.00     0.131 A 
ENDROOT
BRANCH   6  18
ATOM     18  O   UNL     1      28.943  15.823  31.100  1.00  0.00    -0.507 OA
ATOM     19  H   UNL     1      29.664  16.091  31.753  1.00  0.00     0.293 HD
ENDBRANCH   6  18
BRANCH  17  20
ATOM     20  O   UNL     1      27.334  18.863  34.986  1.00  0.00    -0.507 OA
ATOM     21  H   UNL     1      28.165  19.031  35.542  1.00  0.00     0.293 HD
ENDBRANCH  17  20
BRANCH  15  22
ATOM     22  O   UNL     1      24.042  17.154  38.066  1.00  0.00    -0.508 OA
ATOM     23  H   UNL     1      23.087  17.493  38.069  1.00  0.00     0.293 HD
ENDBRANCH  15  22
TORSDOF 3
ENDMDL
