MODEL 1
REMARK VINA RESULT:    -5.846      0.000      0.000
REMARK INTER + INTRA:          -7.164
REMARK INTER:                  -6.872
REMARK INTRA:                  -0.292
REMARK UNBOUND:                -0.292
REMARK SMILES O=c1cc(-c2ccc(O)c(O)c2)oc2cc(O)cc(O)c12
REMARK SMILES IDX 4 1 3 2 2 3 1 4 21 5 19 6 18 7 16 8 15 9 14 10 13 11 5 12
REMARK SMILES IDX 6 13 7 14 8 15 12 16 10 17 9 18 11 20 20 22 17 24
REMARK H PARENT 9 19 11 21 20 23 17 25
REMARK Flexibility Score: inf
ROOT
ATOM      1  C   UNL     1      21.809  16.497  20.817  1.00  0.00     0.138 A 
ATOM      2  C   UNL     1      20.946  16.017  19.823  1.00  0.00     0.100 A 
ATOM      3  C   UNL     1      19.667  15.578  20.171  1.00  0.00     0.197 A 
ATOM      4  O   UNL     1      18.937  15.100  19.266  1.00  0.00    -0.289 OA
ATOM      5  C   UNL     1      19.239  15.657  21.518  1.00  0.00     0.107 A 
ATOM      6  C   UNL     1      17.947  15.270  21.986  1.00  0.00     0.134 A 
ATOM      7  C   UNL     1      17.672  15.301  23.358  1.00  0.00     0.093 A 
ATOM      8  C   UNL     1      18.620  15.756  24.274  1.00  0.00     0.123 A 
ATOM      9  C   UNL     1      19.870  16.183  23.823  1.00  0.00     0.094 A 
ATOM     10  C   UNL     1      20.186  16.132  22.464  1.00  0.00     0.146 A 
ATOM     11  O   UNL     1      21.394  16.531  22.079  1.00  0.00    -0.456 OA
ENDROOT
BRANCH   1  12
ATOM     12  C   UNL     1      23.178  16.979  20.503  1.00  0.00     0.021 A 
ATOM     13  C   UNL     1      23.835  17.831  21.407  1.00  0.00     0.016 A 
ATOM     14  C   UNL     1      25.126  18.294  21.139  1.00  0.00     0.051 A 
ATOM     15  C   UNL     1      25.787  17.906  19.971  1.00  0.00     0.157 A 
ATOM     16  C   UNL     1      23.853  16.581  19.332  1.00  0.00     0.062 A 
ATOM     17  C   UNL     1      25.151  17.044  19.063  1.00  0.00     0.158 A 
BRANCH  15  18
ATOM     18  O   UNL     1      27.074  18.385  19.729  1.00  0.00    -0.504 OA
ATOM     19  H   UNL     1      27.645  18.790  20.462  1.00  0.00     0.293 HD
ENDBRANCH  15  18
BRANCH  17  20
ATOM     20  O   UNL     1      25.810  16.644  17.902  1.00  0.00    -0.504 OA
ATOM     21  H   UNL     1      26.708  17.034  17.639  1.00  0.00     0.293 HD
ENDBRANCH  17  20
ENDBRANCH   1  12
BRANCH   6  22
ATOM     22  O   UNL     1      16.897  14.875  21.150  1.00  0.00    -0.507 OA
ATOM     23  H   UNL     1      17.006  14.471  20.233  1.00  0.00     0.293 HD
ENDBRANCH   6  22
BRANCH   8  24
ATOM     24  O   UNL     1      18.305  15.787  25.631  1.00  0.00    -0.508 OA
ATOM     25  H   UNL     1      18.875  16.297  26.296  1.00  0.00     0.293 HD
ENDBRANCH   8  24
TORSDOF 5
ENDMDL
MODEL 2
REMARK VINA RESULT:    -5.841      4.892      5.454
REMARK INTER + INTRA:          -7.158
REMARK INTER:                  -6.863
REMARK INTRA:                  -0.295
REMARK UNBOUND:                -0.292
REMARK SMILES O=c1cc(-c2ccc(O)c(O)c2)oc2cc(O)cc(O)c12
REMARK SMILES IDX 4 1 3 2 2 3 1 4 21 5 19 6 18 7 16 8 15 9 14 10 13 11 5 12
REMARK SMILES IDX 6 13 7 14 8 15 12 16 10 17 9 18 11 20 20 22 17 24
REMARK H PARENT 9 19 11 21 20 23 17 25
REMARK Flexibility Score: inf
ROOT
ATOM      1  C   UNL     1      19.440  20.048  20.333  1.00  0.00     0.138 A 
ATOM      2  C   UNL     1      18.239  19.497  19.867  1.00  0.00     0.100 A 
ATOM      3  C   UNL     1      17.937  18.162  20.143  1.00  0.00     0.197 A 
ATOM      4  O   UNL     1      16.878  17.683  19.664  1.00  0.00    -0.289 OA
ATOM      5  C   UNL     1      18.828  17.387  20.923  1.00  0.00     0.107 A 
ATOM      6  C   UNL     1      18.610  16.026  21.296  1.00  0.00     0.134 A 
ATOM      7  C   UNL     1      19.611  15.332  21.987  1.00  0.00     0.093 A 
ATOM      8  C   UNL     1      20.795  15.962  22.367  1.00  0.00     0.123 A 
ATOM      9  C   UNL     1      20.999  17.305  22.050  1.00  0.00     0.094 A 
ATOM     10  C   UNL     1      20.034  18.016  21.332  1.00  0.00     0.146 A 
ATOM     11  O   UNL     1      20.275  19.289  21.035  1.00  0.00    -0.456 OA
ENDROOT
BRANCH   1  12
ATOM     12  C   UNL     1      19.810  21.461  20.071  1.00  0.00     0.021 A 
ATOM     13  C   UNL     1      21.136  21.879  20.280  1.00  0.00     0.016 A 
ATOM     14  C   UNL     1      21.512  23.202  20.035  1.00  0.00     0.051 A 
ATOM     15  C   UNL     1      20.576  24.127  19.567  1.00  0.00     0.157 A 
ATOM     16  C   UNL     1      18.873  22.395  19.587  1.00  0.00     0.062 A 
ATOM     17  C   UNL     1      19.250  23.724  19.338  1.00  0.00     0.158 A 
BRANCH  15  18
ATOM     18  O   UNL     1      20.980  25.442  19.332  1.00  0.00    -0.504 OA
ATOM     19  H   UNL     1      21.687  25.673  18.645  1.00  0.00     0.293 HD
ENDBRANCH  15  18
BRANCH  17  20
ATOM     20  O   UNL     1      18.315  24.640  18.860  1.00  0.00    -0.504 OA
ATOM     21  H   UNL     1      17.499  24.343  18.337  1.00  0.00     0.293 HD
ENDBRANCH  17  20
ENDBRANCH   1  12
BRANCH   6  22
ATOM     22  O   UNL     1      17.430  15.322  21.038  1.00  0.00    -0.507 OA
ATOM     23  H   UNL     1      17.064  14.575  21.607  1.00  0.00     0.293 HD
ENDBRANCH   6  22
BRANCH   8  24
ATOM     24  O   UNL     1      21.762  15.243  23.066  1.00  0.00    -0.508 OA
ATOM     25  H   UNL     1      21.520  14.663  23.862  1.00  0.00     0.293 HD
ENDBRANCH   8  24
TORSDOF 5
ENDMDL
MODEL 3
REMARK VINA RESULT:    -5.838      5.560      7.311
REMARK INTER + INTRA:          -7.154
REMARK INTER:                  -6.889
REMARK INTRA:                  -0.265
REMARK UNBOUND:                -0.292
REMARK SMILES O=c1cc(-c2ccc(O)c(O)c2)oc2cc(O)cc(O)c12
REMARK SMILES IDX 4 1 3 2 2 3 1 4 21 5 19 6 18 7 16 8 15 9 14 10 13 11 5 12
REMARK SMILES IDX 6 13 7 14 8 15 12 16 10 17 9 18 11 20 20 22 17 24
REMARK H PARENT 9 19 11 21 20 23 17 25
REMARK Flexibility Score: inf
ROOT
ATOM      1  C   UNL     1      19.227  19.866  20.468  1.00  0.00     0.138 A 
ATOM      2  C   UNL     1      18.800  19.809  19.135  1.00  0.00     0.100 A 
ATOM      3  C   UNL     1      18.747  20.979  18.376  1.00  0.00     0.197 A 
ATOM      4  O   UNL     1      18.307  20.904  17.200  1.00  0.00    -0.289 OA
ATOM      5  C   UNL     1      19.160  22.207  18.946  1.00  0.00     0.107 A 
ATOM      6  C   UNL     1      19.181  23.458  18.259  1.00  0.00     0.134 A 
ATOM      7  C   UNL     1      19.516  24.624  18.958  1.00  0.00     0.093 A 
ATOM      8  C   UNL     1      19.884  24.579  20.302  1.00  0.00     0.123 A 
ATOM      9  C   UNL     1      19.915  23.355  20.972  1.00  0.00     0.094 A 
ATOM     10  C   UNL     1      19.553  22.179  20.311  1.00  0.00     0.146 A 
ATOM     11  O   UNL     1      19.578  21.036  20.990  1.00  0.00    -0.456 OA
ENDROOT
BRANCH   1  12
ATOM     12  C   UNL     1      19.306  18.653  21.320  1.00  0.00     0.021 A 
ATOM     13  C   UNL     1      18.148  18.183  21.963  1.00  0.00     0.016 A 
ATOM     14  C   UNL     1      18.193  17.040  22.765  1.00  0.00     0.051 A 
ATOM     15  C   UNL     1      19.390  16.340  22.931  1.00  0.00     0.157 A 
ATOM     16  C   UNL     1      20.508  17.936  21.480  1.00  0.00     0.062 A 
ATOM     17  C   UNL     1      20.554  16.786  22.284  1.00  0.00     0.158 A 
BRANCH  15  18
ATOM     18  O   UNL     1      19.405  15.203  23.739  1.00  0.00    -0.504 OA
ATOM     19  H   UNL     1      20.249  14.877  24.194  1.00  0.00     0.293 HD
ENDBRANCH  15  18
BRANCH  17  20
ATOM     20  O   UNL     1      21.749  16.085  22.436  1.00  0.00    -0.504 OA
ATOM     21  H   UNL     1      22.363  15.903  21.649  1.00  0.00     0.293 HD
ENDBRANCH  17  20
ENDBRANCH   1  12
BRANCH   6  22
ATOM     22  O   UNL     1      18.908  23.608  16.896  1.00  0.00    -0.507 OA
ATOM     23  H   UNL     1      17.987  23.611  16.486  1.00  0.00     0.293 HD
ENDBRANCH   6  22
BRANCH   8  24
ATOM     24  O   UNL     1      20.226  25.758  20.961  1.00  0.00    -0.508 OA
ATOM     25  H   UNL     1      19.849  25.982  21.876  1.00  0.00     0.293 HD
ENDBRANCH   8  24
TORSDOF 5
ENDMDL
MODEL 4
REMARK VINA RESULT:    -5.625      4.972      5.619
REMARK INTER + INTRA:          -6.904
REMARK INTER:                  -6.626
REMARK INTRA:                  -0.278
REMARK UNBOUND:                -0.292
REMARK SMILES O=c1cc(-c2ccc(O)c(O)c2)oc2cc(O)cc(O)c12
REMARK SMILES IDX 4 1 3 2 2 3 1 4 21 5 19 6 18 7 16 8 15 9 14 10 13 11 5 12
REMARK SMILES IDX 6 13 7 14 8 15 12 16 10 17 9 18 11 20 20 22 17 24
REMARK H PARENT 9 19 11 21 20 23 17 25
REMARK Flexibility Score: inf
ROOT
ATOM      1  C   UNL     1      19.485  20.277  20.309  1.00  0.00     0.138 A 
ATOM      2  C   UNL     1      18.302  19.737  19.787  1.00  0.00     0.100 A 
ATOM      3  C   UNL     1      18.003  18.390  20.000  1.00  0.00     0.197 A 
ATOM      4  O   UNL     1      16.963  17.923  19.471  1.00  0.00    -0.289 OA
ATOM      5  C   UNL     1      18.878  17.590  20.774  1.00  0.00     0.107 A 
ATOM      6  C   UNL     1      18.661  16.214  21.086  1.00  0.00     0.134 A 
ATOM      7  C   UNL     1      19.646  15.500  21.777  1.00  0.00     0.093 A 
ATOM      8  C   UNL     1      20.814  16.122  22.217  1.00  0.00     0.123 A 
ATOM      9  C   UNL     1      21.015  17.479  21.961  1.00  0.00     0.094 A 
ATOM     10  C   UNL     1      20.066  18.211  21.244  1.00  0.00     0.146 A 
ATOM     11  O   UNL     1      20.305  19.496  21.005  1.00  0.00    -0.456 OA
ENDROOT
BRANCH   1  12
ATOM     12  C   UNL     1      19.851  21.703  20.116  1.00  0.00     0.021 A 
ATOM     13  C   UNL     1      19.993  22.209  18.812  1.00  0.00     0.016 A 
ATOM     14  C   UNL     1      20.330  23.548  18.602  1.00  0.00     0.051 A 
ATOM     15  C   UNL     1      20.520  24.408  19.687  1.00  0.00     0.157 A 
ATOM     16  C   UNL     1      20.030  22.577  21.206  1.00  0.00     0.062 A 
ATOM     17  C   UNL     1      20.367  23.923  20.996  1.00  0.00     0.158 A 
BRANCH  15  18
ATOM     18  O   UNL     1      20.857  25.740  19.446  1.00  0.00    -0.504 OA
ATOM     19  H   UNL     1      21.255  26.333  20.164  1.00  0.00     0.293 HD
ENDBRANCH  15  18
BRANCH  17  20
ATOM     20  O   UNL     1      20.543  24.778  22.082  1.00  0.00    -0.504 OA
ATOM     21  H   UNL     1      19.884  24.803  22.852  1.00  0.00     0.293 HD
ENDBRANCH  17  20
ENDBRANCH   1  12
BRANCH   6  22
ATOM     22  O   UNL     1      17.494  15.512  20.765  1.00  0.00    -0.507 OA
ATOM     23  H   UNL     1      17.451  14.531  20.540  1.00  0.00     0.293 HD
ENDBRANCH   6  22
BRANCH   8  24
ATOM     24  O   UNL     1      21.766  15.382  22.915  1.00  0.00    -0.508 OA
ATOM     25  H   UNL     1      22.283  15.781  23.691  1.00  0.00     0.293 HD
ENDBRANCH   8  24
TORSDOF 5
ENDMDL
MODEL 5
REMARK VINA RESULT:    -5.585      5.710      8.529
REMARK INTER + INTRA:          -6.856
REMARK INTER:                  -6.562
REMARK INTRA:                  -0.294
REMARK UNBOUND:                -0.292
REMARK SMILES O=c1cc(-c2ccc(O)c(O)c2)oc2cc(O)cc(O)c12
REMARK SMILES IDX 4 1 3 2 2 3 1 4 21 5 19 6 18 7 16 8 15 9 14 10 13 11 5 12
REMARK SMILES IDX 6 13 7 14 8 15 12 16 10 17 9 18 11 20 20 22 17 24
REMARK H PARENT 9 19 11 21 20 23 17 25
REMARK Flexibility Score: inf
ROOT
ATOM      1  C   UNL     1      18.696  20.469  20.724  1.00  0.00     0.138 A 
ATOM      2  C   UNL     1      18.457  21.416  21.729  1.00  0.00     0.100 A 
ATOM      3  C   UNL     1      18.930  22.720  21.577  1.00  0.00     0.197 A 
ATOM      4  O   UNL     1      18.747  23.531  22.520  1.00  0.00    -0.289 OA
ATOM      5  C   UNL     1      19.613  23.087  20.393  1.00  0.00     0.107 A 
ATOM      6  C   UNL     1      20.111  24.395  20.111  1.00  0.00     0.134 A 
ATOM      7  C   UNL     1      20.858  24.613  18.948  1.00  0.00     0.093 A 
ATOM      8  C   UNL     1      21.079  23.588  18.029  1.00  0.00     0.123 A 
ATOM      9  C   UNL     1      20.556  22.317  18.269  1.00  0.00     0.094 A 
ATOM     10  C   UNL     1      19.835  22.059  19.437  1.00  0.00     0.146 A 
ATOM     11  O   UNL     1      19.369  20.830  19.637  1.00  0.00    -0.456 OA
ENDROOT
BRANCH   1  12
ATOM     12  C   UNL     1      18.215  19.069  20.833  1.00  0.00     0.021 A 
ATOM     13  C   UNL     1      18.184  18.258  19.685  1.00  0.00     0.016 A 
ATOM     14  C   UNL     1      17.741  16.935  19.761  1.00  0.00     0.051 A 
ATOM     15  C   UNL     1      17.333  16.396  20.983  1.00  0.00     0.157 A 
ATOM     16  C   UNL     1      17.813  18.517  22.065  1.00  0.00     0.062 A 
ATOM     17  C   UNL     1      17.370  17.187  22.143  1.00  0.00     0.158 A 
BRANCH  15  18
ATOM     18  O   UNL     1      16.894  15.072  21.028  1.00  0.00    -0.504 OA
ATOM     19  H   UNL     1      16.962  14.455  20.228  1.00  0.00     0.293 HD
ENDBRANCH  15  18
BRANCH  17  20
ATOM     20  O   UNL     1      16.975  16.651  23.367  1.00  0.00    -0.504 OA
ATOM     21  H   UNL     1      16.543  17.224  24.083  1.00  0.00     0.293 HD
ENDBRANCH  17  20
ENDBRANCH   1  12
BRANCH   6  22
ATOM     22  O   UNL     1      19.881  25.512  20.921  1.00  0.00    -0.507 OA
ATOM     23  H   UNL     1      19.210  25.555  21.672  1.00  0.00     0.293 HD
ENDBRANCH   6  22
BRANCH   8  24
ATOM     24  O   UNL     1      21.815  23.847  16.875  1.00  0.00    -0.508 OA
ATOM     25  H   UNL     1      21.750  23.249  16.059  1.00  0.00     0.293 HD
ENDBRANCH   8  24
TORSDOF 5
ENDMDL
MODEL 6
REMARK VINA RESULT:    -5.490      1.504      6.835
REMARK INTER + INTRA:          -6.745
REMARK INTER:                  -6.438
REMARK INTRA:                  -0.307
REMARK UNBOUND:                -0.292
REMARK SMILES O=c1cc(-c2ccc(O)c(O)c2)oc2cc(O)cc(O)c12
REMARK SMILES IDX 4 1 3 2 2 3 1 4 21 5 19 6 18 7 16 8 15 9 14 10 13 11 5 12
REMARK SMILES IDX 6 13 7 14 8 15 12 16 10 17 9 18 11 20 20 22 17 24
REMARK H PARENT 9 19 11 21 20 23 17 25
REMARK Flexibility Score: inf
ROOT
ATOM      1  C   UNL     1      21.226  16.269  21.189  1.00  0.00     0.138 A 
ATOM      2  C   UNL     1      21.015  15.540  20.011  1.00  0.00     0.100 A 
ATOM      3  C   UNL     1      22.014  15.495  19.037  1.00  0.00     0.197 A 
ATOM      4  O   UNL     1      21.773  14.879  17.968  1.00  0.00    -0.289 OA
ATOM      5  C   UNL     1      23.246  16.155  19.263  1.00  0.00     0.107 A 
ATOM      6  C   UNL     1      24.350  16.152  18.358  1.00  0.00     0.134 A 
ATOM      7  C   UNL     1      25.481  16.924  18.646  1.00  0.00     0.093 A 
ATOM      8  C   UNL     1      25.575  17.653  19.831  1.00  0.00     0.123 A 
ATOM      9  C   UNL     1      24.522  17.625  20.746  1.00  0.00     0.094 A 
ATOM     10  C   UNL     1      23.366  16.892  20.472  1.00  0.00     0.146 A 
ATOM     11  O   UNL     1      22.379  16.907  21.362  1.00  0.00    -0.456 OA
ENDROOT
BRANCH   1  12
ATOM     12  C   UNL     1      20.199  16.348  22.258  1.00  0.00     0.021 A 
ATOM     13  C   UNL     1      18.841  16.211  21.924  1.00  0.00     0.016 A 
ATOM     14  C   UNL     1      17.855  16.275  22.912  1.00  0.00     0.051 A 
ATOM     15  C   UNL     1      18.208  16.464  24.251  1.00  0.00     0.157 A 
ATOM     16  C   UNL     1      20.551  16.526  23.611  1.00  0.00     0.062 A 
ATOM     17  C   UNL     1      19.562  16.588  24.605  1.00  0.00     0.158 A 
BRANCH  15  18
ATOM     18  O   UNL     1      17.202  16.525  25.215  1.00  0.00    -0.504 OA
ATOM     19  H   UNL     1      17.407  16.607  26.203  1.00  0.00     0.293 HD
ENDBRANCH  15  18
BRANCH  17  20
ATOM     20  O   UNL     1      19.920  16.765  25.940  1.00  0.00    -0.504 OA
ATOM     21  H   UNL     1      20.695  17.362  26.208  1.00  0.00     0.293 HD
ENDBRANCH  17  20
ENDBRANCH   1  12
BRANCH   6  22
ATOM     22  O   UNL     1      24.397  15.395  17.182  1.00  0.00    -0.507 OA
ATOM     23  H   UNL     1      25.148  14.776  16.921  1.00  0.00     0.293 HD
ENDBRANCH   6  22
BRANCH   8  24
ATOM     24  O   UNL     1      26.723  18.398  20.091  1.00  0.00    -0.508 OA
ATOM     25  H   UNL     1      27.184  18.933  19.363  1.00  0.00     0.293 HD
ENDBRANCH   8  24
TORSDOF 5
ENDMDL
MODEL 7
REMARK VINA RESULT:    -5.460      4.947      5.945
REMARK INTER + INTRA:          -6.710
REMARK INTER:                  -6.446
REMARK INTRA:                  -0.264
REMARK UNBOUND:                -0.292
REMARK SMILES O=c1cc(-c2ccc(O)c(O)c2)oc2cc(O)cc(O)c12
REMARK SMILES IDX 4 1 3 2 2 3 1 4 21 5 19 6 18 7 16 8 15 9 14 10 13 11 5 12
REMARK SMILES IDX 6 13 7 14 8 15 12 16 10 17 9 18 11 20 20 22 17 24
REMARK H PARENT 9 19 11 21 20 23 17 25
REMARK Flexibility Score: inf
ROOT
ATOM      1  C   UNL     1      20.306  20.228  20.686  1.00  0.00     0.138 A 
ATOM      2  C   UNL     1      21.611  19.790  20.951  1.00  0.00     0.100 A 
ATOM      3  C   UNL     1      21.818  18.518  21.487  1.00  0.00     0.197 A 
ATOM      4  O   UNL     1      22.995  18.176  21.767  1.00  0.00    -0.289 OA
ATOM      5  C   UNL     1      20.712  17.666  21.723  1.00  0.00     0.107 A 
ATOM      6  C   UNL     1      20.803  16.336  22.235  1.00  0.00     0.134 A 
ATOM      7  C   UNL     1      19.631  15.625  22.519  1.00  0.00     0.093 A 
ATOM      8  C   UNL     1      18.375  16.170  22.259  1.00  0.00     0.123 A 
ATOM      9  C   UNL     1      18.274  17.450  21.712  1.00  0.00     0.094 A 
ATOM     10  C   UNL     1      19.424  18.198  21.449  1.00  0.00     0.146 A 
ATOM     11  O   UNL     1      19.283  19.421  20.946  1.00  0.00    -0.456 OA
ENDROOT
BRANCH   1  12
ATOM     12  C   UNL     1      20.029  21.569  20.113  1.00  0.00     0.021 A 
ATOM     13  C   UNL     1      19.467  21.670  18.829  1.00  0.00     0.016 A 
ATOM     14  C   UNL     1      19.190  22.920  18.270  1.00  0.00     0.051 A 
ATOM     15  C   UNL     1      19.458  24.089  18.986  1.00  0.00     0.157 A 
ATOM     16  C   UNL     1      20.286  22.751  20.836  1.00  0.00     0.062 A 
ATOM     17  C   UNL     1      20.006  24.007  20.276  1.00  0.00     0.158 A 
BRANCH  15  18
ATOM     18  O   UNL     1      19.172  25.323  18.401  1.00  0.00    -0.504 OA
ATOM     19  H   UNL     1      19.723  25.698  17.638  1.00  0.00     0.293 HD
ENDBRANCH  15  18
BRANCH  17  20
ATOM     20  O   UNL     1      20.265  25.170  20.999  1.00  0.00    -0.504 OA
ATOM     21  H   UNL     1      21.114  25.280  21.542  1.00  0.00     0.293 HD
ENDBRANCH  17  20
ENDBRANCH   1  12
BRANCH   6  22
ATOM     22  O   UNL     1      22.008  15.663  22.457  1.00  0.00    -0.507 OA
ATOM     23  H   UNL     1      22.883  15.874  22.002  1.00  0.00     0.293 HD
ENDBRANCH   6  22
BRANCH   8  24
ATOM     24  O   UNL     1      17.231  15.426  22.541  1.00  0.00    -0.508 OA
ATOM     25  H   UNL     1      16.491  15.312  21.857  1.00  0.00     0.293 HD
ENDBRANCH   8  24
TORSDOF 5
ENDMDL
MODEL 8
REMARK VINA RESULT:    -5.216      2.125      2.987
REMARK INTER + INTRA:          -6.422
REMARK INTER:                  -6.154
REMARK INTRA:                  -0.268
REMARK UNBOUND:                -0.292
REMARK SMILES O=c1cc(-c2ccc(O)c(O)c2)oc2cc(O)cc(O)c12
REMARK SMILES IDX 4 1 3 2 2 3 1 4 21 5 19 6 18 7 16 8 15 9 14 10 13 11 5 12
REMARK SMILES IDX 6 13 7 14 8 15 12 16 10 17 9 18 11 20 20 22 17 24
REMARK H PARENT 9 19 11 21 20 23 17 25
REMARK Flexibility Score: inf
ROOT
ATOM      1  C   UNL     1      21.860  16.816  21.014  1.00  0.00     0.138 A 
ATOM      2  C   UNL     1      21.563  15.877  22.011  1.00  0.00     0.100 A 
ATOM      3  C   UNL     1      20.356  15.967  22.708  1.00  0.00     0.197 A 
ATOM      4  O   UNL     1      20.143  15.144  23.634  1.00  0.00    -0.289 OA
ATOM      5  C   UNL     1      19.428  16.982  22.377  1.00  0.00     0.107 A 
ATOM      6  C   UNL     1      18.152  17.153  22.996  1.00  0.00     0.134 A 
ATOM      7  C   UNL     1      17.360  18.255  22.653  1.00  0.00     0.093 A 
ATOM      8  C   UNL     1      17.769  19.161  21.675  1.00  0.00     0.123 A 
ATOM      9  C   UNL     1      18.992  18.978  21.028  1.00  0.00     0.094 A 
ATOM     10  C   UNL     1      19.820  17.907  21.372  1.00  0.00     0.146 A 
ATOM     11  O   UNL     1      20.985  17.779  20.745  1.00  0.00    -0.456 OA
ENDROOT
BRANCH   1  12
ATOM     12  C   UNL     1      23.126  16.765  20.240  1.00  0.00     0.021 A 
ATOM     13  C   UNL     1      23.310  15.755  19.281  1.00  0.00     0.016 A 
ATOM     14  C   UNL     1      24.489  15.689  18.534  1.00  0.00     0.051 A 
ATOM     15  C   UNL     1      25.499  16.635  18.724  1.00  0.00     0.157 A 
ATOM     16  C   UNL     1      24.142  17.725  20.419  1.00  0.00     0.062 A 
ATOM     17  C   UNL     1      25.326  17.661  19.668  1.00  0.00     0.158 A 
BRANCH  15  18
ATOM     18  O   UNL     1      26.666  16.543  17.965  1.00  0.00    -0.504 OA
ATOM     19  H   UNL     1      27.308  15.766  18.057  1.00  0.00     0.293 HD
ENDBRANCH  15  18
BRANCH  17  20
ATOM     20  O   UNL     1      26.325  18.614  19.853  1.00  0.00    -0.504 OA
ATOM     21  H   UNL     1      26.108  19.599  19.960  1.00  0.00     0.293 HD
ENDBRANCH  17  20
ENDBRANCH   1  12
BRANCH   6  22
ATOM     22  O   UNL     1      17.608  16.263  23.928  1.00  0.00    -0.507 OA
ATOM     23  H   UNL     1      16.674  15.885  23.893  1.00  0.00     0.293 HD
ENDBRANCH   6  22
BRANCH   8  24
ATOM     24  O   UNL     1      16.948  20.238  21.349  1.00  0.00    -0.508 OA
ATOM     25  H   UNL     1      17.302  21.040  20.840  1.00  0.00     0.293 HD
ENDBRANCH   8  24
TORSDOF 5
ENDMDL
MODEL 9
REMARK VINA RESULT:    -4.743      4.974      6.116
REMARK INTER + INTRA:          -5.866
REMARK INTER:                  -5.602
REMARK INTRA:                  -0.264
REMARK UNBOUND:                -0.292
REMARK SMILES O=c1cc(-c2ccc(O)c(O)c2)oc2cc(O)cc(O)c12
REMARK SMILES IDX 4 1 3 2 2 3 1 4 21 5 19 6 18 7 16 8 15 9 14 10 13 11 5 12
REMARK SMILES IDX 6 13 7 14 8 15 12 16 10 17 9 18 11 20 20 22 17 24
REMARK H PARENT 9 19 11 21 20 23 17 25
REMARK Flexibility Score: inf
ROOT
ATOM      1  C   UNL     1      18.981  19.952  20.254  1.00  0.00     0.138 A 
ATOM      2  C   UNL     1      18.397  19.500  21.444  1.00  0.00     0.100 A 
ATOM      3  C   UNL     1      17.940  18.184  21.535  1.00  0.00     0.197 A 
ATOM      4  O   UNL     1      17.371  17.825  22.597  1.00  0.00    -0.289 OA
ATOM      5  C   UNL     1      18.103  17.307  20.436  1.00  0.00     0.107 A 
ATOM      6  C   UNL     1      17.707  15.935  20.424  1.00  0.00     0.134 A 
ATOM      7  C   UNL     1      17.830  15.192  19.244  1.00  0.00     0.093 A 
ATOM      8  C   UNL     1      18.386  15.751  18.094  1.00  0.00     0.123 A 
ATOM      9  C   UNL     1      18.822  17.076  18.108  1.00  0.00     0.094 A 
ATOM     10  C   UNL     1      18.681  17.854  19.260  1.00  0.00     0.146 A 
ATOM     11  O   UNL     1      19.093  19.117  19.226  1.00  0.00    -0.456 OA
ENDROOT
BRANCH   1  12
ATOM     12  C   UNL     1      19.486  21.340  20.104  1.00  0.00     0.021 A 
ATOM     13  C   UNL     1      20.797  21.645  20.509  1.00  0.00     0.016 A 
ATOM     14  C   UNL     1      21.300  22.942  20.373  1.00  0.00     0.051 A 
ATOM     15  C   UNL     1      20.508  23.952  19.820  1.00  0.00     0.157 A 
ATOM     16  C   UNL     1      18.696  22.359  19.536  1.00  0.00     0.062 A 
ATOM     17  C   UNL     1      19.201  23.661  19.397  1.00  0.00     0.158 A 
BRANCH  15  18
ATOM     18  O   UNL     1      21.037  25.237  19.698  1.00  0.00    -0.504 OA
ATOM     19  H   UNL     1      20.465  26.033  19.442  1.00  0.00     0.293 HD
ENDBRANCH  15  18
BRANCH  17  20
ATOM     20  O   UNL     1      18.411  24.662  18.835  1.00  0.00    -0.504 OA
ATOM     21  H   UNL     1      18.236  24.704  17.837  1.00  0.00     0.293 HD
ENDBRANCH  17  20
ENDBRANCH   1  12
BRANCH   6  22
ATOM     22  O   UNL     1      17.214  15.252  21.540  1.00  0.00    -0.507 OA
ATOM     23  H   UNL     1      16.254  14.970  21.670  1.00  0.00     0.293 HD
ENDBRANCH   6  22
BRANCH   8  24
ATOM     24  O   UNL     1      18.506  14.976  16.942  1.00  0.00    -0.508 OA
ATOM     25  H   UNL     1      19.244  14.288  16.840  1.00  0.00     0.293 HD
ENDBRANCH   8  24
TORSDOF 5
ENDMDL
