MODEL 1
REMARK VINA RESULT:    -3.578      0.000      0.000
REMARK INTER + INTRA:          -4.395
REMARK INTER:                  -4.310
REMARK INTRA:                  -0.085
REMARK UNBOUND:                -0.085
REMARK SMILES CC[C@@H](C)[C@H]([NH3+])C(=O)[O-]
REMARK SMILES IDX 3 1 4 2 5 3 6 4 7 8 8 9 9 10 2 11 1 12
REMARK H PARENT 6 5 6 6 6 7
REMARK Flexibility Score: inf
ROOT
ATOM      1  C   UNL     1     176.896 162.035 169.509  1.00  0.00     0.050 C 
ATOM      2  C   UNL     1     175.608 162.866 169.651  1.00  0.00     0.014 C 
ENDROOT
BRANCH   1   3
ATOM      3  C   UNL     1     177.891 162.754 168.536  1.00  0.00     0.230 C 
BRANCH   3   4
ATOM      4  N   UNL     1     177.674 164.207 168.490  1.00  0.00    -0.350 N 
ATOM      5  H   UNL     1     176.796 164.446 169.007  1.00  0.00     0.345 HD
ATOM      6  H   UNL     1     178.462 164.734 168.921  1.00  0.00     0.345 HD
ATOM      7  H   UNL     1     177.556 164.519 167.499  1.00  0.00     0.345 HD
ENDBRANCH   3   4
BRANCH   3   8
ATOM      8  C   UNL     1     177.895 162.159 167.147  1.00  0.00     0.099 C 
ATOM      9  O   UNL     1     177.747 162.906 166.144  1.00  0.00    -0.544 OA
ATOM     10  O   UNL     1     178.097 160.798 166.958  1.00  0.00    -0.544 OA
ENDBRANCH   3   8
ENDBRANCH   1   3
BRANCH   1  11
ATOM     11  C   UNL     1     177.446 161.719 170.928  1.00  0.00     0.006 C 
ATOM     12  C   UNL     1     178.436 160.556 170.974  1.00  0.00     0.004 C 
ENDBRANCH   1  11
TORSDOF 4
ENDMDL
MODEL 2
REMARK VINA RESULT:    -3.282     12.777     13.798
REMARK INTER + INTRA:          -4.038
REMARK INTER:                  -3.977
REMARK INTRA:                  -0.061
REMARK UNBOUND:                -0.085
REMARK SMILES CC[C@@H](C)[C@H]([NH3+])C(=O)[O-]
REMARK SMILES IDX 3 1 4 2 5 3 6 4 7 8 8 9 9 10 2 11 1 12
REMARK H PARENT 6 5 6 6 6 7
REMARK Flexibility Score: inf
ROOT
ATOM      1  C   UNL     1     171.510 171.911 162.655  1.00  0.00     0.050 C 
ATOM      2  C   UNL     1     171.941 171.357 164.025  1.00  0.00     0.014 C 
ENDROOT
BRANCH   1   3
ATOM      3  C   UNL     1     170.482 173.077 162.849  1.00  0.00     0.230 C 
BRANCH   3   4
ATOM      4  N   UNL     1     170.898 174.016 163.901  1.00  0.00    -0.350 N 
ATOM      5  H   UNL     1     171.851 173.756 164.245  1.00  0.00     0.345 HD
ATOM      6  H   UNL     1     170.930 174.999 163.557  1.00  0.00     0.345 HD
ATOM      7  H   UNL     1     170.239 173.960 164.711  1.00  0.00     0.345 HD
ENDBRANCH   3   4
BRANCH   3   8
ATOM      8  C   UNL     1     169.071 172.591 163.080  1.00  0.00     0.099 C 
ATOM      9  O   UNL     1     168.615 172.520 164.251  1.00  0.00    -0.544 OA
ATOM     10  O   UNL     1     168.251 172.254 162.009  1.00  0.00    -0.544 OA
ENDBRANCH   3   8
ENDBRANCH   1   3
BRANCH   1  11
ATOM     11  C   UNL     1     172.781 172.259 161.832  1.00  0.00     0.006 C 
ATOM     12  C   UNL     1     174.005 171.410 162.175  1.00  0.00     0.004 C 
ENDBRANCH   1  11
TORSDOF 4
ENDMDL
MODEL 3
REMARK VINA RESULT:    -3.198     21.652     22.584
REMARK INTER + INTRA:          -3.938
REMARK INTER:                  -3.836
REMARK INTRA:                  -0.102
REMARK UNBOUND:                -0.085
REMARK SMILES CC[C@@H](C)[C@H]([NH3+])C(=O)[O-]
REMARK SMILES IDX 3 1 4 2 5 3 6 4 7 8 8 9 9 10 2 11 1 12
REMARK H PARENT 6 5 6 6 6 7
REMARK Flexibility Score: inf
ROOT
ATOM      1  C   UNL     1     163.337 178.225 168.040  1.00  0.00     0.050 C 
ATOM      2  C   UNL     1     164.682 178.680 168.633  1.00  0.00     0.014 C 
ENDROOT
BRANCH   1   3
ATOM      3  C   UNL     1     162.160 178.695 168.961  1.00  0.00     0.230 C 
BRANCH   3   4
ATOM      4  N   UNL     1     162.134 177.974 170.243  1.00  0.00    -0.350 N 
ATOM      5  H   UNL     1     162.480 178.603 171.004  1.00  0.00     0.345 HD
ATOM      6  H   UNL     1     161.174 177.655 170.492  1.00  0.00     0.345 HD
ATOM      7  H   UNL     1     162.769 177.145 170.199  1.00  0.00     0.345 HD
ENDBRANCH   3   4
BRANCH   3   8
ATOM      8  C   UNL     1     160.814 178.640 168.278  1.00  0.00     0.099 C 
ATOM      9  O   UNL     1     160.180 177.553 168.226  1.00  0.00    -0.544 OA
ATOM     10  O   UNL     1     160.245 179.786 167.735  1.00  0.00    -0.544 OA
ENDBRANCH   3   8
ENDBRANCH   1   3
BRANCH   1  11
ATOM     11  C   UNL     1     163.261 178.684 166.558  1.00  0.00     0.006 C 
ATOM     12  C   UNL     1     163.018 177.552 165.560  1.00  0.00     0.004 C 
ENDBRANCH   1  11
TORSDOF 4
ENDMDL
MODEL 4
REMARK VINA RESULT:    -2.995     13.214     14.500
REMARK INTER + INTRA:          -3.693
REMARK INTER:                  -3.636
REMARK INTRA:                  -0.056
REMARK UNBOUND:                -0.085
REMARK SMILES CC[C@@H](C)[C@H]([NH3+])C(=O)[O-]
REMARK SMILES IDX 3 1 4 2 5 3 6 4 7 8 8 9 9 10 2 11 1 12
REMARK H PARENT 6 5 6 6 6 7
REMARK Flexibility Score: inf
ROOT
ATOM      1  C   UNL     1     168.863 173.051 162.757  1.00  0.00     0.050 C 
ATOM      2  C   UNL     1     168.515 174.537 162.551  1.00  0.00     0.014 C 
ENDROOT
BRANCH   1   3
ATOM      3  C   UNL     1     170.178 172.922 163.599  1.00  0.00     0.230 C 
BRANCH   3   4
ATOM      4  N   UNL     1     170.829 174.223 163.817  1.00  0.00    -0.350 N 
ATOM      5  H   UNL     1     170.269 174.783 164.501  1.00  0.00     0.345 HD
ATOM      6  H   UNL     1     171.795 174.118 164.192  1.00  0.00     0.345 HD
ATOM      7  H   UNL     1     170.867 174.758 162.920  1.00  0.00     0.345 HD
ENDBRANCH   3   4
BRANCH   3   8
ATOM      8  C   UNL     1     171.150 171.916 163.029  1.00  0.00     0.099 C 
ATOM      9  O   UNL     1     171.856 171.217 163.802  1.00  0.00    -0.544 OA
ATOM     10  O   UNL     1     171.250 171.724 161.656  1.00  0.00    -0.544 OA
ENDBRANCH   3   8
ENDBRANCH   1   3
BRANCH   1  11
ATOM     11  C   UNL     1     167.618 172.320 163.332  1.00  0.00     0.006 C 
ATOM     12  C   UNL     1     166.671 171.761 162.270  1.00  0.00     0.004 C 
ENDBRANCH   1  11
TORSDOF 4
ENDMDL
MODEL 5
REMARK VINA RESULT:    -2.910      1.934      2.666
REMARK INTER + INTRA:          -3.591
REMARK INTER:                  -3.530
REMARK INTRA:                  -0.061
REMARK UNBOUND:                -0.085
REMARK SMILES CC[C@@H](C)[C@H]([NH3+])C(=O)[O-]
REMARK SMILES IDX 3 1 4 2 5 3 6 4 7 8 8 9 9 10 2 11 1 12
REMARK H PARENT 6 5 6 6 6 7
REMARK Flexibility Score: inf
ROOT
ATOM      1  C   UNL     1     178.029 162.223 168.517  1.00  0.00     0.050 C 
ATOM      2  C   UNL     1     178.327 161.337 169.739  1.00  0.00     0.014 C 
ENDROOT
BRANCH   1   3
ATOM      3  C   UNL     1     177.625 161.329 167.295  1.00  0.00     0.230 C 
BRANCH   3   4
ATOM      4  N   UNL     1     178.367 160.060 167.265  1.00  0.00    -0.350 N 
ATOM      5  H   UNL     1     179.247 160.182 166.711  1.00  0.00     0.345 HD
ATOM      6  H   UNL     1     178.623 159.734 168.221  1.00  0.00     0.345 HD
ATOM      7  H   UNL     1     177.793 159.322 166.796  1.00  0.00     0.345 HD
ENDBRANCH   3   4
BRANCH   3   8
ATOM      8  C   UNL     1     177.729 162.052 165.972  1.00  0.00     0.099 C 
ATOM      9  O   UNL     1     178.534 163.011 165.842  1.00  0.00    -0.544 OA
ATOM     10  O   UNL     1     176.971 161.646 164.880  1.00  0.00    -0.544 OA
ENDBRANCH   3   8
ENDBRANCH   1   3
BRANCH   1  11
ATOM     11  C   UNL     1     177.000 163.313 168.927  1.00  0.00     0.006 C 
ATOM     12  C   UNL     1     175.754 162.771 169.628  1.00  0.00     0.004 C 
ENDBRANCH   1  11
TORSDOF 4
ENDMDL
MODEL 6
REMARK VINA RESULT:    -2.869     22.160     23.222
REMARK INTER + INTRA:          -3.541
REMARK INTER:                  -3.443
REMARK INTRA:                  -0.099
REMARK UNBOUND:                -0.085
REMARK SMILES CC[C@@H](C)[C@H]([NH3+])C(=O)[O-]
REMARK SMILES IDX 3 1 4 2 5 3 6 4 7 8 8 9 9 10 2 11 1 12
REMARK H PARENT 6 5 6 6 6 7
REMARK Flexibility Score: inf
ROOT
ATOM      1  C   UNL     1     160.207 178.900 168.479  1.00  0.00     0.050 C 
ATOM      2  C   UNL     1     159.057 179.297 169.421  1.00  0.00     0.014 C 
ENDROOT
BRANCH   1   3
ATOM      3  C   UNL     1     161.318 178.141 169.282  1.00  0.00     0.230 C 
BRANCH   3   4
ATOM      4  N   UNL     1     161.100 178.209 170.734  1.00  0.00    -0.350 N 
ATOM      5  H   UNL     1     160.492 179.031 170.958  1.00  0.00     0.345 HD
ATOM      6  H   UNL     1     160.639 177.351 171.101  1.00  0.00     0.345 HD
ATOM      7  H   UNL     1     162.012 178.343 171.227  1.00  0.00     0.345 HD
ENDBRANCH   3   4
BRANCH   3   8
ATOM      8  C   UNL     1     162.717 178.582 168.920  1.00  0.00     0.099 C 
ATOM      9  O   UNL     1     163.476 179.053 169.808  1.00  0.00    -0.544 OA
ATOM     10  O   UNL     1     163.193 178.440 167.623  1.00  0.00    -0.544 OA
ENDBRANCH   3   8
ENDBRANCH   1   3
BRANCH   1  11
ATOM     11  C   UNL     1     159.616 178.140 167.259  1.00  0.00     0.006 C 
ATOM     12  C   UNL     1     159.214 176.695 167.553  1.00  0.00     0.004 C 
ENDBRANCH   1  11
TORSDOF 4
ENDMDL
MODEL 7
REMARK VINA RESULT:    -2.834     10.534     11.508
REMARK INTER + INTRA:          -3.499
REMARK INTER:                  -3.406
REMARK INTRA:                  -0.092
REMARK UNBOUND:                -0.085
REMARK SMILES CC[C@@H](C)[C@H]([NH3+])C(=O)[O-]
REMARK SMILES IDX 3 1 4 2 5 3 6 4 7 8 8 9 9 10 2 11 1 12
REMARK H PARENT 6 5 6 6 6 7
REMARK Flexibility Score: inf
ROOT
ATOM      1  C   UNL     1     170.488 162.709 160.362  1.00  0.00     0.050 C 
ATOM      2  C   UNL     1     169.390 161.921 159.625  1.00  0.00     0.014 C 
ENDROOT
BRANCH   1   3
ATOM      3  C   UNL     1     170.075 164.216 160.480  1.00  0.00     0.230 C 
BRANCH   3   4
ATOM      4  N   UNL     1     168.634 164.382 160.717  1.00  0.00    -0.350 N 
ATOM      5  H   UNL     1     168.468 165.253 161.272  1.00  0.00     0.345 HD
ATOM      6  H   UNL     1     168.097 164.454 159.827  1.00  0.00     0.345 HD
ATOM      7  H   UNL     1     168.268 163.574 161.271  1.00  0.00     0.345 HD
ENDBRANCH   3   4
BRANCH   3   8
ATOM      8  C   UNL     1     170.534 165.050 159.307  1.00  0.00     0.099 C 
ATOM      9  O   UNL     1     169.803 165.979 158.873  1.00  0.00    -0.544 OA
ATOM     10  O   UNL     1     171.774 164.829 158.720  1.00  0.00    -0.544 OA
ENDBRANCH   3   8
ENDBRANCH   1   3
BRANCH   1  11
ATOM     11  C   UNL     1     170.810 161.989 161.700  1.00  0.00     0.006 C 
ATOM     12  C   UNL     1     169.799 160.913 162.096  1.00  0.00     0.004 C 
ENDBRANCH   1  11
TORSDOF 4
ENDMDL
MODEL 8
REMARK VINA RESULT:    -2.823     10.745     11.635
REMARK INTER + INTRA:          -3.486
REMARK INTER:                  -3.426
REMARK INTRA:                  -0.060
REMARK UNBOUND:                -0.085
REMARK SMILES CC[C@@H](C)[C@H]([NH3+])C(=O)[O-]
REMARK SMILES IDX 3 1 4 2 5 3 6 4 7 8 8 9 9 10 2 11 1 12
REMARK H PARENT 6 5 6 6 6 7
REMARK Flexibility Score: inf
ROOT
ATOM      1  C   UNL     1     169.963 162.107 161.436  1.00  0.00     0.050 C 
ATOM      2  C   UNL     1     171.469 161.882 161.663  1.00  0.00     0.014 C 
ENDROOT
BRANCH   1   3
ATOM      3  C   UNL     1     169.746 163.114 160.255  1.00  0.00     0.230 C 
BRANCH   3   4
ATOM      4  N   UNL     1     168.605 164.011 160.491  1.00  0.00    -0.350 N 
ATOM      5  H   UNL     1     168.954 164.983 160.660  1.00  0.00     0.345 HD
ATOM      6  H   UNL     1     167.951 164.033 159.681  1.00  0.00     0.345 HD
ATOM      7  H   UNL     1     168.082 163.706 161.344  1.00  0.00     0.345 HD
ENDBRANCH   3   4
BRANCH   3   8
ATOM      8  C   UNL     1     169.636 162.435 158.910  1.00  0.00     0.099 C 
ATOM      9  O   UNL     1     170.663 161.954 158.363  1.00  0.00    -0.544 OA
ATOM     10  O   UNL     1     168.404 162.300 158.281  1.00  0.00    -0.544 OA
ENDBRANCH   3   8
ENDBRANCH   1   3
BRANCH   1  11
ATOM     11  C   UNL     1     169.267 160.726 161.285  1.00  0.00     0.006 C 
ATOM     12  C   UNL     1     168.865 160.076 162.608  1.00  0.00     0.004 C 
ENDBRANCH   1  11
TORSDOF 4
ENDMDL
