MODEL 1
REMARK VINA RESULT:     1.992      0.000      0.000
REMARK INTER + INTRA:           5.688
REMARK INTER:                   3.273
REMARK INTRA:                   2.415
REMARK UNBOUND:                 2.415
REMARK SMILES COc1ccc([C@@H]2CC(=O)c3c(O)cc(O[C@H]4O[C@H](CO[C@H]5O[C@@H](C)[C@H](O)[C@H](O)[C@@H]5O)[C@@H](O)[C@H](O)[C@@H]4O)cc3O2)cc1O
REMARK SMILES IDX 19 1 32 2 34 3 36 4 17 5 18 6 20 7 21 8 22 9 25 10 24 11
REMARK SMILES IDX 26 12 23 13 28 14 30 15 27 16 29 18 31 20 33 22 35 24 16 26
REMARK SMILES IDX 15 27 14 28 38 29 12 30 39 31 11 32 40 33 9 34 7 35 10 36
REMARK SMILES IDX 8 37 13 38 6 40 41 41 5 42 42 43 4 44 3 45 43 46 2 48 1 49
REMARK SMILES IDX 37 50
REMARK H PARENT 27 17 29 19 31 21 33 23 35 25 13 39 43 47 37 51
REMARK Flexibility Score: inf
ROOT
ATOM      1  C   UNL     1      27.822  34.481  34.273  1.00  0.00     0.180 C 
ATOM      2  C   UNL     1      27.220  33.785  35.514  1.00  0.00     0.177 C 
ATOM      3  C   UNL     1      28.018  32.496  35.825  1.00  0.00     0.180 C 
ATOM      4  C   UNL     1      29.545  32.740  35.804  1.00  0.00     0.214 C 
ATOM      5  C   UNL     1      29.956  33.564  34.555  1.00  0.00     0.339 C 
ATOM      6  O   UNL     1      29.197  34.765  34.490  1.00  0.00    -0.332 OA
ENDROOT
BRANCH   1   7
ATOM      7  C   UNL     1      27.080  35.793  33.944  1.00  0.00     0.198 C 
BRANCH   7   8
ATOM      8  O   UNL     1      27.103  36.099  32.555  1.00  0.00    -0.347 OA
BRANCH   8   9
ATOM      9  C   UNL     1      26.565  35.050  31.764  1.00  0.00     0.281 C 
ATOM     10  C   UNL     1      24.237  35.268  28.935  1.00  0.00     0.041 C 
ATOM     11  C   UNL     1      24.999  34.632  30.101  1.00  0.00     0.150 C 
ATOM     12  C   UNL     1      25.835  33.394  29.636  1.00  0.00     0.174 C 
ATOM     13  O   UNL     1      25.810  35.623  30.713  1.00  0.00    -0.344 OA
ATOM     14  C   UNL     1      27.351  33.682  29.764  1.00  0.00     0.179 C 
ATOM     15  C   UNL     1      27.717  34.209  31.174  1.00  0.00     0.202 C 
BRANCH  12  16
ATOM     16  O   UNL     1      25.488  32.279  30.423  1.00  0.00    -0.388 OA
ATOM     17  H   UNL     1      25.572  32.549  31.374  1.00  0.00     0.211 HD
ENDBRANCH  12  16
BRANCH  14  18
ATOM     18  O   UNL     1      28.106  32.533  29.459  1.00  0.00    -0.387 OA
ATOM     19  H   UNL     1      27.616  31.760  29.849  1.00  0.00     0.211 HD
ENDBRANCH  14  18
BRANCH  15  20
ATOM     20  O   UNL     1      27.996  33.139  32.043  1.00  0.00    -0.385 OA
ATOM     21  H   UNL     1      27.285  33.146  32.734  1.00  0.00     0.211 HD
ENDBRANCH  15  20
ENDBRANCH   8   9
ENDBRANCH   7   8
ENDBRANCH   1   7
BRANCH   2  22
ATOM     22  O   UNL     1      25.884  33.429  35.252  1.00  0.00    -0.387 OA
ATOM     23  H   UNL     1      25.372  34.272  35.144  1.00  0.00     0.211 HD
ENDBRANCH   2  22
BRANCH   3  24
ATOM     24  O   UNL     1      27.608  31.921  37.043  1.00  0.00    -0.387 OA
ATOM     25  H   UNL     1      28.403  31.878  37.641  1.00  0.00     0.211 HD
ENDBRANCH   3  24
BRANCH   5  26
ATOM     26  O   UNL     1      29.781  32.801  33.352  1.00  0.00    -0.462 OA
BRANCH  26  27
ATOM     27  C   UNL     1      29.917  31.417  33.270  1.00  0.00     0.130 A 
ATOM     28  C   UNL     1      29.598  30.642  34.388  1.00  0.00     0.093 A 
ATOM     29  C   UNL     1      30.328  30.798  32.085  1.00  0.00     0.094 A 
ATOM     30  C   UNL     1      29.717  29.248  34.346  1.00  0.00     0.133 A 
ATOM     31  C   UNL     1      30.408  29.407  32.016  1.00  0.00     0.138 A 
ATOM     32  C   UNL     1      30.120  28.621  33.149  1.00  0.00     0.102 A 
ATOM     33  O   UNL     1      30.764  28.802  30.803  1.00  0.00    -0.484 OA
ATOM     34  C   UNL     1      30.197  27.146  33.012  1.00  0.00     0.174 C 
ATOM     35  C   UNL     1      31.124  27.420  30.703  1.00  0.00     0.211 C 
ATOM     36  O   UNL     1      30.101  26.392  34.016  1.00  0.00    -0.294 OA
ATOM     37  C   UNL     1      30.276  26.544  31.642  1.00  0.00     0.131 C 
BRANCH  30  38
ATOM     38  O   UNL     1      29.407  28.490  35.478  1.00  0.00    -0.507 OA
ATOM     39  H   UNL     1      29.165  28.922  36.366  1.00  0.00     0.293 HD
ENDBRANCH  30  38
BRANCH  35  40
ATOM     40  C   UNL     1      30.958  26.946  29.281  1.00  0.00    -0.003 A 
ATOM     41  C   UNL     1      30.945  27.860  28.216  1.00  0.00     0.057 A 
ATOM     42  C   UNL     1      30.941  25.570  29.005  1.00  0.00     0.011 A 
ATOM     43  C   UNL     1      30.890  27.410  26.891  1.00  0.00     0.158 A 
ATOM     44  C   UNL     1      30.910  25.115  27.682  1.00  0.00     0.051 A 
ATOM     45  C   UNL     1      30.885  26.033  26.616  1.00  0.00     0.160 A 
BRANCH  43  46
ATOM     46  O   UNL     1      30.855  28.347  25.865  1.00  0.00    -0.504 OA
ATOM     47  H   UNL     1      31.652  28.518  25.261  1.00  0.00     0.293 HD
ENDBRANCH  43  46
BRANCH  45  48
ATOM     48  O   UNL     1      30.867  25.610  25.278  1.00  0.00    -0.493 OA
ATOM     49  C   UNL     1      29.957  24.649  24.750  1.00  0.00     0.278 C 
ENDBRANCH  45  48
ENDBRANCH  35  40
ENDBRANCH  26  27
ENDBRANCH   5  26
BRANCH   4  50
ATOM     50  O   UNL     1      29.991  33.372  36.981  1.00  0.00    -0.384 OA
ATOM     51  H   UNL     1      30.429  34.228  36.732  1.00  0.00     0.211 HD
ENDBRANCH   4  50
TORSDOF 15
ENDMDL
MODEL 2
REMARK VINA RESULT:     3.620      1.893      3.223
REMARK INTER + INTRA:           8.362
REMARK INTER:                   1.499
REMARK INTRA:                   6.863
REMARK UNBOUND:                 2.415
REMARK SMILES COc1ccc([C@@H]2CC(=O)c3c(O)cc(O[C@H]4O[C@H](CO[C@H]5O[C@@H](C)[C@H](O)[C@H](O)[C@@H]5O)[C@@H](O)[C@H](O)[C@@H]4O)cc3O2)cc1O
REMARK SMILES IDX 19 1 32 2 34 3 36 4 17 5 18 6 20 7 21 8 22 9 25 10 24 11
REMARK SMILES IDX 26 12 23 13 28 14 30 15 27 16 29 18 31 20 33 22 35 24 16 26
REMARK SMILES IDX 15 27 14 28 38 29 12 30 39 31 11 32 40 33 9 34 7 35 10 36
REMARK SMILES IDX 8 37 13 38 6 40 41 41 5 42 42 43 4 44 3 45 43 46 2 48 1 49
REMARK SMILES IDX 37 50
REMARK H PARENT 27 17 29 19 31 21 33 23 35 25 13 39 43 47 37 51
REMARK Flexibility Score: inf
ROOT
ATOM      1  C   UNL     1      26.860  34.637  34.256  1.00  0.00     0.180 C 
ATOM      2  C   UNL     1      25.942  33.542  33.670  1.00  0.00     0.177 C 
ATOM      3  C   UNL     1      26.044  32.262  34.534  1.00  0.00     0.180 C 
ATOM      4  C   UNL     1      25.925  32.572  36.045  1.00  0.00     0.214 C 
ATOM      5  C   UNL     1      26.815  33.781  36.433  1.00  0.00     0.339 C 
ATOM      6  O   UNL     1      26.509  34.899  35.608  1.00  0.00    -0.332 OA
ENDROOT
BRANCH   1   7
ATOM      7  C   UNL     1      26.766  35.948  33.447  1.00  0.00     0.198 C 
BRANCH   7   8
ATOM      8  O   UNL     1      25.815  35.871  32.393  1.00  0.00    -0.347 OA
BRANCH   8   9
ATOM      9  C   UNL     1      26.357  35.278  31.222  1.00  0.00     0.281 C 
ATOM     10  C   UNL     1      29.247  33.037  30.907  1.00  0.00     0.041 C 
ATOM     11  C   UNL     1      28.169  34.034  30.472  1.00  0.00     0.150 C 
ATOM     12  C   UNL     1      27.286  33.459  29.315  1.00  0.00     0.174 C 
ATOM     13  O   UNL     1      27.394  34.395  31.605  1.00  0.00    -0.344 OA
ATOM     14  C   UNL     1      25.834  33.227  29.803  1.00  0.00     0.179 C 
ATOM     15  C   UNL     1      25.252  34.489  30.488  1.00  0.00     0.202 C 
BRANCH  12  16
ATOM     16  O   UNL     1      27.293  34.361  28.235  1.00  0.00    -0.388 OA
ATOM     17  H   UNL     1      26.371  34.716  28.138  1.00  0.00     0.211 HD
ENDBRANCH  12  16
BRANCH  14  18
ATOM     18  O   UNL     1      25.007  32.822  28.738  1.00  0.00    -0.387 OA
ATOM     19  H   UNL     1      24.143  32.538  29.141  1.00  0.00     0.211 HD
ENDBRANCH  14  18
BRANCH  15  20
ATOM     20  O   UNL     1      24.643  35.328  29.538  1.00  0.00    -0.385 OA
ATOM     21  H   UNL     1      25.211  36.139  29.474  1.00  0.00     0.211 HD
ENDBRANCH  15  20
ENDBRANCH   8   9
ENDBRANCH   7   8
ENDBRANCH   1   7
BRANCH   2  22
ATOM     22  O   UNL     1      26.357  33.229  32.363  1.00  0.00    -0.387 OA
ATOM     23  H   UNL     1      25.551  32.942  31.861  1.00  0.00     0.211 HD
ENDBRANCH   2  22
BRANCH   3  24
ATOM     24  O   UNL     1      25.100  31.297  34.134  1.00  0.00    -0.387 OA
ATOM     25  H   UNL     1      24.833  31.503  33.197  1.00  0.00     0.211 HD
ENDBRANCH   3  24
BRANCH   5  26
ATOM     26  O   UNL     1      28.209  33.453  36.327  1.00  0.00    -0.462 OA
BRANCH  26  27
ATOM     27  C   UNL     1      28.697  32.224  35.892  1.00  0.00     0.130 A 
ATOM     28  C   UNL     1      28.507  31.099  36.700  1.00  0.00     0.093 A 
ATOM     29  C   UNL     1      29.336  32.094  34.655  1.00  0.00     0.094 A 
ATOM     30  C   UNL     1      28.979  29.844  36.298  1.00  0.00     0.133 A 
ATOM     31  C   UNL     1      29.772  30.842  34.222  1.00  0.00     0.138 A 
ATOM     32  C   UNL     1      29.613  29.710  35.046  1.00  0.00     0.102 A 
ATOM     33  O   UNL     1      30.356  30.722  32.954  1.00  0.00    -0.484 OA
ATOM     34  C   UNL     1      30.073  28.399  34.525  1.00  0.00     0.174 C 
ATOM     35  C   UNL     1      31.063  29.549  32.535  1.00  0.00     0.211 C 
ATOM     36  O   UNL     1      30.099  27.378  35.262  1.00  0.00    -0.294 OA
ATOM     37  C   UNL     1      30.400  28.267  33.069  1.00  0.00     0.131 C 
BRANCH  30  38
ATOM     38  O   UNL     1      28.792  28.734  37.125  1.00  0.00    -0.507 OA
ATOM     39  H   UNL     1      27.894  28.262  37.197  1.00  0.00     0.293 HD
ENDBRANCH  30  38
BRANCH  35  40
ATOM     40  C   UNL     1      31.125  29.497  31.029  1.00  0.00    -0.003 A 
ATOM     41  C   UNL     1      31.082  28.269  30.349  1.00  0.00     0.057 A 
ATOM     42  C   UNL     1      31.100  30.690  30.290  1.00  0.00     0.011 A 
ATOM     43  C   UNL     1      31.040  28.230  28.950  1.00  0.00     0.158 A 
ATOM     44  C   UNL     1      31.034  30.657  28.893  1.00  0.00     0.051 A 
ATOM     45  C   UNL     1      31.003  29.425  28.214  1.00  0.00     0.160 A 
BRANCH  43  46
ATOM     46  O   UNL     1      31.022  26.993  28.315  1.00  0.00    -0.504 OA
ATOM     47  H   UNL     1      30.961  26.121  28.830  1.00  0.00     0.293 HD
ENDBRANCH  43  46
BRANCH  45  48
ATOM     48  O   UNL     1      30.923  29.355  26.814  1.00  0.00    -0.493 OA
ATOM     49  C   UNL     1      30.641  30.466  25.969  1.00  0.00     0.278 C 
ENDBRANCH  45  48
ENDBRANCH  35  40
ENDBRANCH  26  27
ENDBRANCH   5  26
BRANCH   4  50
ATOM     50  O   UNL     1      24.588  32.797  36.430  1.00  0.00    -0.384 OA
ATOM     51  H   UNL     1      24.582  33.470  37.161  1.00  0.00     0.211 HD
ENDBRANCH   4  50
TORSDOF 15
ENDMDL
MODEL 3
REMARK VINA RESULT:     3.813      2.927      4.983
REMARK INTER + INTRA:           8.680
REMARK INTER:                   9.045
REMARK INTRA:                  -0.365
REMARK UNBOUND:                 2.415
REMARK SMILES COc1ccc([C@@H]2CC(=O)c3c(O)cc(O[C@H]4O[C@H](CO[C@H]5O[C@@H](C)[C@H](O)[C@H](O)[C@@H]5O)[C@@H](O)[C@H](O)[C@@H]4O)cc3O2)cc1O
REMARK SMILES IDX 19 1 32 2 34 3 36 4 17 5 18 6 20 7 21 8 22 9 25 10 24 11
REMARK SMILES IDX 26 12 23 13 28 14 30 15 27 16 29 18 31 20 33 22 35 24 16 26
REMARK SMILES IDX 15 27 14 28 38 29 12 30 39 31 11 32 40 33 9 34 7 35 10 36
REMARK SMILES IDX 8 37 13 38 6 40 41 41 5 42 42 43 4 44 3 45 43 46 2 48 1 49
REMARK SMILES IDX 37 50
REMARK H PARENT 27 17 29 19 31 21 33 23 35 25 13 39 43 47 37 51
REMARK Flexibility Score: inf
ROOT
ATOM      1  C   UNL     1      26.652  35.148  34.123  1.00  0.00     0.180 C 
ATOM      2  C   UNL     1      25.917  34.117  33.237  1.00  0.00     0.177 C 
ATOM      3  C   UNL     1      25.929  32.734  33.931  1.00  0.00     0.180 C 
ATOM      4  C   UNL     1      25.521  32.828  35.420  1.00  0.00     0.214 C 
ATOM      5  C   UNL     1      26.259  33.998  36.122  1.00  0.00     0.339 C 
ATOM      6  O   UNL     1      26.047  35.210  35.407  1.00  0.00    -0.332 OA
ENDROOT
BRANCH   1   7
ATOM      7  C   UNL     1      26.635  36.555  33.489  1.00  0.00     0.198 C 
BRANCH   7   8
ATOM      8  O   UNL     1      26.968  37.576  34.420  1.00  0.00    -0.347 OA
BRANCH   8   9
ATOM      9  C   UNL     1      26.178  38.743  34.243  1.00  0.00     0.281 C 
ATOM     10  C   UNL     1      24.352  40.686  36.766  1.00  0.00     0.041 C 
ATOM     11  C   UNL     1      24.731  40.162  35.378  1.00  0.00     0.150 C 
ATOM     12  C   UNL     1      25.127  41.327  34.411  1.00  0.00     0.174 C 
ATOM     13  O   UNL     1      25.772  39.208  35.517  1.00  0.00    -0.344 OA
ATOM     14  C   UNL     1      26.630  41.243  34.045  1.00  0.00     0.179 C 
ATOM     15  C   UNL     1      27.018  39.830  33.540  1.00  0.00     0.202 C 
BRANCH  12  16
ATOM     16  O   UNL     1      24.343  41.248  33.245  1.00  0.00    -0.388 OA
ATOM     17  H   UNL     1      24.859  41.668  32.510  1.00  0.00     0.211 HD
ENDBRANCH  12  16
BRANCH  14  18
ATOM     18  O   UNL     1      26.966  42.216  33.085  1.00  0.00    -0.387 OA
ATOM     19  H   UNL     1      27.924  42.074  32.859  1.00  0.00     0.211 HD
ENDBRANCH  14  18
BRANCH  15  20
ATOM     20  O   UNL     1      26.825  39.734  32.151  1.00  0.00    -0.385 OA
ATOM     21  H   UNL     1      26.639  38.778  31.959  1.00  0.00     0.211 HD
ENDBRANCH  15  20
ENDBRANCH   8   9
ENDBRANCH   7   8
ENDBRANCH   1   7
BRANCH   2  22
ATOM     22  O   UNL     1      26.579  34.001  32.002  1.00  0.00    -0.387 OA
ATOM     23  H   UNL     1      26.032  34.485  31.330  1.00  0.00     0.211 HD
ENDBRANCH   2  22
BRANCH   3  24
ATOM     24  O   UNL     1      25.128  31.806  33.238  1.00  0.00    -0.387 OA
ATOM     25  H   UNL     1      25.661  31.453  32.475  1.00  0.00     0.211 HD
ENDBRANCH   3  24
BRANCH   5  26
ATOM     26  O   UNL     1      27.664  33.728  36.238  1.00  0.00    -0.462 OA
BRANCH  26  27
ATOM     27  C   UNL     1      28.274  32.542  35.838  1.00  0.00     0.130 A 
ATOM     28  C   UNL     1      28.152  31.415  36.656  1.00  0.00     0.093 A 
ATOM     29  C   UNL     1      28.966  32.455  34.627  1.00  0.00     0.094 A 
ATOM     30  C   UNL     1      28.747  30.201  36.289  1.00  0.00     0.133 A 
ATOM     31  C   UNL     1      29.525  31.240  34.229  1.00  0.00     0.138 A 
ATOM     32  C   UNL     1      29.435  30.109  35.062  1.00  0.00     0.102 A 
ATOM     33  O   UNL     1      30.164  31.157  32.984  1.00  0.00    -0.484 OA
ATOM     34  C   UNL     1      30.027  28.837  34.578  1.00  0.00     0.174 C 
ATOM     35  C   UNL     1      30.985  30.046  32.607  1.00  0.00     0.211 C 
ATOM     36  O   UNL     1      30.115  27.831  35.330  1.00  0.00    -0.294 OA
ATOM     37  C   UNL     1      30.418  28.718  33.136  1.00  0.00     0.131 C 
BRANCH  30  38
ATOM     38  O   UNL     1      28.627  29.089  37.125  1.00  0.00    -0.507 OA
ATOM     39  H   UNL     1      28.415  28.162  36.762  1.00  0.00     0.293 HD
ENDBRANCH  30  38
BRANCH  35  40
ATOM     40  C   UNL     1      31.107  29.983  31.105  1.00  0.00    -0.003 A 
ATOM     41  C   UNL     1      31.097  28.750  30.435  1.00  0.00     0.057 A 
ATOM     42  C   UNL     1      31.105  31.170  30.357  1.00  0.00     0.011 A 
ATOM     43  C   UNL     1      31.110  28.698  29.035  1.00  0.00     0.158 A 
ATOM     44  C   UNL     1      31.094  31.125  28.958  1.00  0.00     0.051 A 
ATOM     45  C   UNL     1      31.096  29.887  28.288  1.00  0.00     0.160 A 
BRANCH  43  46
ATOM     46  O   UNL     1      31.124  27.456  28.410  1.00  0.00    -0.504 OA
ATOM     47  H   UNL     1      31.863  27.181  27.772  1.00  0.00     0.293 HD
ENDBRANCH  43  46
BRANCH  45  48
ATOM     48  O   UNL     1      31.072  29.805  26.887  1.00  0.00    -0.493 OA
ATOM     49  C   UNL     1      30.314  30.669  26.045  1.00  0.00     0.278 C 
ENDBRANCH  45  48
ENDBRANCH  35  40
ENDBRANCH  26  27
ENDBRANCH   5  26
BRANCH   4  50
ATOM     50  O   UNL     1      24.126  32.959  35.574  1.00  0.00    -0.384 OA
ATOM     51  H   UNL     1      23.945  33.778  36.108  1.00  0.00     0.211 HD
ENDBRANCH   4  50
TORSDOF 15
ENDMDL
