MODEL 1
REMARK VINA RESULT:    -2.556      0.000      0.000
REMARK INTER + INTRA:          -2.556
REMARK INTER:                  -2.556
REMARK INTRA:                   0.000
REMARK UNBOUND:                 0.000
REMARK SMILES C[C@H]1CCC=C2CC[C@H]3[C@H](C3(C)C)[C@]21C
REMARK SMILES IDX 1 1 2 2 3 3 4 4 5 5 6 6 14 7 10 8 9 9 11 10 12 11 13 12 8 13
REMARK SMILES IDX 7 14 15 15
REMARK H PARENT
REMARK Flexibility Score: inf
ROOT
ATOM      1  C   UNL     1       7.539   7.414  14.255  1.00  0.00     0.008 C 
ATOM      2  C   UNL     1       7.070   7.445  12.776  1.00  0.00    -0.004 C 
ATOM      3  C   UNL     1       7.779   6.306  12.009  1.00  0.00     0.008 C 
ATOM      4  C   UNL     1       7.272   4.926  12.445  1.00  0.00     0.027 C 
ATOM      5  C   UNL     1       5.796   4.875  12.755  1.00  0.00    -0.027 C 
ATOM      6  C   UNL     1       5.004   5.962  12.910  1.00  0.00    -0.068 C 
ATOM      7  C   UNL     1       5.498   7.379  12.577  1.00  0.00    -0.005 C 
ATOM      8  C   UNL     1       4.810   8.445  13.538  1.00  0.00     0.009 C 
ATOM      9  C   UNL     1       3.345   8.153  13.947  1.00  0.00    -0.000 C 
ATOM     10  C   UNL     1       3.686   9.477  13.244  1.00  0.00    -0.028 C 
ATOM     11  C   UNL     1       3.161   9.803  11.831  1.00  0.00     0.012 C 
ATOM     12  C   UNL     1       3.713  10.691  14.189  1.00  0.00     0.012 C 
ATOM     13  C   UNL     1       2.699   6.958  13.230  1.00  0.00     0.009 C 
ATOM     14  C   UNL     1       3.579   5.721  13.361  1.00  0.00     0.031 C 
ATOM     15  C   UNL     1       5.200   7.640  11.077  1.00  0.00     0.017 C 
ENDROOT
TORSDOF 0
ENDMDL
MODEL 2
REMARK VINA RESULT:    -0.472      0.951      4.440
REMARK INTER + INTRA:          -0.472
REMARK INTER:                  -0.472
REMARK INTRA:                   0.000
REMARK UNBOUND:                 0.000
REMARK SMILES C[C@H]1CCC=C2CC[C@H]3[C@H](C3(C)C)[C@]21C
REMARK SMILES IDX 1 1 2 2 3 3 4 4 5 5 6 6 14 7 10 8 9 9 11 10 12 11 13 12 8 13
REMARK SMILES IDX 7 14 15 15
REMARK H PARENT
REMARK Flexibility Score: inf
ROOT
ATOM      1  C   UNL     1       3.952   9.774  11.131  1.00  0.00     0.008 C 
ATOM      2  C   UNL     1       4.375   9.755  12.624  1.00  0.00    -0.004 C 
ATOM      3  C   UNL     1       3.313  10.518  13.447  1.00  0.00     0.008 C 
ATOM      4  C   UNL     1       1.987   9.752  13.513  1.00  0.00     0.027 C 
ATOM      5  C   UNL     1       2.138   8.254  13.605  1.00  0.00    -0.027 C 
ATOM      6  C   UNL     1       3.293   7.582  13.389  1.00  0.00    -0.068 C 
ATOM      7  C   UNL     1       4.635   8.310  13.222  1.00  0.00    -0.005 C 
ATOM      8  C   UNL     1       5.583   7.503  12.229  1.00  0.00     0.009 C 
ATOM      9  C   UNL     1       5.479   5.959  12.287  1.00  0.00    -0.000 C 
ATOM     10  C   UNL     1       6.838   6.637  12.527  1.00  0.00    -0.028 C 
ATOM     11  C   UNL     1       7.541   6.580  13.899  1.00  0.00     0.012 C 
ATOM     12  C   UNL     1       7.803   6.532  11.334  1.00  0.00     0.012 C 
ATOM     13  C   UNL     1       4.597   5.412  13.419  1.00  0.00     0.009 C 
ATOM     14  C   UNL     1       3.222   6.069  13.385  1.00  0.00     0.031 C 
ATOM     15  C   UNL     1       5.254   8.485  14.633  1.00  0.00     0.017 C 
ENDROOT
TORSDOF 0
ENDMDL
MODEL 3
REMARK VINA RESULT:    -0.385      1.257      2.974
REMARK INTER + INTRA:          -0.385
REMARK INTER:                  -0.385
REMARK INTRA:                   0.000
REMARK UNBOUND:                 0.000
REMARK SMILES C[C@H]1CCC=C2CC[C@H]3[C@H](C3(C)C)[C@]21C
REMARK SMILES IDX 1 1 2 2 3 3 4 4 5 5 6 6 14 7 10 8 9 9 11 10 12 11 13 12 8 13
REMARK SMILES IDX 7 14 15 15
REMARK H PARENT
REMARK Flexibility Score: inf
ROOT
ATOM      1  C   UNL     1       5.765   7.500  10.993  1.00  0.00     0.008 C 
ATOM      2  C   UNL     1       4.684   6.957  11.964  1.00  0.00    -0.004 C 
ATOM      3  C   UNL     1       5.268   5.749  12.729  1.00  0.00     0.008 C 
ATOM      4  C   UNL     1       6.358   6.176  13.719  1.00  0.00     0.027 C 
ATOM      5  C   UNL     1       6.096   7.495  14.401  1.00  0.00    -0.027 C 
ATOM      6  C   UNL     1       5.146   8.383  14.022  1.00  0.00    -0.068 C 
ATOM      7  C   UNL     1       4.088   8.035  12.964  1.00  0.00    -0.005 C 
ATOM      8  C   UNL     1       3.682   9.335  12.140  1.00  0.00     0.009 C 
ATOM      9  C   UNL     1       3.656  10.666  12.930  1.00  0.00    -0.000 C 
ATOM     10  C   UNL     1       2.388  10.194  12.201  1.00  0.00    -0.028 C 
ATOM     11  C   UNL     1       1.116   9.784  12.971  1.00  0.00     0.012 C 
ATOM     12  C   UNL     1       2.102  10.957  10.897  1.00  0.00     0.012 C 
ATOM     13  C   UNL     1       3.863  10.523  14.445  1.00  0.00     0.009 C 
ATOM     14  C   UNL     1       5.124   9.718  14.736  1.00  0.00     0.031 C 
ATOM     15  C   UNL     1       2.885   7.387  13.697  1.00  0.00     0.017 C 
ENDROOT
TORSDOF 0
ENDMDL
MODEL 4
REMARK VINA RESULT:     0.364      1.172      4.568
REMARK INTER + INTRA:           0.364
REMARK INTER:                   0.364
REMARK INTRA:                   0.000
REMARK UNBOUND:                 0.000
REMARK SMILES C[C@H]1CCC=C2CC[C@H]3[C@H](C3(C)C)[C@]21C
REMARK SMILES IDX 1 1 2 2 3 3 4 4 5 5 6 6 14 7 10 8 9 9 11 10 12 11 13 12 8 13
REMARK SMILES IDX 7 14 15 15
REMARK H PARENT
REMARK Flexibility Score: inf
ROOT
ATOM      1  C   UNL     1       5.732   9.343  15.449  1.00  0.00     0.008 C 
ATOM      2  C   UNL     1       4.386   8.621  15.180  1.00  0.00    -0.004 C 
ATOM      3  C   UNL     1       3.230   9.578  15.548  1.00  0.00     0.008 C 
ATOM      4  C   UNL     1       3.130  10.751  14.567  1.00  0.00     0.027 C 
ATOM      5  C   UNL     1       3.437  10.392  13.134  1.00  0.00    -0.027 C 
ATOM      6  C   UNL     1       4.008   9.230  12.738  1.00  0.00    -0.068 C 
ATOM      7  C   UNL     1       4.218   8.057  13.708  1.00  0.00    -0.005 C 
ATOM      8  C   UNL     1       5.526   7.241  13.314  1.00  0.00     0.009 C 
ATOM      9  C   UNL     1       5.834   7.129  11.801  1.00  0.00    -0.000 C 
ATOM     10  C   UNL     1       5.670   5.850  12.637  1.00  0.00    -0.028 C 
ATOM     11  C   UNL     1       4.497   4.876  12.407  1.00  0.00     0.012 C 
ATOM     12  C   UNL     1       7.000   5.149  12.964  1.00  0.00     0.012 C 
ATOM     13  C   UNL     1       4.739   7.679  10.875  1.00  0.00     0.009 C 
ATOM     14  C   UNL     1       4.374   9.104  11.274  1.00  0.00     0.031 C 
ATOM     15  C   UNL     1       2.934   7.187  13.678  1.00  0.00     0.017 C 
ENDROOT
TORSDOF 0
ENDMDL
