MODEL 1
REMARK VINA RESULT:    -3.429      0.000      0.000
REMARK INTER + INTRA:          -4.372
REMARK INTER:                  -4.832
REMARK INTRA:                   0.459
REMARK UNBOUND:                 0.459
REMARK SMILES CC1=CCC(=C(C)C)C(=O)CC(C)=CCC1
REMARK SMILES IDX 12 1 14 2 13 3 15 4 16 5 2 6 1 7 3 8 11 10 9 11 10 12 5 13
REMARK SMILES IDX 6 14 7 15 8 16 4 17
REMARK H PARENT
REMARK Flexibility Score: 60.00
ROOT
ATOM      1  C   UNL     1      -8.458  29.417  44.549  1.00  0.00    -0.070 C 
ATOM      2  C   UNL     1      -8.795  30.284  45.528  1.00  0.00    -0.027 C 
ATOM      3  C   UNL     1      -9.356  28.228  44.317  1.00  0.00     0.039 C 
ENDROOT
BRANCH   2   4
ATOM      4  C   UNL     1      -8.080  31.580  45.847  1.00  0.00     0.032 C 
BRANCH   4   5
ATOM      5  C   UNL     1      -7.216  31.543  47.125  1.00  0.00     0.034 C 
BRANCH   5   6
ATOM      6  C   UNL     1      -5.746  31.296  46.846  1.00  0.00    -0.077 C 
ATOM      7  C   UNL     1      -4.831  32.494  46.790  1.00  0.00     0.039 C 
ATOM      8  C   UNL     1      -5.190  30.067  46.713  1.00  0.00    -0.023 CG0
ATOM      9  G   UNL     1      -5.908  28.732  46.715  1.00  0.00     0.000 G0
ENDBRANCH   5   6
ENDBRANCH   4   5
ENDBRANCH   2   4
BRANCH   1  10
ATOM     10  C   UNL     1      -7.281  29.630  43.619  1.00  0.00     0.111 C 
BRANCH  10  11
ATOM     11  C   UNL     1      -6.017  29.027  44.173  1.00  0.00     0.163 C 
ATOM     12  O   UNL     1      -4.919  29.367  43.655  1.00  0.00    -0.294 OA
BRANCH  11  13
ATOM     13  C   UNL     1      -6.019  28.098  45.343  1.00  0.00    -0.002 C 
ATOM     14  C   UNL     1      -6.031  26.743  45.159  1.00  0.00    -0.069 C 
ATOM     15  C   UNL     1      -5.875  25.778  46.314  1.00  0.00     0.039 C 
ATOM     16  C   UNL     1      -6.202  26.140  43.783  1.00  0.00     0.039 C 
BRANCH  13  17
ATOM     17  C   UNL     1      -5.911  28.721  46.725  1.00  0.00     0.066 CG0
ATOM     18  G   UNL     1      -5.192  30.055  46.703  1.00  0.00     0.000 G0
ENDBRANCH  13  17
ENDBRANCH  11  13
ENDBRANCH  10  11
ENDBRANCH   1  10
TORSDOF 0
ENDMDL
MODEL 2
REMARK VINA RESULT:    -3.420      1.838      4.359
REMARK INTER + INTRA:          -4.360
REMARK INTER:                  -4.818
REMARK INTRA:                   0.458
REMARK UNBOUND:                 0.459
REMARK SMILES CC1=CCC(=C(C)C)C(=O)CC(C)=CCC1
REMARK SMILES IDX 12 1 14 2 13 3 15 4 16 5 2 6 1 7 3 8 11 10 9 11 10 12 5 13
REMARK SMILES IDX 6 14 7 15 8 16 4 17
REMARK H PARENT
REMARK Flexibility Score: 60.00
ROOT
ATOM      1  C   UNL     1      -7.973  29.188  45.595  1.00  0.00    -0.070 C 
ATOM      2  C   UNL     1      -7.031  28.225  45.696  1.00  0.00    -0.027 C 
ATOM      3  C   UNL     1      -9.126  28.952  44.652  1.00  0.00     0.039 C 
ENDROOT
BRANCH   2   4
ATOM      4  C   UNL     1      -5.858  28.232  46.653  1.00  0.00     0.032 C 
BRANCH   4   5
ATOM      5  C   UNL     1      -4.472  28.165  45.977  1.00  0.00     0.034 C 
BRANCH   5   6
ATOM      6  C   UNL     1      -4.237  29.287  44.983  1.00  0.00    -0.077 C 
ATOM      7  C   UNL     1      -3.952  28.907  43.552  1.00  0.00     0.039 C 
ATOM      8  C   UNL     1      -4.335  30.605  45.282  1.00  0.00    -0.023 CG0
ATOM      9  G   UNL     1      -4.592  31.218  46.644  1.00  0.00     0.000 G0
ENDBRANCH   5   6
ENDBRANCH   4   5
ENDBRANCH   2   4
BRANCH   1  10
ATOM     10  C   UNL     1      -7.974  30.442  46.445  1.00  0.00     0.111 C 
BRANCH  10  11
ATOM     11  C   UNL     1      -7.063  31.499  45.879  1.00  0.00     0.163 C 
ATOM     12  O   UNL     1      -7.335  31.973  44.743  1.00  0.00    -0.294 OA
BRANCH  11  13
ATOM     13  C   UNL     1      -5.896  32.040  46.638  1.00  0.00    -0.002 C 
ATOM     14  C   UNL     1      -6.016  33.180  47.384  1.00  0.00    -0.069 C 
ATOM     15  C   UNL     1      -4.904  33.667  48.286  1.00  0.00     0.039 C 
ATOM     16  C   UNL     1      -7.276  34.016  47.342  1.00  0.00     0.039 C 
BRANCH  13  17
ATOM     17  C   UNL     1      -4.615  31.224  46.620  1.00  0.00     0.066 CG0
ATOM     18  G   UNL     1      -4.341  30.609  45.261  1.00  0.00     0.000 G0
ENDBRANCH  13  17
ENDBRANCH  11  13
ENDBRANCH  10  11
ENDBRANCH   1  10
TORSDOF 0
ENDMDL
MODEL 3
REMARK VINA RESULT:    -3.359      1.834      2.577
REMARK INTER + INTRA:          -4.274
REMARK INTER:                  -4.478
REMARK INTRA:                   0.204
REMARK UNBOUND:                 0.459
REMARK SMILES CC1=CCC(=C(C)C)C(=O)CC(C)=CCC1
REMARK SMILES IDX 12 1 14 2 13 3 15 4 16 5 2 6 1 7 3 8 11 10 9 11 10 12 5 13
REMARK SMILES IDX 6 14 7 15 8 16 4 17
REMARK H PARENT
REMARK Flexibility Score: 60.00
ROOT
ATOM      1  C   UNL     1      -8.927  32.494  44.444  1.00  0.00    -0.070 C 
ATOM      2  C   UNL     1      -8.621  33.702  44.966  1.00  0.00    -0.027 C 
ATOM      3  C   UNL     1      -9.464  32.448  43.035  1.00  0.00     0.039 C 
ENDROOT
BRANCH   2   4
ATOM      4  C   UNL     1      -7.984  33.946  46.317  1.00  0.00     0.032 C 
BRANCH   4   5
ATOM      5  C   UNL     1      -6.445  33.831  46.336  1.00  0.00     0.034 C 
BRANCH   5   6
ATOM      6  C   UNL     1      -5.930  32.874  47.394  1.00  0.00    -0.077 C 
ATOM      7  C   UNL     1      -6.000  33.316  48.834  1.00  0.00     0.039 C 
ATOM      8  C   UNL     1      -5.476  31.623  47.137  1.00  0.00    -0.023 CG0
ATOM      9  G   UNL     1      -5.300  30.975  45.778  1.00  0.00     0.000 G0
ENDBRANCH   5   6
ENDBRANCH   4   5
ENDBRANCH   2   4
BRANCH   1  10
ATOM     10  C   UNL     1      -8.671  31.187  45.167  1.00  0.00     0.111 C 
BRANCH  10  11
ATOM     11  C   UNL     1      -7.493  30.451  44.586  1.00  0.00     0.163 C 
ATOM     12  O   UNL     1      -7.450  30.289  43.337  1.00  0.00    -0.294 OA
BRANCH  11  13
ATOM     13  C   UNL     1      -6.356  29.969  45.427  1.00  0.00    -0.002 C 
ATOM     14  C   UNL     1      -6.264  28.653  45.789  1.00  0.00    -0.069 C 
ATOM     15  C   UNL     1      -5.050  28.103  46.504  1.00  0.00     0.039 C 
ATOM     16  C   UNL     1      -7.379  27.677  45.488  1.00  0.00     0.039 C 
BRANCH  13  17
ATOM     17  C   UNL     1      -5.274  30.976  45.777  1.00  0.00     0.066 CG0
ATOM     18  G   UNL     1      -5.496  31.615  47.133  1.00  0.00     0.000 G0
ENDBRANCH  13  17
ENDBRANCH  11  13
ENDBRANCH  10  11
ENDBRANCH   1  10
TORSDOF 0
ENDMDL
MODEL 4
REMARK VINA RESULT:    -3.314      2.194      4.942
REMARK INTER + INTRA:          -4.210
REMARK INTER:                  -4.577
REMARK INTRA:                   0.367
REMARK UNBOUND:                 0.459
REMARK SMILES CC1=CCC(=C(C)C)C(=O)CC(C)=CCC1
REMARK SMILES IDX 12 1 14 2 13 3 15 4 16 5 2 6 1 7 3 8 11 10 9 11 10 12 5 13
REMARK SMILES IDX 6 14 7 15 8 16 4 17
REMARK H PARENT
REMARK Flexibility Score: 60.00
ROOT
ATOM      1  C   UNL     1      -6.328  28.943  46.349  1.00  0.00    -0.070 C 
ATOM      2  C   UNL     1      -7.096  28.812  45.244  1.00  0.00    -0.027 C 
ATOM      3  C   UNL     1      -5.136  28.031  46.493  1.00  0.00     0.039 C 
ENDROOT
BRANCH   2   4
ATOM      4  C   UNL     1      -8.269  29.693  44.874  1.00  0.00     0.032 C 
BRANCH   4   5
ATOM      5  C   UNL     1      -8.084  30.505  43.575  1.00  0.00     0.034 C 
BRANCH   5   6
ATOM      6  C   UNL     1      -6.767  31.257  43.522  1.00  0.00    -0.077 C 
ATOM      7  C   UNL     1      -5.798  30.898  42.424  1.00  0.00     0.039 C 
ATOM      8  C   UNL     1      -6.436  32.275  44.352  1.00  0.00    -0.023 CG0
ATOM      9  G   UNL     1      -7.237  32.794  45.530  1.00  0.00     0.000 G0
ENDBRANCH   5   6
ENDBRANCH   4   5
ENDBRANCH   2   4
BRANCH   1  10
ATOM     10  C   UNL     1      -6.553  30.015  47.395  1.00  0.00     0.111 C 
BRANCH  10  11
ATOM     11  C   UNL     1      -5.800  31.278  47.069  1.00  0.00     0.163 C 
ATOM     12  O   UNL     1      -4.552  31.201  46.911  1.00  0.00    -0.294 OA
BRANCH  11  13
ATOM     13  C   UNL     1      -6.484  32.590  46.868  1.00  0.00    -0.002 C 
ATOM     14  C   UNL     1      -6.384  33.581  47.805  1.00  0.00    -0.069 C 
ATOM     15  C   UNL     1      -6.931  34.970  47.562  1.00  0.00     0.039 C 
ATOM     16  C   UNL     1      -5.715  33.334  49.139  1.00  0.00     0.039 C 
BRANCH  13  17
ATOM     17  C   UNL     1      -7.208  32.802  45.549  1.00  0.00     0.066 CG0
ATOM     18  G   UNL     1      -6.419  32.276  44.367  1.00  0.00     0.000 G0
ENDBRANCH  13  17
ENDBRANCH  11  13
ENDBRANCH  10  11
ENDBRANCH   1  10
TORSDOF 0
ENDMDL
MODEL 5
REMARK VINA RESULT:    -3.105      1.727      4.245
REMARK INTER + INTRA:          -3.916
REMARK INTER:                  -4.393
REMARK INTRA:                   0.477
REMARK UNBOUND:                 0.459
REMARK SMILES CC1=CCC(=C(C)C)C(=O)CC(C)=CCC1
REMARK SMILES IDX 12 1 14 2 13 3 15 4 16 5 2 6 1 7 3 8 11 10 9 11 10 12 5 13
REMARK SMILES IDX 6 14 7 15 8 16 4 17
REMARK H PARENT
REMARK Flexibility Score: 60.00
ROOT
ATOM      1  C   UNL     1      -8.418  30.742  45.394  1.00  0.00    -0.070 C 
ATOM      2  C   UNL     1      -8.778  29.655  44.677  1.00  0.00    -0.027 C 
ATOM      3  C   UNL     1      -8.791  32.100  44.855  1.00  0.00     0.039 C 
ENDROOT
BRANCH   2   4
ATOM      4  C   UNL     1      -8.582  28.214  45.096  1.00  0.00     0.032 C 
BRANCH   4   5
ATOM      5  C   UNL     1      -7.405  27.494  44.404  1.00  0.00     0.034 C 
BRANCH   5   6
ATOM      6  C   UNL     1      -6.138  27.481  45.239  1.00  0.00    -0.077 C 
ATOM      7  C   UNL     1      -5.875  26.268  46.095  1.00  0.00     0.039 C 
ATOM      8  C   UNL     1      -5.196  28.454  45.211  1.00  0.00    -0.023 CG0
ATOM      9  G   UNL     1      -5.252  29.762  44.446  1.00  0.00     0.000 G0
ENDBRANCH   5   6
ENDBRANCH   4   5
ENDBRANCH   2   4
BRANCH   1  10
ATOM     10  C   UNL     1      -7.745  30.658  46.749  1.00  0.00     0.111 C 
BRANCH  10  11
ATOM     11  C   UNL     1      -6.244  30.690  46.628  1.00  0.00     0.163 C 
ATOM     12  O   UNL     1      -5.559  30.424  47.652  1.00  0.00    -0.294 OA
BRANCH  11  13
ATOM     13  C   UNL     1      -5.551  30.962  45.333  1.00  0.00    -0.002 C 
ATOM     14  C   UNL     1      -5.127  32.224  45.019  1.00  0.00    -0.069 C 
ATOM     15  C   UNL     1      -4.286  32.503  43.793  1.00  0.00     0.039 C 
ATOM     16  C   UNL     1      -5.481  33.409  45.889  1.00  0.00     0.039 C 
BRANCH  13  17
ATOM     17  C   UNL     1      -5.257  29.770  44.437  1.00  0.00     0.066 CG0
ATOM     18  G   UNL     1      -5.216  28.465  45.208  1.00  0.00     0.000 G0
ENDBRANCH  13  17
ENDBRANCH  11  13
ENDBRANCH  10  11
ENDBRANCH   1  10
TORSDOF 0
ENDMDL
MODEL 6
REMARK VINA RESULT:    -3.019      1.949      2.968
REMARK INTER + INTRA:          -3.795
REMARK INTER:                  -4.246
REMARK INTRA:                   0.452
REMARK UNBOUND:                 0.459
REMARK SMILES CC1=CCC(=C(C)C)C(=O)CC(C)=CCC1
REMARK SMILES IDX 12 1 14 2 13 3 15 4 16 5 2 6 1 7 3 8 11 10 9 11 10 12 5 13
REMARK SMILES IDX 6 14 7 15 8 16 4 17
REMARK H PARENT
REMARK Flexibility Score: 60.00
ROOT
ATOM      1  C   UNL     1      -6.246  32.689  44.054  1.00  0.00    -0.070 C 
ATOM      2  C   UNL     1      -5.157  33.028  44.777  1.00  0.00    -0.027 C 
ATOM      3  C   UNL     1      -7.112  33.801  43.517  1.00  0.00     0.039 C 
ENDROOT
BRANCH   2   4
ATOM      4  C   UNL     1      -4.118  32.067  45.315  1.00  0.00     0.032 C 
BRANCH   4   5
ATOM      5  C   UNL     1      -4.089  31.940  46.852  1.00  0.00     0.034 C 
BRANCH   5   6
ATOM      6  C   UNL     1      -5.471  31.951  47.479  1.00  0.00    -0.077 C 
ATOM      7  C   UNL     1      -5.887  33.183  48.242  1.00  0.00     0.039 C 
ATOM      8  C   UNL     1      -6.381  30.956  47.339  1.00  0.00    -0.023 CG0
ATOM      9  G   UNL     1      -6.183  29.627  46.636  1.00  0.00     0.000 G0
ENDBRANCH   5   6
ENDBRANCH   4   5
ENDBRANCH   2   4
BRANCH   1  10
ATOM     10  C   UNL     1      -6.585  31.260  43.682  1.00  0.00     0.111 C 
BRANCH  10  11
ATOM     11  C   UNL     1      -7.523  30.633  44.679  1.00  0.00     0.163 C 
ATOM     12  O   UNL     1      -8.677  31.125  44.800  1.00  0.00    -0.294 OA
BRANCH  11  13
ATOM     13  C   UNL     1      -7.156  29.422  45.473  1.00  0.00    -0.002 C 
ATOM     14  C   UNL     1      -7.600  28.183  45.103  1.00  0.00    -0.069 C 
ATOM     15  C   UNL     1      -7.120  26.923  45.790  1.00  0.00     0.039 C 
ATOM     16  C   UNL     1      -8.600  28.010  43.981  1.00  0.00     0.039 C 
BRANCH  13  17
ATOM     17  C   UNL     1      -6.201  29.618  46.638  1.00  0.00     0.066 CG0
ATOM     18  G   UNL     1      -6.381  30.965  47.311  1.00  0.00     0.000 G0
ENDBRANCH  13  17
ENDBRANCH  11  13
ENDBRANCH  10  11
ENDBRANCH   1  10
TORSDOF 0
ENDMDL
MODEL 7
REMARK VINA RESULT:    -2.996      2.029      4.248
REMARK INTER + INTRA:          -3.763
REMARK INTER:                  -4.026
REMARK INTRA:                   0.263
REMARK UNBOUND:                 0.459
REMARK SMILES CC1=CCC(=C(C)C)C(=O)CC(C)=CCC1
REMARK SMILES IDX 12 1 14 2 13 3 15 4 16 5 2 6 1 7 3 8 11 10 9 11 10 12 5 13
REMARK SMILES IDX 6 14 7 15 8 16 4 17
REMARK H PARENT
REMARK Flexibility Score: 60.00
ROOT
ATOM      1  C   UNL     1      -8.795  28.420  44.789  1.00  0.00    -0.070 C 
ATOM      2  C   UNL     1      -7.833  27.490  44.976  1.00  0.00    -0.027 C 
ATOM      3  C   UNL     1     -10.115  27.966  44.217  1.00  0.00     0.039 C 
ENDROOT
BRANCH   2   4
ATOM      4  C   UNL     1      -6.486  27.729  45.624  1.00  0.00     0.032 C 
BRANCH   4   5
ATOM      5  C   UNL     1      -5.505  28.574  44.784  1.00  0.00     0.034 C 
BRANCH   5   6
ATOM      6  C   UNL     1      -4.959  29.776  45.533  1.00  0.00    -0.077 C 
ATOM      7  C   UNL     1      -4.177  29.519  46.796  1.00  0.00     0.039 C 
ATOM      8  C   UNL     1      -5.067  31.057  45.103  1.00  0.00    -0.023 CG0
ATOM      9  G   UNL     1      -5.815  31.553  43.882  1.00  0.00     0.000 G0
ENDBRANCH   5   6
ENDBRANCH   4   5
ENDBRANCH   2   4
BRANCH   1  10
ATOM     10  C   UNL     1      -8.645  29.867  45.210  1.00  0.00     0.111 C 
BRANCH  10  11
ATOM     11  C   UNL     1      -8.258  30.747  44.050  1.00  0.00     0.163 C 
ATOM     12  O   UNL     1      -8.824  30.551  42.941  1.00  0.00    -0.294 OA
BRANCH  11  13
ATOM     13  C   UNL     1      -7.282  31.869  44.187  1.00  0.00    -0.002 C 
ATOM     14  C   UNL     1      -7.685  33.092  44.649  1.00  0.00    -0.069 C 
ATOM     15  C   UNL     1      -6.698  34.199  44.948  1.00  0.00     0.039 C 
ATOM     16  C   UNL     1      -9.147  33.399  44.885  1.00  0.00     0.039 C 
BRANCH  13  17
ATOM     17  C   UNL     1      -5.825  31.565  43.885  1.00  0.00     0.066 CG0
ATOM     18  G   UNL     1      -5.080  31.045  45.099  1.00  0.00     0.000 G0
ENDBRANCH  13  17
ENDBRANCH  11  13
ENDBRANCH  10  11
ENDBRANCH   1  10
TORSDOF 0
ENDMDL
MODEL 8
REMARK VINA RESULT:    -2.994     14.727     16.236
REMARK INTER + INTRA:          -3.760
REMARK INTER:                  -4.113
REMARK INTRA:                   0.353
REMARK UNBOUND:                 0.459
REMARK SMILES CC1=CCC(=C(C)C)C(=O)CC(C)=CCC1
REMARK SMILES IDX 12 1 14 2 13 3 15 4 16 5 2 6 1 7 3 8 11 10 9 11 10 12 5 13
REMARK SMILES IDX 6 14 7 15 8 16 4 17
REMARK H PARENT
REMARK Flexibility Score: 60.00
ROOT
ATOM      1  C   UNL     1     -21.278  22.217  40.968  1.00  0.00    -0.070 C 
ATOM      2  C   UNL     1     -22.195  22.741  41.811  1.00  0.00    -0.027 C 
ATOM      3  C   UNL     1     -20.704  20.863  41.302  1.00  0.00     0.039 C 
ENDROOT
BRANCH   2   4
ATOM      4  C   UNL     1     -22.953  24.034  41.600  1.00  0.00     0.032 C 
BRANCH   4   5
ATOM      5  C   UNL     1     -22.335  25.267  42.292  1.00  0.00     0.034 C 
BRANCH   5   6
ATOM      6  C   UNL     1     -22.279  26.490  41.395  1.00  0.00    -0.077 C 
ATOM      7  C   UNL     1     -23.517  27.346  41.299  1.00  0.00     0.039 C 
ATOM      8  C   UNL     1     -21.171  26.901  40.733  1.00  0.00    -0.023 CG0
ATOM      9  G   UNL     1     -19.829  26.198  40.668  1.00  0.00     0.000 G0
ENDBRANCH   5   6
ENDBRANCH   4   5
ENDBRANCH   2   4
BRANCH   1  10
ATOM     10  C   UNL     1     -20.873  22.877  39.666  1.00  0.00     0.111 C 
BRANCH  10  11
ATOM     11  C   UNL     1     -19.677  23.775  39.846  1.00  0.00     0.163 C 
ATOM     12  O   UNL     1     -18.600  23.257  40.247  1.00  0.00    -0.294 OA
BRANCH  11  13
ATOM     13  C   UNL     1     -19.710  25.229  39.509  1.00  0.00    -0.002 C 
ATOM     14  C   UNL     1     -19.731  25.644  38.206  1.00  0.00    -0.069 C 
ATOM     15  C   UNL     1     -19.923  27.097  37.832  1.00  0.00     0.039 C 
ATOM     16  C   UNL     1     -19.565  24.662  37.067  1.00  0.00     0.039 C 
BRANCH  13  17
ATOM     17  C   UNL     1     -19.813  26.209  40.665  1.00  0.00     0.066 CG0
ATOM     18  G   UNL     1     -21.165  26.892  40.725  1.00  0.00     0.000 G0
ENDBRANCH  13  17
ENDBRANCH  11  13
ENDBRANCH  10  11
ENDBRANCH   1  10
TORSDOF 0
ENDMDL
MODEL 9
REMARK VINA RESULT:    -2.934      1.600      2.219
REMARK INTER + INTRA:          -3.675
REMARK INTER:                  -4.287
REMARK INTRA:                   0.612
REMARK UNBOUND:                 0.459
REMARK SMILES CC1=CCC(=C(C)C)C(=O)CC(C)=CCC1
REMARK SMILES IDX 12 1 14 2 13 3 15 4 16 5 2 6 1 7 3 8 11 10 9 11 10 12 5 13
REMARK SMILES IDX 6 14 7 15 8 16 4 17
REMARK H PARENT
REMARK Flexibility Score: 60.00
ROOT
ATOM      1  C   UNL     1      -8.310  28.277  44.504  1.00  0.00    -0.070 C 
ATOM      2  C   UNL     1      -8.713  29.545  44.739  1.00  0.00    -0.027 C 
ATOM      3  C   UNL     1      -8.654  27.663  43.170  1.00  0.00     0.039 C 
ENDROOT
BRANCH   2   4
ATOM      4  C   UNL     1      -8.383  30.363  45.969  1.00  0.00     0.032 C 
BRANCH   4   5
ATOM      5  C   UNL     1      -7.562  31.641  45.695  1.00  0.00     0.034 C 
BRANCH   5   6
ATOM      6  C   UNL     1      -6.125  31.542  46.174  1.00  0.00    -0.077 C 
ATOM      7  C   UNL     1      -5.772  32.217  47.475  1.00  0.00     0.039 C 
ATOM      8  C   UNL     1      -5.158  30.830  45.546  1.00  0.00    -0.023 CG0
ATOM      9  G   UNL     1      -5.275  30.091  44.227  1.00  0.00     0.000 G0
ENDBRANCH   5   6
ENDBRANCH   4   5
ENDBRANCH   2   4
BRANCH   1  10
ATOM     10  C   UNL     1      -7.457  27.483  45.471  1.00  0.00     0.111 C 
BRANCH  10  11
ATOM     11  C   UNL     1      -6.066  28.050  45.582  1.00  0.00     0.163 C 
ATOM     12  O   UNL     1      -5.502  28.026  46.709  1.00  0.00    -0.294 OA
BRANCH  11  13
ATOM     13  C   UNL     1      -5.319  28.576  44.400  1.00  0.00    -0.002 C 
ATOM     14  C   UNL     1      -4.785  27.722  43.475  1.00  0.00    -0.069 C 
ATOM     15  C   UNL     1      -4.162  28.223  42.190  1.00  0.00     0.039 C 
ATOM     16  C   UNL     1      -4.791  26.226  43.692  1.00  0.00     0.039 C 
BRANCH  13  17
ATOM     17  C   UNL     1      -5.265  30.084  44.226  1.00  0.00     0.066 CG0
ATOM     18  G   UNL     1      -5.149  30.814  45.550  1.00  0.00     0.000 G0
ENDBRANCH  13  17
ENDBRANCH  11  13
ENDBRANCH  10  11
ENDBRANCH   1  10
TORSDOF 0
ENDMDL
