MODEL 1
REMARK VINA RESULT:    -3.378      0.000      0.000
REMARK INTER + INTRA:          -4.701
REMARK INTER:                  -4.563
REMARK INTRA:                  -0.137
REMARK UNBOUND:                -0.137
REMARK SMILES [NH3+]CCCC[C@@H]([NH3+])C(=O)[O-]
REMARK SMILES IDX 4 1 3 2 2 3 1 4 5 8 6 9 7 10 8 14 9 15 10 16
REMARK H PARENT 1 5 1 6 1 7 7 11 7 12 7 13
REMARK Flexibility Score: inf
ROOT
ATOM      1  C   UNL     1      -7.737   5.920   6.875  1.00  0.00     0.012 C 
ENDROOT
BRANCH   1   2
ATOM      2  C   UNL     1      -9.124   5.532   7.413  1.00  0.00     0.061 C 
BRANCH   2   3
ATOM      3  C   UNL     1      -9.055   4.421   8.475  1.00  0.00     0.258 C 
BRANCH   3   4
ATOM      4  N   UNL     1      -9.042   3.084   7.880  1.00  0.00    -0.358 N 
ATOM      5  H   UNL     1      -9.994   2.870   7.505  1.00  0.00     0.344 HD
ATOM      6  H   UNL     1      -8.796   2.366   8.599  1.00  0.00     0.344 HD
ATOM      7  H   UNL     1      -8.362   3.043   7.088  1.00  0.00     0.344 HD
ENDBRANCH   3   4
ENDBRANCH   2   3
ENDBRANCH   1   2
BRANCH   1   8
ATOM      8  C   UNL     1      -7.303   7.334   7.306  1.00  0.00     0.072 C 
BRANCH   8   9
ATOM      9  C   UNL     1      -6.002   7.377   8.143  1.00  0.00     0.227 C 
BRANCH   9  10
ATOM     10  N   UNL     1      -5.822   6.113   8.869  1.00  0.00    -0.350 N 
ATOM     11  H   UNL     1      -6.664   5.919   9.459  1.00  0.00     0.345 HD
ATOM     12  H   UNL     1      -4.974   6.155   9.481  1.00  0.00     0.345 HD
ATOM     13  H   UNL     1      -5.712   5.327   8.189  1.00  0.00     0.345 HD
ENDBRANCH   9  10
BRANCH   9  14
ATOM     14  C   UNL     1      -4.801   7.651   7.276  1.00  0.00     0.099 C 
ATOM     15  O   UNL     1      -4.896   7.609   6.021  1.00  0.00    -0.544 OA
ATOM     16  O   UNL     1      -3.580   7.964   7.861  1.00  0.00    -0.544 OA
ENDBRANCH   9  14
ENDBRANCH   8   9
ENDBRANCH   1   8
TORSDOF 7
ENDMDL
MODEL 2
REMARK VINA RESULT:    -3.346      3.328      5.065
REMARK INTER + INTRA:          -4.656
REMARK INTER:                  -4.579
REMARK INTRA:                  -0.077
REMARK UNBOUND:                -0.137
REMARK SMILES [NH3+]CCCC[C@@H]([NH3+])C(=O)[O-]
REMARK SMILES IDX 4 1 3 2 2 3 1 4 5 8 6 9 7 10 8 14 9 15 10 16
REMARK H PARENT 1 5 1 6 1 7 7 11 7 12 7 13
REMARK Flexibility Score: inf
ROOT
ATOM      1  C   UNL     1      -6.330   7.159   7.623  1.00  0.00     0.012 C 
ENDROOT
BRANCH   1   2
ATOM      2  C   UNL     1      -5.073   7.372   8.482  1.00  0.00     0.061 C 
BRANCH   2   3
ATOM      3  C   UNL     1      -4.033   8.272   7.791  1.00  0.00     0.258 C 
BRANCH   3   4
ATOM      4  N   UNL     1      -2.733   7.612   7.652  1.00  0.00    -0.358 N 
ATOM      5  H   UNL     1      -2.700   7.120   6.730  1.00  0.00     0.344 HD
ATOM      6  H   UNL     1      -2.597   6.908   8.413  1.00  0.00     0.344 HD
ATOM      7  H   UNL     1      -1.962   8.316   7.674  1.00  0.00     0.344 HD
ENDBRANCH   3   4
ENDBRANCH   2   3
ENDBRANCH   1   2
BRANCH   1   8
ATOM      8  C   UNL     1      -7.422   6.352   8.353  1.00  0.00     0.072 C 
BRANCH   8   9
ATOM      9  C   UNL     1      -8.614   5.933   7.459  1.00  0.00     0.227 C 
BRANCH   9  10
ATOM     10  N   UNL     1      -8.369   6.330   6.066  1.00  0.00    -0.350 N 
ATOM     11  H   UNL     1      -8.796   5.630   5.417  1.00  0.00     0.345 HD
ATOM     12  H   UNL     1      -7.342   6.396   5.875  1.00  0.00     0.345 HD
ATOM     13  H   UNL     1      -8.810   7.260   5.880  1.00  0.00     0.345 HD
ENDBRANCH   9  10
BRANCH   9  14
ATOM     14  C   UNL     1      -8.863   4.449   7.537  1.00  0.00     0.099 C 
ATOM     15  O   UNL     1      -9.125   3.789   6.497  1.00  0.00    -0.544 OA
ATOM     16  O   UNL     1      -8.792   3.799   8.762  1.00  0.00    -0.544 OA
ENDBRANCH   9  14
ENDBRANCH   8   9
ENDBRANCH   1   8
TORSDOF 7
ENDMDL
MODEL 3
REMARK VINA RESULT:    -2.981      3.121      4.983
REMARK INTER + INTRA:          -4.164
REMARK INTER:                  -4.041
REMARK INTRA:                  -0.124
REMARK UNBOUND:                -0.137
REMARK SMILES [NH3+]CCCC[C@@H]([NH3+])C(=O)[O-]
REMARK SMILES IDX 4 1 3 2 2 3 1 4 5 8 6 9 7 10 8 14 9 15 10 16
REMARK H PARENT 1 5 1 6 1 7 7 11 7 12 7 13
REMARK Flexibility Score: inf
ROOT
ATOM      1  C   UNL     1      -5.734   7.153   7.322  1.00  0.00     0.012 C 
ENDROOT
BRANCH   1   2
ATOM      2  C   UNL     1      -4.655   8.114   7.851  1.00  0.00     0.061 C 
BRANCH   2   3
ATOM      3  C   UNL     1      -3.549   7.384   8.633  1.00  0.00     0.258 C 
BRANCH   3   4
ATOM      4  N   UNL     1      -2.211   7.707   8.134  1.00  0.00    -0.358 N 
ATOM      5  H   UNL     1      -1.499   7.258   8.755  1.00  0.00     0.344 HD
ATOM      6  H   UNL     1      -2.057   8.742   8.143  1.00  0.00     0.344 HD
ATOM      7  H   UNL     1      -2.081   7.335   7.167  1.00  0.00     0.344 HD
ENDBRANCH   3   4
ENDBRANCH   2   3
ENDBRANCH   1   2
BRANCH   1   8
ATOM      8  C   UNL     1      -6.554   6.498   8.450  1.00  0.00     0.072 C 
BRANCH   8   9
ATOM      9  C   UNL     1      -8.075   6.420   8.173  1.00  0.00     0.227 C 
BRANCH   9  10
ATOM     10  N   UNL     1      -8.482   7.498   7.263  1.00  0.00    -0.350 N 
ATOM     11  H   UNL     1      -9.514   7.654   7.336  1.00  0.00     0.345 HD
ATOM     12  H   UNL     1      -8.240   7.258   6.273  1.00  0.00     0.345 HD
ATOM     13  H   UNL     1      -7.997   8.386   7.527  1.00  0.00     0.345 HD
ENDBRANCH   9  10
BRANCH   9  14
ATOM     14  C   UNL     1      -8.459   5.082   7.594  1.00  0.00     0.099 C 
ATOM     15  O   UNL     1      -8.656   4.093   8.347  1.00  0.00    -0.544 OA
ATOM     16  O   UNL     1      -8.609   4.940   6.220  1.00  0.00    -0.544 OA
ENDBRANCH   9  14
ENDBRANCH   8   9
ENDBRANCH   1   8
TORSDOF 7
ENDMDL
MODEL 4
REMARK VINA RESULT:    -2.880     13.494     15.567
REMARK INTER + INTRA:          -4.027
REMARK INTER:                  -3.922
REMARK INTRA:                  -0.104
REMARK UNBOUND:                -0.137
REMARK SMILES [NH3+]CCCC[C@@H]([NH3+])C(=O)[O-]
REMARK SMILES IDX 4 1 3 2 2 3 1 4 5 8 6 9 7 10 8 14 9 15 10 16
REMARK H PARENT 1 5 1 6 1 7 7 11 7 12 7 13
REMARK Flexibility Score: inf
ROOT
ATOM      1  C   UNL     1       9.122   7.877   8.005  1.00  0.00     0.012 C 
ENDROOT
BRANCH   1   2
ATOM      2  C   UNL     1      10.185   7.801   9.114  1.00  0.00     0.061 C 
BRANCH   2   3
ATOM      3  C   UNL     1      11.125   6.595   8.949  1.00  0.00     0.258 C 
BRANCH   3   4
ATOM      4  N   UNL     1      10.605   5.613   7.995  1.00  0.00    -0.358 N 
ATOM      5  H   UNL     1      11.357   5.377   7.308  1.00  0.00     0.344 HD
ATOM      6  H   UNL     1       9.788   6.007   7.474  1.00  0.00     0.344 HD
ATOM      7  H   UNL     1      10.326   4.736   8.488  1.00  0.00     0.344 HD
ENDBRANCH   3   4
ENDBRANCH   2   3
ENDBRANCH   1   2
BRANCH   1   8
ATOM      8  C   UNL     1       8.511   9.284   7.857  1.00  0.00     0.072 C 
BRANCH   8   9
ATOM      9  C   UNL     1       7.352   9.374   6.836  1.00  0.00     0.227 C 
BRANCH   9  10
ATOM     10  N   UNL     1       7.368   8.207   5.944  1.00  0.00    -0.350 N 
ATOM     11  H   UNL     1       6.904   8.447   5.038  1.00  0.00     0.345 HD
ATOM     12  H   UNL     1       6.869   7.399   6.383  1.00  0.00     0.345 HD
ATOM     13  H   UNL     1       8.355   7.929   5.742  1.00  0.00     0.345 HD
ENDBRANCH   9  10
BRANCH   9  14
ATOM     14  C   UNL     1       6.017   9.476   7.529  1.00  0.00     0.099 C 
ATOM     15  O   UNL     1       5.862   9.013   8.689  1.00  0.00    -0.544 OA
ATOM     16  O   UNL     1       4.952  10.099   6.891  1.00  0.00    -0.544 OA
ENDBRANCH   9  14
ENDBRANCH   8   9
ENDBRANCH   1   8
TORSDOF 7
ENDMDL
MODEL 5
REMARK VINA RESULT:    -2.718      3.722      6.416
REMARK INTER + INTRA:          -3.808
REMARK INTER:                  -3.752
REMARK INTRA:                  -0.056
REMARK UNBOUND:                -0.137
REMARK SMILES [NH3+]CCCC[C@@H]([NH3+])C(=O)[O-]
REMARK SMILES IDX 4 1 3 2 2 3 1 4 5 8 6 9 7 10 8 14 9 15 10 16
REMARK H PARENT 1 5 1 6 1 7 7 11 7 12 7 13
REMARK Flexibility Score: inf
ROOT
ATOM      1  C   UNL     1      -2.278   8.637   8.048  1.00  0.00     0.012 C 
ENDROOT
BRANCH   1   2
ATOM      2  C   UNL     1      -1.302   9.139   9.125  1.00  0.00     0.061 C 
BRANCH   2   3
ATOM      3  C   UNL     1       0.160   8.778   8.809  1.00  0.00     0.258 C 
BRANCH   3   4
ATOM      4  N   UNL     1       1.055   9.930   8.931  1.00  0.00    -0.358 N 
ATOM      5  H   UNL     1       1.837   9.685   9.581  1.00  0.00     0.344 HD
ATOM      6  H   UNL     1       0.541  10.753   9.321  1.00  0.00     0.344 HD
ATOM      7  H   UNL     1       1.468  10.173   8.003  1.00  0.00     0.344 HD
ENDBRANCH   3   4
ENDBRANCH   2   3
ENDBRANCH   1   2
BRANCH   1   8
ATOM      8  C   UNL     1      -3.185   7.496   8.549  1.00  0.00     0.072 C 
BRANCH   8   9
ATOM      9  C   UNL     1      -4.692   7.847   8.586  1.00  0.00     0.227 C 
BRANCH   9  10
ATOM     10  N   UNL     1      -4.874   9.293   8.764  1.00  0.00    -0.350 N 
ATOM     11  H   UNL     1      -5.803   9.584   8.380  1.00  0.00     0.345 HD
ATOM     12  H   UNL     1      -4.117   9.824   8.274  1.00  0.00     0.345 HD
ATOM     13  H   UNL     1      -4.854   9.530   9.782  1.00  0.00     0.345 HD
ENDBRANCH   9  10
BRANCH   9  14
ATOM     14  C   UNL     1      -5.393   7.388   7.333  1.00  0.00     0.099 C 
ATOM     15  O   UNL     1      -6.517   6.826   7.399  1.00  0.00    -0.544 OA
ATOM     16  O   UNL     1      -4.801   7.596   6.093  1.00  0.00    -0.544 OA
ENDBRANCH   9  14
ENDBRANCH   8   9
ENDBRANCH   1   8
TORSDOF 7
ENDMDL
MODEL 6
REMARK VINA RESULT:    -2.608     19.642     20.088
REMARK INTER + INTRA:          -3.660
REMARK INTER:                  -3.546
REMARK INTRA:                  -0.114
REMARK UNBOUND:                -0.137
REMARK SMILES [NH3+]CCCC[C@@H]([NH3+])C(=O)[O-]
REMARK SMILES IDX 4 1 3 2 2 3 1 4 5 8 6 9 7 10 8 14 9 15 10 16
REMARK H PARENT 1 5 1 6 1 7 7 11 7 12 7 13
REMARK Flexibility Score: inf
ROOT
ATOM      1  C   UNL     1       5.748  -8.008   9.114  1.00  0.00     0.012 C 
ENDROOT
BRANCH   1   2
ATOM      2  C   UNL     1       4.721  -6.881   8.910  1.00  0.00     0.061 C 
BRANCH   2   3
ATOM      3  C   UNL     1       3.707  -7.202   7.799  1.00  0.00     0.258 C 
BRANCH   3   4
ATOM      4  N   UNL     1       4.302  -7.984   6.713  1.00  0.00    -0.358 N 
ATOM      5  H   UNL     1       3.579  -8.633   6.327  1.00  0.00     0.344 HD
ATOM      6  H   UNL     1       5.105  -8.552   7.069  1.00  0.00     0.344 HD
ATOM      7  H   UNL     1       4.623  -7.356   5.943  1.00  0.00     0.344 HD
ENDBRANCH   3   4
ENDBRANCH   2   3
ENDBRANCH   1   2
BRANCH   1   8
ATOM      8  C   UNL     1       7.203  -7.501   9.095  1.00  0.00     0.072 C 
BRANCH   8   9
ATOM      9  C   UNL     1       8.271  -8.621   9.124  1.00  0.00     0.227 C 
BRANCH   9  10
ATOM     10  N   UNL     1       7.628  -9.940   9.057  1.00  0.00    -0.350 N 
ATOM     11  H   UNL     1       8.301 -10.679   9.364  1.00  0.00     0.345 HD
ATOM     12  H   UNL     1       7.310 -10.147   8.082  1.00  0.00     0.345 HD
ATOM     13  H   UNL     1       6.802  -9.964   9.697  1.00  0.00     0.345 HD
ENDBRANCH   9  10
BRANCH   9  14
ATOM     14  C   UNL     1       9.256  -8.468   7.994  1.00  0.00     0.099 C 
ATOM     15  O   UNL     1      10.153  -9.332   7.807  1.00  0.00    -0.544 OA
ATOM     16  O   UNL     1       9.169  -7.374   7.143  1.00  0.00    -0.544 OA
ENDBRANCH   9  14
ENDBRANCH   8   9
ENDBRANCH   1   8
TORSDOF 7
ENDMDL
MODEL 7
REMARK VINA RESULT:    -2.593     13.561     15.202
REMARK INTER + INTRA:          -3.639
REMARK INTER:                  -3.545
REMARK INTRA:                  -0.094
REMARK UNBOUND:                -0.137
REMARK SMILES [NH3+]CCCC[C@@H]([NH3+])C(=O)[O-]
REMARK SMILES IDX 4 1 3 2 2 3 1 4 5 8 6 9 7 10 8 14 9 15 10 16
REMARK H PARENT 1 5 1 6 1 7 7 11 7 12 7 13
REMARK Flexibility Score: inf
ROOT
ATOM      1  C   UNL     1       6.624   9.000   7.028  1.00  0.00     0.012 C 
ENDROOT
BRANCH   1   2
ATOM      2  C   UNL     1       5.734  10.072   7.678  1.00  0.00     0.061 C 
BRANCH   2   3
ATOM      3  C   UNL     1       5.274   9.677   9.092  1.00  0.00     0.258 C 
BRANCH   3   4
ATOM      4  N   UNL     1       3.872   9.255   9.122  1.00  0.00    -0.358 N 
ATOM      5  H   UNL     1       3.558   9.193  10.118  1.00  0.00     0.344 HD
ATOM      6  H   UNL     1       3.763   8.315   8.678  1.00  0.00     0.344 HD
ATOM      7  H   UNL     1       3.269   9.954   8.633  1.00  0.00     0.344 HD
ENDBRANCH   3   4
ENDBRANCH   2   3
ENDBRANCH   1   2
BRANCH   1   8
ATOM      8  C   UNL     1       8.096   9.441   6.904  1.00  0.00     0.072 C 
BRANCH   8   9
ATOM      9  C   UNL     1       9.023   8.893   8.016  1.00  0.00     0.227 C 
BRANCH   9  10
ATOM     10  N   UNL     1       9.252   7.455   7.825  1.00  0.00    -0.350 N 
ATOM     11  H   UNL     1       9.807   7.075   8.626  1.00  0.00     0.345 HD
ATOM     12  H   UNL     1       9.769   7.277   6.933  1.00  0.00     0.345 HD
ATOM     13  H   UNL     1       8.336   6.952   7.795  1.00  0.00     0.345 HD
ENDBRANCH   9  10
BRANCH   9  14
ATOM     14  C   UNL     1      10.340   9.627   8.042  1.00  0.00     0.099 C 
ATOM     15  O   UNL     1      10.962   9.783   9.125  1.00  0.00    -0.544 OA
ATOM     16  O   UNL     1      10.879  10.124   6.862  1.00  0.00    -0.544 OA
ENDBRANCH   9  14
ENDBRANCH   8   9
ENDBRANCH   1   8
TORSDOF 7
ENDMDL
MODEL 8
REMARK VINA RESULT:    -2.478     17.933     18.648
REMARK INTER + INTRA:          -3.485
REMARK INTER:                  -3.401
REMARK INTRA:                  -0.084
REMARK UNBOUND:                -0.137
REMARK SMILES [NH3+]CCCC[C@@H]([NH3+])C(=O)[O-]
REMARK SMILES IDX 4 1 3 2 2 3 1 4 5 8 6 9 7 10 8 14 9 15 10 16
REMARK H PARENT 1 5 1 6 1 7 7 11 7 12 7 13
REMARK Flexibility Score: inf
ROOT
ATOM      1  C   UNL     1      -8.096   5.467 -11.125  1.00  0.00     0.012 C 
ENDROOT
BRANCH   1   2
ATOM      2  C   UNL     1      -8.882   6.731 -10.738  1.00  0.00     0.061 C 
BRANCH   2   3
ATOM      3  C   UNL     1      -8.144   8.024 -11.124  1.00  0.00     0.258 C 
BRANCH   3   4
ATOM      4  N   UNL     1      -7.293   8.523 -10.041  1.00  0.00    -0.358 N 
ATOM      5  H   UNL     1      -6.360   8.781 -10.435  1.00  0.00     0.344 HD
ATOM      6  H   UNL     1      -7.156   7.784  -9.314  1.00  0.00     0.344 HD
ATOM      7  H   UNL     1      -7.713   9.376  -9.610  1.00  0.00     0.344 HD
ENDBRANCH   3   4
ENDBRANCH   2   3
ENDBRANCH   1   2
BRANCH   1   8
ATOM      8  C   UNL     1      -8.499   4.234 -10.292  1.00  0.00     0.072 C 
BRANCH   8   9
ATOM      9  C   UNL     1      -7.331   3.275  -9.961  1.00  0.00     0.227 C 
BRANCH   9  10
ATOM     10  N   UNL     1      -7.053   3.291  -8.519  1.00  0.00    -0.350 N 
ATOM     11  H   UNL     1      -7.557   2.502  -8.052  1.00  0.00     0.345 HD
ATOM     12  H   UNL     1      -7.358   4.196  -8.093  1.00  0.00     0.345 HD
ATOM     13  H   UNL     1      -6.028   3.165  -8.355  1.00  0.00     0.345 HD
ENDBRANCH   9  10
BRANCH   9  14
ATOM     14  C   UNL     1      -7.629   1.870 -10.415  1.00  0.00     0.099 C 
ATOM     15  O   UNL     1      -6.766   0.961 -10.293  1.00  0.00    -0.544 OA
ATOM     16  O   UNL     1      -8.870   1.567 -10.962  1.00  0.00    -0.544 OA
ENDBRANCH   9  14
ENDBRANCH   8   9
ENDBRANCH   1   8
TORSDOF 7
ENDMDL
MODEL 9
REMARK VINA RESULT:    -2.345     18.482     18.567
REMARK INTER + INTRA:          -3.305
REMARK INTER:                  -3.235
REMARK INTRA:                  -0.070
REMARK UNBOUND:                -0.137
REMARK SMILES [NH3+]CCCC[C@@H]([NH3+])C(=O)[O-]
REMARK SMILES IDX 4 1 3 2 2 3 1 4 5 8 6 9 7 10 8 14 9 15 10 16
REMARK H PARENT 1 5 1 6 1 7 7 11 7 12 7 13
REMARK Flexibility Score: inf
ROOT
ATOM      1  C   UNL     1      -8.370   4.404 -10.784  1.00  0.00     0.012 C 
ENDROOT
BRANCH   1   2
ATOM      2  C   UNL     1      -7.628   3.058 -10.743  1.00  0.00     0.061 C 
BRANCH   2   3
ATOM      3  C   UNL     1      -8.589   1.858 -10.680  1.00  0.00     0.258 C 
BRANCH   3   4
ATOM      4  N   UNL     1      -7.902   0.615 -10.321  1.00  0.00    -0.358 N 
ATOM      5  H   UNL     1      -8.370  -0.183 -10.807  1.00  0.00     0.344 HD
ATOM      6  H   UNL     1      -7.953   0.454  -9.289  1.00  0.00     0.344 HD
ATOM      7  H   UNL     1      -6.905   0.646 -10.630  1.00  0.00     0.344 HD
ENDBRANCH   3   4
ENDBRANCH   2   3
ENDBRANCH   1   2
BRANCH   1   8
ATOM      8  C   UNL     1      -7.442   5.587 -11.125  1.00  0.00     0.072 C 
BRANCH   8   9
ATOM      9  C   UNL     1      -8.140   6.968 -11.125  1.00  0.00     0.227 C 
BRANCH   9  10
ATOM     10  N   UNL     1      -9.125   7.040 -10.037  1.00  0.00    -0.350 N 
ATOM     11  H   UNL     1      -8.844   7.781  -9.353  1.00  0.00     0.345 HD
ATOM     12  H   UNL     1      -9.196   6.122  -9.541  1.00  0.00     0.345 HD
ATOM     13  H   UNL     1     -10.062   7.292 -10.425  1.00  0.00     0.345 HD
ENDBRANCH   9  10
BRANCH   9  14
ATOM     14  C   UNL     1      -7.141   8.088 -10.992  1.00  0.00     0.099 C 
ATOM     15  O   UNL     1      -7.528   9.282 -10.895  1.00  0.00    -0.544 OA
ATOM     16  O   UNL     1      -5.781   7.803 -10.963  1.00  0.00    -0.544 OA
ENDBRANCH   9  14
ENDBRANCH   8   9
ENDBRANCH   1   8
TORSDOF 7
ENDMDL
