MODEL 1
REMARK VINA RESULT:    -7.882      0.000      0.000
REMARK INTER + INTRA:          -8.156
REMARK INTER:                  -8.573
REMARK INTRA:                   0.417
REMARK UNBOUND:                 0.417
REMARK SMILES C[C@H]1[C@H](C)CC[C@]2(C(=O)[O-])CC[C@@]3(C)C(=CC[C@H]4[C@@]5(C)CC[C@H](O)C(C)(C)[C@@H]5CC[C@]43C)[C@@H]12
REMARK SMILES IDX 7 1 6 2 11 3 33 4 5 5 12 6 15 7 2 8 3 9 13 10 16 11 1 12
REMARK SMILES IDX 4 13 14 14 31 15 17 16 18 17 30 18 32 19 19 20 29 21 28 22
REMARK SMILES IDX 21 23 20 24 25 25 22 26 23 27 26 28 27 29 8 30 9 31 10 32
REMARK SMILES IDX 24 33
REMARK H PARENT 24 34
REMARK Flexibility Score: inf
ROOT
ATOM      1  C   UNL     1      11.934  54.373  34.157  1.00  0.00     0.017 C 
ATOM      2  C   UNL     1      11.208  54.514  35.532  1.00  0.00     0.014 C 
ATOM      3  C   UNL     1      10.875  53.968  33.074  1.00  0.00     0.014 C 
ATOM      4  C   UNL     1      13.032  53.267  34.317  1.00  0.00     0.030 C 
ATOM      5  C   UNL     1      12.166  54.848  36.687  1.00  0.00     0.004 C 
ATOM      6  C   UNL     1      11.148  52.636  32.346  1.00  0.00     0.013 C 
ATOM      7  C   UNL     1      13.595  52.787  32.962  1.00  0.00    -0.063 C 
ATOM      8  C   UNL     1      14.042  53.552  35.490  1.00  0.00    -0.003 C 
ATOM      9  C   UNL     1      13.298  53.807  36.838  1.00  0.00    -0.011 C 
ATOM     10  C   UNL     1      12.621  52.447  31.825  1.00  0.00    -0.006 C 
ATOM     11  C   UNL     1      14.870  52.371  32.852  1.00  0.00    -0.027 C 
ATOM     12  C   UNL     1      15.062  54.680  35.218  1.00  0.00     0.008 C 
ATOM     13  C   UNL     1      12.791  52.506  37.488  1.00  0.00     0.008 C 
ATOM     14  C   UNL     1      12.842  53.476  30.674  1.00  0.00     0.017 C 
ATOM     15  C   UNL     1      12.912  50.938  31.311  1.00  0.00    -0.020 C 
ATOM     16  C   UNL     1      15.423  51.623  31.674  1.00  0.00     0.032 C 
ATOM     17  C   UNL     1      14.410  50.834  30.761  1.00  0.00     0.006 C 
ATOM     18  C   UNL     1      12.734  49.902  32.475  1.00  0.00     0.008 C 
ATOM     19  C   UNL     1      11.877  50.581  30.192  1.00  0.00     0.012 C 
ATOM     20  C   UNL     1      14.921  49.351  30.411  1.00  0.00    -0.025 C 
ATOM     21  C   UNL     1      13.239  48.478  32.167  1.00  0.00     0.005 C 
ATOM     22  C   UNL     1      14.720  48.458  31.694  1.00  0.00     0.003 C 
ATOM     23  C   UNL     1      16.440  49.350  29.992  1.00  0.00     0.010 C 
ATOM     24  C   UNL     1      14.151  48.807  29.156  1.00  0.00     0.012 C 
ATOM     25  C   UNL     1      15.386  47.020  31.651  1.00  0.00    -0.006 C 
ATOM     26  C   UNL     1      17.060  47.943  29.916  1.00  0.00     0.033 C 
ATOM     27  C   UNL     1      16.884  47.166  31.225  1.00  0.00     0.120 C 
ATOM     28  C   UNL     1      15.378  46.401  33.078  1.00  0.00     0.014 C 
ATOM     29  C   UNL     1      14.641  46.019  30.727  1.00  0.00     0.014 C 
ENDROOT
BRANCH   1  30
ATOM     30  C   UNL     1      12.525  55.723  33.743  1.00  0.00     0.048 C 
ATOM     31  O   UNL     1      12.196  56.779  34.353  1.00  0.00    -0.550 OA
ATOM     32  O   UNL     1      13.334  55.834  32.619  1.00  0.00    -0.550 OA
ENDBRANCH   1  30
BRANCH  27  33
ATOM     33  O   UNL     1      17.482  45.900  31.072  1.00  0.00    -0.393 OA
ATOM     34  H   UNL     1      17.516  45.697  30.100  1.00  0.00     0.210 HD
ENDBRANCH  27  33
TORSDOF 2
ENDMDL
MODEL 2
REMARK VINA RESULT:    -6.969      1.401      1.787
REMARK INTER + INTRA:          -7.163
REMARK INTER:                  -7.581
REMARK INTRA:                   0.418
REMARK UNBOUND:                 0.417
REMARK SMILES C[C@H]1[C@H](C)CC[C@]2(C(=O)[O-])CC[C@@]3(C)C(=CC[C@H]4[C@@]5(C)CC[C@H](O)C(C)(C)[C@@H]5CC[C@]43C)[C@@H]12
REMARK SMILES IDX 7 1 6 2 11 3 33 4 5 5 12 6 15 7 2 8 3 9 13 10 16 11 1 12
REMARK SMILES IDX 4 13 14 14 31 15 17 16 18 17 30 18 32 19 19 20 29 21 28 22
REMARK SMILES IDX 21 23 20 24 25 25 22 26 23 27 26 28 27 29 8 30 9 31 10 32
REMARK SMILES IDX 24 33
REMARK H PARENT 24 34
REMARK Flexibility Score: inf
ROOT
ATOM      1  C   UNL     1      12.968  55.675  33.399  1.00  0.00     0.017 C 
ATOM      2  C   UNL     1      11.777  56.271  34.214  1.00  0.00     0.014 C 
ATOM      3  C   UNL     1      12.580  55.673  31.879  1.00  0.00     0.014 C 
ATOM      4  C   UNL     1      13.214  54.219  33.922  1.00  0.00     0.030 C 
ATOM      5  C   UNL     1      12.023  56.263  35.731  1.00  0.00     0.004 C 
ATOM      6  C   UNL     1      12.586  54.290  31.196  1.00  0.00     0.013 C 
ATOM      7  C   UNL     1      14.129  53.398  32.989  1.00  0.00    -0.063 C 
ATOM      8  C   UNL     1      13.467  54.147  35.474  1.00  0.00    -0.003 C 
ATOM      9  C   UNL     1      12.327  54.849  36.275  1.00  0.00    -0.011 C 
ATOM     10  C   UNL     1      13.860  53.409  31.477  1.00  0.00    -0.006 C 
ATOM     11  C   UNL     1      14.944  52.447  33.481  1.00  0.00    -0.027 C 
ATOM     12  C   UNL     1      14.848  54.665  35.939  1.00  0.00     0.008 C 
ATOM     13  C   UNL     1      11.053  53.988  36.365  1.00  0.00     0.008 C 
ATOM     14  C   UNL     1      15.067  54.102  30.776  1.00  0.00     0.017 C 
ATOM     15  C   UNL     1      13.690  51.884  30.957  1.00  0.00    -0.020 C 
ATOM     16  C   UNL     1      15.643  51.410  32.651  1.00  0.00     0.032 C 
ATOM     17  C   UNL     1      15.034  51.065  31.240  1.00  0.00     0.006 C 
ATOM     18  C   UNL     1      12.504  51.167  31.691  1.00  0.00     0.008 C 
ATOM     19  C   UNL     1      13.359  51.910  29.428  1.00  0.00     0.012 C 
ATOM     20  C   UNL     1      14.952  49.482  30.974  1.00  0.00    -0.025 C 
ATOM     21  C   UNL     1      12.422  49.643  31.467  1.00  0.00     0.005 C 
ATOM     22  C   UNL     1      13.749  48.915  31.819  1.00  0.00     0.003 C 
ATOM     23  C   UNL     1      16.288  48.758  31.394  1.00  0.00     0.010 C 
ATOM     24  C   UNL     1      14.807  49.208  29.435  1.00  0.00     0.012 C 
ATOM     25  C   UNL     1      13.640  47.335  31.900  1.00  0.00    -0.006 C 
ATOM     26  C   UNL     1      16.176  47.223  31.428  1.00  0.00     0.033 C 
ATOM     27  C   UNL     1      15.026  46.750  32.326  1.00  0.00     0.120 C 
ATOM     28  C   UNL     1      12.621  46.940  33.007  1.00  0.00     0.014 C 
ATOM     29  C   UNL     1      13.142  46.680  30.583  1.00  0.00     0.014 C 
ENDROOT
BRANCH   1  30
ATOM     30  C   UNL     1      14.202  56.567  33.559  1.00  0.00     0.048 C 
ATOM     31  O   UNL     1      14.090  57.737  34.021  1.00  0.00    -0.550 OA
ATOM     32  O   UNL     1      15.445  56.159  33.089  1.00  0.00    -0.550 OA
ENDBRANCH   1  30
BRANCH  27  33
ATOM     33  O   UNL     1      15.000  45.342  32.304  1.00  0.00    -0.393 OA
ATOM     34  H   UNL     1      15.116  45.051  31.362  1.00  0.00     0.210 HD
ENDBRANCH  27  33
TORSDOF 2
ENDMDL
MODEL 3
REMARK VINA RESULT:    -6.482      1.674      7.671
REMARK INTER + INTRA:          -6.634
REMARK INTER:                  -7.048
REMARK INTRA:                   0.415
REMARK UNBOUND:                 0.417
REMARK SMILES C[C@H]1[C@H](C)CC[C@]2(C(=O)[O-])CC[C@@]3(C)C(=CC[C@H]4[C@@]5(C)CC[C@H](O)C(C)(C)[C@@H]5CC[C@]43C)[C@@H]12
REMARK SMILES IDX 7 1 6 2 11 3 33 4 5 5 12 6 15 7 2 8 3 9 13 10 16 11 1 12
REMARK SMILES IDX 4 13 14 14 31 15 17 16 18 17 30 18 32 19 19 20 29 21 28 22
REMARK SMILES IDX 21 23 20 24 25 25 22 26 23 27 26 28 27 29 8 30 9 31 10 32
REMARK SMILES IDX 24 33
REMARK H PARENT 24 34
REMARK Flexibility Score: inf
ROOT
ATOM      1  C   UNL     1      15.187  47.584  30.337  1.00  0.00     0.017 C 
ATOM      2  C   UNL     1      16.101  46.435  30.867  1.00  0.00     0.014 C 
ATOM      3  C   UNL     1      16.095  48.681  29.682  1.00  0.00     0.014 C 
ATOM      4  C   UNL     1      14.398  48.159  31.562  1.00  0.00     0.030 C 
ATOM      5  C   UNL     1      15.318  45.328  31.591  1.00  0.00     0.004 C 
ATOM      6  C   UNL     1      15.987  50.089  30.303  1.00  0.00     0.013 C 
ATOM      7  C   UNL     1      13.716  49.509  31.250  1.00  0.00    -0.063 C 
ATOM      8  C   UNL     1      13.579  47.069  32.347  1.00  0.00    -0.003 C 
ATOM      9  C   UNL     1      14.480  45.868  32.771  1.00  0.00    -0.011 C 
ATOM     10  C   UNL     1      14.519  50.606  30.538  1.00  0.00    -0.006 C 
ATOM     11  C   UNL     1      12.561  49.854  31.848  1.00  0.00    -0.027 C 
ATOM     12  C   UNL     1      12.308  46.558  31.629  1.00  0.00     0.008 C 
ATOM     13  C   UNL     1      15.363  46.195  33.992  1.00  0.00     0.008 C 
ATOM     14  C   UNL     1      13.880  50.841  29.135  1.00  0.00     0.017 C 
ATOM     15  C   UNL     1      14.469  51.961  31.426  1.00  0.00    -0.020 C 
ATOM     16  C   UNL     1      11.978  51.236  31.840  1.00  0.00     0.032 C 
ATOM     17  C   UNL     1      12.954  52.446  31.586  1.00  0.00     0.006 C 
ATOM     18  C   UNL     1      15.071  51.720  32.854  1.00  0.00     0.008 C 
ATOM     19  C   UNL     1      15.338  53.055  30.720  1.00  0.00     0.012 C 
ATOM     20  C   UNL     1      12.718  53.657  32.616  1.00  0.00    -0.025 C 
ATOM     21  C   UNL     1      14.835  52.861  33.864  1.00  0.00     0.005 C 
ATOM     22  C   UNL     1      13.332  53.234  34.004  1.00  0.00     0.003 C 
ATOM     23  C   UNL     1      11.184  53.976  32.787  1.00  0.00     0.010 C 
ATOM     24  C   UNL     1      13.347  54.975  32.040  1.00  0.00     0.012 C 
ATOM     25  C   UNL     1      12.992  54.178  35.232  1.00  0.00    -0.006 C 
ATOM     26  C   UNL     1      10.875  54.926  33.958  1.00  0.00     0.033 C 
ATOM     27  C   UNL     1      11.446  54.409  35.283  1.00  0.00     0.120 C 
ATOM     28  C   UNL     1      13.389  53.469  36.558  1.00  0.00     0.014 C 
ATOM     29  C   UNL     1      13.755  55.530  35.204  1.00  0.00     0.014 C 
ENDROOT
BRANCH   1  30
ATOM     30  C   UNL     1      14.257  47.044  29.248  1.00  0.00     0.048 C 
ATOM     31  O   UNL     1      14.466  45.910  28.733  1.00  0.00    -0.550 OA
ATOM     32  O   UNL     1      13.243  47.833  28.718  1.00  0.00    -0.550 OA
ENDBRANCH   1  30
BRANCH  27  33
ATOM     33  O   UNL     1      11.115  55.330  36.296  1.00  0.00    -0.393 OA
ATOM     34  H   UNL     1      10.125  55.375  36.352  1.00  0.00     0.210 HD
ENDBRANCH  27  33
TORSDOF 2
ENDMDL
MODEL 4
REMARK VINA RESULT:    -6.332      1.993      2.731
REMARK INTER + INTRA:          -6.471
REMARK INTER:                  -7.006
REMARK INTRA:                   0.536
REMARK UNBOUND:                 0.417
REMARK SMILES C[C@H]1[C@H](C)CC[C@]2(C(=O)[O-])CC[C@@]3(C)C(=CC[C@H]4[C@@]5(C)CC[C@H](O)C(C)(C)[C@@H]5CC[C@]43C)[C@@H]12
REMARK SMILES IDX 7 1 6 2 11 3 33 4 5 5 12 6 15 7 2 8 3 9 13 10 16 11 1 12
REMARK SMILES IDX 4 13 14 14 31 15 17 16 18 17 30 18 32 19 19 20 29 21 28 22
REMARK SMILES IDX 21 23 20 24 25 25 22 26 23 27 26 28 27 29 8 30 9 31 10 32
REMARK SMILES IDX 24 33
REMARK H PARENT 24 34
REMARK Flexibility Score: inf
ROOT
ATOM      1  C   UNL     1      12.100  54.475  34.621  1.00  0.00     0.017 C 
ATOM      2  C   UNL     1      11.910  53.968  36.085  1.00  0.00     0.014 C 
ATOM      3  C   UNL     1      10.876  53.999  33.766  1.00  0.00     0.014 C 
ATOM      4  C   UNL     1      13.439  53.865  34.082  1.00  0.00     0.030 C 
ATOM      5  C   UNL     1      13.090  54.323  37.003  1.00  0.00     0.004 C 
ATOM      6  C   UNL     1      11.219  53.109  32.553  1.00  0.00     0.013 C 
ATOM      7  C   UNL     1      13.583  54.005  32.552  1.00  0.00    -0.063 C 
ATOM      8  C   UNL     1      14.685  54.192  34.986  1.00  0.00    -0.003 C 
ATOM      9  C   UNL     1      14.438  53.787  36.472  1.00  0.00    -0.011 C 
ATOM     10  C   UNL     1      12.397  53.633  31.650  1.00  0.00    -0.006 C 
ATOM     11  C   UNL     1      14.794  54.145  31.982  1.00  0.00    -0.027 C 
ATOM     12  C   UNL     1      15.190  55.651  34.905  1.00  0.00     0.008 C 
ATOM     13  C   UNL     1      14.575  52.269  36.700  1.00  0.00     0.008 C 
ATOM     14  C   UNL     1      11.899  54.932  30.945  1.00  0.00     0.017 C 
ATOM     15  C   UNL     1      12.882  52.537  30.561  1.00  0.00    -0.020 C 
ATOM     16  C   UNL     1      15.066  53.997  30.513  1.00  0.00     0.032 C 
ATOM     17  C   UNL     1      14.049  53.154  29.657  1.00  0.00     0.006 C 
ATOM     18  C   UNL     1      13.426  51.245  31.264  1.00  0.00     0.008 C 
ATOM     19  C   UNL     1      11.653  52.122  29.685  1.00  0.00     0.012 C 
ATOM     20  C   UNL     1      14.782  52.120  28.668  1.00  0.00    -0.025 C 
ATOM     21  C   UNL     1      14.153  50.251  30.337  1.00  0.00     0.005 C 
ATOM     22  C   UNL     1      15.309  50.916  29.537  1.00  0.00     0.003 C 
ATOM     23  C   UNL     1      15.986  52.801  27.914  1.00  0.00     0.010 C 
ATOM     24  C   UNL     1      13.791  51.675  27.535  1.00  0.00     0.012 C 
ATOM     25  C   UNL     1      16.280  49.900  28.802  1.00  0.00    -0.006 C 
ATOM     26  C   UNL     1      16.896  51.805  27.172  1.00  0.00     0.033 C 
ATOM     27  C   UNL     1      17.422  50.706  28.101  1.00  0.00     0.120 C 
ATOM     28  C   UNL     1      16.955  48.974  29.853  1.00  0.00     0.014 C 
ATOM     29  C   UNL     1      15.554  48.972  27.791  1.00  0.00     0.014 C 
ENDROOT
BRANCH   1  30
ATOM     30  C   UNL     1      12.110  56.006  34.602  1.00  0.00     0.048 C 
ATOM     31  O   UNL     1      12.542  56.630  33.593  1.00  0.00    -0.550 OA
ATOM     32  O   UNL     1      11.764  56.737  35.732  1.00  0.00    -0.550 OA
ENDBRANCH   1  30
BRANCH  27  33
ATOM     33  O   UNL     1      18.245  49.847  27.347  1.00  0.00    -0.393 OA
ATOM     34  H   UNL     1      19.187  50.031  27.599  1.00  0.00     0.210 HD
ENDBRANCH  27  33
TORSDOF 2
ENDMDL
MODEL 5
REMARK VINA RESULT:    -5.997      2.004      3.030
REMARK INTER + INTRA:          -6.106
REMARK INTER:                  -6.525
REMARK INTRA:                   0.419
REMARK UNBOUND:                 0.417
REMARK SMILES C[C@H]1[C@H](C)CC[C@]2(C(=O)[O-])CC[C@@]3(C)C(=CC[C@H]4[C@@]5(C)CC[C@H](O)C(C)(C)[C@@H]5CC[C@]43C)[C@@H]12
REMARK SMILES IDX 7 1 6 2 11 3 33 4 5 5 12 6 15 7 2 8 3 9 13 10 16 11 1 12
REMARK SMILES IDX 4 13 14 14 31 15 17 16 18 17 30 18 32 19 19 20 29 21 28 22
REMARK SMILES IDX 21 23 20 24 25 25 22 26 23 27 26 28 27 29 8 30 9 31 10 32
REMARK SMILES IDX 24 33
REMARK H PARENT 24 34
REMARK Flexibility Score: inf
ROOT
ATOM      1  C   UNL     1      12.901  54.099  31.483  1.00  0.00     0.017 C 
ATOM      2  C   UNL     1      11.952  55.160  32.123  1.00  0.00     0.014 C 
ATOM      3  C   UNL     1      12.239  53.570  30.164  1.00  0.00     0.014 C 
ATOM      4  C   UNL     1      13.088  52.945  32.526  1.00  0.00     0.030 C 
ATOM      5  C   UNL     1      12.474  55.704  33.463  1.00  0.00     0.004 C 
ATOM      6  C   UNL     1      11.973  52.051  30.119  1.00  0.00     0.013 C 
ATOM      7  C   UNL     1      13.721  51.680  31.907  1.00  0.00    -0.063 C 
ATOM      8  C   UNL     1      13.616  53.443  33.922  1.00  0.00    -0.003 C 
ATOM      9  C   UNL     1      12.725  54.586  34.499  1.00  0.00    -0.011 C 
ATOM     10  C   UNL     1      13.178  51.146  30.575  1.00  0.00    -0.006 C 
ATOM     11  C   UNL     1      14.510  50.874  32.641  1.00  0.00    -0.027 C 
ATOM     12  C   UNL     1      15.105  53.857  33.951  1.00  0.00     0.008 C 
ATOM     13  C   UNL     1      11.407  54.060  35.099  1.00  0.00     0.008 C 
ATOM     14  C   UNL     1      14.299  51.292  29.501  1.00  0.00     0.017 C 
ATOM     15  C   UNL     1      12.756  49.592  30.758  1.00  0.00    -0.020 C 
ATOM     16  C   UNL     1      14.930  49.492  32.232  1.00  0.00     0.032 C 
ATOM     17  C   UNL     1      14.036  48.732  31.181  1.00  0.00     0.006 C 
ATOM     18  C   UNL     1      11.660  49.434  31.868  1.00  0.00     0.008 C 
ATOM     19  C   UNL     1      12.151  49.075  29.411  1.00  0.00     0.012 C 
ATOM     20  C   UNL     1      13.741  47.211  31.607  1.00  0.00    -0.025 C 
ATOM     21  C   UNL     1      11.378  47.982  32.307  1.00  0.00     0.005 C 
ATOM     22  C   UNL     1      12.664  47.234  32.756  1.00  0.00     0.003 C 
ATOM     23  C   UNL     1      15.049  46.491  32.114  1.00  0.00     0.010 C 
ATOM     24  C   UNL     1      13.284  46.387  30.351  1.00  0.00     0.012 C 
ATOM     25  C   UNL     1      12.408  45.855  33.497  1.00  0.00    -0.006 C 
ATOM     26  C   UNL     1      14.786  45.136  32.794  1.00  0.00     0.033 C 
ATOM     27  C   UNL     1      13.781  45.256  33.945  1.00  0.00     0.120 C 
ATOM     28  C   UNL     1      11.578  46.106  34.788  1.00  0.00     0.014 C 
ATOM     29  C   UNL     1      11.608  44.833  32.644  1.00  0.00     0.014 C 
ENDROOT
BRANCH   1  30
ATOM     30  C   UNL     1      14.230  54.757  31.101  1.00  0.00     0.048 C 
ATOM     31  O   UNL     1      14.323  56.014  31.030  1.00  0.00    -0.550 OA
ATOM     32  O   UNL     1      15.319  53.990  30.706  1.00  0.00    -0.550 OA
ENDBRANCH   1  30
BRANCH  27  33
ATOM     33  O   UNL     1      13.604  43.979  34.512  1.00  0.00    -0.393 OA
ATOM     34  H   UNL     1      12.629  43.836  34.639  1.00  0.00     0.210 HD
ENDBRANCH  27  33
TORSDOF 2
ENDMDL
MODEL 6
REMARK VINA RESULT:    -5.972      2.394      7.518
REMARK INTER + INTRA:          -6.079
REMARK INTER:                  -6.604
REMARK INTRA:                   0.525
REMARK UNBOUND:                 0.417
REMARK SMILES C[C@H]1[C@H](C)CC[C@]2(C(=O)[O-])CC[C@@]3(C)C(=CC[C@H]4[C@@]5(C)CC[C@H](O)C(C)(C)[C@@H]5CC[C@]43C)[C@@H]12
REMARK SMILES IDX 7 1 6 2 11 3 33 4 5 5 12 6 15 7 2 8 3 9 13 10 16 11 1 12
REMARK SMILES IDX 4 13 14 14 31 15 17 16 18 17 30 18 32 19 19 20 29 21 28 22
REMARK SMILES IDX 21 23 20 24 25 25 22 26 23 27 26 28 27 29 8 30 9 31 10 32
REMARK SMILES IDX 24 33
REMARK H PARENT 24 34
REMARK Flexibility Score: inf
ROOT
ATOM      1  C   UNL     1      14.571  49.439  28.340  1.00  0.00     0.017 C 
ATOM      2  C   UNL     1      15.448  48.164  28.136  1.00  0.00     0.014 C 
ATOM      3  C   UNL     1      15.448  50.702  28.030  1.00  0.00     0.014 C 
ATOM      4  C   UNL     1      14.082  49.441  29.828  1.00  0.00     0.030 C 
ATOM      5  C   UNL     1      14.705  46.862  28.477  1.00  0.00     0.004 C 
ATOM      6  C   UNL     1      15.596  51.707  29.191  1.00  0.00     0.013 C 
ATOM      7  C   UNL     1      13.492  50.801  30.259  1.00  0.00    -0.063 C 
ATOM      8  C   UNL     1      13.317  48.128  30.237  1.00  0.00    -0.003 C 
ATOM      9  C   UNL     1      14.157  46.852  29.921  1.00  0.00    -0.011 C 
ATOM     10  C   UNL     1      14.255  52.089  29.921  1.00  0.00    -0.006 C 
ATOM     11  C   UNL     1      12.507  50.868  31.173  1.00  0.00    -0.027 C 
ATOM     12  C   UNL     1      11.892  47.990  29.654  1.00  0.00     0.008 C 
ATOM     13  C   UNL     1      15.277  46.612  30.952  1.00  0.00     0.008 C 
ATOM     14  C   UNL     1      13.395  52.911  28.913  1.00  0.00     0.017 C 
ATOM     15  C   UNL     1      14.505  52.931  31.283  1.00  0.00    -0.020 C 
ATOM     16  C   UNL     1      12.072  52.126  31.867  1.00  0.00     0.032 C 
ATOM     17  C   UNL     1      13.101  53.316  31.945  1.00  0.00     0.006 C 
ATOM     18  C   UNL     1      15.332  52.093  32.319  1.00  0.00     0.008 C 
ATOM     19  C   UNL     1      15.333  54.212  30.935  1.00  0.00     0.012 C 
ATOM     20  C   UNL     1      13.180  53.969  33.411  1.00  0.00    -0.025 C 
ATOM     21  C   UNL     1      15.400  52.691  33.739  1.00  0.00     0.005 C 
ATOM     22  C   UNL     1      13.994  52.984  34.332  1.00  0.00     0.003 C 
ATOM     23  C   UNL     1      11.743  54.201  34.016  1.00  0.00     0.010 C 
ATOM     24  C   UNL     1      13.820  55.400  33.322  1.00  0.00     0.012 C 
ATOM     25  C   UNL     1      13.981  53.313  35.884  1.00  0.00    -0.006 C 
ATOM     26  C   UNL     1      11.751  54.559  35.513  1.00  0.00     0.033 C 
ATOM     27  C   UNL     1      12.502  53.516  36.348  1.00  0.00     0.120 C 
ATOM     28  C   UNL     1      14.543  52.098  36.676  1.00  0.00     0.014 C 
ATOM     29  C   UNL     1      14.856  54.537  36.265  1.00  0.00     0.014 C 
ENDROOT
BRANCH   1  30
ATOM     30  C   UNL     1      13.407  49.430  27.346  1.00  0.00     0.048 C 
ATOM     31  O   UNL     1      12.443  50.234  27.482  1.00  0.00    -0.550 OA
ATOM     32  O   UNL     1      13.325  48.463  26.351  1.00  0.00    -0.550 OA
ENDBRANCH   1  30
BRANCH  27  33
ATOM     33  O   UNL     1      12.456  53.916  37.698  1.00  0.00    -0.393 OA
ATOM     34  H   UNL     1      13.389  54.078  37.998  1.00  0.00     0.210 HD
ENDBRANCH  27  33
TORSDOF 2
ENDMDL
MODEL 7
REMARK VINA RESULT:    -5.655      1.862      7.901
REMARK INTER + INTRA:          -5.734
REMARK INTER:                  -6.153
REMARK INTRA:                   0.419
REMARK UNBOUND:                 0.417
REMARK SMILES C[C@H]1[C@H](C)CC[C@]2(C(=O)[O-])CC[C@@]3(C)C(=CC[C@H]4[C@@]5(C)CC[C@H](O)C(C)(C)[C@@H]5CC[C@]43C)[C@@H]12
REMARK SMILES IDX 7 1 6 2 11 3 33 4 5 5 12 6 15 7 2 8 3 9 13 10 16 11 1 12
REMARK SMILES IDX 4 13 14 14 31 15 17 16 18 17 30 18 32 19 19 20 29 21 28 22
REMARK SMILES IDX 21 23 20 24 25 25 22 26 23 27 26 28 27 29 8 30 9 31 10 32
REMARK SMILES IDX 24 33
REMARK H PARENT 24 34
REMARK Flexibility Score: inf
ROOT
ATOM      1  C   UNL     1      14.310  48.121  29.029  1.00  0.00     0.017 C 
ATOM      2  C   UNL     1      14.881  47.787  27.615  1.00  0.00     0.014 C 
ATOM      3  C   UNL     1      12.801  48.519  28.875  1.00  0.00     0.014 C 
ATOM      4  C   UNL     1      15.152  49.309  29.607  1.00  0.00     0.030 C 
ATOM      5  C   UNL     1      16.380  47.444  27.637  1.00  0.00     0.004 C 
ATOM      6  C   UNL     1      12.434  49.931  29.374  1.00  0.00     0.013 C 
ATOM      7  C   UNL     1      14.492  49.961  30.841  1.00  0.00    -0.063 C 
ATOM      8  C   UNL     1      16.698  49.017  29.650  1.00  0.00    -0.003 C 
ATOM      9  C   UNL     1      17.237  48.570  28.256  1.00  0.00    -0.011 C 
ATOM     10  C   UNL     1      12.998  50.308  30.795  1.00  0.00    -0.006 C 
ATOM     11  C   UNL     1      15.241  50.506  31.817  1.00  0.00    -0.027 C 
ATOM     12  C   UNL     1      17.149  48.021  30.743  1.00  0.00     0.008 C 
ATOM     13  C   UNL     1      17.409  49.753  27.283  1.00  0.00     0.008 C 
ATOM     14  C   UNL     1      12.261  49.413  31.838  1.00  0.00     0.017 C 
ATOM     15  C   UNL     1      12.806  51.878  31.146  1.00  0.00    -0.020 C 
ATOM     16  C   UNL     1      14.711  51.408  32.894  1.00  0.00     0.032 C 
ATOM     17  C   UNL     1      13.363  52.175  32.615  1.00  0.00     0.006 C 
ATOM     18  C   UNL     1      13.581  52.782  30.125  1.00  0.00     0.008 C 
ATOM     19  C   UNL     1      11.285  52.233  31.039  1.00  0.00     0.012 C 
ATOM     20  C   UNL     1      13.439  53.725  33.030  1.00  0.00    -0.025 C 
ATOM     21  C   UNL     1      13.684  54.270  30.516  1.00  0.00     0.005 C 
ATOM     22  C   UNL     1      14.288  54.475  31.934  1.00  0.00     0.003 C 
ATOM     23  C   UNL     1      14.108  53.911  34.444  1.00  0.00     0.010 C 
ATOM     24  C   UNL     1      11.988  54.304  33.187  1.00  0.00     0.012 C 
ATOM     25  C   UNL     1      14.698  55.969  32.274  1.00  0.00    -0.006 C 
ATOM     26  C   UNL     1      14.463  55.372  34.775  1.00  0.00     0.033 C 
ATOM     27  C   UNL     1      15.347  56.007  33.695  1.00  0.00     0.120 C 
ATOM     28  C   UNL     1      15.780  56.452  31.266  1.00  0.00     0.014 C 
ATOM     29  C   UNL     1      13.517  56.973  32.175  1.00  0.00     0.014 C 
ENDROOT
BRANCH   1  30
ATOM     30  C   UNL     1      14.372  46.877  29.919  1.00  0.00     0.048 C 
ATOM     31  O   UNL     1      14.611  45.743  29.418  1.00  0.00    -0.550 OA
ATOM     32  O   UNL     1      14.047  46.947  31.268  1.00  0.00    -0.550 OA
ENDBRANCH   1  30
BRANCH  27  33
ATOM     33  O   UNL     1      15.627  57.334  34.078  1.00  0.00    -0.393 OA
ATOM     34  H   UNL     1      14.887  57.643  34.662  1.00  0.00     0.210 HD
ENDBRANCH  27  33
TORSDOF 2
ENDMDL
MODEL 8
REMARK VINA RESULT:    -5.638      2.926      4.830
REMARK INTER + INTRA:          -5.715
REMARK INTER:                  -6.128
REMARK INTRA:                   0.413
REMARK UNBOUND:                 0.417
REMARK SMILES C[C@H]1[C@H](C)CC[C@]2(C(=O)[O-])CC[C@@]3(C)C(=CC[C@H]4[C@@]5(C)CC[C@H](O)C(C)(C)[C@@H]5CC[C@]43C)[C@@H]12
REMARK SMILES IDX 7 1 6 2 11 3 33 4 5 5 12 6 15 7 2 8 3 9 13 10 16 11 1 12
REMARK SMILES IDX 4 13 14 14 31 15 17 16 18 17 30 18 32 19 19 20 29 21 28 22
REMARK SMILES IDX 21 23 20 24 25 25 22 26 23 27 26 28 27 29 8 30 9 31 10 32
REMARK SMILES IDX 24 33
REMARK H PARENT 24 34
REMARK Flexibility Score: inf
ROOT
ATOM      1  C   UNL     1      14.035  58.498  33.144  1.00  0.00     0.017 C 
ATOM      2  C   UNL     1      15.196  59.222  33.896  1.00  0.00     0.014 C 
ATOM      3  C   UNL     1      13.008  57.970  34.205  1.00  0.00     0.014 C 
ATOM      4  C   UNL     1      14.666  57.317  32.331  1.00  0.00     0.030 C 
ATOM      5  C   UNL     1      16.300  59.727  32.953  1.00  0.00     0.004 C 
ATOM      6  C   UNL     1      12.769  56.446  34.195  1.00  0.00     0.013 C 
ATOM      7  C   UNL     1      13.609  56.318  31.814  1.00  0.00    -0.063 C 
ATOM      8  C   UNL     1      15.809  57.773  31.350  1.00  0.00    -0.003 C 
ATOM      9  C   UNL     1      16.907  58.597  32.091  1.00  0.00    -0.011 C 
ATOM     10  C   UNL     1      12.521  55.815  32.774  1.00  0.00    -0.006 C 
ATOM     11  C   UNL     1      13.793  55.651  30.660  1.00  0.00    -0.027 C 
ATOM     12  C   UNL     1      15.330  58.530  30.090  1.00  0.00     0.008 C 
ATOM     13  C   UNL     1      17.860  57.707  32.911  1.00  0.00     0.008 C 
ATOM     14  C   UNL     1      11.145  56.344  32.266  1.00  0.00     0.017 C 
ATOM     15  C   UNL     1      12.542  54.196  32.799  1.00  0.00    -0.020 C 
ATOM     16  C   UNL     1      12.985  54.465  30.223  1.00  0.00     0.032 C 
ATOM     17  C   UNL     1      12.243  53.630  31.333  1.00  0.00     0.006 C 
ATOM     18  C   UNL     1      13.938  53.657  33.267  1.00  0.00     0.008 C 
ATOM     19  C   UNL     1      11.469  53.696  33.823  1.00  0.00     0.012 C 
ATOM     20  C   UNL     1      12.437  52.045  31.147  1.00  0.00    -0.025 C 
ATOM     21  C   UNL     1      14.153  52.142  33.076  1.00  0.00     0.005 C 
ATOM     22  C   UNL     1      13.898  51.683  31.613  1.00  0.00     0.003 C 
ATOM     23  C   UNL     1      12.233  51.613  29.645  1.00  0.00     0.010 C 
ATOM     24  C   UNL     1      11.327  51.276  31.947  1.00  0.00     0.012 C 
ATOM     25  C   UNL     1      14.388  50.211  31.282  1.00  0.00    -0.006 C 
ATOM     26  C   UNL     1      12.675  50.168  29.351  1.00  0.00     0.033 C 
ATOM     27  C   UNL     1      14.129  49.916  29.768  1.00  0.00     0.120 C 
ATOM     28  C   UNL     1      15.924  50.112  31.508  1.00  0.00     0.014 C 
ATOM     29  C   UNL     1      13.735  49.125  32.179  1.00  0.00     0.014 C 
ENDROOT
BRANCH   1  30
ATOM     30  C   UNL     1      13.299  59.495  32.245  1.00  0.00     0.048 C 
ATOM     31  O   UNL     1      13.473  60.737  32.392  1.00  0.00    -0.550 OA
ATOM     32  O   UNL     1      12.339  59.065  31.337  1.00  0.00    -0.550 OA
ENDBRANCH   1  30
BRANCH  27  33
ATOM     33  O   UNL     1      14.452  48.581  29.460  1.00  0.00    -0.393 OA
ATOM     34  H   UNL     1      13.783  48.251  28.804  1.00  0.00     0.210 HD
ENDBRANCH  27  33
TORSDOF 2
ENDMDL
MODEL 9
REMARK VINA RESULT:    -5.377      2.220      7.804
REMARK INTER + INTRA:          -5.432
REMARK INTER:                  -5.849
REMARK INTRA:                   0.417
REMARK UNBOUND:                 0.417
REMARK SMILES C[C@H]1[C@H](C)CC[C@]2(C(=O)[O-])CC[C@@]3(C)C(=CC[C@H]4[C@@]5(C)CC[C@H](O)C(C)(C)[C@@H]5CC[C@]43C)[C@@H]12
REMARK SMILES IDX 7 1 6 2 11 3 33 4 5 5 12 6 15 7 2 8 3 9 13 10 16 11 1 12
REMARK SMILES IDX 4 13 14 14 31 15 17 16 18 17 30 18 32 19 19 20 29 21 28 22
REMARK SMILES IDX 21 23 20 24 25 25 22 26 23 27 26 28 27 29 8 30 9 31 10 32
REMARK SMILES IDX 24 33
REMARK H PARENT 24 34
REMARK Flexibility Score: inf
ROOT
ATOM      1  C   UNL     1      14.113  45.100  31.801  1.00  0.00     0.017 C 
ATOM      2  C   UNL     1      14.442  44.162  33.005  1.00  0.00     0.014 C 
ATOM      3  C   UNL     1      15.457  45.502  31.101  1.00  0.00     0.014 C 
ATOM      4  C   UNL     1      13.375  46.357  32.373  1.00  0.00     0.030 C 
ATOM      5  C   UNL     1      13.197  43.754  33.808  1.00  0.00     0.004 C 
ATOM      6  C   UNL     1      15.750  47.016  31.047  1.00  0.00     0.013 C 
ATOM      7  C   UNL     1      13.291  47.513  31.353  1.00  0.00    -0.063 C 
ATOM      8  C   UNL     1      12.091  46.002  33.211  1.00  0.00    -0.003 C 
ATOM      9  C   UNL     1      12.409  44.972  34.340  1.00  0.00    -0.011 C 
ATOM     10  C   UNL     1      14.548  47.913  30.570  1.00  0.00    -0.006 C 
ATOM     11  C   UNL     1      12.248  48.364  31.358  1.00  0.00    -0.027 C 
ATOM     12  C   UNL     1      10.875  45.529  32.382  1.00  0.00     0.008 C 
ATOM     13  C   UNL     1      13.113  45.621  35.548  1.00  0.00     0.008 C 
ATOM     14  C   UNL     1      14.302  47.596  29.063  1.00  0.00     0.017 C 
ATOM     15  C   UNL     1      14.827  49.494  30.786  1.00  0.00    -0.020 C 
ATOM     16  C   UNL     1      12.211  49.669  30.619  1.00  0.00     0.032 C 
ATOM     17  C   UNL     1      13.584  50.341  30.242  1.00  0.00     0.006 C 
ATOM     18  C   UNL     1      15.033  49.828  32.304  1.00  0.00     0.008 C 
ATOM     19  C   UNL     1      16.143  49.879  30.030  1.00  0.00     0.012 C 
ATOM     20  C   UNL     1      13.615  51.913  30.576  1.00  0.00    -0.025 C 
ATOM     21  C   UNL     1      15.042  51.331  32.649  1.00  0.00     0.005 C 
ATOM     22  C   UNL     1      13.774  52.070  32.136  1.00  0.00     0.003 C 
ATOM     23  C   UNL     1      12.294  52.629  30.099  1.00  0.00     0.010 C 
ATOM     24  C   UNL     1      14.768  52.606  29.767  1.00  0.00     0.012 C 
ATOM     25  C   UNL     1      13.579  53.535  32.711  1.00  0.00    -0.006 C 
ATOM     26  C   UNL     1      12.139  54.064  30.634  1.00  0.00     0.033 C 
ATOM     27  C   UNL     1      12.237  54.121  32.163  1.00  0.00     0.120 C 
ATOM     28  C   UNL     1      13.448  53.471  34.259  1.00  0.00     0.014 C 
ATOM     29  C   UNL     1      14.767  54.485  32.403  1.00  0.00     0.014 C 
ENDROOT
BRANCH   1  30
ATOM     30  C   UNL     1      13.265  44.345  30.774  1.00  0.00     0.048 C 
ATOM     31  O   UNL     1      13.194  43.084  30.806  1.00  0.00    -0.550 OA
ATOM     32  O   UNL     1      12.659  45.014  29.717  1.00  0.00    -0.550 OA
ENDBRANCH   1  30
BRANCH  27  33
ATOM     33  O   UNL     1      12.080  55.462  32.565  1.00  0.00    -0.393 OA
ATOM     34  H   UNL     1      11.345  55.856  32.026  1.00  0.00     0.210 HD
ENDBRANCH  27  33
TORSDOF 2
ENDMDL
