MODEL 1
REMARK VINA RESULT:    -3.453      0.000      0.000
REMARK INTER + INTRA:          -5.248
REMARK INTER:                  -4.664
REMARK INTRA:                  -0.584
REMARK UNBOUND:                -0.584
REMARK SMILES CCCCCCC=CC(=O)[O-]
REMARK SMILES IDX 5 1 6 2 7 3 8 4 9 5 10 6 11 7 4 8 3 9 2 10 1 11
REMARK H PARENT
REMARK Flexibility Score: inf
ROOT
ATOM      1  C   UNL     1       2.361 -14.058  15.369  1.00  0.00     0.004 C 
ENDROOT
BRANCH   1   2
ATOM      2  C   UNL     1       3.594 -13.335  15.934  1.00  0.00     0.027 C 
BRANCH   2   3
ATOM      3  C   UNL     1       4.023 -12.179  15.076  1.00  0.00    -0.025 C 
ATOM      4  C   UNL     1       5.081 -12.265  14.264  1.00  0.00     0.020 C 
BRANCH   4   5
ATOM      5  C   UNL     1       5.513 -11.146  13.410  1.00  0.00     0.064 C 
ATOM      6  O   UNL     1       4.879 -10.057  13.393  1.00  0.00    -0.545 OA
ATOM      7  O   UNL     1       6.639 -11.293  12.610  1.00  0.00    -0.545 OA
ENDBRANCH   4   5
ENDBRANCH   2   3
ENDBRANCH   1   2
BRANCH   1   8
ATOM      8  C   UNL     1       2.747 -15.229  14.453  1.00  0.00     0.000 C 
BRANCH   8   9
ATOM      9  C   UNL     1       3.425 -16.350  15.250  1.00  0.00    -0.000 C 
BRANCH   9  10
ATOM     10  C   UNL     1       4.620 -16.925  14.482  1.00  0.00    -0.003 C 
ATOM     11  C   UNL     1       5.868 -16.070  14.685  1.00  0.00     0.004 C 
ENDBRANCH   9  10
ENDBRANCH   8   9
ENDBRANCH   1   8
TORSDOF 6
ENDMDL
MODEL 2
REMARK VINA RESULT:    -3.437      0.883      2.379
REMARK INTER + INTRA:          -5.226
REMARK INTER:                  -4.604
REMARK INTRA:                  -0.623
REMARK UNBOUND:                -0.584
REMARK SMILES CCCCCCC=CC(=O)[O-]
REMARK SMILES IDX 5 1 6 2 7 3 8 4 9 5 10 6 11 7 4 8 3 9 2 10 1 11
REMARK H PARENT
REMARK Flexibility Score: inf
ROOT
ATOM      1  C   UNL     1       5.375 -15.780  14.780  1.00  0.00     0.004 C 
ENDROOT
BRANCH   1   2
ATOM      2  C   UNL     1       5.855 -14.494  15.470  1.00  0.00     0.027 C 
BRANCH   2   3
ATOM      3  C   UNL     1       6.091 -13.375  14.494  1.00  0.00    -0.025 C 
ATOM      4  C   UNL     1       5.287 -12.308  14.446  1.00  0.00     0.020 C 
BRANCH   4   5
ATOM      5  C   UNL     1       5.506 -11.198  13.503  1.00  0.00     0.064 C 
ATOM      6  O   UNL     1       4.744 -10.195  13.491  1.00  0.00    -0.545 OA
ATOM      7  O   UNL     1       6.571 -11.258  12.614  1.00  0.00    -0.545 OA
ENDBRANCH   4   5
ENDBRANCH   2   3
ENDBRANCH   1   2
BRANCH   1   8
ATOM      8  C   UNL     1       3.934 -16.142  15.170  1.00  0.00     0.000 C 
BRANCH   8   9
ATOM      9  C   UNL     1       2.923 -15.293  14.390  1.00  0.00    -0.000 C 
BRANCH   9  10
ATOM     10  C   UNL     1       1.840 -14.735  15.319  1.00  0.00    -0.003 C 
ATOM     11  C   UNL     1       2.443 -14.229  16.627  1.00  0.00     0.004 C 
ENDBRANCH   9  10
ENDBRANCH   8   9
ENDBRANCH   1   8
TORSDOF 6
ENDMDL
MODEL 3
REMARK VINA RESULT:    -3.430     10.751     12.186
REMARK INTER + INTRA:          -5.218
REMARK INTER:                  -4.863
REMARK INTRA:                  -0.355
REMARK UNBOUND:                -0.584
REMARK SMILES CCCCCCC=CC(=O)[O-]
REMARK SMILES IDX 5 1 6 2 7 3 8 4 9 5 10 6 11 7 4 8 3 9 2 10 1 11
REMARK H PARENT
REMARK Flexibility Score: inf
ROOT
ATOM      1  C   UNL     1      -5.837 -10.469  19.119  1.00  0.00     0.004 C 
ENDROOT
BRANCH   1   2
ATOM      2  C   UNL     1      -5.477 -11.283  17.866  1.00  0.00     0.027 C 
BRANCH   2   3
ATOM      3  C   UNL     1      -5.412 -10.430  16.629  1.00  0.00    -0.025 C 
ATOM      4  C   UNL     1      -6.110  -9.295  16.524  1.00  0.00     0.020 C 
BRANCH   4   5
ATOM      5  C   UNL     1      -6.054  -8.443  15.326  1.00  0.00     0.064 C 
ATOM      6  O   UNL     1      -7.095  -8.174  14.668  1.00  0.00    -0.545 OA
ATOM      7  O   UNL     1      -4.833  -7.924  14.914  1.00  0.00    -0.545 OA
ENDBRANCH   4   5
ENDBRANCH   2   3
ENDBRANCH   1   2
BRANCH   1   8
ATOM      8  C   UNL     1      -6.976 -11.116  19.921  1.00  0.00     0.000 C 
BRANCH   8   9
ATOM      9  C   UNL     1      -6.947 -12.642  19.784  1.00  0.00    -0.000 C 
BRANCH   9  10
ATOM     10  C   UNL     1      -8.084 -13.288  20.585  1.00  0.00    -0.003 C 
ATOM     11  C   UNL     1      -9.361 -12.456  20.496  1.00  0.00     0.004 C 
ENDBRANCH   9  10
ENDBRANCH   8   9
ENDBRANCH   1   8
TORSDOF 6
ENDMDL
MODEL 4
REMARK VINA RESULT:    -3.373      2.810      4.129
REMARK INTER + INTRA:          -5.141
REMARK INTER:                  -4.523
REMARK INTRA:                  -0.618
REMARK UNBOUND:                -0.584
REMARK SMILES CCCCCCC=CC(=O)[O-]
REMARK SMILES IDX 5 1 6 2 7 3 8 4 9 5 10 6 11 7 4 8 3 9 2 10 1 11
REMARK H PARENT
REMARK Flexibility Score: inf
ROOT
ATOM      1  C   UNL     1       4.472 -18.382  16.320  1.00  0.00     0.004 C 
ENDROOT
BRANCH   1   2
ATOM      2  C   UNL     1       4.519 -17.083  17.139  1.00  0.00     0.027 C 
BRANCH   2   3
ATOM      3  C   UNL     1       4.076 -15.888  16.342  1.00  0.00    -0.025 C 
ATOM      4  C   UNL     1       3.380 -16.021  15.209  1.00  0.00     0.020 C 
BRANCH   4   5
ATOM      5  C   UNL     1       2.930 -14.863  14.419  1.00  0.00     0.064 C 
ATOM      6  O   UNL     1       1.769 -14.819  13.932  1.00  0.00    -0.545 OA
ATOM      7  O   UNL     1       3.801 -13.801  14.209  1.00  0.00    -0.545 OA
ENDBRANCH   4   5
ENDBRANCH   2   3
ENDBRANCH   1   2
BRANCH   1   8
ATOM      8  C   UNL     1       5.782 -18.634  15.558  1.00  0.00     0.000 C 
BRANCH   8   9
ATOM      9  C   UNL     1       5.515 -18.862  14.066  1.00  0.00    -0.000 C 
BRANCH   9  10
ATOM     10  C   UNL     1       6.506 -18.071  13.203  1.00  0.00    -0.003 C 
ATOM     11  C   UNL     1       6.917 -16.771  13.889  1.00  0.00     0.004 C 
ENDBRANCH   9  10
ENDBRANCH   8   9
ENDBRANCH   1   8
TORSDOF 6
ENDMDL
MODEL 5
REMARK VINA RESULT:    -3.362      3.536      5.104
REMARK INTER + INTRA:          -5.125
REMARK INTER:                  -4.447
REMARK INTRA:                  -0.678
REMARK UNBOUND:                -0.584
REMARK SMILES CCCCCCC=CC(=O)[O-]
REMARK SMILES IDX 5 1 6 2 7 3 8 4 9 5 10 6 11 7 4 8 3 9 2 10 1 11
REMARK H PARENT
REMARK Flexibility Score: inf
ROOT
ATOM      1  C   UNL     1       2.911 -15.257  14.446  1.00  0.00     0.004 C 
ENDROOT
BRANCH   1   2
ATOM      2  C   UNL     1       3.319 -16.104  15.662  1.00  0.00     0.027 C 
BRANCH   2   3
ATOM      3  C   UNL     1       4.234 -17.236  15.289  1.00  0.00    -0.025 C 
ATOM      4  C   UNL     1       4.759 -17.337  14.063  1.00  0.00     0.020 C 
BRANCH   4   5
ATOM      5  C   UNL     1       5.664 -18.434  13.681  1.00  0.00     0.064 C 
ATOM      6  O   UNL     1       5.463 -19.612  14.078  1.00  0.00    -0.545 OA
ATOM      7  O   UNL     1       6.756 -18.164  12.866  1.00  0.00    -0.545 OA
ENDBRANCH   4   5
ENDBRANCH   2   3
ENDBRANCH   1   2
BRANCH   1   8
ATOM      8  C   UNL     1       3.501 -13.840  14.503  1.00  0.00     0.000 C 
BRANCH   8   9
ATOM      9  C   UNL     1       4.204 -13.591  15.843  1.00  0.00    -0.000 C 
BRANCH   9  10
ATOM     10  C   UNL     1       5.643 -13.109  15.627  1.00  0.00    -0.003 C 
ATOM     11  C   UNL     1       6.477 -14.169  14.911  1.00  0.00     0.004 C 
ENDBRANCH   9  10
ENDBRANCH   8   9
ENDBRANCH   1   8
TORSDOF 6
ENDMDL
MODEL 6
REMARK VINA RESULT:    -3.316      0.811      1.393
REMARK INTER + INTRA:          -5.064
REMARK INTER:                  -4.572
REMARK INTRA:                  -0.492
REMARK UNBOUND:                -0.584
REMARK SMILES CCCCCCC=CC(=O)[O-]
REMARK SMILES IDX 5 1 6 2 7 3 8 4 9 5 10 6 11 7 4 8 3 9 2 10 1 11
REMARK H PARENT
REMARK Flexibility Score: inf
ROOT
ATOM      1  C   UNL     1       2.387 -13.855  15.087  1.00  0.00     0.004 C 
ENDROOT
BRANCH   1   2
ATOM      2  C   UNL     1       3.710 -13.383  15.710  1.00  0.00     0.027 C 
BRANCH   2   3
ATOM      3  C   UNL     1       4.268 -12.172  15.016  1.00  0.00    -0.025 C 
ATOM      4  C   UNL     1       5.091 -12.283  13.968  1.00  0.00     0.020 C 
BRANCH   4   5
ATOM      5  C   UNL     1       5.642 -11.109  13.270  1.00  0.00     0.064 C 
ATOM      6  O   UNL     1       6.689 -11.197  12.576  1.00  0.00    -0.545 OA
ATOM      7  O   UNL     1       4.994  -9.885  13.378  1.00  0.00    -0.545 OA
ENDBRANCH   4   5
ENDBRANCH   2   3
ENDBRANCH   1   2
BRANCH   1   8
ATOM      8  C   UNL     1       2.391 -15.363  14.793  1.00  0.00     0.000 C 
BRANCH   8   9
ATOM      9  C   UNL     1       3.822 -15.913  14.764  1.00  0.00    -0.000 C 
BRANCH   9  10
ATOM     10  C   UNL     1       3.938 -17.188  15.606  1.00  0.00    -0.003 C 
ATOM     11  C   UNL     1       4.516 -16.885  16.986  1.00  0.00     0.004 C 
ENDBRANCH   9  10
ENDBRANCH   8   9
ENDBRANCH   1   8
TORSDOF 6
ENDMDL
MODEL 7
REMARK VINA RESULT:    -3.315      3.181      4.776
REMARK INTER + INTRA:          -5.062
REMARK INTER:                  -4.340
REMARK INTRA:                  -0.722
REMARK UNBOUND:                -0.584
REMARK SMILES CCCCCCC=CC(=O)[O-]
REMARK SMILES IDX 5 1 6 2 7 3 8 4 9 5 10 6 11 7 4 8 3 9 2 10 1 11
REMARK H PARENT
REMARK Flexibility Score: inf
ROOT
ATOM      1  C   UNL     1       5.302 -18.204  14.098  1.00  0.00     0.004 C 
ENDROOT
BRANCH   1   2
ATOM      2  C   UNL     1       4.735 -18.226  15.526  1.00  0.00     0.027 C 
BRANCH   2   3
ATOM      3  C   UNL     1       3.916 -17.005  15.836  1.00  0.00    -0.025 C 
ATOM      4  C   UNL     1       3.296 -16.316  14.873  1.00  0.00     0.020 C 
BRANCH   4   5
ATOM      5  C   UNL     1       2.482 -15.122  15.156  1.00  0.00     0.064 C 
ATOM      6  O   UNL     1       2.458 -14.608  16.306  1.00  0.00    -0.545 OA
ATOM      7  O   UNL     1       1.730 -14.551  14.137  1.00  0.00    -0.545 OA
ENDBRANCH   4   5
ENDBRANCH   2   3
ENDBRANCH   1   2
BRANCH   1   8
ATOM      8  C   UNL     1       6.829 -18.040  14.084  1.00  0.00     0.000 C 
BRANCH   8   9
ATOM      9  C   UNL     1       7.226 -16.639  13.606  1.00  0.00    -0.000 C 
BRANCH   9  10
ATOM     10  C   UNL     1       7.402 -15.682  14.791  1.00  0.00    -0.003 C 
ATOM     11  C   UNL     1       6.437 -14.504  14.695  1.00  0.00     0.004 C 
ENDBRANCH   9  10
ENDBRANCH   8   9
ENDBRANCH   1   8
TORSDOF 6
ENDMDL
MODEL 8
REMARK VINA RESULT:    -3.279      4.685      6.066
REMARK INTER + INTRA:          -5.013
REMARK INTER:                  -4.571
REMARK INTRA:                  -0.442
REMARK UNBOUND:                -0.584
REMARK SMILES CCCCCCC=CC(=O)[O-]
REMARK SMILES IDX 5 1 6 2 7 3 8 4 9 5 10 6 11 7 4 8 3 9 2 10 1 11
REMARK H PARENT
REMARK Flexibility Score: inf
ROOT
ATOM      1  C   UNL     1       5.738 -15.316  14.833  1.00  0.00     0.004 C 
ENDROOT
BRANCH   1   2
ATOM      2  C   UNL     1       6.999 -15.923  14.200  1.00  0.00     0.027 C 
BRANCH   2   3
ATOM      3  C   UNL     1       6.988 -17.426  14.230  1.00  0.00    -0.025 C 
ATOM      4  C   UNL     1       6.866 -18.147  13.111  1.00  0.00     0.020 C 
BRANCH   4   5
ATOM      5  C   UNL     1       6.861 -19.619  13.118  1.00  0.00     0.064 C 
ATOM      6  O   UNL     1       6.139 -20.264  13.924  1.00  0.00    -0.545 OA
ATOM      7  O   UNL     1       7.665 -20.309  12.219  1.00  0.00    -0.545 OA
ENDBRANCH   4   5
ENDBRANCH   2   3
ENDBRANCH   1   2
BRANCH   1   8
ATOM      8  C   UNL     1       5.083 -16.268  15.845  1.00  0.00     0.000 C 
BRANCH   8   9
ATOM      9  C   UNL     1       3.561 -16.306  15.659  1.00  0.00    -0.000 C 
BRANCH   9  10
ATOM     10  C   UNL     1       3.129 -15.424  14.481  1.00  0.00    -0.003 C 
ATOM     11  C   UNL     1       1.715 -14.887  14.686  1.00  0.00     0.004 C 
ENDBRANCH   9  10
ENDBRANCH   8   9
ENDBRANCH   1   8
TORSDOF 6
ENDMDL
MODEL 9
REMARK VINA RESULT:    -3.192      1.379      2.029
REMARK INTER + INTRA:          -4.896
REMARK INTER:                  -4.211
REMARK INTRA:                  -0.684
REMARK UNBOUND:                -0.584
REMARK SMILES CCCCCCC=CC(=O)[O-]
REMARK SMILES IDX 5 1 6 2 7 3 8 4 9 5 10 6 11 7 4 8 3 9 2 10 1 11
REMARK H PARENT
REMARK Flexibility Score: inf
ROOT
ATOM      1  C   UNL     1       3.769 -13.169  17.189  1.00  0.00     0.004 C 
ENDROOT
BRANCH   1   2
ATOM      2  C   UNL     1       3.125 -11.920  16.568  1.00  0.00     0.027 C 
BRANCH   2   3
ATOM      3  C   UNL     1       3.994 -11.289  15.517  1.00  0.00    -0.025 C 
ATOM      4  C   UNL     1       4.829 -12.018  14.770  1.00  0.00     0.020 C 
BRANCH   4   5
ATOM      5  C   UNL     1       5.683 -11.421  13.730  1.00  0.00     0.064 C 
ATOM      6  O   UNL     1       5.188 -10.743  12.791  1.00  0.00    -0.545 OA
ATOM      7  O   UNL     1       7.059 -11.605  13.788  1.00  0.00    -0.545 OA
ENDBRANCH   4   5
ENDBRANCH   2   3
ENDBRANCH   1   2
BRANCH   1   8
ATOM      8  C   UNL     1       2.894 -14.419  17.016  1.00  0.00     0.000 C 
BRANCH   8   9
ATOM      9  C   UNL     1       3.601 -15.470  16.152  1.00  0.00    -0.000 C 
BRANCH   9  10
ATOM     10  C   UNL     1       3.108 -15.410  14.701  1.00  0.00    -0.003 C 
ATOM     11  C   UNL     1       1.708 -14.808  14.619  1.00  0.00     0.004 C 
ENDBRANCH   9  10
ENDBRANCH   8   9
ENDBRANCH   1   8
TORSDOF 6
ENDMDL
