MODEL 1
REMARK VINA RESULT:    -3.180      0.000      0.000
REMARK INTER + INTRA:          -3.471
REMARK INTER:                  -3.924
REMARK INTRA:                   0.453
REMARK UNBOUND:                 0.453
REMARK SMILES O=c1c(O)c(-c2cc(O)c(O)c(O)c2)oc2cc(O)cc(O)c12
REMARK SMILES IDX 5 1 3 2 2 3 1 4 23 5 21 6 20 7 18 8 17 9 16 10 15 11 6 12
REMARK SMILES IDX 7 13 8 14 14 15 10 16 12 17 9 18 11 20 13 22 4 24 22 26
REMARK SMILES IDX 19 28
REMARK H PARENT 9 19 11 21 13 23 4 25 22 27 19 29
REMARK Flexibility Score: inf
ROOT
ATOM      1  C   UNL     1      10.507  35.715  80.722  1.00  0.00     0.180 A 
ATOM      2  C   UNL     1      11.197  35.617  79.500  1.00  0.00     0.208 A 
ATOM      3  C   UNL     1      10.472  35.693  78.301  1.00  0.00     0.238 A 
ATOM      4  O   UNL     1      11.088  35.550  77.212  1.00  0.00    -0.285 OA
ATOM      5  C   UNL     1       9.069  35.881  78.335  1.00  0.00     0.111 A 
ATOM      6  C   UNL     1       8.240  36.012  77.181  1.00  0.00     0.134 A 
ATOM      7  C   UNL     1       6.848  36.065  77.332  1.00  0.00     0.093 A 
ATOM      8  C   UNL     1       6.261  36.057  78.600  1.00  0.00     0.123 A 
ATOM      9  C   UNL     1       7.066  35.989  79.735  1.00  0.00     0.094 A 
ATOM     10  C   UNL     1       8.455  35.898  79.615  1.00  0.00     0.146 A 
ATOM     11  O   UNL     1       9.184  35.825  80.722  1.00  0.00    -0.452 OA
ENDROOT
BRANCH   1  12
ATOM     12  C   UNL     1      11.205  35.668  82.027  1.00  0.00     0.029 A 
ATOM     13  C   UNL     1      10.506  35.424  83.221  1.00  0.00     0.062 A 
ATOM     14  C   UNL     1      11.186  35.360  84.445  1.00  0.00     0.162 A 
ATOM     15  C   UNL     1      12.600  35.814  82.069  1.00  0.00     0.062 A 
ATOM     16  C   UNL     1      12.581  35.530  84.481  1.00  0.00     0.200 A 
ATOM     17  C   UNL     1      13.287  35.753  83.287  1.00  0.00     0.162 A 
BRANCH  14  18
ATOM     18  O   UNL     1      10.481  35.123  85.624  1.00  0.00    -0.504 OA
ATOM     19  H   UNL     1      10.785  35.509  86.510  1.00  0.00     0.293 HD
ENDBRANCH  14  18
BRANCH  16  20
ATOM     20  O   UNL     1      13.274  35.473  85.691  1.00  0.00    -0.502 OA
ATOM     21  H   UNL     1      13.766  34.641  85.993  1.00  0.00     0.293 HD
ENDBRANCH  16  20
BRANCH  17  22
ATOM     22  O   UNL     1      14.672  35.917  83.288  1.00  0.00    -0.504 OA
ATOM     23  H   UNL     1      15.112  36.781  83.580  1.00  0.00     0.293 HD
ENDBRANCH  17  22
ENDBRANCH   1  12
BRANCH   2  24
ATOM     24  O   UNL     1      12.579  35.408  79.489  1.00  0.00    -0.502 OA
ATOM     25  H   UNL     1      13.241  36.160  79.336  1.00  0.00     0.293 HD
ENDBRANCH   2  24
BRANCH   6  26
ATOM     26  O   UNL     1       8.731  36.123  75.877  1.00  0.00    -0.507 OA
ATOM     27  H   UNL     1       9.695  36.299  75.638  1.00  0.00     0.293 HD
ENDBRANCH   6  26
BRANCH   8  28
ATOM     28  O   UNL     1       4.877  36.124  78.742  1.00  0.00    -0.508 OA
ATOM     29  H   UNL     1       4.267  35.427  78.331  1.00  0.00     0.293 HD
ENDBRANCH   8  28
TORSDOF 7
ENDMDL
MODEL 2
REMARK VINA RESULT:    -2.917      0.147      1.752
REMARK INTER + INTRA:          -3.146
REMARK INTER:                  -3.569
REMARK INTRA:                   0.423
REMARK UNBOUND:                 0.453
REMARK SMILES O=c1c(O)c(-c2cc(O)c(O)c(O)c2)oc2cc(O)cc(O)c12
REMARK SMILES IDX 5 1 3 2 2 3 1 4 23 5 21 6 20 7 18 8 17 9 16 10 15 11 6 12
REMARK SMILES IDX 7 13 8 14 14 15 10 16 12 17 9 18 11 20 13 22 4 24 22 26
REMARK SMILES IDX 19 28
REMARK H PARENT 9 19 11 21 13 23 4 25 22 27 19 29
REMARK Flexibility Score: inf
ROOT
ATOM      1  C   UNL     1      10.561  35.706  80.690  1.00  0.00     0.180 A 
ATOM      2  C   UNL     1      11.233  35.622  79.458  1.00  0.00     0.208 A 
ATOM      3  C   UNL     1      10.489  35.698  78.270  1.00  0.00     0.238 A 
ATOM      4  O   UNL     1      11.090  35.568  77.171  1.00  0.00    -0.285 OA
ATOM      5  C   UNL     1       9.085  35.872  78.327  1.00  0.00     0.111 A 
ATOM      6  C   UNL     1       8.238  36.002  77.186  1.00  0.00     0.134 A 
ATOM      7  C   UNL     1       6.847  36.039  77.359  1.00  0.00     0.093 A 
ATOM      8  C   UNL     1       6.280  36.018  78.635  1.00  0.00     0.123 A 
ATOM      9  C   UNL     1       7.103  35.951  79.757  1.00  0.00     0.094 A 
ATOM     10  C   UNL     1       8.490  35.876  79.616  1.00  0.00     0.146 A 
ATOM     11  O   UNL     1       9.236  35.803  80.711  1.00  0.00    -0.452 OA
ENDROOT
BRANCH   1  12
ATOM     12  C   UNL     1      11.278  35.659  81.984  1.00  0.00     0.029 A 
ATOM     13  C   UNL     1      12.682  35.689  82.043  1.00  0.00     0.062 A 
ATOM     14  C   UNL     1      13.344  35.668  83.278  1.00  0.00     0.162 A 
ATOM     15  C   UNL     1      10.545  35.642  83.180  1.00  0.00     0.062 A 
ATOM     16  C   UNL     1      12.602  35.627  84.471  1.00  0.00     0.200 A 
ATOM     17  C   UNL     1      11.198  35.619  84.418  1.00  0.00     0.162 A 
BRANCH  14  18
ATOM     18  O   UNL     1      14.738  35.692  83.324  1.00  0.00    -0.504 OA
ATOM     19  H   UNL     1      15.244  35.475  84.174  1.00  0.00     0.293 HD
ENDBRANCH  14  18
BRANCH  16  20
ATOM     20  O   UNL     1      13.245  35.601  85.709  1.00  0.00    -0.502 OA
ATOM     21  H   UNL     1      13.333  36.427  86.289  1.00  0.00     0.293 HD
ENDBRANCH  16  20
BRANCH  17  22
ATOM     22  O   UNL     1      10.433  35.587  85.583  1.00  0.00    -0.504 OA
ATOM     23  H   UNL     1      10.105  34.719  85.989  1.00  0.00     0.293 HD
ENDBRANCH  17  22
ENDBRANCH   1  12
BRANCH   2  24
ATOM     24  O   UNL     1      12.617  35.428  79.425  1.00  0.00    -0.502 OA
ATOM     25  H   UNL     1      13.135  35.358  78.558  1.00  0.00     0.293 HD
ENDBRANCH   2  24
BRANCH   6  26
ATOM     26  O   UNL     1       8.707  36.125  75.875  1.00  0.00    -0.507 OA
ATOM     27  H   UNL     1       8.269  35.711  75.067  1.00  0.00     0.293 HD
ENDBRANCH   6  26
BRANCH   8  28
ATOM     28  O   UNL     1       4.897  36.070  78.798  1.00  0.00    -0.508 OA
ATOM     29  H   UNL     1       4.336  35.228  78.842  1.00  0.00     0.293 HD
ENDBRANCH   8  28
TORSDOF 7
ENDMDL
MODEL 3
REMARK VINA RESULT:    -2.429      1.559      3.142
REMARK INTER + INTRA:          -2.544
REMARK INTER:                  -2.845
REMARK INTRA:                   0.301
REMARK UNBOUND:                 0.453
REMARK SMILES O=c1c(O)c(-c2cc(O)c(O)c(O)c2)oc2cc(O)cc(O)c12
REMARK SMILES IDX 5 1 3 2 2 3 1 4 23 5 21 6 20 7 18 8 17 9 16 10 15 11 6 12
REMARK SMILES IDX 7 13 8 14 14 15 10 16 12 17 9 18 11 20 13 22 4 24 22 26
REMARK SMILES IDX 19 28
REMARK H PARENT 9 19 11 21 13 23 4 25 22 27 19 29
REMARK Flexibility Score: inf
ROOT
ATOM      1  C   UNL     1      10.862  35.438  81.610  1.00  0.00     0.180 A 
ATOM      2  C   UNL     1       9.476  35.657  81.515  1.00  0.00     0.208 A 
ATOM      3  C   UNL     1       8.907  35.876  80.250  1.00  0.00     0.238 A 
ATOM      4  O   UNL     1       7.675  36.125  80.176  1.00  0.00    -0.285 OA
ATOM      5  C   UNL     1       9.727  35.859  79.095  1.00  0.00     0.111 A 
ATOM      6  C   UNL     1       9.251  36.030  77.761  1.00  0.00     0.134 A 
ATOM      7  C   UNL     1      10.169  36.125  76.707  1.00  0.00     0.093 A 
ATOM      8  C   UNL     1      11.541  35.989  76.932  1.00  0.00     0.123 A 
ATOM      9  C   UNL     1      12.010  35.763  78.224  1.00  0.00     0.094 A 
ATOM     10  C   UNL     1      11.123  35.700  79.301  1.00  0.00     0.146 A 
ATOM     11  O   UNL     1      11.613  35.493  80.517  1.00  0.00    -0.452 OA
ENDROOT
BRANCH   1  12
ATOM     12  C   UNL     1      11.530  35.175  82.905  1.00  0.00     0.029 A 
ATOM     13  C   UNL     1      10.816  34.676  84.008  1.00  0.00     0.062 A 
ATOM     14  C   UNL     1      11.470  34.411  85.219  1.00  0.00     0.162 A 
ATOM     15  C   UNL     1      12.914  35.371  83.020  1.00  0.00     0.062 A 
ATOM     16  C   UNL     1      12.854  34.633  85.332  1.00  0.00     0.200 A 
ATOM     17  C   UNL     1      13.575  35.110  84.225  1.00  0.00     0.162 A 
BRANCH  14  18
ATOM     18  O   UNL     1      10.751  33.922  86.309  1.00  0.00    -0.504 OA
ATOM     19  H   UNL     1      10.609  34.478  87.143  1.00  0.00     0.293 HD
ENDBRANCH  14  18
BRANCH  16  20
ATOM     20  O   UNL     1      13.520  34.378  86.531  1.00  0.00    -0.502 OA
ATOM     21  H   UNL     1      13.960  33.486  86.726  1.00  0.00     0.293 HD
ENDBRANCH  16  20
BRANCH  17  22
ATOM     22  O   UNL     1      14.950  35.333  84.302  1.00  0.00    -0.504 OA
ATOM     23  H   UNL     1      15.519  34.939  85.042  1.00  0.00     0.293 HD
ENDBRANCH  17  22
ENDBRANCH   1  12
BRANCH   2  24
ATOM     24  O   UNL     1       8.689  35.691  82.669  1.00  0.00    -0.502 OA
ATOM     25  H   UNL     1       8.372  36.559  83.085  1.00  0.00     0.293 HD
ENDBRANCH   2  24
BRANCH   6  26
ATOM     26  O   UNL     1       7.897  36.083  77.416  1.00  0.00    -0.507 OA
ATOM     27  H   UNL     1       7.144  36.236  78.069  1.00  0.00     0.293 HD
ENDBRANCH   6  26
BRANCH   8  28
ATOM     28  O   UNL     1      12.446  36.070  75.876  1.00  0.00    -0.508 OA
ATOM     29  H   UNL     1      12.584  36.931  75.361  1.00  0.00     0.293 HD
ENDBRANCH   8  28
TORSDOF 7
ENDMDL
MODEL 4
REMARK VINA RESULT:    -1.878      1.574      3.586
REMARK INTER + INTRA:          -1.864
REMARK INTER:                  -2.245
REMARK INTRA:                   0.380
REMARK UNBOUND:                 0.453
REMARK SMILES O=c1c(O)c(-c2cc(O)c(O)c(O)c2)oc2cc(O)cc(O)c12
REMARK SMILES IDX 5 1 3 2 2 3 1 4 23 5 21 6 20 7 18 8 17 9 16 10 15 11 6 12
REMARK SMILES IDX 7 13 8 14 14 15 10 16 12 17 9 18 11 20 13 22 4 24 22 26
REMARK SMILES IDX 19 28
REMARK H PARENT 9 19 11 21 13 23 4 25 22 27 19 29
REMARK Flexibility Score: inf
ROOT
ATOM      1  C   UNL     1      10.936  35.346  81.698  1.00  0.00     0.180 A 
ATOM      2  C   UNL     1       9.552  35.596  81.695  1.00  0.00     0.208 A 
ATOM      3  C   UNL     1       8.908  35.848  80.473  1.00  0.00     0.238 A 
ATOM      4  O   UNL     1       7.680  36.125  80.483  1.00  0.00    -0.285 OA
ATOM      5  C   UNL     1       9.651  35.832  79.268  1.00  0.00     0.111 A 
ATOM      6  C   UNL     1       9.094  36.034  77.970  1.00  0.00     0.134 A 
ATOM      7  C   UNL     1       9.944  36.125  76.860  1.00  0.00     0.093 A 
ATOM      8  C   UNL     1      11.324  35.956  76.994  1.00  0.00     0.123 A 
ATOM      9  C   UNL     1      11.870  35.699  78.249  1.00  0.00     0.094 A 
ATOM     10  C   UNL     1      11.053  35.639  79.380  1.00  0.00     0.146 A 
ATOM     11  O   UNL     1      11.616  35.402  80.559  1.00  0.00    -0.452 OA
ENDROOT
BRANCH   1  12
ATOM     12  C   UNL     1      11.680  35.048  82.942  1.00  0.00     0.029 A 
ATOM     13  C   UNL     1      13.061  35.289  83.044  1.00  0.00     0.062 A 
ATOM     14  C   UNL     1      13.745  35.023  84.238  1.00  0.00     0.162 A 
ATOM     15  C   UNL     1      10.986  34.569  84.064  1.00  0.00     0.062 A 
ATOM     16  C   UNL     1      13.046  34.522  85.350  1.00  0.00     0.200 A 
ATOM     17  C   UNL     1      11.662  34.299  85.259  1.00  0.00     0.162 A 
BRANCH  14  18
ATOM     18  O   UNL     1      15.116  35.261  84.325  1.00  0.00    -0.504 OA
ATOM     19  H   UNL     1      15.645  35.614  83.536  1.00  0.00     0.293 HD
ENDBRANCH  14  18
BRANCH  16  20
ATOM     20  O   UNL     1      13.712  34.247  86.545  1.00  0.00    -0.502 OA
ATOM     21  H   UNL     1      14.719  34.311  86.628  1.00  0.00     0.293 HD
ENDBRANCH  16  20
BRANCH  17  22
ATOM     22  O   UNL     1      10.938  33.810  86.347  1.00  0.00    -0.504 OA
ATOM     23  H   UNL     1      11.081  34.156  87.288  1.00  0.00     0.293 HD
ENDBRANCH  17  22
ENDBRANCH   1  12
BRANCH   2  24
ATOM     24  O   UNL     1       8.842  35.630  82.899  1.00  0.00    -0.502 OA
ATOM     25  H   UNL     1       8.642  36.495  83.387  1.00  0.00     0.293 HD
ENDBRANCH   2  24
BRANCH   6  26
ATOM     26  O   UNL     1       7.722  36.122  77.714  1.00  0.00    -0.507 OA
ATOM     27  H   UNL     1       7.086  36.734  78.200  1.00  0.00     0.293 HD
ENDBRANCH   6  26
BRANCH   8  28
ATOM     28  O   UNL     1      12.161  36.034  75.882  1.00  0.00    -0.508 OA
ATOM     29  H   UNL     1      13.159  36.172  75.980  1.00  0.00     0.293 HD
ENDBRANCH   8  28
TORSDOF 7
ENDMDL
MODEL 5
REMARK VINA RESULT:    -0.782      0.972      6.981
REMARK INTER + INTRA:          -0.512
REMARK INTER:                  -0.945
REMARK INTRA:                   0.432
REMARK UNBOUND:                 0.453
REMARK SMILES O=c1c(O)c(-c2cc(O)c(O)c(O)c2)oc2cc(O)cc(O)c12
REMARK SMILES IDX 5 1 3 2 2 3 1 4 23 5 21 6 20 7 18 8 17 9 16 10 15 11 6 12
REMARK SMILES IDX 7 13 8 14 14 15 10 16 12 17 9 18 11 20 13 22 4 24 22 26
REMARK SMILES IDX 19 28
REMARK H PARENT 9 19 11 21 13 23 4 25 22 27 19 29
REMARK Flexibility Score: inf
ROOT
ATOM      1  C   UNL     1       9.867  35.863  80.619  1.00  0.00     0.180 A 
ATOM      2  C   UNL     1      11.236  35.918  80.302  1.00  0.00     0.208 A 
ATOM      3  C   UNL     1      12.179  35.803  81.336  1.00  0.00     0.238 A 
ATOM      4  O   UNL     1      13.401  35.907  81.053  1.00  0.00    -0.285 OA
ATOM      5  C   UNL     1      11.744  35.620  82.671  1.00  0.00     0.111 A 
ATOM      6  C   UNL     1      12.612  35.452  83.791  1.00  0.00     0.134 A 
ATOM      7  C   UNL     1      12.072  35.409  85.083  1.00  0.00     0.093 A 
ATOM      8  C   UNL     1      10.692  35.461  85.289  1.00  0.00     0.123 A 
ATOM      9  C   UNL     1       9.833  35.566  84.197  1.00  0.00     0.094 A 
ATOM     10  C   UNL     1      10.343  35.648  82.899  1.00  0.00     0.146 A 
ATOM     11  O   UNL     1       9.489  35.756  81.888  1.00  0.00    -0.452 OA
ENDROOT
BRANCH   1  12
ATOM     12  C   UNL     1       8.814  35.951  79.582  1.00  0.00     0.029 A 
ATOM     13  C   UNL     1       9.135  35.974  78.214  1.00  0.00     0.062 A 
ATOM     14  C   UNL     1       8.125  36.034  77.245  1.00  0.00     0.162 A 
ATOM     15  C   UNL     1       7.465  35.954  79.966  1.00  0.00     0.062 A 
ATOM     16  C   UNL     1       6.776  36.060  77.640  1.00  0.00     0.200 A 
ATOM     17  C   UNL     1       6.449  36.016  79.006  1.00  0.00     0.162 A 
BRANCH  14  18
ATOM     18  O   UNL     1       8.456  36.062  75.891  1.00  0.00    -0.504 OA
ATOM     19  H   UNL     1       8.761  35.229  75.402  1.00  0.00     0.293 HD
ENDBRANCH  14  18
BRANCH  16  20
ATOM     20  O   UNL     1       5.756  36.125  76.689  1.00  0.00    -0.502 OA
ATOM     21  H   UNL     1       5.866  36.622  75.814  1.00  0.00     0.293 HD
ENDBRANCH  16  20
BRANCH  17  22
ATOM     22  O   UNL     1       5.121  36.032  79.430  1.00  0.00    -0.504 OA
ATOM     23  H   UNL     1       4.615  36.896  79.588  1.00  0.00     0.293 HD
ENDBRANCH  17  22
ENDBRANCH   1  12
BRANCH   2  24
ATOM     24  O   UNL     1      11.643  36.122  78.981  1.00  0.00    -0.502 OA
ATOM     25  H   UNL     1      12.099  35.400  78.435  1.00  0.00     0.293 HD
ENDBRANCH   2  24
BRANCH   6  26
ATOM     26  O   UNL     1      13.997  35.296  83.687  1.00  0.00    -0.507 OA
ATOM     27  H   UNL     1      14.499  35.179  82.821  1.00  0.00     0.293 HD
ENDBRANCH   6  26
BRANCH   8  28
ATOM     28  O   UNL     1      10.163  35.403  86.576  1.00  0.00    -0.508 OA
ATOM     29  H   UNL     1      10.457  36.047  87.300  1.00  0.00     0.293 HD
ENDBRANCH   8  28
TORSDOF 7
ENDMDL
