MODEL 1
REMARK VINA RESULT:    -3.623      0.000      0.000
REMARK INTER + INTRA:          -4.515
REMARK INTER:                  -4.470
REMARK INTRA:                  -0.044
REMARK UNBOUND:                -0.044
REMARK SMILES CCCCCC(=O)[O-]
REMARK SMILES IDX 4 1 5 2 6 3 7 4 8 5 3 6 2 7 1 8
REMARK H PARENT
REMARK Flexibility Score: inf
ROOT
ATOM      1  C   UNL     1      -9.927 -25.720  27.255  1.00  0.00     0.006 C 
ENDROOT
BRANCH   1   2
ATOM      2  C   UNL     1      -8.975 -25.955  28.434  1.00  0.00     0.053 C 
BRANCH   2   3
ATOM      3  C   UNL     1      -8.036 -27.092  28.173  1.00  0.00     0.041 C 
ATOM      4  O   UNL     1      -6.999 -27.231  28.875  1.00  0.00    -0.550 OA
ATOM      5  O   UNL     1      -8.323 -28.018  27.178  1.00  0.00    -0.550 OA
ENDBRANCH   2   3
ENDBRANCH   1   2
BRANCH   1   6
ATOM      6  C   UNL     1     -10.324 -24.243  27.112  1.00  0.00     0.000 C 
BRANCH   6   7
ATOM      7  C   UNL     1     -11.024 -23.990  25.772  1.00  0.00    -0.003 C 
ATOM      8  C   UNL     1     -11.731 -22.637  25.765  1.00  0.00     0.004 C 
ENDBRANCH   6   7
ENDBRANCH   1   6
TORSDOF 4
ENDMDL
MODEL 2
REMARK VINA RESULT:    -3.612      1.064      1.449
REMARK INTER + INTRA:          -4.501
REMARK INTER:                  -4.408
REMARK INTRA:                  -0.093
REMARK UNBOUND:                -0.044
REMARK SMILES CCCCCC(=O)[O-]
REMARK SMILES IDX 4 1 5 2 6 3 7 4 8 5 3 6 2 7 1 8
REMARK H PARENT
REMARK Flexibility Score: inf
ROOT
ATOM      1  C   UNL     1     -10.123 -24.616  26.831  1.00  0.00     0.006 C 
ENDROOT
BRANCH   1   2
ATOM      2  C   UNL     1     -10.223 -25.914  27.643  1.00  0.00     0.053 C 
BRANCH   2   3
ATOM      3  C   UNL     1      -8.937 -26.232  28.342  1.00  0.00     0.041 C 
ATOM      4  O   UNL     1      -8.569 -25.547  29.333  1.00  0.00    -0.550 OA
ATOM      5  O   UNL     1      -8.162 -27.306  27.921  1.00  0.00    -0.550 OA
ENDBRANCH   2   3
ENDBRANCH   1   2
BRANCH   1   6
ATOM      6  C   UNL     1     -11.070 -24.612  25.622  1.00  0.00     0.000 C 
BRANCH   6   7
ATOM      7  C   UNL     1     -11.665 -23.218  25.396  1.00  0.00    -0.003 C 
ATOM      8  C   UNL     1     -11.174 -22.230  26.450  1.00  0.00     0.004 C 
ENDBRANCH   6   7
ENDBRANCH   1   6
TORSDOF 4
ENDMDL
MODEL 3
REMARK VINA RESULT:    -3.592      1.089      1.214
REMARK INTER + INTRA:          -4.477
REMARK INTER:                  -4.346
REMARK INTRA:                  -0.131
REMARK UNBOUND:                -0.044
REMARK SMILES CCCCCC(=O)[O-]
REMARK SMILES IDX 4 1 5 2 6 3 7 4 8 5 3 6 2 7 1 8
REMARK H PARENT
REMARK Flexibility Score: inf
ROOT
ATOM      1  C   UNL     1     -10.056 -24.698  27.235  1.00  0.00     0.006 C 
ENDROOT
BRANCH   1   2
ATOM      2  C   UNL     1     -10.246 -25.984  28.051  1.00  0.00     0.053 C 
BRANCH   2   3
ATOM      3  C   UNL     1      -9.255 -27.038  27.666  1.00  0.00     0.041 C 
ATOM      4  O   UNL     1      -8.108 -27.050  28.188  1.00  0.00    -0.550 OA
ATOM      5  O   UNL     1      -9.608 -28.028  26.756  1.00  0.00    -0.550 OA
ENDBRANCH   2   3
ENDBRANCH   1   2
BRANCH   1   6
ATOM      6  C   UNL     1     -10.748 -24.770  25.866  1.00  0.00     0.000 C 
BRANCH   6   7
ATOM      7  C   UNL     1     -11.449 -23.447  25.536  1.00  0.00    -0.003 C 
ATOM      8  C   UNL     1     -11.051 -22.351  26.520  1.00  0.00     0.004 C 
ENDBRANCH   6   7
ENDBRANCH   1   6
TORSDOF 4
ENDMDL
MODEL 4
REMARK VINA RESULT:    -3.432      2.880      4.383
REMARK INTER + INTRA:          -4.279
REMARK INTER:                  -4.079
REMARK INTRA:                  -0.200
REMARK UNBOUND:                -0.044
REMARK SMILES CCCCCC(=O)[O-]
REMARK SMILES IDX 4 1 5 2 6 3 7 4 8 5 3 6 2 7 1 8
REMARK H PARENT
REMARK Flexibility Score: inf
ROOT
ATOM      1  C   UNL     1      -9.090 -25.847  28.014  1.00  0.00     0.006 C 
ENDROOT
BRANCH   1   2
ATOM      2  C   UNL     1     -10.438 -25.115  27.971  1.00  0.00     0.053 C 
BRANCH   2   3
ATOM      3  C   UNL     1     -10.672 -24.457  26.646  1.00  0.00     0.041 C 
ATOM      4  O   UNL     1     -10.782 -25.155  25.603  1.00  0.00    -0.550 OA
ATOM      5  O   UNL     1     -10.802 -23.076  26.567  1.00  0.00    -0.550 OA
ENDBRANCH   2   3
ENDBRANCH   1   2
BRANCH   1   6
ATOM      6  C   UNL     1      -9.253 -27.353  28.267  1.00  0.00     0.000 C 
BRANCH   6   7
ATOM      7  C   UNL     1      -9.577 -28.095  26.965  1.00  0.00    -0.003 C 
ATOM      8  C   UNL     1     -10.926 -28.804  27.055  1.00  0.00     0.004 C 
ENDBRANCH   6   7
ENDBRANCH   1   6
TORSDOF 4
ENDMDL
MODEL 5
REMARK VINA RESULT:    -3.428      2.335      2.869
REMARK INTER + INTRA:          -4.275
REMARK INTER:                  -4.155
REMARK INTRA:                  -0.119
REMARK UNBOUND:                -0.044
REMARK SMILES CCCCCC(=O)[O-]
REMARK SMILES IDX 4 1 5 2 6 3 7 4 8 5 3 6 2 7 1 8
REMARK H PARENT
REMARK Flexibility Score: inf
ROOT
ATOM      1  C   UNL     1      -9.837 -26.262  27.750  1.00  0.00     0.006 C 
ENDROOT
BRANCH   1   2
ATOM      2  C   UNL     1     -10.905 -27.202  28.324  1.00  0.00     0.053 C 
BRANCH   2   3
ATOM      3  C   UNL     1     -11.554 -28.025  27.254  1.00  0.00     0.041 C 
ATOM      4  O   UNL     1     -11.047 -29.125  26.906  1.00  0.00    -0.550 OA
ATOM      5  O   UNL     1     -12.737 -27.595  26.664  1.00  0.00    -0.550 OA
ENDBRANCH   2   3
ENDBRANCH   1   2
BRANCH   1   6
ATOM      6  C   UNL     1     -10.287 -24.794  27.760  1.00  0.00     0.000 C 
BRANCH   6   7
ATOM      7  C   UNL     1     -10.570 -24.298  26.338  1.00  0.00    -0.003 C 
ATOM      8  C   UNL     1     -11.076 -22.858  26.346  1.00  0.00     0.004 C 
ENDBRANCH   6   7
ENDBRANCH   1   6
TORSDOF 4
ENDMDL
MODEL 6
REMARK VINA RESULT:    -3.390      2.334      3.794
REMARK INTER + INTRA:          -4.228
REMARK INTER:                  -3.998
REMARK INTRA:                  -0.229
REMARK UNBOUND:                -0.044
REMARK SMILES CCCCCC(=O)[O-]
REMARK SMILES IDX 4 1 5 2 6 3 7 4 8 5 3 6 2 7 1 8
REMARK H PARENT
REMARK Flexibility Score: inf
ROOT
ATOM      1  C   UNL     1     -10.394 -26.095  29.213  1.00  0.00     0.006 C 
ENDROOT
BRANCH   1   2
ATOM      2  C   UNL     1      -9.169 -25.772  28.348  1.00  0.00     0.053 C 
BRANCH   2   3
ATOM      3  C   UNL     1      -8.276 -26.963  28.183  1.00  0.00     0.041 C 
ATOM      4  O   UNL     1      -8.528 -27.826  27.301  1.00  0.00    -0.550 OA
ATOM      5  O   UNL     1      -7.146 -27.103  28.979  1.00  0.00    -0.550 OA
ENDBRANCH   2   3
ENDBRANCH   1   2
BRANCH   1   6
ATOM      6  C   UNL     1     -10.147 -25.809  30.702  1.00  0.00     0.000 C 
BRANCH   6   7
ATOM      7  C   UNL     1      -9.254 -24.576  30.883  1.00  0.00    -0.003 C 
ATOM      8  C   UNL     1      -8.132 -24.849  31.881  1.00  0.00     0.004 C 
ENDBRANCH   6   7
ENDBRANCH   1   6
TORSDOF 4
ENDMDL
MODEL 7
REMARK VINA RESULT:    -3.363      2.415      4.182
REMARK INTER + INTRA:          -4.194
REMARK INTER:                  -4.075
REMARK INTRA:                  -0.120
REMARK UNBOUND:                -0.044
REMARK SMILES CCCCCC(=O)[O-]
REMARK SMILES IDX 4 1 5 2 6 3 7 4 8 5 3 6 2 7 1 8
REMARK H PARENT
REMARK Flexibility Score: inf
ROOT
ATOM      1  C   UNL     1      -9.948 -25.636  29.875  1.00  0.00     0.006 C 
ENDROOT
BRANCH   1   2
ATOM      2  C   UNL     1      -9.237 -25.596  28.517  1.00  0.00     0.053 C 
BRANCH   2   3
ATOM      3  C   UNL     1      -8.476 -26.858  28.249  1.00  0.00     0.041 C 
ATOM      4  O   UNL     1      -8.823 -27.619  27.308  1.00  0.00    -0.550 OA
ATOM      5  O   UNL     1      -7.363 -27.178  29.018  1.00  0.00    -0.550 OA
ENDBRANCH   2   3
ENDBRANCH   1   2
BRANCH   1   6
ATOM      6  C   UNL     1      -9.227 -24.791  30.936  1.00  0.00     0.000 C 
BRANCH   6   7
ATOM      7  C   UNL     1      -9.414 -25.390  32.334  1.00  0.00    -0.003 C 
ATOM      8  C   UNL     1     -10.725 -26.165  32.433  1.00  0.00     0.004 C 
ENDBRANCH   6   7
ENDBRANCH   1   6
TORSDOF 4
ENDMDL
MODEL 8
REMARK VINA RESULT:    -3.356      1.636      2.478
REMARK INTER + INTRA:          -4.185
REMARK INTER:                  -3.993
REMARK INTRA:                  -0.192
REMARK UNBOUND:                -0.044
REMARK SMILES CCCCCC(=O)[O-]
REMARK SMILES IDX 4 1 5 2 6 3 7 4 8 5 3 6 2 7 1 8
REMARK H PARENT
REMARK Flexibility Score: inf
ROOT
ATOM      1  C   UNL     1      -9.379 -27.253  29.948  1.00  0.00     0.006 C 
ENDROOT
BRANCH   1   2
ATOM      2  C   UNL     1      -8.012 -26.594  29.726  1.00  0.00     0.053 C 
BRANCH   2   3
ATOM      3  C   UNL     1      -7.225 -27.291  28.659  1.00  0.00     0.041 C 
ATOM      4  O   UNL     1      -5.990 -27.489  28.810  1.00  0.00    -0.550 OA
ATOM      5  O   UNL     1      -7.861 -27.752  27.513  1.00  0.00    -0.550 OA
ENDBRANCH   2   3
ENDBRANCH   1   2
BRANCH   1   6
ATOM      6  C   UNL     1     -10.540 -26.273  29.728  1.00  0.00     0.000 C 
BRANCH   6   7
ATOM      7  C   UNL     1     -10.066 -25.018  28.986  1.00  0.00    -0.003 C 
ATOM      8  C   UNL     1     -10.478 -25.057  27.517  1.00  0.00     0.004 C 
ENDBRANCH   6   7
ENDBRANCH   1   6
TORSDOF 4
ENDMDL
MODEL 9
REMARK VINA RESULT:    -3.321      4.096      4.895
REMARK INTER + INTRA:          -4.141
REMARK INTER:                  -3.969
REMARK INTRA:                  -0.172
REMARK UNBOUND:                -0.044
REMARK SMILES CCCCCC(=O)[O-]
REMARK SMILES IDX 4 1 5 2 6 3 7 4 8 5 3 6 2 7 1 8
REMARK H PARENT
REMARK Flexibility Score: inf
ROOT
ATOM      1  C   UNL     1      -8.860 -24.581  31.659  1.00  0.00     0.006 C 
ENDROOT
BRANCH   1   2
ATOM      2  C   UNL     1      -7.399 -24.178  31.424  1.00  0.00     0.053 C 
BRANCH   2   3
ATOM      3  C   UNL     1      -6.466 -25.335  31.608  1.00  0.00     0.041 C 
ATOM      4  O   UNL     1      -6.876 -26.400  32.142  1.00  0.00    -0.550 OA
ATOM      5  O   UNL     1      -5.153 -25.250  31.162  1.00  0.00    -0.550 OA
ENDBRANCH   2   3
ENDBRANCH   1   2
BRANCH   1   6
ATOM      6  C   UNL     1      -9.589 -24.919  30.350  1.00  0.00     0.000 C 
BRANCH   6   7
ATOM      7  C   UNL     1     -10.563 -26.086  30.549  1.00  0.00    -0.003 C 
ATOM      8  C   UNL     1     -10.796 -26.363  32.032  1.00  0.00     0.004 C 
ENDBRANCH   6   7
ENDBRANCH   1   6
TORSDOF 4
ENDMDL
