MODEL 1
REMARK VINA RESULT:    -4.312      0.000      0.000
REMARK INTER + INTRA:          -4.962
REMARK INTER:                  -4.690
REMARK INTRA:                  -0.272
REMARK UNBOUND:                -0.272
REMARK SMILES CC(=O)c1cc(C)ccc1O
REMARK SMILES IDX 7 1 6 2 5 3 4 4 10 5 9 6 8 7 2 8 3 9 1 10 11 11
REMARK H PARENT 11 12
REMARK Flexibility Score: inf
ROOT
ATOM      1  C   UNL     1       5.875 -33.397  14.521  1.00  0.00     0.044 C 
ATOM      2  C   UNL     1       7.285 -32.908  14.675  1.00  0.00    -0.050 A 
ATOM      3  C   UNL     1       7.725 -32.401  15.906  1.00  0.00     0.019 A 
ATOM      4  C   UNL     1       9.032 -31.896  16.057  1.00  0.00     0.059 A 
ATOM      5  C   UNL     1       9.904 -31.917  14.944  1.00  0.00     0.126 A 
ATOM      6  C   UNL     1       9.448 -32.403  13.709  1.00  0.00     0.047 A 
ATOM      7  C   UNL     1       8.148 -32.887  13.573  1.00  0.00     0.007 A 
ENDROOT
BRANCH   4   8
ATOM      8  C   UNL     1       9.446 -31.369  17.385  1.00  0.00     0.163 C 
ATOM      9  O   UNL     1      10.357 -30.499  17.448  1.00  0.00    -0.294 OA
ATOM     10  C   UNL     1       8.818 -31.832  18.665  1.00  0.00     0.093 C 
ENDBRANCH   4   8
BRANCH   5  11
ATOM     11  O   UNL     1      11.222 -31.478  15.057  1.00  0.00    -0.507 OA
ATOM     12  H   UNL     1      11.607 -31.166  15.940  1.00  0.00     0.293 HD
ENDBRANCH   5  11
TORSDOF 2
ENDMDL
MODEL 2
REMARK VINA RESULT:    -3.890      1.330      2.997
REMARK INTER + INTRA:          -4.503
REMARK INTER:                  -4.229
REMARK INTRA:                  -0.273
REMARK UNBOUND:                -0.272
REMARK SMILES CC(=O)c1cc(C)ccc1O
REMARK SMILES IDX 7 1 6 2 5 3 4 4 10 5 9 6 8 7 2 8 3 9 1 10 11 11
REMARK H PARENT 11 12
REMARK Flexibility Score: inf
ROOT
ATOM      1  C   UNL     1       6.370 -34.310  12.930  1.00  0.00     0.044 C 
ATOM      2  C   UNL     1       7.222 -33.485  13.848  1.00  0.00    -0.050 A 
ATOM      3  C   UNL     1       8.566 -33.238  13.532  1.00  0.00     0.019 A 
ATOM      4  C   UNL     1       9.393 -32.503  14.405  1.00  0.00     0.059 A 
ATOM      5  C   UNL     1       8.843 -32.005  15.608  1.00  0.00     0.126 A 
ATOM      6  C   UNL     1       7.504 -32.276  15.929  1.00  0.00     0.047 A 
ATOM      7  C   UNL     1       6.703 -33.017  15.061  1.00  0.00     0.007 A 
ENDROOT
BRANCH   4   8
ATOM      8  C   UNL     1      10.812 -32.273  14.021  1.00  0.00     0.163 C 
ATOM      9  O   UNL     1      11.397 -31.228  14.415  1.00  0.00    -0.294 OA
ATOM     10  C   UNL     1      11.583 -33.241  13.176  1.00  0.00     0.093 C 
ENDBRANCH   4   8
BRANCH   5  11
ATOM     11  O   UNL     1       9.606 -31.227  16.478  1.00  0.00    -0.507 OA
ATOM     12  H   UNL     1       9.193 -30.747  17.267  1.00  0.00     0.293 HD
ENDBRANCH   5  11
TORSDOF 2
ENDMDL
MODEL 3
REMARK VINA RESULT:    -3.565      1.800      2.856
REMARK INTER + INTRA:          -4.150
REMARK INTER:                  -3.844
REMARK INTRA:                  -0.305
REMARK UNBOUND:                -0.272
REMARK SMILES CC(=O)c1cc(C)ccc1O
REMARK SMILES IDX 7 1 6 2 5 3 4 4 10 5 9 6 8 7 2 8 3 9 1 10 11 11
REMARK H PARENT 11 12
REMARK Flexibility Score: inf
ROOT
ATOM      1  C   UNL     1      11.095 -33.254  12.877  1.00  0.00     0.044 C 
ATOM      2  C   UNL     1       9.873 -32.880  13.662  1.00  0.00    -0.050 A 
ATOM      3  C   UNL     1       9.990 -32.487  15.003  1.00  0.00     0.019 A 
ATOM      4  C   UNL     1       8.848 -32.175  15.769  1.00  0.00     0.059 A 
ATOM      5  C   UNL     1       7.575 -32.256  15.160  1.00  0.00     0.126 A 
ATOM      6  C   UNL     1       7.465 -32.675  13.825  1.00  0.00     0.047 A 
ATOM      7  C   UNL     1       8.603 -32.992  13.085  1.00  0.00     0.007 A 
ENDROOT
BRANCH   4   8
ATOM      8  C   UNL     1       9.030 -31.765  17.187  1.00  0.00     0.163 C 
ATOM      9  O   UNL     1       8.343 -32.323  18.085  1.00  0.00    -0.294 OA
ATOM     10  C   UNL     1      10.005 -30.704  17.598  1.00  0.00     0.093 C 
ENDBRANCH   4   8
BRANCH   5  11
ATOM     11  O   UNL     1       6.422 -31.908  15.860  1.00  0.00    -0.507 OA
ATOM     12  H   UNL     1       5.674 -31.377  15.429  1.00  0.00     0.293 HD
ENDBRANCH   5  11
TORSDOF 2
ENDMDL
MODEL 4
REMARK VINA RESULT:    -3.563      1.682      3.789
REMARK INTER + INTRA:          -4.147
REMARK INTER:                  -3.843
REMARK INTRA:                  -0.304
REMARK UNBOUND:                -0.272
REMARK SMILES CC(=O)c1cc(C)ccc1O
REMARK SMILES IDX 7 1 6 2 5 3 4 4 10 5 9 6 8 7 2 8 3 9 1 10 11 11
REMARK H PARENT 11 12
REMARK Flexibility Score: inf
ROOT
ATOM      1  C   UNL     1       8.369 -31.946  18.397  1.00  0.00     0.044 C 
ATOM      2  C   UNL     1       9.284 -31.618  17.254  1.00  0.00    -0.050 A 
ATOM      3  C   UNL     1       9.061 -32.179  15.988  1.00  0.00     0.019 A 
ATOM      4  C   UNL     1       9.937 -31.918  14.915  1.00  0.00     0.059 A 
ATOM      5  C   UNL     1      11.046 -31.068  15.132  1.00  0.00     0.126 A 
ATOM      6  C   UNL     1      11.276 -30.530  16.407  1.00  0.00     0.047 A 
ATOM      7  C   UNL     1      10.407 -30.809  17.462  1.00  0.00     0.007 A 
ENDROOT
BRANCH   4   8
ATOM      8  C   UNL     1       9.653 -32.540  13.594  1.00  0.00     0.163 C 
ATOM      9  O   UNL     1      10.600 -33.052  12.937  1.00  0.00    -0.294 OA
ATOM     10  C   UNL     1       8.276 -32.584  13.006  1.00  0.00     0.093 C 
ENDBRANCH   4   8
BRANCH   5  11
ATOM     11  O   UNL     1      11.910 -30.737  14.089  1.00  0.00    -0.507 OA
ATOM     12  H   UNL     1      11.607 -30.176  13.302  1.00  0.00     0.293 HD
ENDBRANCH   5  11
TORSDOF 2
ENDMDL
MODEL 5
REMARK VINA RESULT:    -3.503      1.888      3.597
REMARK INTER + INTRA:          -4.082
REMARK INTER:                  -3.809
REMARK INTRA:                  -0.273
REMARK UNBOUND:                -0.272
REMARK SMILES CC(=O)c1cc(C)ccc1O
REMARK SMILES IDX 7 1 6 2 5 3 4 4 10 5 9 6 8 7 2 8 3 9 1 10 11 11
REMARK H PARENT 11 12
REMARK Flexibility Score: inf
ROOT
ATOM      1  C   UNL     1       8.602 -31.614  18.420  1.00  0.00     0.044 C 
ATOM      2  C   UNL     1       8.553 -31.980  16.965  1.00  0.00    -0.050 A 
ATOM      3  C   UNL     1       9.713 -31.908  16.181  1.00  0.00     0.019 A 
ATOM      4  C   UNL     1       9.676 -32.204  14.803  1.00  0.00     0.059 A 
ATOM      5  C   UNL     1       8.446 -32.588  14.221  1.00  0.00     0.126 A 
ATOM      6  C   UNL     1       7.285 -32.634  15.007  1.00  0.00     0.047 A 
ATOM      7  C   UNL     1       7.336 -32.325  16.366  1.00  0.00     0.007 A 
ENDROOT
BRANCH   4   8
ATOM      8  C   UNL     1      10.936 -32.109  14.018  1.00  0.00     0.163 C 
ATOM      9  O   UNL     1      11.097 -32.858  13.016  1.00  0.00    -0.294 OA
ATOM     10  C   UNL     1      12.033 -31.152  14.372  1.00  0.00     0.093 C 
ENDBRANCH   4   8
BRANCH   5  11
ATOM     11  O   UNL     1       8.370 -32.942  12.875  1.00  0.00    -0.507 OA
ATOM     12  H   UNL     1       7.485 -33.145  12.425  1.00  0.00     0.293 HD
ENDBRANCH   5  11
TORSDOF 2
ENDMDL
MODEL 6
REMARK VINA RESULT:    -3.493      2.332      3.521
REMARK INTER + INTRA:          -4.071
REMARK INTER:                  -3.765
REMARK INTRA:                  -0.306
REMARK UNBOUND:                -0.272
REMARK SMILES CC(=O)c1cc(C)ccc1O
REMARK SMILES IDX 7 1 6 2 5 3 4 4 10 5 9 6 8 7 2 8 3 9 1 10 11 11
REMARK H PARENT 11 12
REMARK Flexibility Score: inf
ROOT
ATOM      1  C   UNL     1      12.528 -31.120  14.166  1.00  0.00     0.044 C 
ATOM      2  C   UNL     1      11.284 -31.957  14.122  1.00  0.00    -0.050 A 
ATOM      3  C   UNL     1      10.279 -31.778  15.083  1.00  0.00     0.019 A 
ATOM      4  C   UNL     1       9.124 -32.586  15.084  1.00  0.00     0.059 A 
ATOM      5  C   UNL     1       8.987 -33.580  14.088  1.00  0.00     0.126 A 
ATOM      6  C   UNL     1      10.008 -33.769  13.144  1.00  0.00     0.047 A 
ATOM      7  C   UNL     1      11.150 -32.970  13.165  1.00  0.00     0.007 A 
ENDROOT
BRANCH   4   8
ATOM      8  C   UNL     1       8.091 -32.354  16.128  1.00  0.00     0.163 C 
ATOM      9  O   UNL     1       6.884 -32.225  15.785  1.00  0.00    -0.294 OA
ATOM     10  C   UNL     1       8.427 -32.267  17.586  1.00  0.00     0.093 C 
ENDBRANCH   4   8
BRANCH   5  11
ATOM     11  O   UNL     1       7.839 -34.368  14.015  1.00  0.00    -0.507 OA
ATOM     12  H   UNL     1       7.346 -34.672  14.845  1.00  0.00     0.293 HD
ENDBRANCH   5  11
TORSDOF 2
ENDMDL
MODEL 7
REMARK VINA RESULT:    -3.484      2.002      2.569
REMARK INTER + INTRA:          -4.061
REMARK INTER:                  -3.755
REMARK INTRA:                  -0.306
REMARK UNBOUND:                -0.272
REMARK SMILES CC(=O)c1cc(C)ccc1O
REMARK SMILES IDX 7 1 6 2 5 3 4 4 10 5 9 6 8 7 2 8 3 9 1 10 11 11
REMARK H PARENT 11 12
REMARK Flexibility Score: inf
ROOT
ATOM      1  C   UNL     1       7.267 -32.238  12.978  1.00  0.00     0.044 C 
ATOM      2  C   UNL     1       7.576 -32.868  14.304  1.00  0.00    -0.050 A 
ATOM      3  C   UNL     1       8.095 -32.092  15.350  1.00  0.00     0.019 A 
ATOM      4  C   UNL     1       8.433 -32.676  16.588  1.00  0.00     0.059 A 
ATOM      5  C   UNL     1       8.232 -34.064  16.764  1.00  0.00     0.126 A 
ATOM      6  C   UNL     1       7.736 -34.838  15.705  1.00  0.00     0.047 A 
ATOM      7  C   UNL     1       7.418 -34.247  14.482  1.00  0.00     0.007 A 
ENDROOT
BRANCH   4   8
ATOM      8  C   UNL     1       8.981 -31.806  17.662  1.00  0.00     0.163 C 
ATOM      9  O   UNL     1       8.478 -31.858  18.817  1.00  0.00    -0.294 OA
ATOM     10  C   UNL     1      10.119 -30.859  17.428  1.00  0.00     0.093 C 
ENDBRANCH   4   8
BRANCH   5  11
ATOM     11  O   UNL     1       8.502 -34.678  17.986  1.00  0.00    -0.507 OA
ATOM     12  H   UNL     1       8.159 -34.300  18.861  1.00  0.00     0.293 HD
ENDBRANCH   5  11
TORSDOF 2
ENDMDL
MODEL 8
REMARK VINA RESULT:    -3.433      2.023      4.036
REMARK INTER + INTRA:          -4.006
REMARK INTER:                  -3.727
REMARK INTRA:                  -0.279
REMARK UNBOUND:                -0.272
REMARK SMILES CC(=O)c1cc(C)ccc1O
REMARK SMILES IDX 7 1 6 2 5 3 4 4 10 5 9 6 8 7 2 8 3 9 1 10 11 11
REMARK H PARENT 11 12
REMARK Flexibility Score: inf
ROOT
ATOM      1  C   UNL     1      12.151 -31.266  14.071  1.00  0.00     0.044 C 
ATOM      2  C   UNL     1      11.121 -31.360  15.157  1.00  0.00    -0.050 A 
ATOM      3  C   UNL     1       9.943 -32.092  14.949  1.00  0.00     0.019 A 
ATOM      4  C   UNL     1       8.943 -32.154  15.942  1.00  0.00     0.059 A 
ATOM      5  C   UNL     1       9.152 -31.471  17.162  1.00  0.00     0.126 A 
ATOM      6  C   UNL     1      10.321 -30.721  17.352  1.00  0.00     0.047 A 
ATOM      7  C   UNL     1      11.294 -30.659  16.355  1.00  0.00     0.007 A 
ENDROOT
BRANCH   4   8
ATOM      8  C   UNL     1       7.713 -32.944  15.668  1.00  0.00     0.163 C 
ATOM      9  O   UNL     1       6.596 -32.359  15.642  1.00  0.00    -0.294 OA
ATOM     10  C   UNL     1       7.745 -34.422  15.421  1.00  0.00     0.093 C 
ENDBRANCH   4   8
BRANCH   5  11
ATOM     11  O   UNL     1       8.217 -31.546  18.194  1.00  0.00    -0.507 OA
ATOM     12  H   UNL     1       8.471 -31.857  19.123  1.00  0.00     0.293 HD
ENDBRANCH   5  11
TORSDOF 2
ENDMDL
MODEL 9
REMARK VINA RESULT:    -3.329     16.735     17.668
REMARK INTER + INTRA:          -3.893
REMARK INTER:                  -3.595
REMARK INTRA:                  -0.298
REMARK UNBOUND:                -0.272
REMARK SMILES CC(=O)c1cc(C)ccc1O
REMARK SMILES IDX 7 1 6 2 5 3 4 4 10 5 9 6 8 7 2 8 3 9 1 10 11 11
REMARK H PARENT 11 12
REMARK Flexibility Score: inf
ROOT
ATOM      1  C   UNL     1      17.888 -35.333  28.800  1.00  0.00     0.044 C 
ATOM      2  C   UNL     1      16.914 -35.594  29.911  1.00  0.00    -0.050 A 
ATOM      3  C   UNL     1      16.209 -34.531  30.494  1.00  0.00     0.019 A 
ATOM      4  C   UNL     1      15.324 -34.751  31.568  1.00  0.00     0.059 A 
ATOM      5  C   UNL     1      15.147 -36.070  32.047  1.00  0.00     0.126 A 
ATOM      6  C   UNL     1      15.875 -37.124  31.474  1.00  0.00     0.047 A 
ATOM      7  C   UNL     1      16.757 -36.888  30.421  1.00  0.00     0.007 A 
ENDROOT
BRANCH   4   8
ATOM      8  C   UNL     1      14.603 -33.588  32.150  1.00  0.00     0.163 C 
ATOM      9  O   UNL     1      13.387 -33.708  32.464  1.00  0.00    -0.294 OA
ATOM     10  C   UNL     1      15.267 -32.265  32.382  1.00  0.00     0.093 C 
ENDBRANCH   4   8
BRANCH   5  11
ATOM     11  O   UNL     1      14.243 -36.346  33.072  1.00  0.00    -0.507 OA
ATOM     12  H   UNL     1      14.307 -37.190  33.628  1.00  0.00     0.293 HD
ENDBRANCH   5  11
TORSDOF 2
ENDMDL
