MODEL 1
REMARK VINA RESULT:     0.000      0.000      0.000
REMARK INTER + INTRA:          -0.377
REMARK INTER:                   0.000
REMARK INTRA:                  -0.377
REMARK UNBOUND:                -0.377
REMARK SMILES Oc1cc(O)c2c(c1)O[C@@H](c1ccc(O)c(O)c1)[C@H](O)C2
REMARK SMILES IDX 21 1 19 2 10 3 9 4 7 5 8 6 2 7 3 8 4 9 6 10 20 11 11 13
REMARK SMILES IDX 18 14 12 15 16 16 13 17 14 18 17 19 15 21 5 23 1 25
REMARK H PARENT 20 12 17 20 15 22 5 24 1 26
REMARK Flexibility Score: inf
ROOT
ATOM      1  C   UNL     1      18.603  47.618  32.201  1.00  0.00     0.079 C 
ATOM      2  C   UNL     1      18.304  49.126  32.171  1.00  0.00     0.164 C 
ATOM      3  C   UNL     1      16.803  49.355  31.909  1.00  0.00     0.232 C 
ATOM      4  O   UNL     1      16.030  48.677  32.899  1.00  0.00    -0.482 OA
ATOM      5  C   UNL     1      16.386  47.419  33.396  1.00  0.00     0.131 A 
ATOM      6  C   UNL     1      15.490  46.737  34.223  1.00  0.00     0.093 A 
ATOM      7  C   UNL     1      15.812  45.471  34.720  1.00  0.00     0.122 A 
ATOM      8  C   UNL     1      17.032  44.882  34.381  1.00  0.00     0.092 A 
ATOM      9  C   UNL     1      17.943  45.550  33.552  1.00  0.00     0.126 A 
ATOM     10  C   UNL     1      17.639  46.850  33.082  1.00  0.00     0.039 A 
ENDROOT
BRANCH   2  11
ATOM     11  O   UNL     1      19.075  49.722  31.160  1.00  0.00    -0.389 OA
ATOM     12  H   UNL     1      19.614  49.001  30.741  1.00  0.00     0.211 HD
ENDBRANCH   2  11
BRANCH   3  13
ATOM     13  C   UNL     1      16.459  50.826  31.923  1.00  0.00    -0.001 A 
ATOM     14  C   UNL     1      16.593  51.574  33.105  1.00  0.00     0.057 A 
ATOM     15  C   UNL     1      15.956  51.452  30.770  1.00  0.00     0.012 A 
ATOM     16  C   UNL     1      16.248  52.934  33.131  1.00  0.00     0.157 A 
ATOM     17  C   UNL     1      15.612  52.805  30.793  1.00  0.00     0.050 A 
ATOM     18  C   UNL     1      15.757  53.551  31.967  1.00  0.00     0.157 A 
BRANCH  16  19
ATOM     19  O   UNL     1      16.389  53.669  34.305  1.00  0.00    -0.504 OA
ATOM     20  H   UNL     1      15.634  54.238  34.670  1.00  0.00     0.293 HD
ENDBRANCH  16  19
BRANCH  18  21
ATOM     21  O   UNL     1      15.406  54.901  31.961  1.00  0.00    -0.504 OA
ATOM     22  H   UNL     1      15.572  55.504  32.758  1.00  0.00     0.293 HD
ENDBRANCH  18  21
ENDBRANCH   3  13
BRANCH   9  23
ATOM     23  O   UNL     1      19.125  44.890  33.209  1.00  0.00    -0.507 OA
ATOM     24  H   UNL     1      19.290  43.911  33.402  1.00  0.00     0.293 HD
ENDBRANCH   9  23
BRANCH   7  25
ATOM     25  O   UNL     1      14.926  44.786  35.548  1.00  0.00    -0.508 OA
ATOM     26  H   UNL     1      14.836  43.777  35.506  1.00  0.00     0.293 HD
ENDBRANCH   7  25
TORSDOF 6
ENDMDL
MODEL 2
REMARK VINA RESULT:     0.000      5.317      8.179
REMARK INTER + INTRA:          -0.377
REMARK INTER:                   0.000
REMARK INTRA:                  -0.377
REMARK UNBOUND:                -0.377
REMARK SMILES Oc1cc(O)c2c(c1)O[C@@H](c1ccc(O)c(O)c1)[C@H](O)C2
REMARK SMILES IDX 21 1 19 2 10 3 9 4 7 5 8 6 2 7 3 8 4 9 6 10 20 11 11 13
REMARK SMILES IDX 18 14 12 15 16 16 13 17 14 18 17 19 15 21 5 23 1 25
REMARK H PARENT 20 12 17 20 15 22 5 24 1 26
REMARK Flexibility Score: inf
ROOT
ATOM      1  C   UNL     1      11.052  42.506  31.476  1.00  0.00     0.079 C 
ATOM      2  C   UNL     1      12.355  43.308  31.319  1.00  0.00     0.164 C 
ATOM      3  C   UNL     1      12.892  43.709  32.706  1.00  0.00     0.232 C 
ATOM      4  O   UNL     1      13.076  42.544  33.509  1.00  0.00    -0.482 OA
ATOM      5  C   UNL     1      12.187  41.464  33.479  1.00  0.00     0.131 A 
ATOM      6  C   UNL     1      12.328  40.442  34.420  1.00  0.00     0.093 A 
ATOM      7  C   UNL     1      11.444  39.359  34.423  1.00  0.00     0.122 A 
ATOM      8  C   UNL     1      10.409  39.305  33.486  1.00  0.00     0.092 A 
ATOM      9  C   UNL     1      10.253  40.321  32.535  1.00  0.00     0.126 A 
ATOM     10  C   UNL     1      11.171  41.396  32.500  1.00  0.00     0.039 A 
ENDROOT
BRANCH   2  11
ATOM     11  O   UNL     1      12.095  44.450  30.544  1.00  0.00    -0.389 OA
ATOM     12  H   UNL     1      12.872  44.574  29.938  1.00  0.00     0.211 HD
ENDBRANCH   2  11
BRANCH   3  13
ATOM     13  C   UNL     1      14.201  44.456  32.596  1.00  0.00    -0.001 A 
ATOM     14  C   UNL     1      15.344  43.812  32.096  1.00  0.00     0.057 A 
ATOM     15  C   UNL     1      14.302  45.786  33.039  1.00  0.00     0.012 A 
ATOM     16  C   UNL     1      16.569  44.493  32.019  1.00  0.00     0.157 A 
ATOM     17  C   UNL     1      15.519  46.466  32.962  1.00  0.00     0.050 A 
ATOM     18  C   UNL     1      16.654  45.827  32.453  1.00  0.00     0.157 A 
BRANCH  16  19
ATOM     19  O   UNL     1      17.697  43.848  31.516  1.00  0.00    -0.504 OA
ATOM     20  H   UNL     1      17.630  42.966  31.023  1.00  0.00     0.293 HD
ENDBRANCH  16  19
BRANCH  18  21
ATOM     21  O   UNL     1      17.857  46.530  32.388  1.00  0.00    -0.504 OA
ATOM     22  H   UNL     1      18.022  47.366  32.937  1.00  0.00     0.293 HD
ENDBRANCH  18  21
ENDBRANCH   3  13
BRANCH   9  23
ATOM     23  O   UNL     1       9.172  40.235  31.655  1.00  0.00    -0.507 OA
ATOM     24  H   UNL     1       8.413  39.576  31.770  1.00  0.00     0.293 HD
ENDBRANCH   9  23
BRANCH   7  25
ATOM     25  O   UNL     1      11.578  38.334  35.357  1.00  0.00    -0.508 OA
ATOM     26  H   UNL     1      10.863  37.624  35.470  1.00  0.00     0.293 HD
ENDBRANCH   7  25
TORSDOF 6
ENDMDL
MODEL 3
REMARK VINA RESULT:     0.000      7.318      9.534
REMARK INTER + INTRA:          -0.377
REMARK INTER:                   0.000
REMARK INTRA:                  -0.377
REMARK UNBOUND:                -0.377
REMARK SMILES Oc1cc(O)c2c(c1)O[C@@H](c1ccc(O)c(O)c1)[C@H](O)C2
REMARK SMILES IDX 21 1 19 2 10 3 9 4 7 5 8 6 2 7 3 8 4 9 6 10 20 11 11 13
REMARK SMILES IDX 18 14 12 15 16 16 13 17 14 18 17 19 15 21 5 23 1 25
REMARK H PARENT 20 12 17 20 15 22 5 24 1 26
REMARK Flexibility Score: inf
ROOT
ATOM      1  C   UNL     1      10.729  46.790  42.325  1.00  0.00     0.079 C 
ATOM      2  C   UNL     1      10.679  47.748  41.123  1.00  0.00     0.164 C 
ATOM      3  C   UNL     1      12.102  47.976  40.577  1.00  0.00     0.232 C 
ATOM      4  O   UNL     1      12.696  46.723  40.237  1.00  0.00    -0.482 OA
ATOM      5  C   UNL     1      12.505  45.570  41.006  1.00  0.00     0.131 A 
ATOM      6  C   UNL     1      13.260  44.431  40.719  1.00  0.00     0.093 A 
ATOM      7  C   UNL     1      13.103  43.269  41.481  1.00  0.00     0.122 A 
ATOM      8  C   UNL     1      12.192  43.252  42.540  1.00  0.00     0.092 A 
ATOM      9  C   UNL     1      11.427  44.386  42.843  1.00  0.00     0.126 A 
ATOM     10  C   UNL     1      11.551  45.549  42.047  1.00  0.00     0.039 A 
ENDROOT
BRANCH   2  11
ATOM     11  O   UNL     1      10.111  48.965  41.535  1.00  0.00    -0.389 OA
ATOM     12  H   UNL     1      10.064  49.550  40.734  1.00  0.00     0.211 HD
ENDBRANCH   2  11
BRANCH   3  13
ATOM     13  C   UNL     1      12.090  48.873  39.362  1.00  0.00    -0.001 A 
ATOM     14  C   UNL     1      11.464  48.452  38.177  1.00  0.00     0.057 A 
ATOM     15  C   UNL     1      12.745  50.116  39.386  1.00  0.00     0.012 A 
ATOM     16  C   UNL     1      11.475  49.269  37.036  1.00  0.00     0.157 A 
ATOM     17  C   UNL     1      12.756  50.931  38.253  1.00  0.00     0.050 A 
ATOM     18  C   UNL     1      12.123  50.516  37.077  1.00  0.00     0.157 A 
BRANCH  16  19
ATOM     19  O   UNL     1      10.848  48.846  35.866  1.00  0.00    -0.504 OA
ATOM     20  H   UNL     1      10.468  49.506  35.198  1.00  0.00     0.293 HD
ENDBRANCH  16  19
BRANCH  18  21
ATOM     21  O   UNL     1      12.150  51.351  35.960  1.00  0.00    -0.504 OA
ATOM     22  H   UNL     1      12.927  51.355  35.310  1.00  0.00     0.293 HD
ENDBRANCH  18  21
ENDBRANCH   3  13
BRANCH   9  23
ATOM     23  O   UNL     1      10.568  44.323  43.942  1.00  0.00    -0.507 OA
ATOM     24  H   UNL     1      10.888  44.170  44.889  1.00  0.00     0.293 HD
ENDBRANCH   9  23
BRANCH   7  25
ATOM     25  O   UNL     1      13.849  42.127  41.200  1.00  0.00    -0.508 OA
ATOM     26  H   UNL     1      13.895  41.743  40.264  1.00  0.00     0.293 HD
ENDBRANCH   7  25
TORSDOF 6
ENDMDL
MODEL 4
REMARK VINA RESULT:     0.000      5.194      8.095
REMARK INTER + INTRA:          -0.377
REMARK INTER:                   0.000
REMARK INTRA:                  -0.377
REMARK UNBOUND:                -0.377
REMARK SMILES Oc1cc(O)c2c(c1)O[C@@H](c1ccc(O)c(O)c1)[C@H](O)C2
REMARK SMILES IDX 21 1 19 2 10 3 9 4 7 5 8 6 2 7 3 8 4 9 6 10 20 11 11 13
REMARK SMILES IDX 18 14 12 15 16 16 13 17 14 18 17 19 15 21 5 23 1 25
REMARK H PARENT 20 12 17 20 15 22 5 24 1 26
REMARK Flexibility Score: inf
ROOT
ATOM      1  C   UNL     1      13.524  55.510  32.120  1.00  0.00     0.079 C 
ATOM      2  C   UNL     1      12.314  55.506  33.068  1.00  0.00     0.164 C 
ATOM      3  C   UNL     1      11.405  54.303  32.749  1.00  0.00     0.232 C 
ATOM      4  O   UNL     1      12.156  53.093  32.838  1.00  0.00    -0.482 OA
ATOM      5  C   UNL     1      13.482  52.999  32.401  1.00  0.00     0.131 A 
ATOM      6  C   UNL     1      14.092  51.744  32.348  1.00  0.00     0.093 A 
ATOM      7  C   UNL     1      15.411  51.619  31.900  1.00  0.00     0.122 A 
ATOM      8  C   UNL     1      16.117  52.755  31.494  1.00  0.00     0.092 A 
ATOM      9  C   UNL     1      15.520  54.021  31.539  1.00  0.00     0.126 A 
ATOM     10  C   UNL     1      14.201  54.158  32.033  1.00  0.00     0.039 A 
ENDROOT
BRANCH   2  11
ATOM     11  O   UNL     1      11.608  56.710  32.908  1.00  0.00    -0.389 OA
ATOM     12  H   UNL     1      12.078  57.397  33.449  1.00  0.00     0.211 HD
ENDBRANCH   2  11
BRANCH   3  13
ATOM     13  C   UNL     1      10.228  54.235  33.695  1.00  0.00    -0.001 A 
ATOM     14  C   UNL     1      10.432  54.000  35.064  1.00  0.00     0.057 A 
ATOM     15  C   UNL     1       8.916  54.357  33.209  1.00  0.00     0.012 A 
ATOM     16  C   UNL     1       9.341  53.908  35.942  1.00  0.00     0.157 A 
ATOM     17  C   UNL     1       7.828  54.266  34.080  1.00  0.00     0.050 A 
ATOM     18  C   UNL     1       8.033  54.043  35.445  1.00  0.00     0.157 A 
BRANCH  16  19
ATOM     19  O   UNL     1       9.553  53.680  37.300  1.00  0.00    -0.504 OA
ATOM     20  H   UNL     1      10.479  53.722  37.708  1.00  0.00     0.293 HD
ENDBRANCH  16  19
BRANCH  18  21
ATOM     21  O   UNL     1       6.929  53.957  36.292  1.00  0.00    -0.504 OA
ATOM     22  H   UNL     1       6.210  54.671  36.315  1.00  0.00     0.293 HD
ENDBRANCH  18  21
ENDBRANCH   3  13
BRANCH   9  23
ATOM     23  O   UNL     1      16.259  55.111  31.076  1.00  0.00    -0.507 OA
ATOM     24  H   UNL     1      16.284  56.006  31.547  1.00  0.00     0.293 HD
ENDBRANCH   9  23
BRANCH   7  25
ATOM     25  O   UNL     1      16.028  50.372  31.847  1.00  0.00    -0.508 OA
ATOM     26  H   UNL     1      16.555  50.009  32.633  1.00  0.00     0.293 HD
ENDBRANCH   7  25
TORSDOF 6
ENDMDL
MODEL 5
REMARK VINA RESULT:     0.000      5.108      7.663
REMARK INTER + INTRA:          -0.377
REMARK INTER:                   0.000
REMARK INTRA:                  -0.377
REMARK UNBOUND:                -0.377
REMARK SMILES Oc1cc(O)c2c(c1)O[C@@H](c1ccc(O)c(O)c1)[C@H](O)C2
REMARK SMILES IDX 21 1 19 2 10 3 9 4 7 5 8 6 2 7 3 8 4 9 6 10 20 11 11 13
REMARK SMILES IDX 18 14 12 15 16 16 13 17 14 18 17 19 15 21 5 23 1 25
REMARK H PARENT 20 12 17 20 15 22 5 24 1 26
REMARK Flexibility Score: inf
ROOT
ATOM      1  C   UNL     1      12.709  50.515  32.010  1.00  0.00     0.079 C 
ATOM      2  C   UNL     1      11.629  50.383  33.096  1.00  0.00     0.164 C 
ATOM      3  C   UNL     1      12.291  50.100  34.458  1.00  0.00     0.232 C 
ATOM      4  O   UNL     1      13.230  51.130  34.763  1.00  0.00    -0.482 OA
ATOM      5  C   UNL     1      14.048  51.712  33.788  1.00  0.00     0.131 A 
ATOM      6  C   UNL     1      15.068  52.579  34.186  1.00  0.00     0.093 A 
ATOM      7  C   UNL     1      15.910  53.162  33.234  1.00  0.00     0.122 A 
ATOM      8  C   UNL     1      15.735  52.867  31.879  1.00  0.00     0.092 A 
ATOM      9  C   UNL     1      14.718  51.999  31.462  1.00  0.00     0.126 A 
ATOM     10  C   UNL     1      13.836  51.442  32.418  1.00  0.00     0.039 A 
ENDROOT
BRANCH   2  11
ATOM     11  O   UNL     1      10.759  49.338  32.747  1.00  0.00    -0.389 OA
ATOM     12  H   UNL     1       9.905  49.754  32.459  1.00  0.00     0.211 HD
ENDBRANCH   2  11
BRANCH   3  13
ATOM     13  C   UNL     1      11.264  50.014  35.563  1.00  0.00    -0.001 A 
ATOM     14  C   UNL     1      10.507  51.143  35.916  1.00  0.00     0.057 A 
ATOM     15  C   UNL     1      11.088  48.819  36.282  1.00  0.00     0.012 A 
ATOM     16  C   UNL     1       9.572  51.076  36.961  1.00  0.00     0.157 A 
ATOM     17  C   UNL     1      10.158  48.750  37.321  1.00  0.00     0.050 A 
ATOM     18  C   UNL     1       9.397  49.872  37.664  1.00  0.00     0.157 A 
BRANCH  16  19
ATOM     19  O   UNL     1       8.821  52.199  37.302  1.00  0.00    -0.504 OA
ATOM     20  H   UNL     1       9.244  53.007  37.745  1.00  0.00     0.293 HD
ENDBRANCH  16  19
BRANCH  18  21
ATOM     21  O   UNL     1       8.475  49.774  38.707  1.00  0.00    -0.504 OA
ATOM     22  H   UNL     1       8.669  50.135  39.633  1.00  0.00     0.293 HD
ENDBRANCH  18  21
ENDBRANCH   3  13
BRANCH   9  23
ATOM     23  O   UNL     1      14.623  51.707  30.100  1.00  0.00    -0.507 OA
ATOM     24  H   UNL     1      14.916  50.826  29.699  1.00  0.00     0.293 HD
ENDBRANCH   9  23
BRANCH   7  25
ATOM     25  O   UNL     1      16.928  54.030  33.622  1.00  0.00    -0.508 OA
ATOM     26  H   UNL     1      17.655  53.738  34.265  1.00  0.00     0.293 HD
ENDBRANCH   7  25
TORSDOF 6
ENDMDL
MODEL 6
REMARK VINA RESULT:     0.000      4.516      8.030
REMARK INTER + INTRA:          -0.377
REMARK INTER:                   0.000
REMARK INTRA:                  -0.377
REMARK UNBOUND:                -0.377
REMARK SMILES Oc1cc(O)c2c(c1)O[C@@H](c1ccc(O)c(O)c1)[C@H](O)C2
REMARK SMILES IDX 21 1 19 2 10 3 9 4 7 5 8 6 2 7 3 8 4 9 6 10 20 11 11 13
REMARK SMILES IDX 18 14 12 15 16 16 13 17 14 18 17 19 15 21 5 23 1 25
REMARK H PARENT 20 12 17 20 15 22 5 24 1 26
REMARK Flexibility Score: inf
ROOT
ATOM      1  C   UNL     1      10.905  50.521  34.918  1.00  0.00     0.079 C 
ATOM      2  C   UNL     1      11.886  49.703  35.774  1.00  0.00     0.164 C 
ATOM      3  C   UNL     1      12.207  48.371  35.070  1.00  0.00     0.232 C 
ATOM      4  O   UNL     1      12.722  48.625  33.764  1.00  0.00    -0.482 OA
ATOM      5  C   UNL     1      12.229  49.651  32.950  1.00  0.00     0.131 A 
ATOM      6  C   UNL     1      12.650  49.725  31.621  1.00  0.00     0.093 A 
ATOM      7  C   UNL     1      12.162  50.730  30.780  1.00  0.00     0.122 A 
ATOM      8  C   UNL     1      11.240  51.658  31.272  1.00  0.00     0.092 A 
ATOM      9  C   UNL     1      10.806  51.598  32.602  1.00  0.00     0.126 A 
ATOM     10  C   UNL     1      11.331  50.610  33.467  1.00  0.00     0.039 A 
ENDROOT
BRANCH   2  11
ATOM     11  O   UNL     1      11.306  49.468  37.031  1.00  0.00    -0.389 OA
ATOM     12  H   UNL     1      10.862  50.311  37.309  1.00  0.00     0.211 HD
ENDBRANCH   2  11
BRANCH   3  13
ATOM     13  C   UNL     1      13.209  47.559  35.857  1.00  0.00    -0.001 A 
ATOM     14  C   UNL     1      14.519  48.033  36.037  1.00  0.00     0.057 A 
ATOM     15  C   UNL     1      12.859  46.300  36.374  1.00  0.00     0.012 A 
ATOM     16  C   UNL     1      15.462  47.269  36.742  1.00  0.00     0.157 A 
ATOM     17  C   UNL     1      13.795  45.539  37.077  1.00  0.00     0.050 A 
ATOM     18  C   UNL     1      15.096  46.017  37.266  1.00  0.00     0.157 A 
BRANCH  16  19
ATOM     19  O   UNL     1      16.758  47.749  36.921  1.00  0.00    -0.504 OA
ATOM     20  H   UNL     1      17.460  47.667  36.195  1.00  0.00     0.293 HD
ENDBRANCH  16  19
BRANCH  18  21
ATOM     21  O   UNL     1      16.010  45.236  37.971  1.00  0.00    -0.504 OA
ATOM     22  H   UNL     1      15.717  44.474  38.572  1.00  0.00     0.293 HD
ENDBRANCH  18  21
ENDBRANCH   3  13
BRANCH   9  23
ATOM     23  O   UNL     1       9.848  52.524  33.021  1.00  0.00    -0.507 OA
ATOM     24  H   UNL     1      10.083  53.420  33.427  1.00  0.00     0.293 HD
ENDBRANCH   9  23
BRANCH   7  25
ATOM     25  O   UNL     1      12.579  50.813  29.454  1.00  0.00    -0.508 OA
ATOM     26  H   UNL     1      13.554  50.706  29.199  1.00  0.00     0.293 HD
ENDBRANCH   7  25
TORSDOF 6
ENDMDL
MODEL 7
REMARK VINA RESULT:     0.000     11.434     12.926
REMARK INTER + INTRA:          -0.377
REMARK INTER:                   0.000
REMARK INTRA:                  -0.377
REMARK UNBOUND:                -0.377
REMARK SMILES Oc1cc(O)c2c(c1)O[C@@H](c1ccc(O)c(O)c1)[C@H](O)C2
REMARK SMILES IDX 21 1 19 2 10 3 9 4 7 5 8 6 2 7 3 8 4 9 6 10 20 11 11 13
REMARK SMILES IDX 18 14 12 15 16 16 13 17 14 18 17 19 15 21 5 23 1 25
REMARK H PARENT 20 12 17 20 15 22 5 24 1 26
REMARK Flexibility Score: inf
ROOT
ATOM      1  C   UNL     1       9.808  39.482  31.458  1.00  0.00     0.079 C 
ATOM      2  C   UNL     1       9.671  39.713  29.944  1.00  0.00     0.164 C 
ATOM      3  C   UNL     1       8.197  39.993  29.590  1.00  0.00     0.232 C 
ATOM      4  O   UNL     1       7.722  41.106  30.345  1.00  0.00    -0.482 OA
ATOM      5  C   UNL     1       8.089  41.320  31.678  1.00  0.00     0.131 A 
ATOM      6  C   UNL     1       7.444  42.322  32.408  1.00  0.00     0.093 A 
ATOM      7  C   UNL     1       7.779  42.547  33.746  1.00  0.00     0.122 A 
ATOM      8  C   UNL     1       8.757  41.759  34.359  1.00  0.00     0.092 A 
ATOM      9  C   UNL     1       9.413  40.750  33.643  1.00  0.00     0.126 A 
ATOM     10  C   UNL     1       9.108  40.548  32.276  1.00  0.00     0.039 A 
ENDROOT
BRANCH   2  11
ATOM     11  O   UNL     1      10.130  38.572  29.267  1.00  0.00    -0.389 OA
ATOM     12  H   UNL     1       9.837  37.783  29.793  1.00  0.00     0.211 HD
ENDBRANCH   2  11
BRANCH   3  13
ATOM     13  C   UNL     1       8.029  40.276  28.116  1.00  0.00    -0.001 A 
ATOM     14  C   UNL     1       8.613  41.417  27.542  1.00  0.00     0.057 A 
ATOM     15  C   UNL     1       7.246  39.430  27.312  1.00  0.00     0.012 A 
ATOM     16  C   UNL     1       8.435  41.700  26.179  1.00  0.00     0.157 A 
ATOM     17  C   UNL     1       7.068  39.709  25.955  1.00  0.00     0.050 A 
ATOM     18  C   UNL     1       7.660  40.839  25.383  1.00  0.00     0.157 A 
BRANCH  16  19
ATOM     19  O   UNL     1       9.023  42.831  25.617  1.00  0.00    -0.504 OA
ATOM     20  H   UNL     1       9.860  42.769  25.049  1.00  0.00     0.293 HD
ENDBRANCH  16  19
BRANCH  18  21
ATOM     21  O   UNL     1       7.466  41.093  24.025  1.00  0.00    -0.504 OA
ATOM     22  H   UNL     1       7.685  40.407  23.313  1.00  0.00     0.293 HD
ENDBRANCH  18  21
ENDBRANCH   3  13
BRANCH   9  23
ATOM     23  O   UNL     1      10.347  39.965  34.322  1.00  0.00    -0.507 OA
ATOM     24  H   UNL     1      10.170  39.010  34.604  1.00  0.00     0.293 HD
ENDBRANCH   9  23
BRANCH   7  25
ATOM     25  O   UNL     1       7.143  43.545  34.480  1.00  0.00    -0.508 OA
ATOM     26  H   UNL     1       7.164  43.551  35.494  1.00  0.00     0.293 HD
ENDBRANCH   7  25
TORSDOF 6
ENDMDL
MODEL 8
REMARK VINA RESULT:     0.000      7.569      9.228
REMARK INTER + INTRA:          -0.377
REMARK INTER:                   0.000
REMARK INTRA:                  -0.377
REMARK UNBOUND:                -0.377
REMARK SMILES Oc1cc(O)c2c(c1)O[C@@H](c1ccc(O)c(O)c1)[C@H](O)C2
REMARK SMILES IDX 21 1 19 2 10 3 9 4 7 5 8 6 2 7 3 8 4 9 6 10 20 11 11 13
REMARK SMILES IDX 18 14 12 15 16 16 13 17 14 18 17 19 15 21 5 23 1 25
REMARK H PARENT 20 12 17 20 15 22 5 24 1 26
REMARK Flexibility Score: inf
ROOT
ATOM      1  C   UNL     1       8.436  48.245  30.537  1.00  0.00     0.079 C 
ATOM      2  C   UNL     1       8.106  48.734  31.957  1.00  0.00     0.164 C 
ATOM      3  C   UNL     1       8.065  47.536  32.925  1.00  0.00     0.232 C 
ATOM      4  O   UNL     1       9.307  46.834  32.878  1.00  0.00    -0.482 OA
ATOM      5  C   UNL     1      10.015  46.643  31.687  1.00  0.00     0.131 A 
ATOM      6  C   UNL     1      11.124  45.793  31.685  1.00  0.00     0.093 A 
ATOM      7  C   UNL     1      11.841  45.570  30.506  1.00  0.00     0.122 A 
ATOM      8  C   UNL     1      11.440  46.195  29.322  1.00  0.00     0.092 A 
ATOM      9  C   UNL     1      10.331  47.050  29.305  1.00  0.00     0.126 A 
ATOM     10  C   UNL     1       9.629  47.312  30.505  1.00  0.00     0.039 A 
ENDROOT
BRANCH   2  11
ATOM     11  O   UNL     1       6.863  49.389  31.934  1.00  0.00    -0.389 OA
ATOM     12  H   UNL     1       6.261  48.851  31.357  1.00  0.00     0.211 HD
ENDBRANCH   2  11
BRANCH   3  13
ATOM     13  C   UNL     1       7.793  47.982  34.343  1.00  0.00    -0.001 A 
ATOM     14  C   UNL     1       8.723  48.784  35.024  1.00  0.00     0.057 A 
ATOM     15  C   UNL     1       6.632  47.559  35.012  1.00  0.00     0.012 A 
ATOM     16  C   UNL     1       8.488  49.177  36.351  1.00  0.00     0.157 A 
ATOM     17  C   UNL     1       6.396  47.950  36.332  1.00  0.00     0.050 A 
ATOM     18  C   UNL     1       7.317  48.758  37.006  1.00  0.00     0.157 A 
BRANCH  16  19
ATOM     19  O   UNL     1       9.413  49.977  37.018  1.00  0.00    -0.504 OA
ATOM     20  H   UNL     1      10.367  49.673  37.170  1.00  0.00     0.293 HD
ENDBRANCH  16  19
BRANCH  18  21
ATOM     21  O   UNL     1       7.055  49.132  38.324  1.00  0.00    -0.504 OA
ATOM     22  H   UNL     1       6.298  48.724  38.859  1.00  0.00     0.293 HD
ENDBRANCH  18  21
ENDBRANCH   3  13
BRANCH   9  23
ATOM     23  O   UNL     1       9.951  47.607  28.082  1.00  0.00    -0.507 OA
ATOM     24  H   UNL     1       9.952  47.091  27.212  1.00  0.00     0.293 HD
ENDBRANCH   9  23
BRANCH   7  25
ATOM     25  O   UNL     1      12.949  44.727  30.496  1.00  0.00    -0.508 OA
ATOM     26  H   UNL     1      13.288  44.289  31.345  1.00  0.00     0.293 HD
ENDBRANCH   7  25
TORSDOF 6
ENDMDL
MODEL 9
REMARK VINA RESULT:     0.000      8.013      9.247
REMARK INTER + INTRA:          -0.377
REMARK INTER:                   0.000
REMARK INTRA:                  -0.377
REMARK UNBOUND:                -0.377
REMARK SMILES Oc1cc(O)c2c(c1)O[C@@H](c1ccc(O)c(O)c1)[C@H](O)C2
REMARK SMILES IDX 21 1 19 2 10 3 9 4 7 5 8 6 2 7 3 8 4 9 6 10 20 11 11 13
REMARK SMILES IDX 18 14 12 15 16 16 13 17 14 18 17 19 15 21 5 23 1 25
REMARK H PARENT 20 12 17 20 15 22 5 24 1 26
REMARK Flexibility Score: inf
ROOT
ATOM      1  C   UNL     1       9.912  48.968  27.233  1.00  0.00     0.079 C 
ATOM      2  C   UNL     1       9.323  49.324  28.608  1.00  0.00     0.164 C 
ATOM      3  C   UNL     1       8.686  48.072  29.243  1.00  0.00     0.232 C 
ATOM      4  O   UNL     1       9.655  47.028  29.331  1.00  0.00    -0.482 OA
ATOM      5  C   UNL     1      10.604  46.799  28.328  1.00  0.00     0.131 A 
ATOM      6  C   UNL     1      11.398  45.652  28.394  1.00  0.00     0.093 A 
ATOM      7  C   UNL     1      12.342  45.389  27.397  1.00  0.00     0.122 A 
ATOM      8  C   UNL     1      12.485  46.274  26.326  1.00  0.00     0.092 A 
ATOM      9  C   UNL     1      11.696  47.429  26.242  1.00  0.00     0.126 A 
ATOM     10  C   UNL     1      10.770  47.721  27.271  1.00  0.00     0.039 A 
ENDROOT
BRANCH   2  11
ATOM     11  O   UNL     1       8.361  50.334  28.444  1.00  0.00    -0.389 OA
ATOM     12  H   UNL     1       8.439  50.940  29.225  1.00  0.00     0.211 HD
ENDBRANCH   2  11
BRANCH   3  13
ATOM     13  C   UNL     1       8.140  48.369  30.620  1.00  0.00    -0.001 A 
ATOM     14  C   UNL     1       9.008  48.727  31.664  1.00  0.00     0.057 A 
ATOM     15  C   UNL     1       6.766  48.242  30.884  1.00  0.00     0.012 A 
ATOM     16  C   UNL     1       8.509  48.976  32.952  1.00  0.00     0.157 A 
ATOM     17  C   UNL     1       6.267  48.489  32.165  1.00  0.00     0.050 A 
ATOM     18  C   UNL     1       7.131  48.858  33.201  1.00  0.00     0.157 A 
BRANCH  16  19
ATOM     19  O   UNL     1       9.376  49.336  33.981  1.00  0.00    -0.504 OA
ATOM     20  H   UNL     1      10.123  48.723  34.286  1.00  0.00     0.293 HD
ENDBRANCH  16  19
BRANCH  18  21
ATOM     21  O   UNL     1       6.605  49.099  34.470  1.00  0.00    -0.504 OA
ATOM     22  H   UNL     1       5.754  48.653  34.794  1.00  0.00     0.293 HD
ENDBRANCH  18  21
ENDBRANCH   3  13
BRANCH   9  23
ATOM     23  O   UNL     1      11.851  48.250  25.124  1.00  0.00    -0.507 OA
ATOM     24  H   UNL     1      11.321  49.099  24.980  1.00  0.00     0.293 HD
ENDBRANCH   9  23
BRANCH   7  25
ATOM     25  O   UNL     1      13.141  44.250  27.457  1.00  0.00    -0.508 OA
ATOM     26  H   UNL     1      13.089  43.608  28.240  1.00  0.00     0.293 HD
ENDBRANCH   7  25
TORSDOF 6
ENDMDL
