MODEL 1
REMARK VINA RESULT:    -3.980      0.000      0.000
REMARK INTER + INTRA:          -4.722
REMARK INTER:                  -4.678
REMARK INTRA:                  -0.044
REMARK UNBOUND:                -0.044
REMARK SMILES CCCCC(=O)[O-]
REMARK SMILES IDX 4 1 5 2 6 3 7 4 3 5 2 6 1 7
REMARK H PARENT
REMARK Flexibility Score: inf
ROOT
ATOM      1  C   UNL     1      77.855  56.767   9.574  1.00  0.00     0.053 C 
ENDROOT
BRANCH   1   2
ATOM      2  C   UNL     1      78.756  57.051  10.737  1.00  0.00     0.041 C 
ATOM      3  O   UNL     1      79.683  57.896  10.631  1.00  0.00    -0.550 OA
ATOM      4  O   UNL     1      78.591  56.357  11.928  1.00  0.00    -0.550 OA
ENDBRANCH   1   2
BRANCH   1   5
ATOM      5  C   UNL     1      78.231  55.457   8.870  1.00  0.00     0.006 C 
BRANCH   5   6
ATOM      6  C   UNL     1      77.854  55.469   7.382  1.00  0.00    -0.003 C 
ATOM      7  C   UNL     1      77.775  56.894   6.844  1.00  0.00     0.004 C 
ENDBRANCH   5   6
ENDBRANCH   1   5
TORSDOF 3
ENDMDL
MODEL 2
REMARK VINA RESULT:    -3.752      2.667      3.799
REMARK INTER + INTRA:          -4.454
REMARK INTER:                  -4.396
REMARK INTRA:                  -0.058
REMARK UNBOUND:                -0.044
REMARK SMILES CCCCC(=O)[O-]
REMARK SMILES IDX 4 1 5 2 6 3 7 4 3 5 2 6 1 7
REMARK H PARENT
REMARK Flexibility Score: inf
ROOT
ATOM      1  C   UNL     1      77.627  56.955   8.821  1.00  0.00     0.053 C 
ENDROOT
BRANCH   1   2
ATOM      2  C   UNL     1      77.718  56.288   7.482  1.00  0.00     0.041 C 
ATOM      3  O   UNL     1      77.830  55.036   7.403  1.00  0.00    -0.550 OA
ATOM      4  O   UNL     1      77.711  57.052   6.323  1.00  0.00    -0.550 OA
ENDBRANCH   1   2
BRANCH   1   5
ATOM      5  C   UNL     1      78.247  56.094   9.929  1.00  0.00     0.006 C 
BRANCH   5   6
ATOM      6  C   UNL     1      79.266  56.876  10.770  1.00  0.00    -0.003 C 
ATOM      7  C   UNL     1      79.400  58.314  10.278  1.00  0.00     0.004 C 
ENDBRANCH   5   6
ENDBRANCH   1   5
TORSDOF 3
ENDMDL
MODEL 3
REMARK VINA RESULT:    -3.524     12.772     13.427
REMARK INTER + INTRA:          -4.186
REMARK INTER:                  -4.170
REMARK INTRA:                  -0.016
REMARK UNBOUND:                -0.044
REMARK SMILES CCCCC(=O)[O-]
REMARK SMILES IDX 4 1 5 2 6 3 7 4 3 5 2 6 1 7
REMARK H PARENT
REMARK Flexibility Score: inf
ROOT
ATOM      1  C   UNL     1      84.499  64.931  17.562  1.00  0.00     0.053 C 
ENDROOT
BRANCH   1   2
ATOM      2  C   UNL     1      84.143  65.501  18.901  1.00  0.00     0.041 C 
ATOM      3  O   UNL     1      82.944  65.517  19.286  1.00  0.00    -0.550 OA
ATOM      4  O   UNL     1      85.132  66.042  19.711  1.00  0.00    -0.550 OA
ENDBRANCH   1   2
BRANCH   1   5
ATOM      5  C   UNL     1      83.768  65.655  16.424  1.00  0.00     0.006 C 
BRANCH   5   6
ATOM      6  C   UNL     1      84.502  65.520  15.083  1.00  0.00    -0.003 C 
ATOM      7  C   UNL     1      83.972  66.521  14.061  1.00  0.00     0.004 C 
ENDBRANCH   5   6
ENDBRANCH   1   5
TORSDOF 3
ENDMDL
MODEL 4
REMARK VINA RESULT:    -3.523      3.270      3.849
REMARK INTER + INTRA:          -4.186
REMARK INTER:                  -4.141
REMARK INTRA:                  -0.044
REMARK UNBOUND:                -0.044
REMARK SMILES CCCCC(=O)[O-]
REMARK SMILES IDX 4 1 5 2 6 3 7 4 3 5 2 6 1 7
REMARK H PARENT
REMARK Flexibility Score: inf
ROOT
ATOM      1  C   UNL     1      78.135  54.284   7.564  1.00  0.00     0.053 C 
ENDROOT
BRANCH   1   2
ATOM      2  C   UNL     1      79.066  53.144   7.845  1.00  0.00     0.041 C 
ATOM      3  O   UNL     1      80.018  53.286   8.658  1.00  0.00    -0.550 OA
ATOM      4  O   UNL     1      78.900  51.933   7.186  1.00  0.00    -0.550 OA
ENDBRANCH   1   2
BRANCH   1   5
ATOM      5  C   UNL     1      78.200  55.354   8.661  1.00  0.00     0.006 C 
BRANCH   5   6
ATOM      6  C   UNL     1      77.648  56.706   8.188  1.00  0.00    -0.003 C 
ATOM      7  C   UNL     1      77.794  56.862   6.677  1.00  0.00     0.004 C 
ENDBRANCH   5   6
ENDBRANCH   1   5
TORSDOF 3
ENDMDL
MODEL 5
REMARK VINA RESULT:    -3.491     11.757     12.226
REMARK INTER + INTRA:          -4.148
REMARK INTER:                  -4.128
REMARK INTRA:                  -0.020
REMARK UNBOUND:                -0.044
REMARK SMILES CCCCC(=O)[O-]
REMARK SMILES IDX 4 1 5 2 6 3 7 4 3 5 2 6 1 7
REMARK H PARENT
REMARK Flexibility Score: inf
ROOT
ATOM      1  C   UNL     1      85.180  64.908  15.013  1.00  0.00     0.053 C 
ENDROOT
BRANCH   1   2
ATOM      2  C   UNL     1      84.116  65.963  15.002  1.00  0.00     0.041 C 
ATOM      3  O   UNL     1      83.360  66.113  15.999  1.00  0.00    -0.550 OA
ATOM      4  O   UNL     1      83.937  66.758  13.878  1.00  0.00    -0.550 OA
ENDBRANCH   1   2
BRANCH   1   5
ATOM      5  C   UNL     1      84.868  63.796  16.023  1.00  0.00     0.006 C 
BRANCH   5   6
ATOM      6  C   UNL     1      85.645  62.506  15.725  1.00  0.00    -0.003 C 
ATOM      7  C   UNL     1      85.320  61.419  16.745  1.00  0.00     0.004 C 
ENDBRANCH   5   6
ENDBRANCH   1   5
TORSDOF 3
ENDMDL
MODEL 6
REMARK VINA RESULT:    -3.490      2.681      3.701
REMARK INTER + INTRA:          -4.146
REMARK INTER:                  -4.101
REMARK INTRA:                  -0.044
REMARK UNBOUND:                -0.044
REMARK SMILES CCCCC(=O)[O-]
REMARK SMILES IDX 4 1 5 2 6 3 7 4 3 5 2 6 1 7
REMARK H PARENT
REMARK Flexibility Score: inf
ROOT
ATOM      1  C   UNL     1      78.458  55.574   9.351  1.00  0.00     0.053 C 
ENDROOT
BRANCH   1   2
ATOM      2  C   UNL     1      77.984  55.458   7.934  1.00  0.00     0.041 C 
ATOM      3  O   UNL     1      77.601  56.481   7.307  1.00  0.00    -0.550 OA
ATOM      4  O   UNL     1      77.935  54.215   7.318  1.00  0.00    -0.550 OA
ENDBRANCH   1   2
BRANCH   1   5
ATOM      5  C   UNL     1      78.181  56.968   9.930  1.00  0.00     0.006 C 
BRANCH   5   6
ATOM      6  C   UNL     1      79.425  57.582  10.587  1.00  0.00    -0.003 C 
ATOM      7  C   UNL     1      79.633  59.023  10.133  1.00  0.00     0.004 C 
ENDBRANCH   5   6
ENDBRANCH   1   5
TORSDOF 3
ENDMDL
MODEL 7
REMARK VINA RESULT:    -3.422      2.666      3.676
REMARK INTER + INTRA:          -4.067
REMARK INTER:                  -3.988
REMARK INTRA:                  -0.079
REMARK UNBOUND:                -0.044
REMARK SMILES CCCCC(=O)[O-]
REMARK SMILES IDX 4 1 5 2 6 3 7 4 3 5 2 6 1 7
REMARK H PARENT
REMARK Flexibility Score: inf
ROOT
ATOM      1  C   UNL     1      77.777  54.921   7.725  1.00  0.00     0.053 C 
ENDROOT
BRANCH   1   2
ATOM      2  C   UNL     1      79.012  54.112   7.978  1.00  0.00     0.041 C 
ATOM      3  O   UNL     1      78.962  52.853   7.957  1.00  0.00    -0.550 OA
ATOM      4  O   UNL     1      80.211  54.748   8.270  1.00  0.00    -0.550 OA
ENDBRANCH   1   2
BRANCH   1   5
ATOM      5  C   UNL     1      78.007  56.412   8.004  1.00  0.00     0.006 C 
BRANCH   5   6
ATOM      6  C   UNL     1      77.718  56.781   9.465  1.00  0.00    -0.003 C 
ATOM      7  C   UNL     1      78.836  57.642  10.047  1.00  0.00     0.004 C 
ENDBRANCH   5   6
ENDBRANCH   1   5
TORSDOF 3
ENDMDL
MODEL 8
REMARK VINA RESULT:    -3.411     11.308     11.925
REMARK INTER + INTRA:          -4.053
REMARK INTER:                  -4.017
REMARK INTRA:                  -0.036
REMARK UNBOUND:                -0.044
REMARK SMILES CCCCC(=O)[O-]
REMARK SMILES IDX 4 1 5 2 6 3 7 4 3 5 2 6 1 7
REMARK H PARENT
REMARK Flexibility Score: inf
ROOT
ATOM      1  C   UNL     1      84.891  63.821  16.430  1.00  0.00     0.053 C 
ENDROOT
BRANCH   1   2
ATOM      2  C   UNL     1      85.432  62.538  15.876  1.00  0.00     0.041 C 
ATOM      3  O   UNL     1      85.498  62.361  14.631  1.00  0.00    -0.550 OA
ATOM      4  O   UNL     1      85.832  61.524  16.737  1.00  0.00    -0.550 OA
ENDBRANCH   1   2
BRANCH   1   5
ATOM      5  C   UNL     1      85.149  65.001  15.484  1.00  0.00     0.006 C 
BRANCH   5   6
ATOM      6  C   UNL     1      83.917  65.905  15.334  1.00  0.00    -0.003 C 
ATOM      7  C   UNL     1      83.940  66.651  14.004  1.00  0.00     0.004 C 
ENDBRANCH   5   6
ENDBRANCH   1   5
TORSDOF 3
ENDMDL
MODEL 9
REMARK VINA RESULT:    -3.337     12.245     13.526
REMARK INTER + INTRA:          -3.967
REMARK INTER:                  -3.948
REMARK INTRA:                  -0.019
REMARK UNBOUND:                -0.044
REMARK SMILES CCCCC(=O)[O-]
REMARK SMILES IDX 4 1 5 2 6 3 7 4 3 5 2 6 1 7
REMARK H PARENT
REMARK Flexibility Score: inf
ROOT
ATOM      1  C   UNL     1      84.123  65.294  16.250  1.00  0.00     0.053 C 
ENDROOT
BRANCH   1   2
ATOM      2  C   UNL     1      85.072  64.932  15.149  1.00  0.00     0.041 C 
ATOM      3  O   UNL     1      85.773  63.889  15.233  1.00  0.00    -0.550 OA
ATOM      4  O   UNL     1      85.204  65.763  14.045  1.00  0.00    -0.550 OA
ENDBRANCH   1   2
BRANCH   1   5
ATOM      5  C   UNL     1      84.737  65.046  17.634  1.00  0.00     0.006 C 
BRANCH   5   6
ATOM      6  C   UNL     1      83.760  65.374  18.771  1.00  0.00    -0.003 C 
ATOM      7  C   UNL     1      84.505  65.730  20.054  1.00  0.00     0.004 C 
ENDBRANCH   5   6
ENDBRANCH   1   5
TORSDOF 3
ENDMDL
