MODEL 1
REMARK VINA RESULT:    -3.001      0.000      0.000
REMARK INTER + INTRA:          -3.391
REMARK INTER:                  -3.352
REMARK INTRA:                  -0.039
REMARK UNBOUND:                -0.039
REMARK SMILES CCCC(=O)[O-]
REMARK SMILES IDX 3 1 4 2 5 3 6 4 2 5 1 6
REMARK H PARENT
REMARK Flexibility Score: inf
ROOT
ATOM      1  C   UNL     1      -1.933   8.301   8.132  1.00  0.00     0.052 C 
ENDROOT
BRANCH   1   2
ATOM      2  C   UNL     1      -3.320   8.852   8.241  1.00  0.00     0.041 C 
ATOM      3  O   UNL     1      -3.558   9.827   9.000  1.00  0.00    -0.550 OA
ATOM      4  O   UNL     1      -4.362   8.256   7.540  1.00  0.00    -0.550 OA
ENDBRANCH   1   2
BRANCH   1   5
ATOM      5  C   UNL     1      -1.405   7.905   9.513  1.00  0.00     0.003 C 
ATOM      6  C   UNL     1      -1.602   6.414   9.770  1.00  0.00     0.004 C 
ENDBRANCH   1   5
TORSDOF 2
ENDMDL
MODEL 2
REMARK VINA RESULT:    -2.992      1.742      2.209
REMARK INTER + INTRA:          -3.381
REMARK INTER:                  -3.343
REMARK INTRA:                  -0.037
REMARK UNBOUND:                -0.039
REMARK SMILES CCCC(=O)[O-]
REMARK SMILES IDX 3 1 4 2 5 3 6 4 2 5 1 6
REMARK H PARENT
REMARK Flexibility Score: inf
ROOT
ATOM      1  C   UNL     1      -1.549   8.981   7.488  1.00  0.00     0.052 C 
ENDROOT
BRANCH   1   2
ATOM      2  C   UNL     1      -2.792   8.279   7.938  1.00  0.00     0.041 C 
ATOM      3  O   UNL     1      -2.713   7.249   8.657  1.00  0.00    -0.550 OA
ATOM      4  O   UNL     1      -4.037   8.734   7.521  1.00  0.00    -0.550 OA
ENDBRANCH   1   2
BRANCH   1   5
ATOM      5  C   UNL     1      -1.204  10.124   8.446  1.00  0.00     0.003 C 
ATOM      6  C   UNL     1      -0.049   9.740   9.367  1.00  0.00     0.004 C 
ENDBRANCH   1   5
TORSDOF 2
ENDMDL
MODEL 3
REMARK VINA RESULT:    -2.975     18.843     19.424
REMARK INTER + INTRA:          -3.362
REMARK INTER:                  -3.348
REMARK INTRA:                  -0.014
REMARK UNBOUND:                -0.039
REMARK SMILES CCCC(=O)[O-]
REMARK SMILES IDX 3 1 4 2 5 3 6 4 2 5 1 6
REMARK H PARENT
REMARK Flexibility Score: inf
ROOT
ATOM      1  C   UNL     1       3.527  -3.392  -5.040  1.00  0.00     0.052 C 
ENDROOT
BRANCH   1   2
ATOM      2  C   UNL     1       3.217  -3.901  -6.411  1.00  0.00     0.041 C 
ATOM      3  O   UNL     1       2.191  -4.604  -6.610  1.00  0.00    -0.550 OA
ATOM      4  O   UNL     1       4.088  -3.643  -7.463  1.00  0.00    -0.550 OA
ENDBRANCH   1   2
BRANCH   1   5
ATOM      5  C   UNL     1       2.300  -2.705  -4.434  1.00  0.00     0.003 C 
ATOM      6  C   UNL     1       2.360  -2.718  -2.909  1.00  0.00     0.004 C 
ENDBRANCH   1   5
TORSDOF 2
ENDMDL
MODEL 4
REMARK VINA RESULT:    -2.710     20.803     21.335
REMARK INTER + INTRA:          -3.066
REMARK INTER:                  -3.054
REMARK INTRA:                  -0.011
REMARK UNBOUND:                -0.039
REMARK SMILES CCCC(=O)[O-]
REMARK SMILES IDX 3 1 4 2 5 3 6 4 2 5 1 6
REMARK H PARENT
REMARK Flexibility Score: inf
ROOT
ATOM      1  C   UNL     1       4.723  -3.006  -7.482  1.00  0.00     0.052 C 
ENDROOT
BRANCH   1   2
ATOM      2  C   UNL     1       4.165  -4.040  -6.556  1.00  0.00     0.041 C 
ATOM      3  O   UNL     1       4.862  -4.482  -5.605  1.00  0.00    -0.550 OA
ATOM      4  O   UNL     1       2.892  -4.554  -6.773  1.00  0.00    -0.550 OA
ENDBRANCH   1   2
BRANCH   1   5
ATOM      5  C   UNL     1       6.253  -3.051  -7.476  1.00  0.00     0.003 C 
ATOM      6  C   UNL     1       6.823  -2.548  -8.799  1.00  0.00     0.004 C 
ENDBRANCH   1   5
TORSDOF 2
ENDMDL
MODEL 5
REMARK VINA RESULT:    -2.691     20.872     21.430
REMARK INTER + INTRA:          -3.044
REMARK INTER:                  -3.038
REMARK INTRA:                  -0.006
REMARK UNBOUND:                -0.039
REMARK SMILES CCCC(=O)[O-]
REMARK SMILES IDX 3 1 4 2 5 3 6 4 2 5 1 6
REMARK H PARENT
REMARK Flexibility Score: inf
ROOT
ATOM      1  C   UNL     1       6.062  -3.768  -6.966  1.00  0.00     0.052 C 
ENDROOT
BRANCH   1   2
ATOM      2  C   UNL     1       5.273  -4.500  -5.927  1.00  0.00     0.041 C 
ATOM      3  O   UNL     1       4.117  -4.110  -5.616  1.00  0.00    -0.550 OA
ATOM      4  O   UNL     1       5.834  -5.586  -5.265  1.00  0.00    -0.550 OA
ENDBRANCH   1   2
BRANCH   1   5
ATOM      5  C   UNL     1       7.490  -3.518  -6.476  1.00  0.00     0.003 C 
ATOM      6  C   UNL     1       8.243  -2.589  -7.424  1.00  0.00     0.004 C 
ENDBRANCH   1   5
TORSDOF 2
ENDMDL
MODEL 6
REMARK VINA RESULT:    -2.664     20.832     21.419
REMARK INTER + INTRA:          -3.015
REMARK INTER:                  -2.995
REMARK INTRA:                  -0.019
REMARK UNBOUND:                -0.039
REMARK SMILES CCCC(=O)[O-]
REMARK SMILES IDX 3 1 4 2 5 3 6 4 2 5 1 6
REMARK H PARENT
REMARK Flexibility Score: inf
ROOT
ATOM      1  C   UNL     1       4.839  -3.039  -7.459  1.00  0.00     0.052 C 
ENDROOT
BRANCH   1   2
ATOM      2  C   UNL     1       4.243  -4.065  -6.549  1.00  0.00     0.041 C 
ATOM      3  O   UNL     1       4.906  -4.515  -5.579  1.00  0.00    -0.550 OA
ATOM      4  O   UNL     1       2.970  -4.563  -6.802  1.00  0.00    -0.550 OA
ENDBRANCH   1   2
BRANCH   1   5
ATOM      5  C   UNL     1       4.391  -3.278  -8.903  1.00  0.00     0.003 C 
ATOM      6  C   UNL     1       4.202  -1.959  -9.646  1.00  0.00     0.004 C 
ENDBRANCH   1   5
TORSDOF 2
ENDMDL
MODEL 7
REMARK VINA RESULT:    -2.608     22.073     22.566
REMARK INTER + INTRA:          -2.952
REMARK INTER:                  -2.944
REMARK INTRA:                  -0.007
REMARK UNBOUND:                -0.039
REMARK SMILES CCCC(=O)[O-]
REMARK SMILES IDX 3 1 4 2 5 3 6 4 2 5 1 6
REMARK H PARENT
REMARK Flexibility Score: inf
ROOT
ATOM      1  C   UNL     1       7.556  -2.985  -7.963  1.00  0.00     0.052 C 
ENDROOT
BRANCH   1   2
ATOM      2  C   UNL     1       8.611  -2.008  -8.371  1.00  0.00     0.041 C 
ATOM      3  O   UNL     1       8.301  -0.968  -9.009  1.00  0.00    -0.550 OA
ATOM      4  O   UNL     1       9.947  -2.269  -8.091  1.00  0.00    -0.550 OA
ENDBRANCH   1   2
BRANCH   1   5
ATOM      5  C   UNL     1       7.663  -3.294  -6.467  1.00  0.00     0.003 C 
ATOM      6  C   UNL     1       6.733  -4.439  -6.074  1.00  0.00     0.004 C 
ENDBRANCH   1   5
TORSDOF 2
ENDMDL
MODEL 8
REMARK VINA RESULT:    -2.528     21.100     21.630
REMARK INTER + INTRA:          -2.862
REMARK INTER:                  -2.824
REMARK INTRA:                  -0.038
REMARK UNBOUND:                -0.039
REMARK SMILES CCCC(=O)[O-]
REMARK SMILES IDX 3 1 4 2 5 3 6 4 2 5 1 6
REMARK H PARENT
REMARK Flexibility Score: inf
ROOT
ATOM      1  C   UNL     1       4.374  -3.617  -8.349  1.00  0.00     0.052 C 
ENDROOT
BRANCH   1   2
ATOM      2  C   UNL     1       4.927  -2.333  -8.882  1.00  0.00     0.041 C 
ATOM      3  O   UNL     1       4.152  -1.437  -9.307  1.00  0.00    -0.550 OA
ATOM      4  O   UNL     1       6.302  -2.146  -8.957  1.00  0.00    -0.550 OA
ENDBRANCH   1   2
BRANCH   1   5
ATOM      5  C   UNL     1       4.294  -3.571  -6.821  1.00  0.00     0.003 C 
ATOM      6  C   UNL     1       5.389  -4.423  -6.187  1.00  0.00     0.004 C 
ENDBRANCH   1   5
TORSDOF 2
ENDMDL
MODEL 9
REMARK VINA RESULT:    -2.525     20.706     21.215
REMARK INTER + INTRA:          -2.859
REMARK INTER:                  -2.801
REMARK INTRA:                  -0.058
REMARK UNBOUND:                -0.039
REMARK SMILES CCCC(=O)[O-]
REMARK SMILES IDX 3 1 4 2 5 3 6 4 2 5 1 6
REMARK H PARENT
REMARK Flexibility Score: inf
ROOT
ATOM      1  C   UNL     1       5.448  -4.152  -7.101  1.00  0.00     0.052 C 
ENDROOT
BRANCH   1   2
ATOM      2  C   UNL     1       4.037  -4.338  -6.642  1.00  0.00     0.041 C 
ATOM      3  O   UNL     1       3.613  -3.723  -5.628  1.00  0.00    -0.550 OA
ATOM      4  O   UNL     1       3.201  -5.228  -7.305  1.00  0.00    -0.550 OA
ENDBRANCH   1   2
BRANCH   1   5
ATOM      5  C   UNL     1       6.425  -4.437  -5.957  1.00  0.00     0.003 C 
ATOM      6  C   UNL     1       6.335  -5.892  -5.507  1.00  0.00     0.004 C 
ENDBRANCH   1   5
TORSDOF 2
ENDMDL
