MODEL 1
REMARK VINA RESULT:    -4.514      0.000      0.000
REMARK INTER + INTRA:          -6.611
REMARK INTER:                  -6.361
REMARK INTRA:                  -0.249
REMARK UNBOUND:                -0.249
REMARK SMILES CCCCCCCCC(=O)[O-]
REMARK SMILES IDX 6 1 7 2 8 3 9 4 10 5 11 6 5 7 4 8 3 9 2 10 1 11
REMARK H PARENT
REMARK Flexibility Score: inf
ROOT
ATOM      1  C   UNL     1      -1.505  11.093  -8.150  1.00  0.00     0.000 C 
ENDROOT
BRANCH   1   2
ATOM      2  C   UNL     1      -2.550  11.373  -9.241  1.00  0.00     0.006 C 
BRANCH   2   3
ATOM      3  C   UNL     1      -3.877  10.644  -8.990  1.00  0.00     0.053 C 
BRANCH   3   4
ATOM      4  C   UNL     1      -4.452  10.151 -10.281  1.00  0.00     0.041 C 
ATOM      5  O   UNL     1      -3.986   9.116 -10.827  1.00  0.00    -0.550 OA
ATOM      6  O   UNL     1      -5.535  10.805 -10.855  1.00  0.00    -0.550 OA
ENDBRANCH   3   4
ENDBRANCH   2   3
ENDBRANCH   1   2
BRANCH   1   7
ATOM      7  C   UNL     1      -0.551  12.280  -7.930  1.00  0.00     0.000 C 
BRANCH   7   8
ATOM      8  C   UNL     1       0.924  11.850  -7.813  1.00  0.00    -0.000 C 
BRANCH   8   9
ATOM      9  C   UNL     1       1.172  10.332  -7.906  1.00  0.00    -0.000 C 
BRANCH   9  10
ATOM     10  C   UNL     1       2.663   9.967  -7.879  1.00  0.00    -0.003 C 
ATOM     11  C   UNL     1       3.191   9.711  -9.289  1.00  0.00     0.004 C 
ENDBRANCH   9  10
ENDBRANCH   8   9
ENDBRANCH   7   8
ENDBRANCH   1   7
TORSDOF 7
ENDMDL
MODEL 2
REMARK VINA RESULT:    -4.511      3.430      6.310
REMARK INTER + INTRA:          -6.607
REMARK INTER:                  -6.425
REMARK INTRA:                  -0.182
REMARK UNBOUND:                -0.249
REMARK SMILES CCCCCCCCC(=O)[O-]
REMARK SMILES IDX 6 1 7 2 8 3 9 4 10 5 11 6 5 7 4 8 3 9 2 10 1 11
REMARK H PARENT
REMARK Flexibility Score: inf
ROOT
ATOM      1  C   UNL     1      -0.618  12.233  -8.131  1.00  0.00     0.000 C 
ENDROOT
BRANCH   1   2
ATOM      2  C   UNL     1       0.669  11.746  -7.446  1.00  0.00     0.006 C 
BRANCH   2   3
ATOM      3  C   UNL     1       1.038  10.307  -7.834  1.00  0.00     0.053 C 
BRANCH   3   4
ATOM      4  C   UNL     1       2.501  10.207  -8.132  1.00  0.00     0.041 C 
ATOM      5  O   UNL     1       3.348  10.565  -7.272  1.00  0.00    -0.550 OA
ATOM      6  O   UNL     1       2.930   9.672  -9.340  1.00  0.00    -0.550 OA
ENDBRANCH   3   4
ENDBRANCH   2   3
ENDBRANCH   1   2
BRANCH   1   7
ATOM      7  C   UNL     1      -1.667  11.117  -8.276  1.00  0.00     0.000 C 
BRANCH   7   8
ATOM      8  C   UNL     1      -2.850  11.520  -9.175  1.00  0.00    -0.000 C 
BRANCH   8   9
ATOM      9  C   UNL     1      -3.759  10.359  -9.620  1.00  0.00    -0.000 C 
BRANCH   9  10
ATOM     10  C   UNL     1      -4.766  10.769 -10.704  1.00  0.00    -0.003 C 
ATOM     11  C   UNL     1      -6.181  10.850 -10.137  1.00  0.00     0.004 C 
ENDBRANCH   9  10
ENDBRANCH   8   9
ENDBRANCH   7   8
ENDBRANCH   1   7
TORSDOF 7
ENDMDL
MODEL 3
REMARK VINA RESULT:    -4.313     12.378     13.545
REMARK INTER + INTRA:          -6.328
REMARK INTER:                  -6.054
REMARK INTRA:                  -0.274
REMARK UNBOUND:                -0.249
REMARK SMILES CCCCCCCCC(=O)[O-]
REMARK SMILES IDX 6 1 7 2 8 3 9 4 10 5 11 6 5 7 4 8 3 9 2 10 1 11
REMARK H PARENT
REMARK Flexibility Score: inf
ROOT
ATOM      1  C   UNL     1       0.841   3.915 -20.198  1.00  0.00     0.000 C 
ENDROOT
BRANCH   1   2
ATOM      2  C   UNL     1      -0.139   4.790 -19.400  1.00  0.00     0.006 C 
BRANCH   2   3
ATOM      3  C   UNL     1      -1.353   5.228 -20.231  1.00  0.00     0.053 C 
BRANCH   3   4
ATOM      4  C   UNL     1      -2.098   6.319 -19.529  1.00  0.00     0.041 C 
ATOM      5  O   UNL     1      -2.236   6.289 -18.278  1.00  0.00    -0.550 OA
ATOM      6  O   UNL     1      -2.599   7.394 -20.252  1.00  0.00    -0.550 OA
ENDBRANCH   3   4
ENDBRANCH   2   3
ENDBRANCH   1   2
BRANCH   1   7
ATOM      7  C   UNL     1       0.355   2.462 -20.336  1.00  0.00     0.000 C 
BRANCH   7   8
ATOM      8  C   UNL     1       1.365   1.438 -19.786  1.00  0.00    -0.000 C 
BRANCH   8   9
ATOM      9  C   UNL     1       1.898   0.426 -20.817  1.00  0.00    -0.000 C 
BRANCH   9  10
ATOM     10  C   UNL     1       3.423   0.257 -20.756  1.00  0.00    -0.003 C 
ATOM     11  C   UNL     1       4.111   1.583 -20.445  1.00  0.00     0.004 C 
ENDBRANCH   9  10
ENDBRANCH   8   9
ENDBRANCH   7   8
ENDBRANCH   1   7
TORSDOF 7
ENDMDL
MODEL 4
REMARK VINA RESULT:    -4.267      1.395      2.549
REMARK INTER + INTRA:          -6.263
REMARK INTER:                  -6.001
REMARK INTRA:                  -0.262
REMARK UNBOUND:                -0.249
REMARK SMILES CCCCCCCCC(=O)[O-]
REMARK SMILES IDX 6 1 7 2 8 3 9 4 10 5 11 6 5 7 4 8 3 9 2 10 1 11
REMARK H PARENT
REMARK Flexibility Score: inf
ROOT
ATOM      1  C   UNL     1      -3.949  11.454  -9.209  1.00  0.00     0.000 C 
ENDROOT
BRANCH   1   2
ATOM      2  C   UNL     1      -4.542  10.782 -10.458  1.00  0.00     0.006 C 
BRANCH   2   3
ATOM      3  C   UNL     1      -4.092   9.324 -10.615  1.00  0.00     0.053 C 
BRANCH   3   4
ATOM      4  C   UNL     1      -5.273   8.406 -10.570  1.00  0.00     0.041 C 
ATOM      5  O   UNL     1      -6.358   8.795 -10.061  1.00  0.00    -0.550 OA
ATOM      6  O   UNL     1      -5.192   7.139 -11.134  1.00  0.00    -0.550 OA
ENDBRANCH   3   4
ENDBRANCH   2   3
ENDBRANCH   1   2
BRANCH   1   7
ATOM      7  C   UNL     1      -2.418  11.320  -9.139  1.00  0.00     0.000 C 
BRANCH   7   8
ATOM      8  C   UNL     1      -1.770  12.343  -8.186  1.00  0.00    -0.000 C 
BRANCH   8   9
ATOM      9  C   UNL     1      -0.263  12.144  -7.940  1.00  0.00    -0.000 C 
BRANCH   9  10
ATOM     10  C   UNL     1       0.136  10.666  -7.831  1.00  0.00    -0.003 C 
ATOM     11  C   UNL     1       1.637  10.484  -8.038  1.00  0.00     0.004 C 
ENDBRANCH   9  10
ENDBRANCH   8   9
ENDBRANCH   7   8
ENDBRANCH   1   7
TORSDOF 7
ENDMDL
MODEL 5
REMARK VINA RESULT:    -4.236     13.746     16.005
REMARK INTER + INTRA:          -6.219
REMARK INTER:                  -5.822
REMARK INTRA:                  -0.396
REMARK UNBOUND:                -0.249
REMARK SMILES CCCCCCCCC(=O)[O-]
REMARK SMILES IDX 6 1 7 2 8 3 9 4 10 5 11 6 5 7 4 8 3 9 2 10 1 11
REMARK H PARENT
REMARK Flexibility Score: inf
ROOT
ATOM      1  C   UNL     1       9.568  11.963 -21.295  1.00  0.00     0.000 C 
ENDROOT
BRANCH   1   2
ATOM      2  C   UNL     1      10.970  11.945 -20.665  1.00  0.00     0.006 C 
BRANCH   2   3
ATOM      3  C   UNL     1      10.989  12.527 -19.246  1.00  0.00     0.053 C 
BRANCH   3   4
ATOM      4  C   UNL     1      11.422  11.487 -18.261  1.00  0.00     0.041 C 
ATOM      5  O   UNL     1      12.021  11.824 -17.206  1.00  0.00    -0.550 OA
ATOM      6  O   UNL     1      11.121  10.149 -18.485  1.00  0.00    -0.550 OA
ENDBRANCH   3   4
ENDBRANCH   2   3
ENDBRANCH   1   2
BRANCH   1   7
ATOM      7  C   UNL     1       8.598  10.993 -20.599  1.00  0.00     0.000 C 
BRANCH   7   8
ATOM      8  C   UNL     1       7.127  11.237 -20.986  1.00  0.00    -0.000 C 
BRANCH   8   9
ATOM      9  C   UNL     1       6.565  12.613 -20.585  1.00  0.00    -0.000 C 
BRANCH   9  10
ATOM     10  C   UNL     1       6.863  12.979 -19.124  1.00  0.00    -0.003 C 
ATOM     11  C   UNL     1       5.942  14.095 -18.638  1.00  0.00     0.004 C 
ENDBRANCH   9  10
ENDBRANCH   8   9
ENDBRANCH   7   8
ENDBRANCH   1   7
TORSDOF 7
ENDMDL
MODEL 6
REMARK VINA RESULT:    -4.086     12.670     14.379
REMARK INTER + INTRA:          -6.008
REMARK INTER:                  -5.747
REMARK INTRA:                  -0.261
REMARK UNBOUND:                -0.249
REMARK SMILES CCCCCCCCC(=O)[O-]
REMARK SMILES IDX 6 1 7 2 8 3 9 4 10 5 11 6 5 7 4 8 3 9 2 10 1 11
REMARK H PARENT
REMARK Flexibility Score: inf
ROOT
ATOM      1  C   UNL     1       1.504   3.909 -20.106  1.00  0.00     0.000 C 
ENDROOT
BRANCH   1   2
ATOM      2  C   UNL     1       0.566   2.700 -20.252  1.00  0.00     0.006 C 
BRANCH   2   3
ATOM      3  C   UNL     1       1.180   1.405 -19.703  1.00  0.00     0.053 C 
BRANCH   3   4
ATOM      4  C   UNL     1       1.815   0.619 -20.807  1.00  0.00     0.041 C 
ATOM      5  O   UNL     1       1.136   0.273 -21.809  1.00  0.00    -0.550 OA
ATOM      6  O   UNL     1       3.168   0.311 -20.752  1.00  0.00    -0.550 OA
ENDBRANCH   3   4
ENDBRANCH   2   3
ENDBRANCH   1   2
BRANCH   1   7
ATOM      7  C   UNL     1       0.771   5.165 -19.605  1.00  0.00     0.000 C 
BRANCH   7   8
ATOM      8  C   UNL     1      -0.750   5.104 -19.839  1.00  0.00    -0.000 C 
BRANCH   8   9
ATOM      9  C   UNL     1      -1.585   6.051 -18.957  1.00  0.00    -0.000 C 
BRANCH   9  10
ATOM     10  C   UNL     1      -2.531   6.947 -19.770  1.00  0.00    -0.003 C 
ATOM     11  C   UNL     1      -3.709   6.147 -20.319  1.00  0.00     0.004 C 
ENDBRANCH   9  10
ENDBRANCH   8   9
ENDBRANCH   7   8
ENDBRANCH   1   7
TORSDOF 7
ENDMDL
MODEL 7
REMARK VINA RESULT:    -4.065      3.634      6.312
REMARK INTER + INTRA:          -5.978
REMARK INTER:                  -5.651
REMARK INTRA:                  -0.327
REMARK UNBOUND:                -0.249
REMARK SMILES CCCCCCCCC(=O)[O-]
REMARK SMILES IDX 6 1 7 2 8 3 9 4 10 5 11 6 5 7 4 8 3 9 2 10 1 11
REMARK H PARENT
REMARK Flexibility Score: inf
ROOT
ATOM      1  C   UNL     1      -1.357  12.213  -8.215  1.00  0.00     0.000 C 
ENDROOT
BRANCH   1   2
ATOM      2  C   UNL     1      -0.535  10.976  -7.819  1.00  0.00     0.006 C 
BRANCH   2   3
ATOM      3  C   UNL     1       0.977  11.203  -7.952  1.00  0.00     0.053 C 
BRANCH   3   4
ATOM      4  C   UNL     1       1.624  11.213  -6.603  1.00  0.00     0.041 C 
ATOM      5  O   UNL     1       2.875  11.111  -6.500  1.00  0.00    -0.550 OA
ATOM      6  O   UNL     1       0.850  11.385  -5.462  1.00  0.00    -0.550 OA
ENDBRANCH   3   4
ENDBRANCH   2   3
ENDBRANCH   1   2
BRANCH   1   7
ATOM      7  C   UNL     1      -2.601  11.852  -9.045  1.00  0.00     0.000 C 
BRANCH   7   8
ATOM      8  C   UNL     1      -2.925  10.347  -9.014  1.00  0.00    -0.000 C 
BRANCH   8   9
ATOM      9  C   UNL     1      -4.053   9.900  -9.964  1.00  0.00    -0.000 C 
BRANCH   9  10
ATOM     10  C   UNL     1      -4.853  11.078 -10.538  1.00  0.00    -0.003 C 
ATOM     11  C   UNL     1      -6.355  10.831 -10.422  1.00  0.00     0.004 C 
ENDBRANCH   9  10
ENDBRANCH   8   9
ENDBRANCH   7   8
ENDBRANCH   1   7
TORSDOF 7
ENDMDL
MODEL 8
REMARK VINA RESULT:    -4.060     14.571     16.429
REMARK INTER + INTRA:          -5.971
REMARK INTER:                  -5.530
REMARK INTRA:                  -0.440
REMARK UNBOUND:                -0.249
REMARK SMILES CCCCCCCCC(=O)[O-]
REMARK SMILES IDX 6 1 7 2 8 3 9 4 10 5 11 6 5 7 4 8 3 9 2 10 1 11
REMARK H PARENT
REMARK Flexibility Score: inf
ROOT
ATOM      1  C   UNL     1      10.137  11.110 -18.266  1.00  0.00     0.000 C 
ENDROOT
BRANCH   1   2
ATOM      2  C   UNL     1      11.388  11.107 -19.160  1.00  0.00     0.006 C 
BRANCH   2   3
ATOM      3  C   UNL     1      12.422  12.158 -18.735  1.00  0.00     0.053 C 
BRANCH   3   4
ATOM      4  C   UNL     1      12.445  13.291 -19.712  1.00  0.00     0.041 C 
ATOM      5  O   UNL     1      12.096  13.104 -20.907  1.00  0.00    -0.550 OA
ATOM      6  O   UNL     1      12.806  14.565 -19.290  1.00  0.00    -0.550 OA
ENDBRANCH   3   4
ENDBRANCH   2   3
ENDBRANCH   1   2
BRANCH   1   7
ATOM      7  C   UNL     1       9.116  12.181 -18.686  1.00  0.00     0.000 C 
BRANCH   7   8
ATOM      8  C   UNL     1       8.673  12.044 -20.154  1.00  0.00    -0.000 C 
BRANCH   8   9
ATOM      9  C   UNL     1       7.180  12.320 -20.415  1.00  0.00    -0.000 C 
BRANCH   9  10
ATOM     10  C   UNL     1       6.418  12.733 -19.148  1.00  0.00    -0.003 C 
ATOM     11  C   UNL     1       6.012  14.204 -19.205  1.00  0.00     0.004 C 
ENDBRANCH   9  10
ENDBRANCH   8   9
ENDBRANCH   7   8
ENDBRANCH   1   7
TORSDOF 7
ENDMDL
MODEL 9
REMARK VINA RESULT:    -4.025     12.229     13.999
REMARK INTER + INTRA:          -5.922
REMARK INTER:                  -5.551
REMARK INTRA:                  -0.370
REMARK UNBOUND:                -0.249
REMARK SMILES CCCCCCCCC(=O)[O-]
REMARK SMILES IDX 6 1 7 2 8 3 9 4 10 5 11 6 5 7 4 8 3 9 2 10 1 11
REMARK H PARENT
REMARK Flexibility Score: inf
ROOT
ATOM      1  C   UNL     1      -1.800   5.972 -19.144  1.00  0.00     0.000 C 
ENDROOT
BRANCH   1   2
ATOM      2  C   UNL     1      -0.856   5.141 -20.028  1.00  0.00     0.006 C 
BRANCH   2   3
ATOM      3  C   UNL     1       0.585   5.121 -19.499  1.00  0.00     0.053 C 
BRANCH   3   4
ATOM      4  C   UNL     1       1.436   4.220 -20.338  1.00  0.00     0.041 C 
ATOM      5  O   UNL     1       1.302   2.971 -20.261  1.00  0.00    -0.550 OA
ATOM      6  O   UNL     1       2.342   4.763 -21.240  1.00  0.00    -0.550 OA
ENDBRANCH   3   4
ENDBRANCH   2   3
ENDBRANCH   1   2
BRANCH   1   7
ATOM      7  C   UNL     1      -2.609   7.001 -19.951  1.00  0.00     0.000 C 
BRANCH   7   8
ATOM      8  C   UNL     1      -3.019   6.482 -21.342  1.00  0.00    -0.000 C 
BRANCH   8   9
ATOM      9  C   UNL     1      -4.468   5.970 -21.448  1.00  0.00    -0.000 C 
BRANCH   9  10
ATOM     10  C   UNL     1      -4.588   4.459 -21.202  1.00  0.00    -0.003 C 
ATOM     11  C   UNL     1      -6.050   4.022 -21.171  1.00  0.00     0.004 C 
ENDBRANCH   9  10
ENDBRANCH   8   9
ENDBRANCH   7   8
ENDBRANCH   1   7
TORSDOF 7
ENDMDL
