MODEL 1
REMARK VINA RESULT:    -4.899      0.000      0.000
REMARK INTER + INTRA:          -5.728
REMARK INTER:                  -5.615
REMARK INTRA:                  -0.113
REMARK UNBOUND:                -0.113
REMARK SMILES COc1ccc(C(C)=O)cc1O
REMARK SMILES IDX 6 1 10 2 11 3 3 4 4 5 5 6 7 7 8 8 9 9 12 10 2 12 1 13
REMARK H PARENT 12 11
REMARK Flexibility Score: inf
ROOT
ATOM      1  C   UNL     1       7.693  -9.057  42.875  1.00  0.00     0.021 A 
ATOM      2  C   UNL     1       7.395  -9.075  41.499  1.00  0.00     0.062 A 
ATOM      3  C   UNL     1       6.616 -10.097  40.946  1.00  0.00     0.158 A 
ATOM      4  C   UNL     1       6.117 -11.127  41.762  1.00  0.00     0.160 A 
ATOM      5  C   UNL     1       6.412 -11.113  43.138  1.00  0.00     0.051 A 
ATOM      6  C   UNL     1       7.191 -10.090  43.686  1.00  0.00     0.016 A 
ENDROOT
BRANCH   1   7
ATOM      7  C   UNL     1       8.519  -7.975  43.475  1.00  0.00     0.159 C 
ATOM      8  C   UNL     1       8.280  -6.527  43.161  1.00  0.00     0.093 C 
ATOM      9  O   UNL     1       9.452  -8.268  44.271  1.00  0.00    -0.295 OA
ENDBRANCH   1   7
BRANCH   3  10
ATOM     10  O   UNL     1       6.348 -10.072  39.577  1.00  0.00    -0.504 OA
ATOM     11  H   UNL     1       6.138 -10.913  39.052  1.00  0.00     0.293 HD
ENDBRANCH   3  10
BRANCH   4  12
ATOM     12  O   UNL     1       5.338 -12.139  41.179  1.00  0.00    -0.493 OA
ATOM     13  C   UNL     1       5.839 -13.409  40.771  1.00  0.00     0.278 C 
ENDBRANCH   4  12
TORSDOF 3
ENDMDL
MODEL 2
REMARK VINA RESULT:    -4.814      1.654      2.146
REMARK INTER + INTRA:          -5.631
REMARK INTER:                  -5.516
REMARK INTRA:                  -0.115
REMARK UNBOUND:                -0.113
REMARK SMILES COc1ccc(C(C)=O)cc1O
REMARK SMILES IDX 6 1 10 2 11 3 3 4 4 5 5 6 7 7 8 8 9 9 12 10 2 12 1 13
REMARK H PARENT 12 11
REMARK Flexibility Score: inf
ROOT
ATOM      1  C   UNL     1       8.121  -7.228  42.713  1.00  0.00     0.021 A 
ATOM      2  C   UNL     1       7.616  -7.820  41.540  1.00  0.00     0.062 A 
ATOM      3  C   UNL     1       7.188  -9.152  41.534  1.00  0.00     0.158 A 
ATOM      4  C   UNL     1       7.259  -9.923  42.708  1.00  0.00     0.160 A 
ATOM      5  C   UNL     1       7.763  -9.335  43.882  1.00  0.00     0.051 A 
ATOM      6  C   UNL     1       8.189  -8.005  43.883  1.00  0.00     0.016 A 
ENDROOT
BRANCH   1   7
ATOM      7  C   UNL     1       8.578  -5.812  42.732  1.00  0.00     0.159 C 
ATOM      8  C   UNL     1       7.611  -4.667  42.797  1.00  0.00     0.093 C 
ATOM      9  O   UNL     1       9.812  -5.552  42.691  1.00  0.00    -0.295 OA
ENDBRANCH   1   7
BRANCH   3  10
ATOM     10  O   UNL     1       6.695  -9.695  40.346  1.00  0.00    -0.504 OA
ATOM     11  H   UNL     1       7.299  -9.923  39.565  1.00  0.00     0.293 HD
ENDBRANCH   3  10
BRANCH   4  12
ATOM     12  O   UNL     1       6.823 -11.257  42.671  1.00  0.00    -0.493 OA
ATOM     13  C   UNL     1       5.556 -11.704  43.145  1.00  0.00     0.278 C 
ENDBRANCH   4  12
TORSDOF 3
ENDMDL
MODEL 3
REMARK VINA RESULT:    -4.755      1.672      5.160
REMARK INTER + INTRA:          -5.563
REMARK INTER:                  -5.457
REMARK INTRA:                  -0.106
REMARK UNBOUND:                -0.113
REMARK SMILES COc1ccc(C(C)=O)cc1O
REMARK SMILES IDX 6 1 10 2 11 3 3 4 4 5 5 6 7 7 8 8 9 9 12 10 2 12 1 13
REMARK H PARENT 12 11
REMARK Flexibility Score: inf
ROOT
ATOM      1  C   UNL     1       7.097 -10.017  42.896  1.00  0.00     0.021 A 
ATOM      2  C   UNL     1       7.857  -9.572  43.995  1.00  0.00     0.062 A 
ATOM      3  C   UNL     1       8.640  -8.417  43.905  1.00  0.00     0.158 A 
ATOM      4  C   UNL     1       8.681  -7.680  42.708  1.00  0.00     0.160 A 
ATOM      5  C   UNL     1       7.922  -8.121  41.608  1.00  0.00     0.051 A 
ATOM      6  C   UNL     1       7.142  -9.276  41.703  1.00  0.00     0.016 A 
ENDROOT
BRANCH   1   7
ATOM      7  C   UNL     1       6.259 -11.244  42.980  1.00  0.00     0.159 C 
ATOM      8  C   UNL     1       6.864 -12.612  43.100  1.00  0.00     0.093 C 
ATOM      9  O   UNL     1       5.002 -11.146  42.948  1.00  0.00    -0.295 OA
ENDBRANCH   1   7
BRANCH   3  10
ATOM     10  O   UNL     1       9.377  -8.016  45.021  1.00  0.00    -0.504 OA
ATOM     11  H   UNL     1       9.884  -8.676  45.599  1.00  0.00     0.293 HD
ENDBRANCH   3  10
BRANCH   4  12
ATOM     12  O   UNL     1       9.476  -6.525  42.648  1.00  0.00    -0.493 OA
ATOM     13  C   UNL     1       8.981  -5.218  42.373  1.00  0.00     0.278 C 
ENDBRANCH   4  12
TORSDOF 3
ENDMDL
MODEL 4
REMARK VINA RESULT:    -4.735      1.775      3.137
REMARK INTER + INTRA:          -5.540
REMARK INTER:                  -5.423
REMARK INTRA:                  -0.117
REMARK UNBOUND:                -0.113
REMARK SMILES COc1ccc(C(C)=O)cc1O
REMARK SMILES IDX 6 1 10 2 11 3 3 4 4 5 5 6 7 7 8 8 9 9 12 10 2 12 1 13
REMARK H PARENT 12 11
REMARK Flexibility Score: inf
ROOT
ATOM      1  C   UNL     1       8.271  -6.958  42.675  1.00  0.00     0.021 A 
ATOM      2  C   UNL     1       8.246  -7.730  43.853  1.00  0.00     0.062 A 
ATOM      3  C   UNL     1       7.788  -9.052  43.835  1.00  0.00     0.158 A 
ATOM      4  C   UNL     1       7.343  -9.631  42.634  1.00  0.00     0.160 A 
ATOM      5  C   UNL     1       7.367  -8.863  41.455  1.00  0.00     0.051 A 
ATOM      6  C   UNL     1       7.825  -7.543  41.477  1.00  0.00     0.016 A 
ENDROOT
BRANCH   1   7
ATOM      7  C   UNL     1       8.757  -5.552  42.681  1.00  0.00     0.159 C 
ATOM      8  C   UNL     1       7.813  -4.387  42.737  1.00  0.00     0.093 C 
ATOM      9  O   UNL     1       9.995  -5.317  42.637  1.00  0.00    -0.295 OA
ENDBRANCH   1   7
BRANCH   3  10
ATOM     10  O   UNL     1       7.782  -9.777  45.028  1.00  0.00    -0.504 OA
ATOM     11  H   UNL     1       8.099 -10.738  45.078  1.00  0.00     0.293 HD
ENDBRANCH   3  10
BRANCH   4  12
ATOM     12  O   UNL     1       6.889 -10.959  42.647  1.00  0.00    -0.493 OA
ATOM     13  C   UNL     1       5.523 -11.344  42.773  1.00  0.00     0.278 C 
ENDBRANCH   4  12
TORSDOF 3
ENDMDL
MODEL 5
REMARK VINA RESULT:    -4.709      2.691      4.210
REMARK INTER + INTRA:          -5.511
REMARK INTER:                  -5.411
REMARK INTRA:                  -0.100
REMARK UNBOUND:                -0.113
REMARK SMILES COc1ccc(C(C)=O)cc1O
REMARK SMILES IDX 6 1 10 2 11 3 3 4 4 5 5 6 7 7 8 8 9 9 12 10 2 12 1 13
REMARK H PARENT 12 11
REMARK Flexibility Score: inf
ROOT
ATOM      1  C   UNL     1       8.453  -6.367  41.849  1.00  0.00     0.021 A 
ATOM      2  C   UNL     1       8.205  -6.194  43.224  1.00  0.00     0.062 A 
ATOM      3  C   UNL     1       7.948  -7.292  44.051  1.00  0.00     0.158 A 
ATOM      4  C   UNL     1       7.932  -8.593  43.518  1.00  0.00     0.160 A 
ATOM      5  C   UNL     1       8.181  -8.770  42.144  1.00  0.00     0.051 A 
ATOM      6  C   UNL     1       8.437  -7.670  41.322  1.00  0.00     0.016 A 
ENDROOT
BRANCH   1   7
ATOM      7  C   UNL     1       8.729  -5.207  40.959  1.00  0.00     0.159 C 
ATOM      8  C   UNL     1       7.931  -3.939  41.039  1.00  0.00     0.093 C 
ATOM      9  O   UNL     1       9.656  -5.278  40.108  1.00  0.00    -0.295 OA
ENDBRANCH   1   7
BRANCH   3  10
ATOM     10  O   UNL     1       7.706  -7.070  45.408  1.00  0.00    -0.504 OA
ATOM     11  H   UNL     1       7.181  -7.724  45.978  1.00  0.00     0.293 HD
ENDBRANCH   3  10
BRANCH   4  12
ATOM     12  O   UNL     1       7.672  -9.676  44.372  1.00  0.00    -0.493 OA
ATOM     13  C   UNL     1       6.760 -10.731  44.082  1.00  0.00     0.278 C 
ENDBRANCH   4  12
TORSDOF 3
ENDMDL
MODEL 6
REMARK VINA RESULT:    -4.597      8.291     10.088
REMARK INTER + INTRA:          -5.382
REMARK INTER:                  -5.281
REMARK INTRA:                  -0.101
REMARK UNBOUND:                -0.113
REMARK SMILES COc1ccc(C(C)=O)cc1O
REMARK SMILES IDX 6 1 10 2 11 3 3 4 4 5 5 6 7 7 8 8 9 9 12 10 2 12 1 13
REMARK H PARENT 12 11
REMARK Flexibility Score: inf
ROOT
ATOM      1  C   UNL     1       6.400  -1.696  35.697  1.00  0.00     0.021 A 
ATOM      2  C   UNL     1       7.333  -2.720  35.449  1.00  0.00     0.062 A 
ATOM      3  C   UNL     1       7.830  -3.507  36.493  1.00  0.00     0.158 A 
ATOM      4  C   UNL     1       7.401  -3.285  37.814  1.00  0.00     0.160 A 
ATOM      5  C   UNL     1       6.467  -2.263  38.065  1.00  0.00     0.051 A 
ATOM      6  C   UNL     1       5.974  -1.479  37.019  1.00  0.00     0.016 A 
ENDROOT
BRANCH   1   7
ATOM      7  C   UNL     1       5.863  -0.853  34.594  1.00  0.00     0.159 C 
ATOM      8  C   UNL     1       6.322   0.560  34.381  1.00  0.00     0.093 C 
ATOM      9  O   UNL     1       4.997  -1.326  33.809  1.00  0.00    -0.295 OA
ENDBRANCH   1   7
BRANCH   3  10
ATOM     10  O   UNL     1       8.755  -4.510  36.198  1.00  0.00    -0.504 OA
ATOM     11  H   UNL     1       9.468  -4.799  36.858  1.00  0.00     0.293 HD
ENDBRANCH   3  10
BRANCH   4  12
ATOM     12  O   UNL     1       7.916  -4.090  38.841  1.00  0.00    -0.493 OA
ATOM     13  C   UNL     1       7.977  -3.709  40.212  1.00  0.00     0.278 C 
ENDBRANCH   4  12
TORSDOF 3
ENDMDL
MODEL 7
REMARK VINA RESULT:    -4.549      3.165      6.813
REMARK INTER + INTRA:          -5.327
REMARK INTER:                  -5.229
REMARK INTRA:                  -0.099
REMARK UNBOUND:                -0.113
REMARK SMILES COc1ccc(C(C)=O)cc1O
REMARK SMILES IDX 6 1 10 2 11 3 3 4 4 5 5 6 7 7 8 8 9 9 12 10 2 12 1 13
REMARK H PARENT 12 11
REMARK Flexibility Score: inf
ROOT
ATOM      1  C   UNL     1       8.307  -6.508  42.468  1.00  0.00     0.021 A 
ATOM      2  C   UNL     1       9.659  -6.137  42.339  1.00  0.00     0.062 A 
ATOM      3  C   UNL     1      10.046  -4.795  42.412  1.00  0.00     0.158 A 
ATOM      4  C   UNL     1       9.083  -3.790  42.614  1.00  0.00     0.160 A 
ATOM      5  C   UNL     1       7.731  -4.157  42.744  1.00  0.00     0.051 A 
ATOM      6  C   UNL     1       7.349  -5.499  42.671  1.00  0.00     0.016 A 
ENDROOT
BRANCH   1   7
ATOM      7  C   UNL     1       7.883  -7.932  42.393  1.00  0.00     0.159 C 
ATOM      8  C   UNL     1       8.031  -8.866  43.558  1.00  0.00     0.093 C 
ATOM      9  O   UNL     1       7.384  -8.381  41.325  1.00  0.00    -0.295 OA
ENDBRANCH   1   7
BRANCH   3  10
ATOM     10  O   UNL     1      11.399  -4.477  42.278  1.00  0.00    -0.504 OA
ATOM     11  H   UNL     1      11.896  -4.588  41.402  1.00  0.00     0.293 HD
ENDBRANCH   3  10
BRANCH   4  12
ATOM     12  O   UNL     1       9.502  -2.452  42.683  1.00  0.00    -0.493 OA
ATOM     13  C   UNL     1       8.995  -1.495  43.609  1.00  0.00     0.278 C 
ENDBRANCH   4  12
TORSDOF 3
ENDMDL
MODEL 8
REMARK VINA RESULT:    -4.465      3.462      5.258
REMARK INTER + INTRA:          -5.231
REMARK INTER:                  -5.138
REMARK INTRA:                  -0.093
REMARK UNBOUND:                -0.113
REMARK SMILES COc1ccc(C(C)=O)cc1O
REMARK SMILES IDX 6 1 10 2 11 3 3 4 4 5 5 6 7 7 8 8 9 9 12 10 2 12 1 13
REMARK H PARENT 12 11
REMARK Flexibility Score: inf
ROOT
ATOM      1  C   UNL     1       8.604  -4.079  41.974  1.00  0.00     0.021 A 
ATOM      2  C   UNL     1       9.645  -4.681  41.241  1.00  0.00     0.062 A 
ATOM      3  C   UNL     1       9.662  -6.063  41.021  1.00  0.00     0.158 A 
ATOM      4  C   UNL     1       8.634  -6.874  41.533  1.00  0.00     0.160 A 
ATOM      5  C   UNL     1       7.592  -6.276  42.265  1.00  0.00     0.051 A 
ATOM      6  C   UNL     1       7.579  -4.896  42.483  1.00  0.00     0.016 A 
ENDROOT
BRANCH   1   7
ATOM      7  C   UNL     1       8.574  -2.611  42.214  1.00  0.00     0.159 C 
ATOM      8  C   UNL     1       8.366  -1.629  41.099  1.00  0.00     0.093 C 
ATOM      9  O   UNL     1       8.729  -2.165  43.383  1.00  0.00    -0.295 OA
ENDBRANCH   1   7
BRANCH   3  10
ATOM     10  O   UNL     1      10.715  -6.614  40.290  1.00  0.00    -0.504 OA
ATOM     11  H   UNL     1      11.495  -7.083  40.735  1.00  0.00     0.293 HD
ENDBRANCH   3  10
BRANCH   4  12
ATOM     12  O   UNL     1       8.678  -8.257  41.296  1.00  0.00    -0.493 OA
ATOM     13  C   UNL     1       7.588  -9.148  41.514  1.00  0.00     0.278 C 
ENDBRANCH   4  12
TORSDOF 3
ENDMDL
MODEL 9
REMARK VINA RESULT:    -4.384      3.540      5.599
REMARK INTER + INTRA:          -5.139
REMARK INTER:                  -5.027
REMARK INTRA:                  -0.112
REMARK UNBOUND:                -0.113
REMARK SMILES COc1ccc(C(C)=O)cc1O
REMARK SMILES IDX 6 1 10 2 11 3 3 4 4 5 5 6 7 7 8 8 9 9 12 10 2 12 1 13
REMARK H PARENT 12 11
REMARK Flexibility Score: inf
ROOT
ATOM      1  C   UNL     1       8.295  -4.328  41.105  1.00  0.00     0.021 A 
ATOM      2  C   UNL     1       9.211  -5.273  40.605  1.00  0.00     0.062 A 
ATOM      3  C   UNL     1       9.507  -6.436  41.324  1.00  0.00     0.158 A 
ATOM      4  C   UNL     1       8.889  -6.679  42.563  1.00  0.00     0.160 A 
ATOM      5  C   UNL     1       7.972  -5.737  43.066  1.00  0.00     0.051 A 
ATOM      6  C   UNL     1       7.680  -4.577  42.344  1.00  0.00     0.016 A 
ENDROOT
BRANCH   1   7
ATOM      7  C   UNL     1       7.971  -3.087  40.349  1.00  0.00     0.159 C 
ATOM      8  C   UNL     1       8.244  -1.723  40.910  1.00  0.00     0.093 C 
ATOM      9  O   UNL     1       7.451  -3.170  39.204  1.00  0.00    -0.295 OA
ENDBRANCH   1   7
BRANCH   3  10
ATOM     10  O   UNL     1      10.423  -7.343  40.788  1.00  0.00    -0.504 OA
ATOM     11  H   UNL     1      10.146  -8.071  40.140  1.00  0.00     0.293 HD
ENDBRANCH   3  10
BRANCH   4  12
ATOM     12  O   UNL     1       9.205  -7.855  43.262  1.00  0.00    -0.493 OA
ATOM     13  C   UNL     1       8.244  -8.737  43.834  1.00  0.00     0.278 C 
ENDBRANCH   4  12
TORSDOF 3
ENDMDL
