MODEL 1
REMARK VINA RESULT:    -5.010      0.000      0.000
REMARK INTER + INTRA:          -7.956
REMARK INTER:                  -7.646
REMARK INTRA:                  -0.309
REMARK UNBOUND:                -0.309
REMARK SMILES CCCCCCCCCC=CC(=O)[O-]
REMARK SMILES IDX 7 1 8 2 9 3 10 4 11 5 12 6 13 7 14 8 6 9 5 10 4 11 3 12 2 13
REMARK SMILES IDX 1 14
REMARK H PARENT
REMARK Flexibility Score: inf
ROOT
ATOM      1  C   UNL     1      -0.101  -7.918  -2.981  1.00  0.00     0.000 C 
ENDROOT
BRANCH   1   2
ATOM      2  C   UNL     1       1.153  -7.071  -2.694  1.00  0.00     0.004 C 
BRANCH   2   3
ATOM      3  C   UNL     1       2.484  -7.779  -3.006  1.00  0.00     0.027 C 
BRANCH   3   4
ATOM      4  C   UNL     1       3.470  -7.684  -1.876  1.00  0.00    -0.025 C 
ATOM      5  C   UNL     1       4.701  -7.197  -2.059  1.00  0.00     0.020 C 
BRANCH   5   6
ATOM      6  C   UNL     1       5.676  -7.104  -0.963  1.00  0.00     0.064 C 
ATOM      7  O   UNL     1       6.895  -6.939  -1.227  1.00  0.00    -0.545 OA
ATOM      8  O   UNL     1       5.271  -7.191   0.364  1.00  0.00    -0.545 OA
ENDBRANCH   5   6
ENDBRANCH   3   4
ENDBRANCH   2   3
ENDBRANCH   1   2
BRANCH   1   9
ATOM      9  C   UNL     1      -1.397  -7.091  -2.952  1.00  0.00     0.000 C 
BRANCH   9  10
ATOM     10  C   UNL     1      -2.651  -7.931  -3.260  1.00  0.00     0.000 C 
BRANCH  10  11
ATOM     11  C   UNL     1      -3.933  -7.120  -3.526  1.00  0.00    -0.000 C 
BRANCH  11  12
ATOM     12  C   UNL     1      -3.754  -5.895  -4.444  1.00  0.00    -0.000 C 
BRANCH  12  13
ATOM     13  C   UNL     1      -4.146  -6.155  -5.914  1.00  0.00    -0.003 C 
ATOM     14  C   UNL     1      -5.458  -6.930  -6.046  1.00  0.00     0.004 C 
ENDBRANCH  12  13
ENDBRANCH  11  12
ENDBRANCH  10  11
ENDBRANCH   9  10
ENDBRANCH   1   9
TORSDOF 9
ENDMDL
MODEL 2
REMARK VINA RESULT:    -4.883      0.936      1.287
REMARK INTER + INTRA:          -7.762
REMARK INTER:                  -7.429
REMARK INTRA:                  -0.333
REMARK UNBOUND:                -0.309
REMARK SMILES CCCCCCCCCC=CC(=O)[O-]
REMARK SMILES IDX 7 1 8 2 9 3 10 4 11 5 12 6 13 7 14 8 6 9 5 10 4 11 3 12 2 13
REMARK SMILES IDX 1 14
REMARK H PARENT
REMARK Flexibility Score: inf
ROOT
ATOM      1  C   UNL     1       0.426  -7.243  -2.907  1.00  0.00     0.000 C 
ENDROOT
BRANCH   1   2
ATOM      2  C   UNL     1       1.624  -8.151  -2.570  1.00  0.00     0.004 C 
BRANCH   2   3
ATOM      3  C   UNL     1       2.922  -7.794  -3.317  1.00  0.00     0.027 C 
BRANCH   3   4
ATOM      4  C   UNL     1       4.081  -7.562  -2.389  1.00  0.00    -0.025 C 
ATOM      5  C   UNL     1       3.979  -7.777  -1.074  1.00  0.00     0.020 C 
BRANCH   5   6
ATOM      6  C   UNL     1       5.104  -7.549  -0.155  1.00  0.00     0.064 C 
ATOM      7  O   UNL     1       5.290  -8.338   0.807  1.00  0.00    -0.545 OA
ATOM      8  O   UNL     1       5.968  -6.475  -0.334  1.00  0.00    -0.545 OA
ENDBRANCH   5   6
ENDBRANCH   3   4
ENDBRANCH   2   3
ENDBRANCH   1   2
BRANCH   1   9
ATOM      9  C   UNL     1      -0.915  -7.995  -2.882  1.00  0.00     0.000 C 
BRANCH   9  10
ATOM     10  C   UNL     1      -2.114  -7.094  -3.235  1.00  0.00     0.000 C 
BRANCH  10  11
ATOM     11  C   UNL     1      -3.452  -7.831  -3.430  1.00  0.00    -0.000 C 
BRANCH  11  12
ATOM     12  C   UNL     1      -4.544  -7.026  -4.160  1.00  0.00    -0.000 C 
BRANCH  12  13
ATOM     13  C   UNL     1      -3.994  -6.061  -5.232  1.00  0.00    -0.003 C 
ATOM     14  C   UNL     1      -4.422  -6.448  -6.648  1.00  0.00     0.004 C 
ENDBRANCH  12  13
ENDBRANCH  11  12
ENDBRANCH  10  11
ENDBRANCH   9  10
ENDBRANCH   1   9
TORSDOF 9
ENDMDL
MODEL 3
REMARK VINA RESULT:    -4.751      1.876      3.034
REMARK INTER + INTRA:          -7.560
REMARK INTER:                  -7.135
REMARK INTRA:                  -0.425
REMARK UNBOUND:                -0.309
REMARK SMILES CCCCCCCCCC=CC(=O)[O-]
REMARK SMILES IDX 7 1 8 2 9 3 10 4 11 5 12 6 13 7 14 8 6 9 5 10 4 11 3 12 2 13
REMARK SMILES IDX 1 14
REMARK H PARENT
REMARK Flexibility Score: inf
ROOT
ATOM      1  C   UNL     1      -2.945  -7.122  -3.567  1.00  0.00     0.000 C 
ENDROOT
BRANCH   1   2
ATOM      2  C   UNL     1      -1.721  -8.011  -3.276  1.00  0.00     0.004 C 
BRANCH   2   3
ATOM      3  C   UNL     1      -0.576  -7.295  -2.537  1.00  0.00     0.027 C 
BRANCH   3   4
ATOM      4  C   UNL     1       0.782  -7.711  -3.030  1.00  0.00    -0.025 C 
ATOM      5  C   UNL     1       1.888  -7.046  -2.682  1.00  0.00     0.020 C 
BRANCH   5   6
ATOM      6  C   UNL     1       3.220  -7.440  -3.161  1.00  0.00     0.064 C 
ATOM      7  O   UNL     1       3.322  -8.261  -4.108  1.00  0.00    -0.545 OA
ATOM      8  O   UNL     1       4.372  -6.918  -2.583  1.00  0.00    -0.545 OA
ENDBRANCH   5   6
ENDBRANCH   3   4
ENDBRANCH   2   3
ENDBRANCH   1   2
BRANCH   1   9
ATOM      9  C   UNL     1      -4.278  -7.837  -3.293  1.00  0.00     0.000 C 
BRANCH   9  10
ATOM     10  C   UNL     1      -5.089  -8.104  -4.576  1.00  0.00     0.000 C 
BRANCH  10  11
ATOM     11  C   UNL     1      -5.898  -6.903  -5.101  1.00  0.00    -0.000 C 
BRANCH  11  12
ATOM     12  C   UNL     1      -5.460  -6.371  -6.479  1.00  0.00    -0.000 C 
BRANCH  12  13
ATOM     13  C   UNL     1      -4.071  -6.870  -6.927  1.00  0.00    -0.003 C 
ATOM     14  C   UNL     1      -3.824  -6.667  -8.422  1.00  0.00     0.004 C 
ENDBRANCH  12  13
ENDBRANCH  11  12
ENDBRANCH  10  11
ENDBRANCH   9  10
ENDBRANCH   1   9
TORSDOF 9
ENDMDL
MODEL 4
REMARK VINA RESULT:    -4.588      4.899      8.647
REMARK INTER + INTRA:          -7.311
REMARK INTER:                  -7.012
REMARK INTRA:                  -0.299
REMARK UNBOUND:                -0.309
REMARK SMILES CCCCCCCCCC=CC(=O)[O-]
REMARK SMILES IDX 7 1 8 2 9 3 10 4 11 5 12 6 13 7 14 8 6 9 5 10 4 11 3 12 2 13
REMARK SMILES IDX 1 14
REMARK H PARENT
REMARK Flexibility Score: inf
ROOT
ATOM      1  C   UNL     1      -1.428  -7.139  -2.936  1.00  0.00     0.000 C 
ENDROOT
BRANCH   1   2
ATOM      2  C   UNL     1      -2.670  -7.895  -3.443  1.00  0.00     0.004 C 
BRANCH   2   3
ATOM      3  C   UNL     1      -3.932  -7.024  -3.581  1.00  0.00     0.027 C 
BRANCH   3   4
ATOM      4  C   UNL     1      -4.025  -6.345  -4.919  1.00  0.00    -0.025 C 
ATOM      5  C   UNL     1      -4.278  -7.031  -6.037  1.00  0.00     0.020 C 
BRANCH   5   6
ATOM      6  C   UNL     1      -4.367  -6.379  -7.351  1.00  0.00     0.064 C 
ATOM      7  O   UNL     1      -5.466  -5.905  -7.737  1.00  0.00    -0.545 OA
ATOM      8  O   UNL     1      -3.252  -6.275  -8.175  1.00  0.00    -0.545 OA
ENDBRANCH   5   6
ENDBRANCH   3   4
ENDBRANCH   2   3
ENDBRANCH   1   2
BRANCH   1   9
ATOM      9  C   UNL     1      -0.177  -8.030  -2.866  1.00  0.00     0.000 C 
BRANCH   9  10
ATOM     10  C   UNL     1       1.134  -7.222  -2.831  1.00  0.00     0.000 C 
BRANCH  10  11
ATOM     11  C   UNL     1       2.392  -8.031  -2.464  1.00  0.00    -0.000 C 
BRANCH  11  12
ATOM     12  C   UNL     1       3.469  -8.102  -3.564  1.00  0.00    -0.000 C 
BRANCH  12  13
ATOM     13  C   UNL     1       4.901  -7.840  -3.052  1.00  0.00    -0.003 C 
ATOM     14  C   UNL     1       4.931  -7.378  -1.595  1.00  0.00     0.004 C 
ENDBRANCH  12  13
ENDBRANCH  11  12
ENDBRANCH  10  11
ENDBRANCH   9  10
ENDBRANCH   1   9
TORSDOF 9
ENDMDL
MODEL 5
REMARK VINA RESULT:    -4.415      5.685      9.187
REMARK INTER + INTRA:          -7.047
REMARK INTER:                  -6.708
REMARK INTRA:                  -0.339
REMARK UNBOUND:                -0.309
REMARK SMILES CCCCCCCCCC=CC(=O)[O-]
REMARK SMILES IDX 7 1 8 2 9 3 10 4 11 5 12 6 13 7 14 8 6 9 5 10 4 11 3 12 2 13
REMARK SMILES IDX 1 14
REMARK H PARENT
REMARK Flexibility Score: inf
ROOT
ATOM      1  C   UNL     1      -4.160  -7.901  -3.303  1.00  0.00     0.000 C 
ENDROOT
BRANCH   1   2
ATOM      2  C   UNL     1      -5.305  -7.531  -4.264  1.00  0.00     0.004 C 
BRANCH   2   3
ATOM      3  C   UNL     1      -5.188  -8.162  -5.664  1.00  0.00     0.027 C 
BRANCH   3   4
ATOM      4  C   UNL     1      -5.798  -7.306  -6.739  1.00  0.00    -0.025 C 
ATOM      5  C   UNL     1      -5.189  -6.203  -7.186  1.00  0.00     0.020 C 
BRANCH   5   6
ATOM      6  C   UNL     1      -5.778  -5.356  -8.234  1.00  0.00     0.064 C 
ATOM      7  O   UNL     1      -7.027  -5.214  -8.289  1.00  0.00    -0.545 OA
ATOM      8  O   UNL     1      -4.975  -4.706  -9.164  1.00  0.00    -0.545 OA
ENDBRANCH   5   6
ENDBRANCH   3   4
ENDBRANCH   2   3
ENDBRANCH   1   2
BRANCH   1   9
ATOM      9  C   UNL     1      -2.849  -7.167  -3.628  1.00  0.00     0.000 C 
BRANCH   9  10
ATOM     10  C   UNL     1      -1.596  -7.978  -3.246  1.00  0.00     0.000 C 
BRANCH  10  11
ATOM     11  C   UNL     1      -0.389  -7.140  -2.787  1.00  0.00    -0.000 C 
BRANCH  11  12
ATOM     12  C   UNL     1       0.989  -7.786  -3.031  1.00  0.00    -0.000 C 
BRANCH  12  13
ATOM     13  C   UNL     1       2.173  -6.936  -2.526  1.00  0.00    -0.003 C 
ATOM     14  C   UNL     1       3.460  -7.192  -3.311  1.00  0.00     0.004 C 
ENDBRANCH  12  13
ENDBRANCH  11  12
ENDBRANCH  10  11
ENDBRANCH   9  10
ENDBRANCH   1   9
TORSDOF 9
ENDMDL
MODEL 6
REMARK VINA RESULT:    -4.236     11.301     14.473
REMARK INTER + INTRA:          -6.775
REMARK INTER:                  -5.937
REMARK INTRA:                  -0.837
REMARK UNBOUND:                -0.309
REMARK SMILES CCCCCCCCCC=CC(=O)[O-]
REMARK SMILES IDX 7 1 8 2 9 3 10 4 11 5 12 6 13 7 14 8 6 9 5 10 4 11 3 12 2 13
REMARK SMILES IDX 1 14
REMARK H PARENT
REMARK Flexibility Score: inf
ROOT
ATOM      1  C   UNL     1       8.058   4.853  -2.549  1.00  0.00     0.000 C 
ENDROOT
BRANCH   1   2
ATOM      2  C   UNL     1       8.816   3.719  -3.266  1.00  0.00     0.004 C 
BRANCH   2   3
ATOM      3  C   UNL     1       8.598   2.323  -2.654  1.00  0.00     0.027 C 
BRANCH   3   4
ATOM      4  C   UNL     1       8.359   1.265  -3.694  1.00  0.00    -0.025 C 
ATOM      5  C   UNL     1       7.450   1.426  -4.662  1.00  0.00     0.020 C 
BRANCH   5   6
ATOM      6  C   UNL     1       7.205   0.396  -5.682  1.00  0.00     0.064 C 
ATOM      7  O   UNL     1       6.262   0.545  -6.501  1.00  0.00    -0.545 OA
ATOM      8  O   UNL     1       8.002  -0.740  -5.758  1.00  0.00    -0.545 OA
ENDBRANCH   5   6
ENDBRANCH   3   4
ENDBRANCH   2   3
ENDBRANCH   1   2
BRANCH   1   9
ATOM      9  C   UNL     1       8.845   6.174  -2.530  1.00  0.00     0.000 C 
BRANCH   9  10
ATOM     10  C   UNL     1       9.170   6.657  -1.103  1.00  0.00     0.000 C 
BRANCH  10  11
ATOM     11  C   UNL     1       9.349   5.540  -0.058  1.00  0.00    -0.000 C 
BRANCH  11  12
ATOM     12  C   UNL     1       8.572   5.743   1.257  1.00  0.00    -0.000 C 
BRANCH  12  13
ATOM     13  C   UNL     1       7.406   4.751   1.451  1.00  0.00    -0.003 C 
ATOM     14  C   UNL     1       7.691   3.379   0.839  1.00  0.00     0.004 C 
ENDBRANCH  12  13
ENDBRANCH  11  12
ENDBRANCH  10  11
ENDBRANCH   9  10
ENDBRANCH   1   9
TORSDOF 9
ENDMDL
MODEL 7
REMARK VINA RESULT:    -4.226     11.838     14.092
REMARK INTER + INTRA:          -6.758
REMARK INTER:                  -5.774
REMARK INTRA:                  -0.984
REMARK UNBOUND:                -0.309
REMARK SMILES CCCCCCCCCC=CC(=O)[O-]
REMARK SMILES IDX 7 1 8 2 9 3 10 4 11 5 12 6 13 7 14 8 6 9 5 10 4 11 3 12 2 13
REMARK SMILES IDX 1 14
REMARK H PARENT
REMARK Flexibility Score: inf
ROOT
ATOM      1  C   UNL     1       9.703   3.815  -3.704  1.00  0.00     0.000 C 
ENDROOT
BRANCH   1   2
ATOM      2  C   UNL     1       8.488   3.825  -2.757  1.00  0.00     0.004 C 
BRANCH   2   3
ATOM      3  C   UNL     1       8.500   2.710  -1.696  1.00  0.00     0.027 C 
BRANCH   3   4
ATOM      4  C   UNL     1       8.162   3.214  -0.321  1.00  0.00    -0.025 C 
ATOM      5  C   UNL     1       8.058   4.521  -0.060  1.00  0.00     0.020 C 
BRANCH   5   6
ATOM      6  C   UNL     1       7.732   5.027   1.282  1.00  0.00     0.064 C 
ATOM      7  O   UNL     1       6.698   4.615   1.866  1.00  0.00    -0.545 OA
ATOM      8  O   UNL     1       8.552   5.953   1.916  1.00  0.00    -0.545 OA
ENDBRANCH   5   6
ENDBRANCH   3   4
ENDBRANCH   2   3
ENDBRANCH   1   2
BRANCH   1   9
ATOM      9  C   UNL     1       9.538   4.776  -4.893  1.00  0.00     0.000 C 
BRANCH   9  10
ATOM     10  C   UNL     1       9.351   4.043  -6.235  1.00  0.00     0.000 C 
BRANCH  10  11
ATOM     11  C   UNL     1       9.013   2.545  -6.122  1.00  0.00    -0.000 C 
BRANCH  11  12
ATOM     12  C   UNL     1       7.521   2.196  -6.281  1.00  0.00    -0.000 C 
BRANCH  12  13
ATOM     13  C   UNL     1       7.021   1.130  -5.283  1.00  0.00    -0.003 C 
ATOM     14  C   UNL     1       8.164   0.411  -4.566  1.00  0.00     0.004 C 
ENDBRANCH  12  13
ENDBRANCH  11  12
ENDBRANCH  10  11
ENDBRANCH   9  10
ENDBRANCH   1   9
TORSDOF 9
ENDMDL
MODEL 8
REMARK VINA RESULT:    -4.216     12.041     14.844
REMARK INTER + INTRA:          -6.744
REMARK INTER:                  -5.708
REMARK INTRA:                  -1.036
REMARK UNBOUND:                -0.309
REMARK SMILES CCCCCCCCCC=CC(=O)[O-]
REMARK SMILES IDX 7 1 8 2 9 3 10 4 11 5 12 6 13 7 14 8 6 9 5 10 4 11 3 12 2 13
REMARK SMILES IDX 1 14
REMARK H PARENT
REMARK Flexibility Score: inf
ROOT
ATOM      1  C   UNL     1       8.824   6.030  -2.642  1.00  0.00     0.000 C 
ENDROOT
BRANCH   1   2
ATOM      2  C   UNL     1       9.893   6.850  -1.897  1.00  0.00     0.004 C 
BRANCH   2   3
ATOM      3  C   UNL     1       9.873   6.680  -0.367  1.00  0.00     0.027 C 
BRANCH   3   4
ATOM      4  C   UNL     1       8.640   5.973   0.122  1.00  0.00    -0.025 C 
ATOM      5  C   UNL     1       8.699   5.041   1.078  1.00  0.00     0.020 C 
BRANCH   5   6
ATOM      6  C   UNL     1       7.501   4.340   1.561  1.00  0.00     0.064 C 
ATOM      7  O   UNL     1       7.154   3.258   1.021  1.00  0.00    -0.545 OA
ATOM      8  O   UNL     1       6.745   4.853   2.609  1.00  0.00    -0.545 OA
ENDBRANCH   5   6
ENDBRANCH   3   4
ENDBRANCH   2   3
ENDBRANCH   1   2
BRANCH   1   9
ATOM      9  C   UNL     1       9.430   5.041  -3.651  1.00  0.00     0.000 C 
BRANCH   9  10
ATOM     10  C   UNL     1       9.743   3.666  -3.030  1.00  0.00     0.000 C 
BRANCH  10  11
ATOM     11  C   UNL     1       8.619   3.069  -2.163  1.00  0.00    -0.000 C 
BRANCH  11  12
ATOM     12  C   UNL     1       8.267   1.600  -2.467  1.00  0.00    -0.000 C 
BRANCH  12  13
ATOM     13  C   UNL     1       8.511   1.192  -3.935  1.00  0.00    -0.003 C 
ATOM     14  C   UNL     1       7.309   1.482  -4.835  1.00  0.00     0.004 C 
ENDBRANCH  12  13
ENDBRANCH  11  12
ENDBRANCH  10  11
ENDBRANCH   9  10
ENDBRANCH   1   9
TORSDOF 9
ENDMDL
MODEL 9
REMARK VINA RESULT:    -4.207     12.999     15.878
REMARK INTER + INTRA:          -6.730
REMARK INTER:                  -5.794
REMARK INTRA:                  -0.936
REMARK UNBOUND:                -0.309
REMARK SMILES CCCCCCCCCC=CC(=O)[O-]
REMARK SMILES IDX 7 1 8 2 9 3 10 4 11 5 12 6 13 7 14 8 6 9 5 10 4 11 3 12 2 13
REMARK SMILES IDX 1 14
REMARK H PARENT
REMARK Flexibility Score: inf
ROOT
ATOM      1  C   UNL     1       9.057   5.944   0.963  1.00  0.00     0.000 C 
ENDROOT
BRANCH   1   2
ATOM      2  C   UNL     1       7.787   5.094   0.766  1.00  0.00     0.004 C 
BRANCH   2   3
ATOM      3  C   UNL     1       7.933   3.625   1.202  1.00  0.00     0.027 C 
BRANCH   3   4
ATOM      4  C   UNL     1       8.292   2.714   0.061  1.00  0.00    -0.025 C 
ATOM      5  C   UNL     1       8.241   3.128  -1.208  1.00  0.00     0.020 C 
BRANCH   5   6
ATOM      6  C   UNL     1       8.586   2.245  -2.332  1.00  0.00     0.064 C 
ATOM      7  O   UNL     1       9.571   2.525  -3.062  1.00  0.00    -0.545 OA
ATOM      8  O   UNL     1       7.839   1.104  -2.601  1.00  0.00    -0.545 OA
ENDBRANCH   5   6
ENDBRANCH   3   4
ENDBRANCH   2   3
ENDBRANCH   1   2
BRANCH   1   9
ATOM      9  C   UNL     1       9.857   5.538   2.211  1.00  0.00     0.000 C 
BRANCH   9  10
ATOM     10  C   UNL     1       9.418   6.297   3.478  1.00  0.00     0.000 C 
BRANCH  10  11
ATOM     11  C   UNL     1       8.677   7.623   3.223  1.00  0.00    -0.000 C 
BRANCH  11  12
ATOM     12  C   UNL     1       7.223   7.669   3.730  1.00  0.00    -0.000 C 
BRANCH  12  13
ATOM     13  C   UNL     1       6.661   6.290   4.135  1.00  0.00    -0.003 C 
ATOM     14  C   UNL     1       6.321   6.205   5.623  1.00  0.00     0.004 C 
ENDBRANCH  12  13
ENDBRANCH  11  12
ENDBRANCH  10  11
ENDBRANCH   9  10
ENDBRANCH   1   9
TORSDOF 9
ENDMDL
