MODEL 1
REMARK VINA RESULT:    -4.052      0.000      0.000
REMARK INTER + INTRA:          -9.849
REMARK INTER:                  -7.369
REMARK INTRA:                  -2.480
REMARK UNBOUND:                -2.480
REMARK SMILES CCCCCCCCCCCCCC[C@@H](C)C(=O)[O-]
REMARK SMILES IDX 9 1 10 2 11 3 12 4 13 5 14 6 15 7 16 8 17 9 18 10 19 11 8 12
REMARK SMILES IDX 7 13 6 14 5 15 4 16 3 17 2 18 1 19
REMARK H PARENT
REMARK Flexibility Score: inf
ROOT
ATOM      1  C   UNL     1      48.061   1.330  23.557  1.00  0.00     0.000 C 
ENDROOT
BRANCH   1   2
ATOM      2  C   UNL     1      49.166   0.970  24.565  1.00  0.00     0.000 C 
BRANCH   2   3
ATOM      3  C   UNL     1      50.578   1.134  23.976  1.00  0.00     0.000 C 
BRANCH   3   4
ATOM      4  C   UNL     1      51.063  -0.131  23.248  1.00  0.00     0.000 C 
BRANCH   4   5
ATOM      5  C   UNL     1      51.586   0.161  21.834  1.00  0.00     0.001 C 
BRANCH   5   6
ATOM      6  C   UNL     1      51.848   1.664  21.645  1.00  0.00     0.009 C 
BRANCH   6   7
ATOM      7  C   UNL     1      51.032   2.271  20.484  1.00  0.00     0.032 C 
ATOM      8  C   UNL     1      50.236   3.510  20.916  1.00  0.00     0.014 C 
BRANCH   7   9
ATOM      9  C   UNL     1      51.954   2.636  19.353  1.00  0.00     0.044 C 
ATOM     10  O   UNL     1      52.903   1.871  19.037  1.00  0.00    -0.550 OA
ATOM     11  O   UNL     1      51.768   3.821  18.651  1.00  0.00    -0.550 OA
ENDBRANCH   7   9
ENDBRANCH   6   7
ENDBRANCH   5   6
ENDBRANCH   4   5
ENDBRANCH   3   4
ENDBRANCH   2   3
ENDBRANCH   1   2
BRANCH   1  12
ATOM     12  C   UNL     1      47.158   0.132  23.213  1.00  0.00     0.000 C 
BRANCH  12  13
ATOM     13  C   UNL     1      47.551  -0.547  21.891  1.00  0.00    -0.000 C 
BRANCH  13  14
ATOM     14  C   UNL     1      48.105   0.448  20.859  1.00  0.00    -0.000 C 
BRANCH  14  15
ATOM     15  C   UNL     1      47.010   1.059  19.965  1.00  0.00    -0.000 C 
BRANCH  15  16
ATOM     16  C   UNL     1      46.756   2.562  20.179  1.00  0.00    -0.000 C 
BRANCH  16  17
ATOM     17  C   UNL     1      45.258   2.917  20.208  1.00  0.00    -0.000 C 
BRANCH  17  18
ATOM     18  C   UNL     1      44.551   2.386  21.464  1.00  0.00    -0.003 C 
ATOM     19  C   UNL     1      43.528   1.295  21.147  1.00  0.00     0.004 C 
ENDBRANCH  17  18
ENDBRANCH  16  17
ENDBRANCH  15  16
ENDBRANCH  14  15
ENDBRANCH  13  14
ENDBRANCH  12  13
ENDBRANCH   1  12
TORSDOF 14
ENDMDL
MODEL 2
REMARK VINA RESULT:    -3.956      2.057      4.736
REMARK INTER + INTRA:          -9.673
REMARK INTER:                  -7.016
REMARK INTRA:                  -2.657
REMARK UNBOUND:                -2.480
REMARK SMILES CCCCCCCCCCCCCC[C@@H](C)C(=O)[O-]
REMARK SMILES IDX 9 1 10 2 11 3 12 4 13 5 14 6 15 7 16 8 17 9 18 10 19 11 8 12
REMARK SMILES IDX 7 13 6 14 5 15 4 16 3 17 2 18 1 19
REMARK H PARENT
REMARK Flexibility Score: inf
ROOT
ATOM      1  C   UNL     1      44.573   3.374  19.889  1.00  0.00     0.000 C 
ENDROOT
BRANCH   1   2
ATOM      2  C   UNL     1      45.698   3.743  20.871  1.00  0.00     0.000 C 
BRANCH   2   3
ATOM      3  C   UNL     1      46.979   2.925  20.633  1.00  0.00     0.000 C 
BRANCH   3   4
ATOM      4  C   UNL     1      46.693   1.553  20.000  1.00  0.00     0.000 C 
BRANCH   4   5
ATOM      5  C   UNL     1      47.740   0.494  20.376  1.00  0.00     0.001 C 
BRANCH   5   6
ATOM      6  C   UNL     1      48.853   1.107  21.243  1.00  0.00     0.009 C 
BRANCH   6   7
ATOM      7  C   UNL     1      49.368   0.137  22.328  1.00  0.00     0.032 C 
ATOM      8  C   UNL     1      48.815  -1.284  22.148  1.00  0.00     0.014 C 
BRANCH   7   9
ATOM      9  C   UNL     1      50.871   0.098  22.301  1.00  0.00     0.044 C 
ATOM     10  O   UNL     1      51.493  -0.762  22.980  1.00  0.00    -0.550 OA
ATOM     11  O   UNL     1      51.583   1.008  21.530  1.00  0.00    -0.550 OA
ENDBRANCH   7   9
ENDBRANCH   6   7
ENDBRANCH   5   6
ENDBRANCH   4   5
ENDBRANCH   3   4
ENDBRANCH   2   3
ENDBRANCH   1   2
BRANCH   1  12
ATOM     12  C   UNL     1      43.263   2.994  20.603  1.00  0.00     0.000 C 
BRANCH  12  13
ATOM     13  C   UNL     1      43.499   2.129  21.852  1.00  0.00    -0.000 C 
BRANCH  13  14
ATOM     14  C   UNL     1      43.223   0.638  21.597  1.00  0.00    -0.000 C 
BRANCH  14  15
ATOM     15  C   UNL     1      43.729  -0.269  22.734  1.00  0.00    -0.000 C 
BRANCH  15  16
ATOM     16  C   UNL     1      45.258  -0.316  22.900  1.00  0.00    -0.000 C 
BRANCH  16  17
ATOM     17  C   UNL     1      45.732   0.272  24.241  1.00  0.00    -0.000 C 
BRANCH  17  18
ATOM     18  C   UNL     1      46.414   1.639  24.076  1.00  0.00    -0.003 C 
ATOM     19  C   UNL     1      47.533   1.866  25.092  1.00  0.00     0.004 C 
ENDBRANCH  17  18
ENDBRANCH  16  17
ENDBRANCH  15  16
ENDBRANCH  14  15
ENDBRANCH  13  14
ENDBRANCH  12  13
ENDBRANCH   1  12
TORSDOF 14
ENDMDL
MODEL 3
REMARK VINA RESULT:    -3.930      1.787      3.906
REMARK INTER + INTRA:          -9.627
REMARK INTER:                  -7.586
REMARK INTRA:                  -2.041
REMARK UNBOUND:                -2.480
REMARK SMILES CCCCCCCCCCCCCC[C@@H](C)C(=O)[O-]
REMARK SMILES IDX 9 1 10 2 11 3 12 4 13 5 14 6 15 7 16 8 17 9 18 10 19 11 8 12
REMARK SMILES IDX 7 13 6 14 5 15 4 16 3 17 2 18 1 19
REMARK H PARENT
REMARK Flexibility Score: inf
ROOT
ATOM      1  C   UNL     1      45.642   4.040  20.992  1.00  0.00     0.000 C 
ENDROOT
BRANCH   1   2
ATOM      2  C   UNL     1      46.868   3.214  21.416  1.00  0.00     0.000 C 
BRANCH   2   3
ATOM      3  C   UNL     1      47.364   2.279  20.300  1.00  0.00     0.000 C 
BRANCH   3   4
ATOM      4  C   UNL     1      48.754   1.692  20.597  1.00  0.00     0.000 C 
BRANCH   4   5
ATOM      5  C   UNL     1      49.524   2.493  21.657  1.00  0.00     0.001 C 
BRANCH   5   6
ATOM      6  C   UNL     1      50.571   3.408  21.000  1.00  0.00     0.009 C 
BRANCH   6   7
ATOM      7  C   UNL     1      51.363   2.700  19.880  1.00  0.00     0.032 C 
ATOM      8  C   UNL     1      51.824   3.675  18.787  1.00  0.00     0.014 C 
BRANCH   7   9
ATOM      9  C   UNL     1      52.559   2.003  20.467  1.00  0.00     0.044 C 
ATOM     10  O   UNL     1      52.440   0.851  20.963  1.00  0.00    -0.550 OA
ATOM     11  O   UNL     1      53.802   2.624  20.470  1.00  0.00    -0.550 OA
ENDBRANCH   7   9
ENDBRANCH   6   7
ENDBRANCH   5   6
ENDBRANCH   4   5
ENDBRANCH   3   4
ENDBRANCH   2   3
ENDBRANCH   1   2
BRANCH   1  12
ATOM     12  C   UNL     1      44.731   3.287  20.006  1.00  0.00     0.000 C 
BRANCH  12  13
ATOM     13  C   UNL     1      43.348   2.972  20.599  1.00  0.00    -0.000 C 
BRANCH  13  14
ATOM     14  C   UNL     1      43.430   2.453  22.044  1.00  0.00    -0.000 C 
BRANCH  14  15
ATOM     15  C   UNL     1      43.256   0.926  22.145  1.00  0.00    -0.000 C 
BRANCH  15  16
ATOM     16  C   UNL     1      44.545   0.141  22.447  1.00  0.00    -0.000 C 
BRANCH  16  17
ATOM     17  C   UNL     1      45.352   0.741  23.612  1.00  0.00    -0.000 C 
BRANCH  17  18
ATOM     18  C   UNL     1      46.814   0.270  23.619  1.00  0.00    -0.003 C 
ATOM     19  C   UNL     1      47.032  -0.986  22.775  1.00  0.00     0.004 C 
ENDBRANCH  17  18
ENDBRANCH  16  17
ENDBRANCH  15  16
ENDBRANCH  14  15
ENDBRANCH  13  14
ENDBRANCH  12  13
ENDBRANCH   1  12
TORSDOF 14
ENDMDL
MODEL 4
REMARK VINA RESULT:    -3.866      3.220      5.413
REMARK INTER + INTRA:          -9.511
REMARK INTER:                  -7.420
REMARK INTRA:                  -2.091
REMARK UNBOUND:                -2.480
REMARK SMILES CCCCCCCCCCCCCC[C@@H](C)C(=O)[O-]
REMARK SMILES IDX 9 1 10 2 11 3 12 4 13 5 14 6 15 7 16 8 17 9 18 10 19 11 8 12
REMARK SMILES IDX 7 13 6 14 5 15 4 16 3 17 2 18 1 19
REMARK H PARENT
REMARK Flexibility Score: inf
ROOT
ATOM      1  C   UNL     1      46.199   4.083  21.842  1.00  0.00     0.000 C 
ENDROOT
BRANCH   1   2
ATOM      2  C   UNL     1      47.454   4.869  21.427  1.00  0.00     0.000 C 
BRANCH   2   3
ATOM      3  C   UNL     1      48.441   5.063  22.591  1.00  0.00     0.000 C 
BRANCH   3   4
ATOM      4  C   UNL     1      49.381   6.260  22.374  1.00  0.00     0.000 C 
BRANCH   4   5
ATOM      5  C   UNL     1      49.742   6.472  20.896  1.00  0.00     0.001 C 
BRANCH   5   6
ATOM      6  C   UNL     1      50.313   7.881  20.668  1.00  0.00     0.009 C 
BRANCH   6   7
ATOM      7  C   UNL     1      50.984   8.038  19.286  1.00  0.00     0.032 C 
ATOM      8  C   UNL     1      51.768   6.784  18.875  1.00  0.00     0.014 C 
BRANCH   7   9
ATOM      9  C   UNL     1      49.941   8.341  18.247  1.00  0.00     0.044 C 
ATOM     10  O   UNL     1      48.859   8.895  18.579  1.00  0.00    -0.550 OA
ATOM     11  O   UNL     1      50.160   8.011  16.915  1.00  0.00    -0.550 OA
ENDBRANCH   7   9
ENDBRANCH   6   7
ENDBRANCH   5   6
ENDBRANCH   4   5
ENDBRANCH   3   4
ENDBRANCH   2   3
ENDBRANCH   1   2
BRANCH   1  12
ATOM     12  C   UNL     1      45.966   2.833  20.975  1.00  0.00     0.000 C 
BRANCH  12  13
ATOM     13  C   UNL     1      47.184   2.481  20.104  1.00  0.00    -0.000 C 
BRANCH  13  14
ATOM     14  C   UNL     1      47.699   1.055  20.361  1.00  0.00    -0.000 C 
BRANCH  14  15
ATOM     15  C   UNL     1      48.113   0.821  21.826  1.00  0.00    -0.000 C 
BRANCH  15  16
ATOM     16  C   UNL     1      49.383   1.568  22.272  1.00  0.00    -0.000 C 
BRANCH  16  17
ATOM     17  C   UNL     1      50.485   1.567  21.198  1.00  0.00    -0.000 C 
BRANCH  17  18
ATOM     18  C   UNL     1      50.862   2.984  20.739  1.00  0.00    -0.003 C 
ATOM     19  C   UNL     1      51.417   3.014  19.315  1.00  0.00     0.004 C 
ENDBRANCH  17  18
ENDBRANCH  16  17
ENDBRANCH  15  16
ENDBRANCH  14  15
ENDBRANCH  13  14
ENDBRANCH  12  13
ENDBRANCH   1  12
TORSDOF 14
ENDMDL
MODEL 5
REMARK VINA RESULT:    -3.848      3.639      5.550
REMARK INTER + INTRA:          -9.477
REMARK INTER:                  -7.547
REMARK INTRA:                  -1.930
REMARK UNBOUND:                -2.480
REMARK SMILES CCCCCCCCCCCCCC[C@@H](C)C(=O)[O-]
REMARK SMILES IDX 9 1 10 2 11 3 12 4 13 5 14 6 15 7 16 8 17 9 18 10 19 11 8 12
REMARK SMILES IDX 7 13 6 14 5 15 4 16 3 17 2 18 1 19
REMARK H PARENT
REMARK Flexibility Score: inf
ROOT
ATOM      1  C   UNL     1      47.559   5.219  23.840  1.00  0.00     0.000 C 
ENDROOT
BRANCH   1   2
ATOM      2  C   UNL     1      48.102   3.926  23.209  1.00  0.00     0.000 C 
BRANCH   2   3
ATOM      3  C   UNL     1      48.480   4.106  21.729  1.00  0.00     0.000 C 
BRANCH   3   4
ATOM      4  C   UNL     1      48.416   2.787  20.939  1.00  0.00     0.000 C 
BRANCH   4   5
ATOM      5  C   UNL     1      49.795   2.313  20.458  1.00  0.00     0.001 C 
BRANCH   5   6
ATOM      6  C   UNL     1      50.801   3.476  20.447  1.00  0.00     0.009 C 
BRANCH   6   7
ATOM      7  C   UNL     1      51.660   3.511  19.166  1.00  0.00     0.032 C 
ATOM      8  C   UNL     1      51.897   4.942  18.662  1.00  0.00     0.014 C 
BRANCH   7   9
ATOM      9  C   UNL     1      52.984   2.845  19.424  1.00  0.00     0.044 C 
ATOM     10  O   UNL     1      53.994   3.537  19.720  1.00  0.00    -0.550 OA
ATOM     11  O   UNL     1      53.103   1.463  19.336  1.00  0.00    -0.550 OA
ENDBRANCH   7   9
ENDBRANCH   6   7
ENDBRANCH   5   6
ENDBRANCH   4   5
ENDBRANCH   3   4
ENDBRANCH   2   3
ENDBRANCH   1   2
BRANCH   1  12
ATOM     12  C   UNL     1      48.072   5.441  25.274  1.00  0.00     0.000 C 
BRANCH  12  13
ATOM     13  C   UNL     1      49.600   5.314  25.383  1.00  0.00    -0.000 C 
BRANCH  13  14
ATOM     14  C   UNL     1      50.266   6.611  25.872  1.00  0.00    -0.000 C 
BRANCH  14  15
ATOM     15  C   UNL     1      50.716   7.526  24.718  1.00  0.00    -0.000 C 
BRANCH  15  16
ATOM     16  C   UNL     1      49.740   8.665  24.370  1.00  0.00    -0.000 C 
BRANCH  16  17
ATOM     17  C   UNL     1      49.172   8.551  22.944  1.00  0.00    -0.000 C 
BRANCH  17  18
ATOM     18  C   UNL     1      49.889   7.479  22.109  1.00  0.00    -0.003 C 
ATOM     19  C   UNL     1      49.444   7.478  20.646  1.00  0.00     0.004 C 
ENDBRANCH  17  18
ENDBRANCH  16  17
ENDBRANCH  15  16
ENDBRANCH  14  15
ENDBRANCH  13  14
ENDBRANCH  12  13
ENDBRANCH   1  12
TORSDOF 14
ENDMDL
MODEL 6
REMARK VINA RESULT:    -3.823      1.458      3.032
REMARK INTER + INTRA:          -9.432
REMARK INTER:                  -7.532
REMARK INTRA:                  -1.900
REMARK UNBOUND:                -2.480
REMARK SMILES CCCCCCCCCCCCCC[C@@H](C)C(=O)[O-]
REMARK SMILES IDX 9 1 10 2 11 3 12 4 13 5 14 6 15 7 16 8 17 9 18 10 19 11 8 12
REMARK SMILES IDX 7 13 6 14 5 15 4 16 3 17 2 18 1 19
REMARK H PARENT
REMARK Flexibility Score: inf
ROOT
ATOM      1  C   UNL     1      47.871   2.812  21.042  1.00  0.00     0.000 C 
ENDROOT
BRANCH   1   2
ATOM      2  C   UNL     1      48.263   1.942  22.248  1.00  0.00     0.000 C 
BRANCH   2   3
ATOM      3  C   UNL     1      48.772   0.552  21.831  1.00  0.00     0.000 C 
BRANCH   3   4
ATOM      4  C   UNL     1      50.293   0.404  22.010  1.00  0.00     0.000 C 
BRANCH   4   5
ATOM      5  C   UNL     1      50.909   1.546  22.831  1.00  0.00     0.001 C 
BRANCH   5   6
ATOM      6  C   UNL     1      51.981   2.290  22.017  1.00  0.00     0.009 C 
BRANCH   6   7
ATOM      7  C   UNL     1      51.825   2.083  20.495  1.00  0.00     0.032 C 
ATOM      8  C   UNL     1      51.194   3.300  19.804  1.00  0.00     0.014 C 
BRANCH   7   9
ATOM      9  C   UNL     1      53.168   1.797  19.881  1.00  0.00     0.044 C 
ATOM     10  O   UNL     1      54.080   2.665  19.923  1.00  0.00    -0.550 OA
ATOM     11  O   UNL     1      53.411   0.577  19.263  1.00  0.00    -0.550 OA
ENDBRANCH   7   9
ENDBRANCH   6   7
ENDBRANCH   5   6
ENDBRANCH   4   5
ENDBRANCH   3   4
ENDBRANCH   2   3
ENDBRANCH   1   2
BRANCH   1  12
ATOM     12  C   UNL     1      46.702   2.218  20.236  1.00  0.00     0.000 C 
BRANCH  12  13
ATOM     13  C   UNL     1      45.529   3.200  20.083  1.00  0.00    -0.000 C 
BRANCH  13  14
ATOM     14  C   UNL     1      44.582   3.182  21.295  1.00  0.00    -0.000 C 
BRANCH  14  15
ATOM     15  C   UNL     1      43.257   2.452  21.011  1.00  0.00    -0.000 C 
BRANCH  15  16
ATOM     16  C   UNL     1      43.338   0.915  21.050  1.00  0.00    -0.000 C 
BRANCH  16  17
ATOM     17  C   UNL     1      43.383   0.355  22.483  1.00  0.00    -0.000 C 
BRANCH  17  18
ATOM     18  C   UNL     1      44.798  -0.067  22.905  1.00  0.00    -0.003 C 
ATOM     19  C   UNL     1      45.335   0.758  24.075  1.00  0.00     0.004 C 
ENDBRANCH  17  18
ENDBRANCH  16  17
ENDBRANCH  15  16
ENDBRANCH  14  15
ENDBRANCH  13  14
ENDBRANCH  12  13
ENDBRANCH   1  12
TORSDOF 14
ENDMDL
MODEL 7
REMARK VINA RESULT:    -3.818      2.938      5.228
REMARK INTER + INTRA:          -9.423
REMARK INTER:                  -7.776
REMARK INTRA:                  -1.647
REMARK UNBOUND:                -2.480
REMARK SMILES CCCCCCCCCCCCCC[C@@H](C)C(=O)[O-]
REMARK SMILES IDX 9 1 10 2 11 3 12 4 13 5 14 6 15 7 16 8 17 9 18 10 19 11 8 12
REMARK SMILES IDX 7 13 6 14 5 15 4 16 3 17 2 18 1 19
REMARK H PARENT
REMARK Flexibility Score: inf
ROOT
ATOM      1  C   UNL     1      45.747   3.781  20.700  1.00  0.00     0.000 C 
ENDROOT
BRANCH   1   2
ATOM      2  C   UNL     1      45.772   2.243  20.738  1.00  0.00     0.000 C 
BRANCH   2   3
ATOM      3  C   UNL     1      46.914   1.651  19.894  1.00  0.00     0.000 C 
BRANCH   3   4
ATOM      4  C   UNL     1      47.777   0.655  20.686  1.00  0.00     0.000 C 
BRANCH   4   5
ATOM      5  C   UNL     1      49.025   1.307  21.300  1.00  0.00     0.001 C 
BRANCH   5   6
ATOM      6  C   UNL     1      49.636   2.336  20.335  1.00  0.00     0.009 C 
BRANCH   6   7
ATOM      7  C   UNL     1      51.003   2.869  20.818  1.00  0.00     0.032 C 
ATOM      8  C   UNL     1      51.246   2.585  22.307  1.00  0.00     0.014 C 
BRANCH   7   9
ATOM      9  C   UNL     1      52.105   2.251  20.003  1.00  0.00     0.044 C 
ATOM     10  O   UNL     1      52.445   2.766  18.905  1.00  0.00    -0.550 OA
ATOM     11  O   UNL     1      52.755   1.108  20.453  1.00  0.00    -0.550 OA
ENDBRANCH   7   9
ENDBRANCH   6   7
ENDBRANCH   5   6
ENDBRANCH   4   5
ENDBRANCH   3   4
ENDBRANCH   2   3
ENDBRANCH   1   2
BRANCH   1  12
ATOM     12  C   UNL     1      46.179   4.414  22.035  1.00  0.00     0.000 C 
BRANCH  12  13
ATOM     13  C   UNL     1      47.679   4.748  22.075  1.00  0.00    -0.000 C 
BRANCH  13  14
ATOM     14  C   UNL     1      47.999   6.103  21.421  1.00  0.00    -0.000 C 
BRANCH  14  15
ATOM     15  C   UNL     1      49.506   6.317  21.190  1.00  0.00    -0.000 C 
BRANCH  15  16
ATOM     16  C   UNL     1      49.944   7.787  21.061  1.00  0.00    -0.000 C 
BRANCH  16  17
ATOM     17  C   UNL     1      49.303   8.498  19.857  1.00  0.00    -0.000 C 
BRANCH  17  18
ATOM     18  C   UNL     1      50.334   8.894  18.789  1.00  0.00    -0.003 C 
ATOM     19  C   UNL     1      49.967   8.381  17.396  1.00  0.00     0.004 C 
ENDBRANCH  17  18
ENDBRANCH  16  17
ENDBRANCH  15  16
ENDBRANCH  14  15
ENDBRANCH  13  14
ENDBRANCH  12  13
ENDBRANCH   1  12
TORSDOF 14
ENDMDL
MODEL 8
REMARK VINA RESULT:    -3.782      1.910      3.615
REMARK INTER + INTRA:          -9.358
REMARK INTER:                  -6.826
REMARK INTRA:                  -2.532
REMARK UNBOUND:                -2.480
REMARK SMILES CCCCCCCCCCCCCC[C@@H](C)C(=O)[O-]
REMARK SMILES IDX 9 1 10 2 11 3 12 4 13 5 14 6 15 7 16 8 17 9 18 10 19 11 8 12
REMARK SMILES IDX 7 13 6 14 5 15 4 16 3 17 2 18 1 19
REMARK H PARENT
REMARK Flexibility Score: inf
ROOT
ATOM      1  C   UNL     1      47.788   1.668  20.176  1.00  0.00     0.000 C 
ENDROOT
BRANCH   1   2
ATOM      2  C   UNL     1      47.793   0.258  20.792  1.00  0.00     0.000 C 
BRANCH   2   3
ATOM      3  C   UNL     1      48.869   0.094  21.880  1.00  0.00     0.000 C 
BRANCH   3   4
ATOM      4  C   UNL     1      49.542   1.427  22.248  1.00  0.00     0.000 C 
BRANCH   4   5
ATOM      5  C   UNL     1      51.022   1.261  22.625  1.00  0.00     0.001 C 
BRANCH   5   6
ATOM      6  C   UNL     1      51.898   2.268  21.862  1.00  0.00     0.009 C 
BRANCH   6   7
ATOM      7  C   UNL     1      51.866   2.048  20.334  1.00  0.00     0.032 C 
ATOM      8  C   UNL     1      51.271   3.249  19.585  1.00  0.00     0.014 C 
BRANCH   7   9
ATOM      9  C   UNL     1      53.258   1.783  19.830  1.00  0.00     0.044 C 
ATOM     10  O   UNL     1      53.549   0.661  19.336  1.00  0.00    -0.550 OA
ATOM     11  O   UNL     1      54.233   2.770  19.909  1.00  0.00    -0.550 OA
ENDBRANCH   7   9
ENDBRANCH   6   7
ENDBRANCH   5   6
ENDBRANCH   4   5
ENDBRANCH   3   4
ENDBRANCH   2   3
ENDBRANCH   1   2
BRANCH   1  12
ATOM     12  C   UNL     1      46.379   2.284  20.116  1.00  0.00     0.000 C 
BRANCH  12  13
ATOM     13  C   UNL     1      45.738   2.435  21.505  1.00  0.00    -0.000 C 
BRANCH  13  14
ATOM     14  C   UNL     1      46.396   3.545  22.341  1.00  0.00    -0.000 C 
BRANCH  14  15
ATOM     15  C   UNL     1      46.094   4.957  21.806  1.00  0.00    -0.000 C 
BRANCH  15  16
ATOM     16  C   UNL     1      47.332   5.786  21.418  1.00  0.00    -0.000 C 
BRANCH  16  17
ATOM     17  C   UNL     1      48.648   5.001  21.569  1.00  0.00    -0.000 C 
BRANCH  17  18
ATOM     18  C   UNL     1      49.591   5.629  22.607  1.00  0.00    -0.003 C 
ATOM     19  C   UNL     1      49.682   4.806  23.893  1.00  0.00     0.004 C 
ENDBRANCH  17  18
ENDBRANCH  16  17
ENDBRANCH  15  16
ENDBRANCH  14  15
ENDBRANCH  13  14
ENDBRANCH  12  13
ENDBRANCH   1  12
TORSDOF 14
ENDMDL
MODEL 9
REMARK VINA RESULT:    -3.754      6.510      8.811
REMARK INTER + INTRA:          -9.307
REMARK INTER:                  -7.049
REMARK INTRA:                  -2.257
REMARK UNBOUND:                -2.480
REMARK SMILES CCCCCCCCCCCCCC[C@@H](C)C(=O)[O-]
REMARK SMILES IDX 9 1 10 2 11 3 12 4 13 5 14 6 15 7 16 8 17 9 18 10 19 11 8 12
REMARK SMILES IDX 7 13 6 14 5 15 4 16 3 17 2 18 1 19
REMARK H PARENT
REMARK Flexibility Score: inf
ROOT
ATOM      1  C   UNL     1      47.769   9.704  24.517  1.00  0.00     0.000 C 
ENDROOT
BRANCH   1   2
ATOM      2  C   UNL     1      47.327  10.806  23.540  1.00  0.00     0.000 C 
BRANCH   2   3
ATOM      3  C   UNL     1      46.006  10.469  22.829  1.00  0.00     0.000 C 
BRANCH   3   4
ATOM      4  C   UNL     1      46.071  10.721  21.313  1.00  0.00     0.000 C 
BRANCH   4   5
ATOM      5  C   UNL     1      47.486  10.548  20.742  1.00  0.00     0.001 C 
BRANCH   5   6
ATOM      6  C   UNL     1      47.725   9.095  20.301  1.00  0.00     0.009 C 
BRANCH   6   7
ATOM      7  C   UNL     1      49.091   8.546  20.768  1.00  0.00     0.032 C 
ATOM      8  C   UNL     1      48.970   7.160  21.418  1.00  0.00     0.014 C 
BRANCH   7   9
ATOM      9  C   UNL     1      50.035   8.473  19.600  1.00  0.00     0.044 C 
ATOM     10  O   UNL     1      49.657   8.842  18.457  1.00  0.00    -0.550 OA
ATOM     11  O   UNL     1      51.328   7.995  19.772  1.00  0.00    -0.550 OA
ENDBRANCH   7   9
ENDBRANCH   6   7
ENDBRANCH   5   6
ENDBRANCH   4   5
ENDBRANCH   3   4
ENDBRANCH   2   3
ENDBRANCH   1   2
BRANCH   1  12
ATOM     12  C   UNL     1      46.968   8.401  24.343  1.00  0.00     0.000 C 
BRANCH  12  13
ATOM     13  C   UNL     1      46.486   7.818  25.682  1.00  0.00    -0.000 C 
BRANCH  13  14
ATOM     14  C   UNL     1      47.317   8.316  26.876  1.00  0.00    -0.000 C 
BRANCH  14  15
ATOM     15  C   UNL     1      48.059   7.182  27.606  1.00  0.00    -0.000 C 
BRANCH  15  16
ATOM     16  C   UNL     1      49.592   7.213  27.474  1.00  0.00    -0.000 C 
BRANCH  16  17
ATOM     17  C   UNL     1      50.159   5.958  26.787  1.00  0.00    -0.000 C 
BRANCH  17  18
ATOM     18  C   UNL     1      50.215   6.098  25.258  1.00  0.00    -0.003 C 
ATOM     19  C   UNL     1      50.586   7.512  24.810  1.00  0.00     0.004 C 
ENDBRANCH  17  18
ENDBRANCH  16  17
ENDBRANCH  15  16
ENDBRANCH  14  15
ENDBRANCH  13  14
ENDBRANCH  12  13
ENDBRANCH   1  12
TORSDOF 14
ENDMDL
