MODEL 1
REMARK VINA RESULT:    -4.425      0.000      0.000
REMARK INTER + INTRA:          -7.232
REMARK INTER:                  -6.365
REMARK INTRA:                  -0.867
REMARK UNBOUND:                -0.867
REMARK SMILES O=c1cc(-c2ccc(O)c(O)c2)oc2cc(O[C@@H]3O[C@@H](CO)[C@@H](O)[C@H](O)[C@@H]3O)cc(O)c12
REMARK SMILES IDX 17 1 16 2 4 3 3 4 13 5 2 6 14 7 1 8 32 9 15 10 30 11 29 12
REMARK SMILES IDX 5 13 6 14 7 15 8 16 12 17 10 18 9 19 11 21 31 23 18 25 27 26
REMARK SMILES IDX 19 27 25 28 20 29 23 30 28 31 26 33 21 35 22 36 24 38
REMARK H PARENT 9 20 11 22 31 24 28 32 26 34 22 37 24 39
REMARK Flexibility Score: inf
ROOT
ATOM      1  O   UNL     1       8.496   1.872   2.495  1.00  0.00    -0.462 OA
ENDROOT
BRANCH   1   2
ATOM      2  C   UNL     1       8.660   0.731   1.689  1.00  0.00     0.130 A 
ATOM      3  C   UNL     1       8.835  -4.035   1.590  1.00  0.00     0.138 A 
ATOM      4  C   UNL     1       9.049  -4.062   0.201  1.00  0.00     0.100 A 
ATOM      5  O   UNL     1       8.695  -2.865   2.208  1.00  0.00    -0.456 OA
ATOM      6  C   UNL     1       9.123  -2.861  -0.505  1.00  0.00     0.197 A 
ATOM      7  C   UNL     1       8.759  -1.695   1.579  1.00  0.00     0.146 A 
ATOM      8  O   UNL     1       9.314  -2.894  -1.750  1.00  0.00    -0.289 OA
ATOM      9  C   UNL     1       8.981  -1.639   0.184  1.00  0.00     0.107 A 
ATOM     10  C   UNL     1       8.603  -0.517   2.315  1.00  0.00     0.094 A 
ATOM     11  C   UNL     1       9.047  -0.378  -0.453  1.00  0.00     0.134 A 
ATOM     12  C   UNL     1       8.888   0.793   0.302  1.00  0.00     0.093 A 
BRANCH   3  13
ATOM     13  C   UNL     1       8.746  -5.281   2.392  1.00  0.00     0.021 A 
ATOM     14  C   UNL     1       9.030  -5.238   3.766  1.00  0.00     0.016 A 
ATOM     15  C   UNL     1       8.959  -6.397   4.542  1.00  0.00     0.051 A 
ATOM     16  C   UNL     1       8.614  -7.623   3.964  1.00  0.00     0.157 A 
ATOM     17  C   UNL     1       8.412  -6.518   1.807  1.00  0.00     0.062 A 
ATOM     18  C   UNL     1       8.342  -7.685   2.577  1.00  0.00     0.158 A 
BRANCH  16  19
ATOM     19  O   UNL     1       8.555  -8.743   4.796  1.00  0.00    -0.504 OA
ATOM     20  H   UNL     1       8.351  -8.702   5.785  1.00  0.00     0.293 HD
ENDBRANCH  16  19
BRANCH  18  21
ATOM     21  O   UNL     1       8.008  -8.875   1.928  1.00  0.00    -0.504 OA
ATOM     22  H   UNL     1       8.442  -9.766   2.121  1.00  0.00     0.293 HD
ENDBRANCH  18  21
ENDBRANCH   3  13
BRANCH  11  23
ATOM     23  O   UNL     1       9.267  -0.282  -1.827  1.00  0.00    -0.507 OA
ATOM     24  H   UNL     1       9.590   0.576  -2.257  1.00  0.00     0.293 HD
ENDBRANCH  11  23
ENDBRANCH   1   2
BRANCH   1  25
ATOM     25  C   UNL     1       7.255   2.445   2.928  1.00  0.00     0.339 C 
ATOM     26  C   UNL     1       7.169   2.552   4.470  1.00  0.00     0.214 C 
ATOM     27  O   UNL     1       7.067   3.717   2.324  1.00  0.00    -0.332 OA
ATOM     28  C   UNL     1       8.167   3.596   5.009  1.00  0.00     0.180 C 
ATOM     29  C   UNL     1       8.076   4.636   2.716  1.00  0.00     0.179 C 
ATOM     30  C   UNL     1       8.013   4.918   4.236  1.00  0.00     0.177 C 
BRANCH  26  31
ATOM     31  O   UNL     1       7.403   1.303   5.065  1.00  0.00    -0.384 OA
ATOM     32  H   UNL     1       8.387   1.209   5.161  1.00  0.00     0.211 HD
ENDBRANCH  26  31
BRANCH  28  33
ATOM     33  O   UNL     1       9.480   3.107   4.887  1.00  0.00    -0.387 OA
ATOM     34  H   UNL     1       9.924   3.258   5.763  1.00  0.00     0.211 HD
ENDBRANCH  28  33
BRANCH  29  35
ATOM     35  C   UNL     1       7.943   5.924   1.885  1.00  0.00     0.191 C 
BRANCH  35  36
ATOM     36  O   UNL     1       7.126   5.729   0.760  1.00  0.00    -0.394 OA
ATOM     37  H   UNL     1       6.454   6.460   0.763  1.00  0.00     0.210 HD
ENDBRANCH  35  36
ENDBRANCH  29  35
BRANCH  30  38
ATOM     38  O   UNL     1       6.783   5.506   4.580  1.00  0.00    -0.387 OA
ATOM     39  H   UNL     1       6.326   5.752   3.733  1.00  0.00     0.211 HD
ENDBRANCH  30  38
ENDBRANCH   1  25
TORSDOF 11
ENDMDL
MODEL 2
REMARK VINA RESULT:    -4.403      3.405      9.545
REMARK INTER + INTRA:          -7.201
REMARK INTER:                  -6.252
REMARK INTRA:                  -0.949
REMARK UNBOUND:                -0.867
REMARK SMILES O=c1cc(-c2ccc(O)c(O)c2)oc2cc(O[C@@H]3O[C@@H](CO)[C@@H](O)[C@H](O)[C@@H]3O)cc(O)c12
REMARK SMILES IDX 17 1 16 2 4 3 3 4 13 5 2 6 14 7 1 8 32 9 15 10 30 11 29 12
REMARK SMILES IDX 5 13 6 14 7 15 8 16 12 17 10 18 9 19 11 21 31 23 18 25 27 26
REMARK SMILES IDX 19 27 25 28 20 29 23 30 28 31 26 33 21 35 22 36 24 38
REMARK H PARENT 9 20 11 22 31 24 28 32 26 34 22 37 24 39
REMARK Flexibility Score: inf
ROOT
ATOM      1  O   UNL     1       9.484  -6.990  -0.808  1.00  0.00    -0.462 OA
ENDROOT
BRANCH   1   2
ATOM      2  C   UNL     1       8.808  -6.164  -1.723  1.00  0.00     0.130 A 
ATOM      3  C   UNL     1       7.495  -1.703  -2.786  1.00  0.00     0.138 A 
ATOM      4  C   UNL     1       6.850  -2.106  -3.967  1.00  0.00     0.100 A 
ATOM      5  O   UNL     1       8.096  -2.614  -2.024  1.00  0.00    -0.456 OA
ATOM      6  C   UNL     1       6.839  -3.457  -4.316  1.00  0.00     0.197 A 
ATOM      7  C   UNL     1       8.112  -3.912  -2.314  1.00  0.00     0.146 A 
ATOM      8  O   UNL     1       6.259  -3.810  -5.378  1.00  0.00    -0.289 OA
ATOM      9  C   UNL     1       7.477  -4.396  -3.480  1.00  0.00     0.107 A 
ATOM     10  C   UNL     1       8.767  -4.794  -1.451  1.00  0.00     0.094 A 
ATOM     11  C   UNL     1       7.510  -5.783  -3.757  1.00  0.00     0.134 A 
ATOM     12  C   UNL     1       8.171  -6.654  -2.879  1.00  0.00     0.093 A 
BRANCH   3  13
ATOM     13  C   UNL     1       7.540  -0.279  -2.365  1.00  0.00     0.021 A 
ATOM     14  C   UNL     1       6.855   0.685  -3.121  1.00  0.00     0.016 A 
ATOM     15  C   UNL     1       6.887   2.031  -2.750  1.00  0.00     0.051 A 
ATOM     16  C   UNL     1       7.607   2.445  -1.626  1.00  0.00     0.157 A 
ATOM     17  C   UNL     1       8.278   0.138  -1.241  1.00  0.00     0.062 A 
ATOM     18  C   UNL     1       8.317   1.487  -0.864  1.00  0.00     0.158 A 
BRANCH  16  19
ATOM     19  O   UNL     1       7.593   3.804  -1.306  1.00  0.00    -0.504 OA
ATOM     20  H   UNL     1       6.832   4.264  -0.827  1.00  0.00     0.293 HD
ENDBRANCH  16  19
BRANCH  18  21
ATOM     21  O   UNL     1       9.071   1.828   0.260  1.00  0.00    -0.504 OA
ATOM     22  H   UNL     1       9.461   2.745   0.424  1.00  0.00     0.293 HD
ENDBRANCH  18  21
ENDBRANCH   3  13
BRANCH  11  23
ATOM     23  O   UNL     1       6.892  -6.299  -4.897  1.00  0.00    -0.507 OA
ATOM     24  H   UNL     1       5.887  -6.276  -5.016  1.00  0.00     0.293 HD
ENDBRANCH  11  23
ENDBRANCH   1   2
BRANCH   1  25
ATOM     25  C   UNL     1       8.889  -7.833   0.189  1.00  0.00     0.339 C 
ATOM     26  C   UNL     1       9.883  -8.892   0.725  1.00  0.00     0.214 C 
ATOM     27  O   UNL     1       8.375  -7.042   1.252  1.00  0.00    -0.332 OA
ATOM     28  C   UNL     1      11.007  -8.231   1.546  1.00  0.00     0.180 C 
ATOM     29  C   UNL     1       9.403  -6.323   1.915  1.00  0.00     0.179 C 
ATOM     30  C   UNL     1      10.403  -7.286   2.600  1.00  0.00     0.177 C 
BRANCH  26  31
ATOM     31  O   UNL     1      10.426  -9.638  -0.332  1.00  0.00    -0.384 OA
ATOM     32  H   UNL     1      10.200  -9.156  -1.170  1.00  0.00     0.211 HD
ENDBRANCH  26  31
BRANCH  28  33
ATOM     33  O   UNL     1      11.869  -7.523   0.690  1.00  0.00    -0.387 OA
ATOM     34  H   UNL     1      12.598  -8.149   0.437  1.00  0.00     0.211 HD
ENDBRANCH  28  33
BRANCH  29  35
ATOM     35  C   UNL     1       8.773  -5.339   2.916  1.00  0.00     0.191 C 
BRANCH  35  36
ATOM     36  O   UNL     1       7.699  -4.640   2.345  1.00  0.00    -0.394 OA
ATOM     37  H   UNL     1       8.073  -4.090   1.607  1.00  0.00     0.210 HD
ENDBRANCH  35  36
ENDBRANCH  29  35
BRANCH  30  38
ATOM     38  O   UNL     1       9.756  -8.055   3.584  1.00  0.00    -0.387 OA
ATOM     39  H   UNL     1      10.154  -7.808   4.459  1.00  0.00     0.211 HD
ENDBRANCH  30  38
ENDBRANCH   1  25
TORSDOF 11
ENDMDL
MODEL 3
REMARK VINA RESULT:    -4.331      3.298      4.626
REMARK INTER + INTRA:          -7.097
REMARK INTER:                  -6.053
REMARK INTRA:                  -1.045
REMARK UNBOUND:                -0.867
REMARK SMILES O=c1cc(-c2ccc(O)c(O)c2)oc2cc(O[C@@H]3O[C@@H](CO)[C@@H](O)[C@H](O)[C@@H]3O)cc(O)c12
REMARK SMILES IDX 17 1 16 2 4 3 3 4 13 5 2 6 14 7 1 8 32 9 15 10 30 11 29 12
REMARK SMILES IDX 5 13 6 14 7 15 8 16 12 17 10 18 9 19 11 21 31 23 18 25 27 26
REMARK SMILES IDX 19 27 25 28 20 29 23 30 28 31 26 33 21 35 22 36 24 38
REMARK H PARENT 9 20 11 22 31 24 28 32 26 34 22 37 24 39
REMARK Flexibility Score: inf
ROOT
ATOM      1  O   UNL     1       7.993   3.633  -0.683  1.00  0.00    -0.462 OA
ENDROOT
BRANCH   1   2
ATOM      2  C   UNL     1       7.577   2.615  -1.559  1.00  0.00     0.130 A 
ATOM      3  C   UNL     1       7.724  -2.052  -2.536  1.00  0.00     0.138 A 
ATOM      4  C   UNL     1       6.919  -1.903  -3.678  1.00  0.00     0.100 A 
ATOM      5  O   UNL     1       8.028  -0.982  -1.806  1.00  0.00    -0.456 OA
ATOM      6  C   UNL     1       6.463  -0.634  -4.034  1.00  0.00     0.197 A 
ATOM      7  C   UNL     1       7.618   0.247  -2.105  1.00  0.00     0.146 A 
ATOM      8  O   UNL     1       5.740  -0.510  -5.060  1.00  0.00    -0.289 OA
ATOM      9  C   UNL     1       6.813   0.479  -3.244  1.00  0.00     0.107 A 
ATOM     10  C   UNL     1       7.991   1.310  -1.279  1.00  0.00     0.094 A 
ATOM     11  C   UNL     1       6.396   1.798  -3.536  1.00  0.00     0.134 A 
ATOM     12  C   UNL     1       6.781   2.853  -2.695  1.00  0.00     0.093 A 
BRANCH   3  13
ATOM     13  C   UNL     1       8.238  -3.378  -2.107  1.00  0.00     0.021 A 
ATOM     14  C   UNL     1       8.910  -3.493  -0.880  1.00  0.00     0.016 A 
ATOM     15  C   UNL     1       9.408  -4.727  -0.457  1.00  0.00     0.051 A 
ATOM     16  C   UNL     1       9.255  -5.868  -1.251  1.00  0.00     0.157 A 
ATOM     17  C   UNL     1       8.096  -4.524  -2.913  1.00  0.00     0.062 A 
ATOM     18  C   UNL     1       8.595  -5.764  -2.498  1.00  0.00     0.158 A 
BRANCH  16  19
ATOM     19  O   UNL     1       9.771  -7.073  -0.767  1.00  0.00    -0.504 OA
ATOM     20  H   UNL     1       9.932  -7.889  -1.340  1.00  0.00     0.293 HD
ENDBRANCH  16  19
BRANCH  18  21
ATOM     21  O   UNL     1       8.421  -6.856  -3.350  1.00  0.00    -0.504 OA
ATOM     22  H   UNL     1       7.781  -6.867  -4.132  1.00  0.00     0.293 HD
ENDBRANCH  18  21
ENDBRANCH   3  13
BRANCH  11  23
ATOM     23  O   UNL     1       5.603   2.068  -4.652  1.00  0.00    -0.507 OA
ATOM     24  H   UNL     1       4.989   1.368  -5.051  1.00  0.00     0.293 HD
ENDBRANCH  11  23
ENDBRANCH   1   2
BRANCH   1  25
ATOM     25  C   UNL     1       7.274   4.137   0.451  1.00  0.00     0.339 C 
ATOM     26  C   UNL     1       8.210   4.820   1.478  1.00  0.00     0.214 C 
ATOM     27  O   UNL     1       6.256   5.031   0.026  1.00  0.00    -0.332 OA
ATOM     28  C   UNL     1       8.795   6.127   0.910  1.00  0.00     0.180 C 
ATOM     29  C   UNL     1       6.798   6.170  -0.627  1.00  0.00     0.179 C 
ATOM     30  C   UNL     1       7.666   7.006   0.344  1.00  0.00     0.177 C 
BRANCH  26  31
ATOM     31  O   UNL     1       9.242   3.949   1.860  1.00  0.00    -0.384 OA
ATOM     32  H   UNL     1       8.823   3.217   2.382  1.00  0.00     0.211 HD
ENDBRANCH  26  31
BRANCH  28  33
ATOM     33  O   UNL     1       9.735   5.832  -0.093  1.00  0.00    -0.387 OA
ATOM     34  H   UNL     1       9.220   5.552  -0.895  1.00  0.00     0.211 HD
ENDBRANCH  28  33
BRANCH  29  35
ATOM     35  C   UNL     1       5.656   6.999  -1.240  1.00  0.00     0.191 C 
BRANCH  35  36
ATOM     36  O   UNL     1       4.648   7.260  -0.300  1.00  0.00    -0.394 OA
ATOM     37  H   UNL     1       4.533   6.433   0.237  1.00  0.00     0.210 HD
ENDBRANCH  35  36
ENDBRANCH  29  35
BRANCH  30  38
ATOM     38  O   UNL     1       6.888   7.491   1.411  1.00  0.00    -0.387 OA
ATOM     39  H   UNL     1       5.944   7.244   1.224  1.00  0.00     0.211 HD
ENDBRANCH  30  38
ENDBRANCH   1  25
TORSDOF 11
ENDMDL
MODEL 4
REMARK VINA RESULT:    -4.309      3.805      5.454
REMARK INTER + INTRA:          -7.065
REMARK INTER:                  -5.974
REMARK INTRA:                  -1.091
REMARK UNBOUND:                -0.867
REMARK SMILES O=c1cc(-c2ccc(O)c(O)c2)oc2cc(O[C@@H]3O[C@@H](CO)[C@@H](O)[C@H](O)[C@@H]3O)cc(O)c12
REMARK SMILES IDX 17 1 16 2 4 3 3 4 13 5 2 6 14 7 1 8 32 9 15 10 30 11 29 12
REMARK SMILES IDX 5 13 6 14 7 15 8 16 12 17 10 18 9 19 11 21 31 23 18 25 27 26
REMARK SMILES IDX 19 27 25 28 20 29 23 30 28 31 26 33 21 35 22 36 24 38
REMARK H PARENT 9 20 11 22 31 24 28 32 26 34 22 37 24 39
REMARK Flexibility Score: inf
ROOT
ATOM      1  O   UNL     1       6.701   4.153  -2.123  1.00  0.00    -0.462 OA
ENDROOT
BRANCH   1   2
ATOM      2  C   UNL     1       6.594   2.866  -2.679  1.00  0.00     0.130 A 
ATOM      3  C   UNL     1       7.855  -1.718  -2.285  1.00  0.00     0.138 A 
ATOM      4  C   UNL     1       7.132  -2.082  -3.434  1.00  0.00     0.100 A 
ATOM      5  O   UNL     1       7.853  -0.448  -1.885  1.00  0.00    -0.456 OA
ATOM      6  C   UNL     1       6.435  -1.103  -4.144  1.00  0.00     0.197 A 
ATOM      7  C   UNL     1       7.205   0.519  -2.528  1.00  0.00     0.146 A 
ATOM      8  O   UNL     1       5.788  -1.439  -5.173  1.00  0.00    -0.289 OA
ATOM      9  C   UNL     1       6.463   0.233  -3.697  1.00  0.00     0.107 A 
ATOM     10  C   UNL     1       7.264   1.824  -2.033  1.00  0.00     0.094 A 
ATOM     11  C   UNL     1       5.788   1.286  -4.359  1.00  0.00     0.134 A 
ATOM     12  C   UNL     1       5.860   2.590  -3.848  1.00  0.00     0.093 A 
BRANCH   3  13
ATOM     13  C   UNL     1       8.614  -2.715  -1.489  1.00  0.00     0.021 A 
ATOM     14  C   UNL     1       8.648  -4.053  -1.913  1.00  0.00     0.016 A 
ATOM     15  C   UNL     1       9.350  -5.012  -1.179  1.00  0.00     0.051 A 
ATOM     16  C   UNL     1      10.023  -4.660  -0.005  1.00  0.00     0.157 A 
ATOM     17  C   UNL     1       9.280  -2.363  -0.300  1.00  0.00     0.062 A 
ATOM     18  C   UNL     1       9.983  -3.319   0.444  1.00  0.00     0.158 A 
BRANCH  16  19
ATOM     19  O   UNL     1      10.711  -5.666   0.679  1.00  0.00    -0.504 OA
ATOM     20  H   UNL     1      11.005  -5.594   1.642  1.00  0.00     0.293 HD
ENDBRANCH  16  19
BRANCH  18  21
ATOM     21  O   UNL     1      10.617  -2.898   1.614  1.00  0.00    -0.504 OA
ATOM     22  H   UNL     1      10.807  -1.931   1.838  1.00  0.00     0.293 HD
ENDBRANCH  18  21
ENDBRANCH   3  13
BRANCH  11  23
ATOM     23  O   UNL     1       5.048   1.044  -5.517  1.00  0.00    -0.507 OA
ATOM     24  H   UNL     1       4.241   1.605  -5.761  1.00  0.00     0.293 HD
ENDBRANCH  11  23
ENDBRANCH   1   2
BRANCH   1  25
ATOM     25  C   UNL     1       6.379   4.537  -0.779  1.00  0.00     0.339 C 
ATOM     26  C   UNL     1       7.372   5.585  -0.220  1.00  0.00     0.214 C 
ATOM     27  O   UNL     1       5.046   5.023  -0.716  1.00  0.00    -0.332 OA
ATOM     28  C   UNL     1       7.218   6.936  -0.945  1.00  0.00     0.180 C 
ATOM     29  C   UNL     1       4.877   6.192  -1.505  1.00  0.00     0.179 C 
ATOM     30  C   UNL     1       5.738   7.358  -0.963  1.00  0.00     0.177 C 
BRANCH  26  31
ATOM     31  O   UNL     1       8.692   5.122  -0.328  1.00  0.00    -0.384 OA
ATOM     32  H   UNL     1       9.166   5.744  -0.939  1.00  0.00     0.211 HD
ENDBRANCH  26  31
BRANCH  28  33
ATOM     33  O   UNL     1       7.713   6.832  -2.257  1.00  0.00    -0.387 OA
ATOM     34  H   UNL     1       7.034   6.331  -2.781  1.00  0.00     0.211 HD
ENDBRANCH  28  33
BRANCH  29  35
ATOM     35  C   UNL     1       3.383   6.557  -1.562  1.00  0.00     0.191 C 
BRANCH  35  36
ATOM     36  O   UNL     1       2.788   6.490  -0.293  1.00  0.00    -0.394 OA
ATOM     37  H   UNL     1       3.288   7.115   0.293  1.00  0.00     0.210 HD
ENDBRANCH  35  36
ENDBRANCH  29  35
BRANCH  30  38
ATOM     38  O   UNL     1       5.346   7.698   0.344  1.00  0.00    -0.387 OA
ATOM     39  H   UNL     1       5.816   8.540   0.583  1.00  0.00     0.211 HD
ENDBRANCH  30  38
ENDBRANCH   1  25
TORSDOF 11
ENDMDL
MODEL 5
REMARK VINA RESULT:    -4.273      4.627     11.283
REMARK INTER + INTRA:          -7.014
REMARK INTER:                  -5.969
REMARK INTRA:                  -1.046
REMARK UNBOUND:                -0.867
REMARK SMILES O=c1cc(-c2ccc(O)c(O)c2)oc2cc(O[C@@H]3O[C@@H](CO)[C@@H](O)[C@H](O)[C@@H]3O)cc(O)c12
REMARK SMILES IDX 17 1 16 2 4 3 3 4 13 5 2 6 14 7 1 8 32 9 15 10 30 11 29 12
REMARK SMILES IDX 5 13 6 14 7 15 8 16 12 17 10 18 9 19 11 21 31 23 18 25 27 26
REMARK SMILES IDX 19 27 25 28 20 29 23 30 28 31 26 33 21 35 22 36 24 38
REMARK H PARENT 9 20 11 22 31 24 28 32 26 34 22 37 24 39
REMARK Flexibility Score: inf
ROOT
ATOM      1  O   UNL     1       7.213  -6.876  -3.952  1.00  0.00    -0.462 OA
ENDROOT
BRANCH   1   2
ATOM      2  C   UNL     1       7.766  -5.911  -3.092  1.00  0.00     0.130 A 
ATOM      3  C   UNL     1       7.983  -1.277  -1.982  1.00  0.00     0.138 A 
ATOM      4  C   UNL     1       8.870  -1.508  -0.917  1.00  0.00     0.100 A 
ATOM      5  O   UNL     1       7.545  -2.305  -2.704  1.00  0.00    -0.456 OA
ATOM      6  C   UNL     1       9.287  -2.810  -0.643  1.00  0.00     0.197 A 
ATOM      7  C   UNL     1       7.915  -3.563  -2.482  1.00  0.00     0.146 A 
ATOM      8  O   UNL     1      10.082  -3.009   0.315  1.00  0.00    -0.289 OA
ATOM      9  C   UNL     1       8.812  -3.875  -1.435  1.00  0.00     0.107 A 
ATOM     10  C   UNL     1       7.404  -4.577  -3.296  1.00  0.00     0.094 A 
ATOM     11  C   UNL     1       9.187  -5.223  -1.228  1.00  0.00     0.134 A 
ATOM     12  C   UNL     1       8.665  -6.227  -2.056  1.00  0.00     0.093 A 
BRANCH   3  13
ATOM     13  C   UNL     1       7.503   0.088  -2.320  1.00  0.00     0.021 A 
ATOM     14  C   UNL     1       6.689   0.273  -3.448  1.00  0.00     0.016 A 
ATOM     15  C   UNL     1       6.231   1.546  -3.791  1.00  0.00     0.051 A 
ATOM     16  C   UNL     1       6.580   2.661  -3.023  1.00  0.00     0.157 A 
ATOM     17  C   UNL     1       7.868   1.212  -1.554  1.00  0.00     0.062 A 
ATOM     18  C   UNL     1       7.414   2.493  -1.893  1.00  0.00     0.158 A 
BRANCH  16  19
ATOM     19  O   UNL     1       6.083   3.906  -3.417  1.00  0.00    -0.504 OA
ATOM     20  H   UNL     1       6.519   4.493  -4.113  1.00  0.00     0.293 HD
ENDBRANCH  16  19
BRANCH  18  21
ATOM     21  O   UNL     1       7.818   3.561  -1.089  1.00  0.00    -0.504 OA
ATOM     22  H   UNL     1       7.993   4.494  -1.434  1.00  0.00     0.293 HD
ENDBRANCH  18  21
ENDBRANCH   3  13
BRANCH  11  23
ATOM     23  O   UNL     1      10.072  -5.570  -0.207  1.00  0.00    -0.507 OA
ATOM     24  H   UNL     1      10.209  -6.533   0.077  1.00  0.00     0.293 HD
ENDBRANCH  11  23
ENDBRANCH   1   2
BRANCH   1  25
ATOM     25  C   UNL     1       5.824  -7.208  -4.090  1.00  0.00     0.339 C 
ATOM     26  C   UNL     1       5.561  -8.116  -5.316  1.00  0.00     0.214 C 
ATOM     27  O   UNL     1       5.348  -7.819  -2.900  1.00  0.00    -0.332 OA
ATOM     28  C   UNL     1       6.168  -9.517  -5.107  1.00  0.00     0.180 C 
ATOM     29  C   UNL     1       6.016  -9.044  -2.637  1.00  0.00     0.179 C 
ATOM     30  C   UNL     1       5.727 -10.084  -3.746  1.00  0.00     0.177 C 
BRANCH  26  31
ATOM     31  O   UNL     1       6.076  -7.531  -6.483  1.00  0.00    -0.384 OA
ATOM     32  H   UNL     1       5.664  -8.007  -7.250  1.00  0.00     0.211 HD
ENDBRANCH  26  31
BRANCH  28  33
ATOM     33  O   UNL     1       7.571  -9.444  -5.175  1.00  0.00    -0.387 OA
ATOM     34  H   UNL     1       7.854  -8.750  -4.524  1.00  0.00     0.211 HD
ENDBRANCH  28  33
BRANCH  29  35
ATOM     35  C   UNL     1       5.608  -9.558  -1.245  1.00  0.00     0.191 C 
BRANCH  35  36
ATOM     36  O   UNL     1       4.274  -9.240  -0.948  1.00  0.00    -0.394 OA
ATOM     37  H   UNL     1       3.984  -9.860  -0.229  1.00  0.00     0.210 HD
ENDBRANCH  35  36
ENDBRANCH  29  35
BRANCH  30  38
ATOM     38  O   UNL     1       4.353 -10.382  -3.801  1.00  0.00    -0.387 OA
ATOM     39  H   UNL     1       4.144 -10.635  -4.738  1.00  0.00     0.211 HD
ENDBRANCH  30  38
ENDBRANCH   1  25
TORSDOF 11
ENDMDL
MODEL 6
REMARK VINA RESULT:    -4.259      2.463      4.645
REMARK INTER + INTRA:          -6.994
REMARK INTER:                  -6.121
REMARK INTRA:                  -0.873
REMARK UNBOUND:                -0.867
REMARK SMILES O=c1cc(-c2ccc(O)c(O)c2)oc2cc(O[C@@H]3O[C@@H](CO)[C@@H](O)[C@H](O)[C@@H]3O)cc(O)c12
REMARK SMILES IDX 17 1 16 2 4 3 3 4 13 5 2 6 14 7 1 8 32 9 15 10 30 11 29 12
REMARK SMILES IDX 5 13 6 14 7 15 8 16 12 17 10 18 9 19 11 21 31 23 18 25 27 26
REMARK SMILES IDX 19 27 25 28 20 29 23 30 28 31 26 33 21 35 22 36 24 38
REMARK H PARENT 9 20 11 22 31 24 28 32 26 34 22 37 24 39
REMARK Flexibility Score: inf
ROOT
ATOM      1  O   UNL     1       8.803   1.130   4.105  1.00  0.00    -0.462 OA
ENDROOT
BRANCH   1   2
ATOM      2  C   UNL     1       9.156  -0.095   3.512  1.00  0.00     0.130 A 
ATOM      3  C   UNL     1       8.860  -2.815  -0.396  1.00  0.00     0.138 A 
ATOM      4  C   UNL     1       9.614  -3.847   0.188  1.00  0.00     0.100 A 
ATOM      5  O   UNL     1       8.614  -1.709   0.302  1.00  0.00    -0.456 OA
ATOM      6  C   UNL     1      10.081  -3.700   1.494  1.00  0.00     0.197 A 
ATOM      7  C   UNL     1       9.037  -1.523   1.549  1.00  0.00     0.146 A 
ATOM      8  O   UNL     1      10.758  -4.631   2.009  1.00  0.00    -0.289 OA
ATOM      9  C   UNL     1       9.793  -2.520   2.208  1.00  0.00     0.107 A 
ATOM     10  C   UNL     1       8.726  -0.328   2.203  1.00  0.00     0.094 A 
ATOM     11  C   UNL     1      10.225  -2.292   3.535  1.00  0.00     0.134 A 
ATOM     12  C   UNL     1       9.902  -1.086   4.176  1.00  0.00     0.093 A 
BRANCH   3  13
ATOM     13  C   UNL     1       8.337  -2.915  -1.782  1.00  0.00     0.021 A 
ATOM     14  C   UNL     1       7.785  -1.779  -2.395  1.00  0.00     0.016 A 
ATOM     15  C   UNL     1       7.281  -1.848  -3.695  1.00  0.00     0.051 A 
ATOM     16  C   UNL     1       7.309  -3.050  -4.408  1.00  0.00     0.157 A 
ATOM     17  C   UNL     1       8.353  -4.129  -2.495  1.00  0.00     0.062 A 
ATOM     18  C   UNL     1       7.847  -4.207  -3.798  1.00  0.00     0.158 A 
BRANCH  16  19
ATOM     19  O   UNL     1       6.794  -3.050  -5.707  1.00  0.00    -0.504 OA
ATOM     20  H   UNL     1       6.582  -2.212  -6.230  1.00  0.00     0.293 HD
ENDBRANCH  16  19
BRANCH  18  21
ATOM     21  O   UNL     1       7.893  -5.445  -4.442  1.00  0.00    -0.504 OA
ATOM     22  H   UNL     1       7.927  -6.332  -3.961  1.00  0.00     0.293 HD
ENDBRANCH  18  21
ENDBRANCH   3  13
BRANCH  11  23
ATOM     23  O   UNL     1      10.971  -3.252   4.219  1.00  0.00    -0.507 OA
ATOM     24  H   UNL     1      11.943  -3.430   3.998  1.00  0.00     0.293 HD
ENDBRANCH  11  23
ENDBRANCH   1   2
BRANCH   1  25
ATOM     25  C   UNL     1       7.476   1.632   4.313  1.00  0.00     0.339 C 
ATOM     26  C   UNL     1       7.332   2.352   5.676  1.00  0.00     0.214 C 
ATOM     27  O   UNL     1       7.109   2.495   3.247  1.00  0.00    -0.332 OA
ATOM     28  C   UNL     1       8.139   3.665   5.696  1.00  0.00     0.180 C 
ATOM     29  C   UNL     1       7.950   3.638   3.184  1.00  0.00     0.179 C 
ATOM     30  C   UNL     1       7.801   4.509   4.455  1.00  0.00     0.177 C 
BRANCH  26  31
ATOM     31  O   UNL     1       7.742   1.512   6.723  1.00  0.00    -0.384 OA
ATOM     32  H   UNL     1       7.199   1.756   7.517  1.00  0.00     0.211 HD
ENDBRANCH  26  31
BRANCH  28  33
ATOM     33  O   UNL     1       9.515   3.379   5.735  1.00  0.00    -0.387 OA
ATOM     34  H   UNL     1       9.644   2.525   5.243  1.00  0.00     0.211 HD
ENDBRANCH  28  33
BRANCH  29  35
ATOM     35  C   UNL     1       7.639   4.430   1.902  1.00  0.00     0.191 C 
BRANCH  35  36
ATOM     36  O   UNL     1       6.524   3.906   1.230  1.00  0.00    -0.394 OA
ATOM     37  H   UNL     1       6.865   3.457   0.413  1.00  0.00     0.210 HD
ENDBRANCH  35  36
ENDBRANCH  29  35
BRANCH  30  38
ATOM     38  O   UNL     1       6.485   4.989   4.574  1.00  0.00    -0.387 OA
ATOM     39  H   UNL     1       6.505   5.745   5.219  1.00  0.00     0.211 HD
ENDBRANCH  30  38
ENDBRANCH   1  25
TORSDOF 11
ENDMDL
MODEL 7
REMARK VINA RESULT:    -4.238     10.360     12.773
REMARK INTER + INTRA:          -6.964
REMARK INTER:                  -6.150
REMARK INTRA:                  -0.814
REMARK UNBOUND:                -0.867
REMARK SMILES O=c1cc(-c2ccc(O)c(O)c2)oc2cc(O[C@@H]3O[C@@H](CO)[C@@H](O)[C@H](O)[C@@H]3O)cc(O)c12
REMARK SMILES IDX 17 1 16 2 4 3 3 4 13 5 2 6 14 7 1 8 32 9 15 10 30 11 29 12
REMARK SMILES IDX 5 13 6 14 7 15 8 16 12 17 10 18 9 19 11 21 31 23 18 25 27 26
REMARK SMILES IDX 19 27 25 28 20 29 23 30 28 31 26 33 21 35 22 36 24 38
REMARK H PARENT 9 20 11 22 31 24 28 32 26 34 22 37 24 39
REMARK Flexibility Score: inf
ROOT
ATOM      1  O   UNL     1      -3.851   0.970   1.203  1.00  0.00    -0.462 OA
ENDROOT
BRANCH   1   2
ATOM      2  C   UNL     1      -2.708   1.672   0.780  1.00  0.00     0.130 A 
ATOM      3  C   UNL     1       0.687   2.040  -2.550  1.00  0.00     0.138 A 
ATOM      4  C   UNL     1       1.291   3.134  -1.905  1.00  0.00     0.100 A 
ATOM      5  O   UNL     1      -0.400   1.486  -2.019  1.00  0.00    -0.456 OA
ATOM      6  C   UNL     1       0.747   3.612  -0.713  1.00  0.00     0.197 A 
ATOM      7  C   UNL     1      -0.954   1.906  -0.886  1.00  0.00     0.146 A 
ATOM      8  O   UNL     1       1.294   4.594  -0.142  1.00  0.00    -0.289 OA
ATOM      9  C   UNL     1      -0.400   2.994  -0.174  1.00  0.00     0.107 A 
ATOM     10  C   UNL     1      -2.095   1.258  -0.405  1.00  0.00     0.094 A 
ATOM     11  C   UNL     1      -1.012   3.413   1.030  1.00  0.00     0.134 A 
ATOM     12  C   UNL     1      -2.156   2.750   1.498  1.00  0.00     0.093 A 
BRANCH   3  13
ATOM     13  C   UNL     1       1.221   1.489  -3.822  1.00  0.00     0.021 A 
ATOM     14  C   UNL     1       1.745   2.364  -4.786  1.00  0.00     0.016 A 
ATOM     15  C   UNL     1       2.247   1.872  -5.993  1.00  0.00     0.051 A 
ATOM     16  C   UNL     1       2.229   0.501  -6.267  1.00  0.00     0.157 A 
ATOM     17  C   UNL     1       1.190   0.110  -4.103  1.00  0.00     0.062 A 
ATOM     18  C   UNL     1       1.689  -0.391  -5.312  1.00  0.00     0.158 A 
BRANCH  16  19
ATOM     19  O   UNL     1       2.752   0.074  -7.490  1.00  0.00    -0.504 OA
ATOM     20  H   UNL     1       2.203  -0.360  -8.218  1.00  0.00     0.293 HD
ENDBRANCH  16  19
BRANCH  18  21
ATOM     21  O   UNL     1       1.622  -1.770  -5.523  1.00  0.00    -0.504 OA
ATOM     22  H   UNL     1       0.771  -2.268  -5.738  1.00  0.00     0.293 HD
ENDBRANCH  18  21
ENDBRANCH   3  13
BRANCH  11  23
ATOM     23  O   UNL     1      -0.493   4.481   1.762  1.00  0.00    -0.507 OA
ATOM     24  H   UNL     1      -1.025   5.328   1.921  1.00  0.00     0.293 HD
ENDBRANCH  11  23
ENDBRANCH   1   2
BRANCH   1  25
ATOM     25  C   UNL     1      -4.727   1.327   2.281  1.00  0.00     0.339 C 
ATOM     26  C   UNL     1      -6.196   0.929   1.994  1.00  0.00     0.214 C 
ATOM     27  O   UNL     1      -4.274   0.740   3.492  1.00  0.00    -0.332 OA
ATOM     28  C   UNL     1      -6.363  -0.603   1.988  1.00  0.00     0.180 C 
ATOM     29  C   UNL     1      -4.296  -0.678   3.428  1.00  0.00     0.179 C 
ATOM     30  C   UNL     1      -5.742  -1.204   3.261  1.00  0.00     0.177 C 
BRANCH  26  31
ATOM     31  O   UNL     1      -6.624   1.471   0.773  1.00  0.00    -0.384 OA
ATOM     32  H   UNL     1      -5.910   1.284   0.109  1.00  0.00     0.211 HD
ENDBRANCH  26  31
BRANCH  28  33
ATOM     33  O   UNL     1      -5.753  -1.144   0.843  1.00  0.00    -0.387 OA
ATOM     34  H   UNL     1      -6.485  -1.409   0.226  1.00  0.00     0.211 HD
ENDBRANCH  28  33
BRANCH  29  35
ATOM     35  C   UNL     1      -3.613  -1.256   4.679  1.00  0.00     0.191 C 
BRANCH  35  36
ATOM     36  O   UNL     1      -2.391  -0.617   4.941  1.00  0.00    -0.394 OA
ATOM     37  H   UNL     1      -2.605   0.232   5.408  1.00  0.00     0.210 HD
ENDBRANCH  35  36
ENDBRANCH  29  35
BRANCH  30  38
ATOM     38  O   UNL     1      -6.532  -0.844   4.367  1.00  0.00    -0.387 OA
ATOM     39  H   UNL     1      -5.952  -0.896   5.173  1.00  0.00     0.211 HD
ENDBRANCH  30  38
ENDBRANCH   1  25
TORSDOF 11
ENDMDL
MODEL 8
REMARK VINA RESULT:    -4.237      9.662     11.350
REMARK INTER + INTRA:          -6.962
REMARK INTER:                  -5.899
REMARK INTRA:                  -1.063
REMARK UNBOUND:                -0.867
REMARK SMILES O=c1cc(-c2ccc(O)c(O)c2)oc2cc(O[C@@H]3O[C@@H](CO)[C@@H](O)[C@H](O)[C@@H]3O)cc(O)c12
REMARK SMILES IDX 17 1 16 2 4 3 3 4 13 5 2 6 14 7 1 8 32 9 15 10 30 11 29 12
REMARK SMILES IDX 5 13 6 14 7 15 8 16 12 17 10 18 9 19 11 21 31 23 18 25 27 26
REMARK SMILES IDX 19 27 25 28 20 29 23 30 28 31 26 33 21 35 22 36 24 38
REMARK H PARENT 9 20 11 22 31 24 28 32 26 34 22 37 24 39
REMARK Flexibility Score: inf
ROOT
ATOM      1  O   UNL     1      -2.118   2.678  -0.388  1.00  0.00    -0.462 OA
ENDROOT
BRANCH   1   2
ATOM      2  C   UNL     1      -1.044   2.782  -1.290  1.00  0.00     0.130 A 
ATOM      3  C   UNL     1       1.868   0.425  -4.243  1.00  0.00     0.138 A 
ATOM      4  C   UNL     1       2.550   1.598  -4.609  1.00  0.00     0.100 A 
ATOM      5  O   UNL     1       0.864   0.497  -3.372  1.00  0.00    -0.456 OA
ATOM      6  C   UNL     1       2.171   2.816  -4.044  1.00  0.00     0.197 A 
ATOM      7  C   UNL     1       0.467   1.633  -2.807  1.00  0.00     0.146 A 
ATOM      8  O   UNL     1       2.788   3.864  -4.379  1.00  0.00    -0.289 OA
ATOM      9  C   UNL     1       1.110   2.853  -3.117  1.00  0.00     0.107 A 
ATOM     10  C   UNL     1      -0.596   1.608  -1.901  1.00  0.00     0.094 A 
ATOM     11  C   UNL     1       0.665   4.043  -2.496  1.00  0.00     0.134 A 
ATOM     12  C   UNL     1      -0.403   3.999  -1.588  1.00  0.00     0.093 A 
BRANCH   3  13
ATOM     13  C   UNL     1       2.226  -0.899  -4.812  1.00  0.00     0.021 A 
ATOM     14  C   UNL     1       3.451  -1.054  -5.480  1.00  0.00     0.016 A 
ATOM     15  C   UNL     1       3.808  -2.286  -6.030  1.00  0.00     0.051 A 
ATOM     16  C   UNL     1       2.950  -3.386  -5.934  1.00  0.00     0.157 A 
ATOM     17  C   UNL     1       1.355  -2.002  -4.728  1.00  0.00     0.062 A 
ATOM     18  C   UNL     1       1.705  -3.241  -5.279  1.00  0.00     0.158 A 
BRANCH  16  19
ATOM     19  O   UNL     1       3.371  -4.592  -6.499  1.00  0.00    -0.504 OA
ATOM     20  H   UNL     1       2.769  -5.209  -7.027  1.00  0.00     0.293 HD
ENDBRANCH  16  19
BRANCH  18  21
ATOM     21  O   UNL     1       0.791  -4.289  -5.159  1.00  0.00    -0.504 OA
ATOM     22  H   UNL     1      -0.191  -4.163  -4.959  1.00  0.00     0.293 HD
ENDBRANCH  18  21
ENDBRANCH   3  13
BRANCH  11  23
ATOM     23  O   UNL     1       1.275   5.267  -2.774  1.00  0.00    -0.507 OA
ATOM     24  H   UNL     1       1.884   5.724  -2.106  1.00  0.00     0.293 HD
ENDBRANCH  11  23
ENDBRANCH   1   2
BRANCH   1  25
ATOM     25  C   UNL     1      -2.410   1.570   0.475  1.00  0.00     0.339 C 
ATOM     26  C   UNL     1      -2.609   2.013   1.945  1.00  0.00     0.214 C 
ATOM     27  O   UNL     1      -3.552   0.871   0.001  1.00  0.00    -0.332 OA
ATOM     28  C   UNL     1      -3.898   2.843   2.103  1.00  0.00     0.180 C 
ATOM     29  C   UNL     1      -4.712   1.690   0.016  1.00  0.00     0.179 C 
ATOM     30  C   UNL     1      -5.083   2.101   1.460  1.00  0.00     0.177 C 
BRANCH  26  31
ATOM     31  O   UNL     1      -1.500   2.745   2.394  1.00  0.00    -0.384 OA
ATOM     32  H   UNL     1      -1.848   3.602   2.755  1.00  0.00     0.211 HD
ENDBRANCH  26  31
BRANCH  28  33
ATOM     33  O   UNL     1      -3.729   4.105   1.507  1.00  0.00    -0.387 OA
ATOM     34  H   UNL     1      -4.566   4.302   1.010  1.00  0.00     0.211 HD
ENDBRANCH  28  33
BRANCH  29  35
ATOM     35  C   UNL     1      -5.865   0.955  -0.690  1.00  0.00     0.191 C 
BRANCH  35  36
ATOM     36  O   UNL     1      -5.841  -0.422  -0.417  1.00  0.00    -0.394 OA
ATOM     37  H   UNL     1      -5.229  -0.836  -1.080  1.00  0.00     0.210 HD
ENDBRANCH  35  36
ENDBRANCH  29  35
BRANCH  30  38
ATOM     38  O   UNL     1      -5.386   0.968   2.236  1.00  0.00    -0.387 OA
ATOM     39  H   UNL     1      -6.006   0.403   1.703  1.00  0.00     0.211 HD
ENDBRANCH  30  38
ENDBRANCH   1  25
TORSDOF 11
ENDMDL
MODEL 9
REMARK VINA RESULT:    -4.188     11.167     13.263
REMARK INTER + INTRA:          -6.892
REMARK INTER:                  -5.924
REMARK INTRA:                  -0.969
REMARK UNBOUND:                -0.867
REMARK SMILES O=c1cc(-c2ccc(O)c(O)c2)oc2cc(O[C@@H]3O[C@@H](CO)[C@@H](O)[C@H](O)[C@@H]3O)cc(O)c12
REMARK SMILES IDX 17 1 16 2 4 3 3 4 13 5 2 6 14 7 1 8 32 9 15 10 30 11 29 12
REMARK SMILES IDX 5 13 6 14 7 15 8 16 12 17 10 18 9 19 11 21 31 23 18 25 27 26
REMARK SMILES IDX 19 27 25 28 20 29 23 30 28 31 26 33 21 35 22 36 24 38
REMARK H PARENT 9 20 11 22 31 24 28 32 26 34 22 37 24 39
REMARK Flexibility Score: inf
ROOT
ATOM      1  O   UNL     1      -4.311   1.346   1.654  1.00  0.00    -0.462 OA
ENDROOT
BRANCH   1   2
ATOM      2  C   UNL     1      -3.087   1.801   1.133  1.00  0.00     0.130 A 
ATOM      3  C   UNL     1      -0.009   1.549  -2.502  1.00  0.00     0.138 A 
ATOM      4  C   UNL     1       0.872   2.467  -1.903  1.00  0.00     0.100 A 
ATOM      5  O   UNL     1      -1.137   1.222  -1.877  1.00  0.00    -0.456 OA
ATOM      6  C   UNL     1       0.554   3.009  -0.658  1.00  0.00     0.197 A 
ATOM      7  C   UNL     1      -1.483   1.712  -0.690  1.00  0.00     0.146 A 
ATOM      8  O   UNL     1       1.350   3.832  -0.128  1.00  0.00    -0.289 OA
ATOM      9  C   UNL     1      -0.645   2.632  -0.020  1.00  0.00     0.107 A 
ATOM     10  C   UNL     1      -2.688   1.306  -0.111  1.00  0.00     0.094 A 
ATOM     11  C   UNL     1      -1.041   3.131   1.243  1.00  0.00     0.134 A 
ATOM     12  C   UNL     1      -2.254   2.712   1.809  1.00  0.00     0.093 A 
BRANCH   3  13
ATOM     13  C   UNL     1       0.276   0.941  -3.826  1.00  0.00     0.021 A 
ATOM     14  C   UNL     1      -0.449   1.365  -4.950  1.00  0.00     0.016 A 
ATOM     15  C   UNL     1      -0.205   0.804  -6.205  1.00  0.00     0.051 A 
ATOM     16  C   UNL     1       0.760  -0.196  -6.365  1.00  0.00     0.157 A 
ATOM     17  C   UNL     1       1.238  -0.076  -3.983  1.00  0.00     0.062 A 
ATOM     18  C   UNL     1       1.487  -0.646  -5.238  1.00  0.00     0.158 A 
BRANCH  16  19
ATOM     19  O   UNL     1       0.959  -0.711  -7.648  1.00  0.00    -0.504 OA
ATOM     20  H   UNL     1       0.896  -0.161  -8.493  1.00  0.00     0.293 HD
ENDBRANCH  16  19
BRANCH  18  21
ATOM     21  O   UNL     1       2.452  -1.652  -5.317  1.00  0.00    -0.504 OA
ATOM     22  H   UNL     1       2.261  -2.597  -5.618  1.00  0.00     0.293 HD
ENDBRANCH  18  21
ENDBRANCH   3  13
BRANCH  11  23
ATOM     23  O   UNL     1      -0.239   4.038   1.937  1.00  0.00    -0.507 OA
ATOM     24  H   UNL     1       0.749   4.136   1.740  1.00  0.00     0.293 HD
ENDBRANCH  11  23
ENDBRANCH   1   2
BRANCH   1  25
ATOM     25  C   UNL     1      -4.632   0.003   2.044  1.00  0.00     0.339 C 
ATOM     26  C   UNL     1      -5.568  -0.037   3.276  1.00  0.00     0.214 C 
ATOM     27  O   UNL     1      -5.208  -0.698   0.951  1.00  0.00    -0.332 OA
ATOM     28  C   UNL     1      -6.970   0.498   2.924  1.00  0.00     0.180 C 
ATOM     29  C   UNL     1      -6.433  -0.110   0.539  1.00  0.00     0.179 C 
ATOM     30  C   UNL     1      -7.497  -0.201   1.659  1.00  0.00     0.177 C 
BRANCH  26  31
ATOM     31  O   UNL     1      -5.019   0.697   4.337  1.00  0.00    -0.384 OA
ATOM     32  H   UNL     1      -4.791   0.046   5.051  1.00  0.00     0.211 HD
ENDBRANCH  26  31
BRANCH  28  33
ATOM     33  O   UNL     1      -6.913   1.889   2.728  1.00  0.00    -0.387 OA
ATOM     34  H   UNL     1      -7.764   2.263   3.078  1.00  0.00     0.211 HD
ENDBRANCH  28  33
BRANCH  29  35
ATOM     35  C   UNL     1      -6.908  -0.780  -0.763  1.00  0.00     0.191 C 
BRANCH  35  36
ATOM     36  O   UNL     1      -6.504  -2.123  -0.828  1.00  0.00    -0.394 OA
ATOM     37  H   UNL     1      -6.843  -2.484  -1.688  1.00  0.00     0.210 HD
ENDBRANCH  35  36
ENDBRANCH  29  35
BRANCH  30  38
ATOM     38  O   UNL     1      -7.782  -1.543   1.965  1.00  0.00    -0.387 OA
ATOM     39  H   UNL     1      -6.936  -1.961   2.274  1.00  0.00     0.211 HD
ENDBRANCH  30  38
ENDBRANCH   1  25
TORSDOF 11
ENDMDL
