MODEL 1
REMARK VINA RESULT:    -3.727      0.000      0.000
REMARK INTER + INTRA:          -8.384
REMARK INTER:                  -6.995
REMARK INTRA:                  -1.390
REMARK UNBOUND:                -1.390
REMARK SMILES CCCCCCCCC=CCCCCCCCC(=O)[O-]
REMARK SMILES IDX 10 1 9 2 11 3 12 4 13 5 14 6 15 7 16 8 17 9 18 10 19 11
REMARK SMILES IDX 20 12 8 13 7 14 6 15 5 16 4 17 3 18 2 19 1 20
REMARK H PARENT
REMARK Flexibility Score: inf
ROOT
ATOM      1  C   UNL     1      -1.988 -51.334   3.229  1.00  0.00    -0.031 C 
ATOM      2  C   UNL     1      -1.749 -50.583   2.143  1.00  0.00    -0.031 C 
ENDROOT
BRANCH   1   3
ATOM      3  C   UNL     1      -0.918 -51.601   4.250  1.00  0.00     0.027 C 
BRANCH   3   4
ATOM      4  C   UNL     1      -1.530 -52.111   5.563  1.00  0.00     0.004 C 
BRANCH   4   5
ATOM      5  C   UNL     1      -2.796 -51.339   5.975  1.00  0.00     0.000 C 
BRANCH   5   6
ATOM      6  C   UNL     1      -3.623 -51.996   7.094  1.00  0.00     0.000 C 
BRANCH   6   7
ATOM      7  C   UNL     1      -3.415 -51.334   8.464  1.00  0.00     0.000 C 
BRANCH   7   8
ATOM      8  C   UNL     1      -4.563 -51.681   9.422  1.00  0.00     0.006 C 
BRANCH   8   9
ATOM      9  C   UNL     1      -5.628 -50.579   9.424  1.00  0.00     0.053 C 
BRANCH   9  10
ATOM     10  C   UNL     1      -6.936 -51.104   8.920  1.00  0.00     0.041 C 
ATOM     11  O   UNL     1      -7.152 -51.193   7.683  1.00  0.00    -0.550 OA
ATOM     12  O   UNL     1      -7.927 -51.477   9.820  1.00  0.00    -0.550 OA
ENDBRANCH   9  10
ENDBRANCH   8   9
ENDBRANCH   7   8
ENDBRANCH   6   7
ENDBRANCH   5   6
ENDBRANCH   4   5
ENDBRANCH   3   4
ENDBRANCH   1   3
BRANCH   2  13
ATOM     13  C   UNL     1      -2.830 -50.272   1.143  1.00  0.00     0.027 C 
BRANCH  13  14
ATOM     14  C   UNL     1      -2.904 -51.342   0.043  1.00  0.00     0.004 C 
BRANCH  14  15
ATOM     15  C   UNL     1      -4.233 -52.125   0.004  1.00  0.00     0.000 C 
BRANCH  15  16
ATOM     16  C   UNL     1      -5.506 -51.256  -0.001  1.00  0.00     0.000 C 
BRANCH  16  17
ATOM     17  C   UNL     1      -6.488 -51.525   1.154  1.00  0.00    -0.000 C 
BRANCH  17  18
ATOM     18  C   UNL     1      -5.788 -52.008   2.435  1.00  0.00    -0.000 C 
BRANCH  18  19
ATOM     19  C   UNL     1      -6.668 -51.845   3.685  1.00  0.00    -0.003 C 
ATOM     20  C   UNL     1      -7.971 -51.098   3.404  1.00  0.00     0.004 C 
ENDBRANCH  18  19
ENDBRANCH  17  18
ENDBRANCH  16  17
ENDBRANCH  15  16
ENDBRANCH  14  15
ENDBRANCH  13  14
ENDBRANCH   2  13
TORSDOF 15
ENDMDL
MODEL 2
REMARK VINA RESULT:    -3.550      0.958      3.074
REMARK INTER + INTRA:          -8.053
REMARK INTER:                  -6.655
REMARK INTRA:                  -1.398
REMARK UNBOUND:                -1.390
REMARK SMILES CCCCCCCCC=CCCCCCCCC(=O)[O-]
REMARK SMILES IDX 10 1 9 2 11 3 12 4 13 5 14 6 15 7 16 8 17 9 18 10 19 11
REMARK SMILES IDX 20 12 8 13 7 14 6 15 5 16 4 17 3 18 2 19 1 20
REMARK H PARENT
REMARK Flexibility Score: inf
ROOT
ATOM      1  C   UNL     1      -4.586 -51.754   4.402  1.00  0.00    -0.031 C 
ATOM      2  C   UNL     1      -5.520 -52.121   3.511  1.00  0.00    -0.031 C 
ENDROOT
BRANCH   1   3
ATOM      3  C   UNL     1      -3.119 -51.899   4.104  1.00  0.00     0.027 C 
BRANCH   3   4
ATOM      4  C   UNL     1      -2.285 -51.751   5.386  1.00  0.00     0.004 C 
BRANCH   4   5
ATOM      5  C   UNL     1      -3.117 -51.929   6.669  1.00  0.00     0.000 C 
BRANCH   5   6
ATOM      6  C   UNL     1      -2.664 -51.069   7.862  1.00  0.00     0.000 C 
BRANCH   6   7
ATOM      7  C   UNL     1      -3.281 -51.518   9.195  1.00  0.00     0.000 C 
BRANCH   7   8
ATOM      8  C   UNL     1      -4.776 -51.826   9.032  1.00  0.00     0.006 C 
BRANCH   8   9
ATOM      9  C   UNL     1      -5.634 -50.678   9.574  1.00  0.00     0.053 C 
BRANCH   9  10
ATOM     10  C   UNL     1      -7.028 -50.757   9.035  1.00  0.00     0.041 C 
ATOM     11  O   UNL     1      -7.227 -51.035   7.823  1.00  0.00    -0.550 OA
ATOM     12  O   UNL     1      -8.110 -50.503   9.869  1.00  0.00    -0.550 OA
ENDBRANCH   9  10
ENDBRANCH   8   9
ENDBRANCH   7   8
ENDBRANCH   6   7
ENDBRANCH   5   6
ENDBRANCH   4   5
ENDBRANCH   3   4
ENDBRANCH   1   3
BRANCH   2  13
ATOM     13  C   UNL     1      -6.989 -51.933   3.784  1.00  0.00     0.027 C 
BRANCH  13  14
ATOM     14  C   UNL     1      -7.736 -51.452   2.531  1.00  0.00     0.004 C 
BRANCH  14  15
ATOM     15  C   UNL     1      -7.228 -52.067   1.210  1.00  0.00     0.000 C 
BRANCH  15  16
ATOM     16  C   UNL     1      -6.572 -51.072   0.232  1.00  0.00     0.000 C 
BRANCH  16  17
ATOM     17  C   UNL     1      -5.352 -51.613  -0.536  1.00  0.00    -0.000 C 
BRANCH  17  18
ATOM     18  C   UNL     1      -4.166 -51.946   0.385  1.00  0.00    -0.000 C 
BRANCH  18  19
ATOM     19  C   UNL     1      -3.158 -50.790   0.491  1.00  0.00    -0.003 C 
ATOM     20  C   UNL     1      -1.705 -51.255   0.387  1.00  0.00     0.004 C 
ENDBRANCH  18  19
ENDBRANCH  17  18
ENDBRANCH  16  17
ENDBRANCH  15  16
ENDBRANCH  14  15
ENDBRANCH  13  14
ENDBRANCH   2  13
TORSDOF 15
ENDMDL
MODEL 3
REMARK VINA RESULT:    -3.504      1.668      6.441
REMARK INTER + INTRA:          -7.966
REMARK INTER:                  -7.144
REMARK INTRA:                  -0.822
REMARK UNBOUND:                -1.390
REMARK SMILES CCCCCCCCC=CCCCCCCCC(=O)[O-]
REMARK SMILES IDX 10 1 9 2 11 3 12 4 13 5 14 6 15 7 16 8 17 9 18 10 19 11
REMARK SMILES IDX 20 12 8 13 7 14 6 15 5 16 4 17 3 18 2 19 1 20
REMARK H PARENT
REMARK Flexibility Score: inf
ROOT
ATOM      1  C   UNL     1      -2.616 -51.409   3.199  1.00  0.00    -0.031 C 
ATOM      2  C   UNL     1      -2.065 -52.100   4.208  1.00  0.00    -0.031 C 
ENDROOT
BRANCH   1   3
ATOM      3  C   UNL     1      -3.552 -52.063   2.221  1.00  0.00     0.027 C 
BRANCH   3   4
ATOM      4  C   UNL     1      -3.338 -51.507   0.805  1.00  0.00     0.004 C 
BRANCH   4   5
ATOM      5  C   UNL     1      -4.469 -51.889  -0.168  1.00  0.00     0.000 C 
BRANCH   5   6
ATOM      6  C   UNL     1      -5.767 -51.079  -0.006  1.00  0.00     0.000 C 
BRANCH   6   7
ATOM      7  C   UNL     1      -6.924 -51.907   0.572  1.00  0.00     0.000 C 
BRANCH   7   8
ATOM      8  C   UNL     1      -7.036 -51.710   2.089  1.00  0.00     0.006 C 
BRANCH   8   9
ATOM      9  C   UNL     1      -8.462 -51.317   2.488  1.00  0.00     0.053 C 
BRANCH   9  10
ATOM     10  C   UNL     1      -8.454 -50.452   3.710  1.00  0.00     0.041 C 
ATOM     11  O   UNL     1      -9.123 -49.386   3.740  1.00  0.00    -0.550 OA
ATOM     12  O   UNL     1      -7.687 -50.815   4.811  1.00  0.00    -0.550 OA
ENDBRANCH   9  10
ENDBRANCH   8   9
ENDBRANCH   7   8
ENDBRANCH   6   7
ENDBRANCH   5   6
ENDBRANCH   4   5
ENDBRANCH   3   4
ENDBRANCH   1   3
BRANCH   2  13
ATOM     13  C   UNL     1      -1.165 -51.440   5.220  1.00  0.00     0.027 C 
BRANCH  13  14
ATOM     14  C   UNL     1      -1.284 -52.108   6.598  1.00  0.00     0.004 C 
BRANCH  14  15
ATOM     15  C   UNL     1      -2.326 -51.459   7.533  1.00  0.00     0.000 C 
BRANCH  15  16
ATOM     16  C   UNL     1      -2.307 -51.964   8.990  1.00  0.00     0.000 C 
BRANCH  16  17
ATOM     17  C   UNL     1      -3.660 -51.912   9.721  1.00  0.00    -0.000 C 
BRANCH  17  18
ATOM     18  C   UNL     1      -4.634 -50.893   9.105  1.00  0.00    -0.000 C 
BRANCH  18  19
ATOM     19  C   UNL     1      -5.971 -50.824   9.860  1.00  0.00    -0.003 C 
ATOM     20  C   UNL     1      -7.183 -50.983   8.942  1.00  0.00     0.004 C 
ENDBRANCH  18  19
ENDBRANCH  17  18
ENDBRANCH  16  17
ENDBRANCH  15  16
ENDBRANCH  14  15
ENDBRANCH  13  14
ENDBRANCH   2  13
TORSDOF 15
ENDMDL
MODEL 4
REMARK VINA RESULT:    -3.010      1.272      2.266
REMARK INTER + INTRA:          -7.039
REMARK INTER:                  -6.320
REMARK INTRA:                  -0.719
REMARK UNBOUND:                -1.390
REMARK SMILES CCCCCCCCC=CCCCCCCCC(=O)[O-]
REMARK SMILES IDX 10 1 9 2 11 3 12 4 13 5 14 6 15 7 16 8 17 9 18 10 19 11
REMARK SMILES IDX 20 12 8 13 7 14 6 15 5 16 4 17 3 18 2 19 1 20
REMARK H PARENT
REMARK Flexibility Score: inf
ROOT
ATOM      1  C   UNL     1      -2.012 -51.002   1.024  1.00  0.00    -0.031 C 
ATOM      2  C   UNL     1      -3.284 -50.607   0.864  1.00  0.00    -0.031 C 
ENDROOT
BRANCH   1   3
ATOM      3  C   UNL     1      -1.282 -50.792   2.321  1.00  0.00     0.027 C 
BRANCH   3   4
ATOM      4  C   UNL     1      -1.081 -52.125   3.057  1.00  0.00     0.004 C 
BRANCH   4   5
ATOM      5  C   UNL     1      -1.658 -52.115   4.485  1.00  0.00     0.000 C 
BRANCH   5   6
ATOM      6  C   UNL     1      -3.088 -51.558   4.603  1.00  0.00     0.000 C 
BRANCH   6   7
ATOM      7  C   UNL     1      -3.726 -51.826   5.975  1.00  0.00     0.000 C 
BRANCH   7   8
ATOM      8  C   UNL     1      -2.909 -51.172   7.097  1.00  0.00     0.006 C 
BRANCH   8   9
ATOM      9  C   UNL     1      -3.431 -51.594   8.474  1.00  0.00     0.053 C 
BRANCH   9  10
ATOM     10  C   UNL     1      -4.845 -51.141   8.667  1.00  0.00     0.041 C 
ATOM     11  O   UNL     1      -5.777 -51.662   8.000  1.00  0.00    -0.550 OA
ATOM     12  O   UNL     1      -5.131 -50.126   9.573  1.00  0.00    -0.550 OA
ENDBRANCH   9  10
ENDBRANCH   8   9
ENDBRANCH   7   8
ENDBRANCH   6   7
ENDBRANCH   5   6
ENDBRANCH   4   5
ENDBRANCH   3   4
ENDBRANCH   1   3
BRANCH   2  13
ATOM     13  C   UNL     1      -4.036 -50.859  -0.416  1.00  0.00     0.027 C 
BRANCH  13  14
ATOM     14  C   UNL     1      -5.172 -51.873  -0.210  1.00  0.00     0.004 C 
BRANCH  14  15
ATOM     15  C   UNL     1      -6.171 -51.493   0.903  1.00  0.00     0.000 C 
BRANCH  15  16
ATOM     16  C   UNL     1      -7.637 -51.887   0.632  1.00  0.00     0.000 C 
BRANCH  16  17
ATOM     17  C   UNL     1      -8.506 -52.087   1.887  1.00  0.00    -0.000 C 
BRANCH  17  18
ATOM     18  C   UNL     1      -7.682 -52.125   3.185  1.00  0.00    -0.000 C 
BRANCH  18  19
ATOM     19  C   UNL     1      -7.739 -50.798   3.959  1.00  0.00    -0.003 C 
ATOM     20  C   UNL     1      -9.088 -50.091   3.831  1.00  0.00     0.004 C 
ENDBRANCH  18  19
ENDBRANCH  17  18
ENDBRANCH  16  17
ENDBRANCH  15  16
ENDBRANCH  14  15
ENDBRANCH  13  14
ENDBRANCH   2  13
TORSDOF 15
ENDMDL
MODEL 5
REMARK VINA RESULT:    -2.886      1.214      1.841
REMARK INTER + INTRA:          -6.806
REMARK INTER:                  -6.150
REMARK INTRA:                  -0.656
REMARK UNBOUND:                -1.390
REMARK SMILES CCCCCCCCC=CCCCCCCCC(=O)[O-]
REMARK SMILES IDX 10 1 9 2 11 3 12 4 13 5 14 6 15 7 16 8 17 9 18 10 19 11
REMARK SMILES IDX 20 12 8 13 7 14 6 15 5 16 4 17 3 18 2 19 1 20
REMARK H PARENT
REMARK Flexibility Score: inf
ROOT
ATOM      1  C   UNL     1      -2.825 -51.935   4.724  1.00  0.00    -0.031 C 
ATOM      2  C   UNL     1      -2.467 -51.160   3.688  1.00  0.00    -0.031 C 
ENDROOT
BRANCH   1   3
ATOM      3  C   UNL     1      -3.578 -51.376   5.898  1.00  0.00     0.027 C 
BRANCH   3   4
ATOM      4  C   UNL     1      -2.633 -50.614   6.840  1.00  0.00     0.004 C 
BRANCH   4   5
ATOM      5  C   UNL     1      -1.951 -51.527   7.875  1.00  0.00     0.000 C 
BRANCH   5   6
ATOM      6  C   UNL     1      -2.842 -51.948   9.057  1.00  0.00     0.000 C 
BRANCH   6   7
ATOM      7  C   UNL     1      -4.101 -51.080   9.200  1.00  0.00     0.000 C 
BRANCH   7   8
ATOM      8  C   UNL     1      -5.337 -51.946   9.476  1.00  0.00     0.006 C 
BRANCH   8   9
ATOM      9  C   UNL     1      -6.477 -51.105  10.061  1.00  0.00     0.053 C 
BRANCH   9  10
ATOM     10  C   UNL     1      -7.351 -50.565   8.973  1.00  0.00     0.041 C 
ATOM     11  O   UNL     1      -7.389 -51.129   7.848  1.00  0.00    -0.550 OA
ATOM     12  O   UNL     1      -8.112 -49.424   9.197  1.00  0.00    -0.550 OA
ENDBRANCH   9  10
ENDBRANCH   8   9
ENDBRANCH   7   8
ENDBRANCH   6   7
ENDBRANCH   5   6
ENDBRANCH   4   5
ENDBRANCH   3   4
ENDBRANCH   1   3
BRANCH   2  13
ATOM     13  C   UNL     1      -1.756 -51.724   2.487  1.00  0.00     0.027 C 
BRANCH  13  14
ATOM     14  C   UNL     1      -2.079 -50.923   1.215  1.00  0.00     0.004 C 
BRANCH  14  15
ATOM     15  C   UNL     1      -2.513 -51.785   0.012  1.00  0.00     0.000 C 
BRANCH  15  16
ATOM     16  C   UNL     1      -4.016 -52.125  -0.044  1.00  0.00     0.000 C 
BRANCH  16  17
ATOM     17  C   UNL     1      -4.824 -51.738   1.208  1.00  0.00    -0.000 C 
BRANCH  17  18
ATOM     18  C   UNL     1      -6.246 -51.256   0.878  1.00  0.00    -0.000 C 
BRANCH  18  19
ATOM     19  C   UNL     1      -7.289 -51.758   1.890  1.00  0.00    -0.003 C 
ATOM     20  C   UNL     1      -8.623 -52.125   1.239  1.00  0.00     0.004 C 
ENDBRANCH  18  19
ENDBRANCH  17  18
ENDBRANCH  16  17
ENDBRANCH  15  16
ENDBRANCH  14  15
ENDBRANCH  13  14
ENDBRANCH   2  13
TORSDOF 15
ENDMDL
MODEL 6
REMARK VINA RESULT:    -2.770      1.585      3.720
REMARK INTER + INTRA:          -6.588
REMARK INTER:                  -5.612
REMARK INTRA:                  -0.976
REMARK UNBOUND:                -1.390
REMARK SMILES CCCCCCCCC=CCCCCCCCC(=O)[O-]
REMARK SMILES IDX 10 1 9 2 11 3 12 4 13 5 14 6 15 7 16 8 17 9 18 10 19 11
REMARK SMILES IDX 20 12 8 13 7 14 6 15 5 16 4 17 3 18 2 19 1 20
REMARK H PARENT
REMARK Flexibility Score: inf
ROOT
ATOM      1  C   UNL     1      -3.941 -51.790   3.006  1.00  0.00    -0.031 C 
ATOM      2  C   UNL     1      -5.259 -51.923   3.221  1.00  0.00    -0.031 C 
ENDROOT
BRANCH   1   3
ATOM      3  C   UNL     1      -2.935 -52.117   4.073  1.00  0.00     0.027 C 
BRANCH   3   4
ATOM      4  C   UNL     1      -3.567 -52.015   5.470  1.00  0.00     0.004 C 
BRANCH   4   5
ATOM      5  C   UNL     1      -2.935 -50.910   6.336  1.00  0.00     0.000 C 
BRANCH   5   6
ATOM      6  C   UNL     1      -1.657 -51.323   7.087  1.00  0.00     0.000 C 
BRANCH   6   7
ATOM      7  C   UNL     1      -1.866 -51.448   8.604  1.00  0.00     0.000 C 
BRANCH   7   8
ATOM      8  C   UNL     1      -3.208 -52.121   8.920  1.00  0.00     0.006 C 
BRANCH   8   9
ATOM      9  C   UNL     1      -3.997 -51.313   9.956  1.00  0.00     0.053 C 
BRANCH   9  10
ATOM     10  C   UNL     1      -5.409 -51.106   9.505  1.00  0.00     0.041 C 
ATOM     11  O   UNL     1      -5.946 -51.915   8.704  1.00  0.00    -0.550 OA
ATOM     12  O   UNL     1      -6.127 -50.005   9.956  1.00  0.00    -0.550 OA
ENDBRANCH   9  10
ENDBRANCH   8   9
ENDBRANCH   7   8
ENDBRANCH   6   7
ENDBRANCH   5   6
ENDBRANCH   4   5
ENDBRANCH   3   4
ENDBRANCH   1   3
BRANCH   2  13
ATOM     13  C   UNL     1      -6.269 -51.643   2.141  1.00  0.00     0.027 C 
BRANCH  13  14
ATOM     14  C   UNL     1      -5.614 -50.988   0.915  1.00  0.00     0.004 C 
BRANCH  14  15
ATOM     15  C   UNL     1      -5.210 -51.978  -0.197  1.00  0.00     0.000 C 
BRANCH  15  16
ATOM     16  C   UNL     1      -3.694 -52.104  -0.446  1.00  0.00     0.000 C 
BRANCH  16  17
ATOM     17  C   UNL     1      -2.858 -50.877  -0.037  1.00  0.00    -0.000 C 
BRANCH  17  18
ATOM     18  C   UNL     1      -1.348 -51.165  -0.007  1.00  0.00    -0.000 C 
BRANCH  18  19
ATOM     19  C   UNL     1      -0.873 -51.952  -1.240  1.00  0.00    -0.003 C 
ATOM     20  C   UNL     1       0.648 -52.095  -1.306  1.00  0.00     0.004 C 
ENDBRANCH  18  19
ENDBRANCH  17  18
ENDBRANCH  16  17
ENDBRANCH  15  16
ENDBRANCH  14  15
ENDBRANCH  13  14
ENDBRANCH   2  13
TORSDOF 15
ENDMDL
MODEL 7
REMARK VINA RESULT:    -2.484      1.594      3.675
REMARK INTER + INTRA:          -6.051
REMARK INTER:                  -4.848
REMARK INTRA:                  -1.204
REMARK UNBOUND:                -1.390
REMARK SMILES CCCCCCCCC=CCCCCCCCC(=O)[O-]
REMARK SMILES IDX 10 1 9 2 11 3 12 4 13 5 14 6 15 7 16 8 17 9 18 10 19 11
REMARK SMILES IDX 20 12 8 13 7 14 6 15 5 16 4 17 3 18 2 19 1 20
REMARK H PARENT
REMARK Flexibility Score: inf
ROOT
ATOM      1  C   UNL     1      -3.148 -51.016   5.303  1.00  0.00    -0.031 C 
ATOM      2  C   UNL     1      -4.360 -51.589   5.359  1.00  0.00    -0.031 C 
ENDROOT
BRANCH   1   3
ATOM      3  C   UNL     1      -2.286 -50.883   6.527  1.00  0.00     0.027 C 
BRANCH   3   4
ATOM      4  C   UNL     1      -2.583 -52.008   7.529  1.00  0.00     0.004 C 
BRANCH   4   5
ATOM      5  C   UNL     1      -1.888 -51.801   8.888  1.00  0.00     0.000 C 
BRANCH   5   6
ATOM      6  C   UNL     1      -2.817 -51.352  10.030  1.00  0.00     0.000 C 
BRANCH   6   7
ATOM      7  C   UNL     1      -4.161 -52.095  10.039  1.00  0.00     0.000 C 
BRANCH   7   8
ATOM      8  C   UNL     1      -5.324 -51.128   9.779  1.00  0.00     0.006 C 
BRANCH   8   9
ATOM      9  C   UNL     1      -6.254 -51.669   8.689  1.00  0.00     0.053 C 
BRANCH   9  10
ATOM     10  C   UNL     1      -7.670 -51.259   8.947  1.00  0.00     0.041 C 
ATOM     11  O   UNL     1      -8.602 -52.103   8.869  1.00  0.00    -0.550 OA
ATOM     12  O   UNL     1      -7.965 -49.936   9.254  1.00  0.00    -0.550 OA
ENDBRANCH   9  10
ENDBRANCH   8   9
ENDBRANCH   7   8
ENDBRANCH   6   7
ENDBRANCH   5   6
ENDBRANCH   4   5
ENDBRANCH   3   4
ENDBRANCH   1   3
BRANCH   2  13
ATOM     13  C   UNL     1      -5.208 -51.769   4.128  1.00  0.00     0.027 C 
BRANCH  13  14
ATOM     14  C   UNL     1      -4.351 -52.125   2.903  1.00  0.00     0.004 C 
BRANCH  14  15
ATOM     15  C   UNL     1      -5.019 -51.812   1.547  1.00  0.00     0.000 C 
BRANCH  15  16
ATOM     16  C   UNL     1      -4.352 -50.687   0.731  1.00  0.00     0.000 C 
BRANCH  16  17
ATOM     17  C   UNL     1      -2.813 -50.676   0.763  1.00  0.00    -0.000 C 
BRANCH  17  18
ATOM     18  C   UNL     1      -2.192 -51.933   0.131  1.00  0.00    -0.000 C 
BRANCH  18  19
ATOM     19  C   UNL     1      -0.702 -51.752  -0.201  1.00  0.00    -0.003 C 
ATOM     20  C   UNL     1      -0.408 -51.856  -1.697  1.00  0.00     0.004 C 
ENDBRANCH  18  19
ENDBRANCH  17  18
ENDBRANCH  16  17
ENDBRANCH  15  16
ENDBRANCH  14  15
ENDBRANCH  13  14
ENDBRANCH   2  13
TORSDOF 15
ENDMDL
MODEL 8
REMARK VINA RESULT:    -2.373      2.648      7.282
REMARK INTER + INTRA:          -5.844
REMARK INTER:                  -4.916
REMARK INTRA:                  -0.928
REMARK UNBOUND:                -1.390
REMARK SMILES CCCCCCCCC=CCCCCCCCC(=O)[O-]
REMARK SMILES IDX 10 1 9 2 11 3 12 4 13 5 14 6 15 7 16 8 17 9 18 10 19 11
REMARK SMILES IDX 20 12 8 13 7 14 6 15 5 16 4 17 3 18 2 19 1 20
REMARK H PARENT
REMARK Flexibility Score: inf
ROOT
ATOM      1  C   UNL     1      -7.214 -51.736   2.600  1.00  0.00    -0.031 C 
ATOM      2  C   UNL     1      -7.987 -50.680   2.894  1.00  0.00    -0.031 C 
ENDROOT
BRANCH   1   3
ATOM      3  C   UNL     1      -6.506 -51.847   1.279  1.00  0.00     0.027 C 
BRANCH   3   4
ATOM      4  C   UNL     1      -5.120 -51.187   1.345  1.00  0.00     0.004 C 
BRANCH   4   5
ATOM      5  C   UNL     1      -4.468 -51.020  -0.040  1.00  0.00     0.000 C 
BRANCH   5   6
ATOM      6  C   UNL     1      -3.426 -52.094  -0.401  1.00  0.00     0.000 C 
BRANCH   6   7
ATOM      7  C   UNL     1      -1.984 -51.565  -0.371  1.00  0.00     0.000 C 
BRANCH   7   8
ATOM      8  C   UNL     1      -1.305 -51.895   0.965  1.00  0.00     0.006 C 
BRANCH   8   9
ATOM      9  C   UNL     1      -1.629 -50.834   2.021  1.00  0.00     0.053 C 
BRANCH   9  10
ATOM     10  C   UNL     1      -1.345 -51.350   3.397  1.00  0.00     0.041 C 
ATOM     11  O   UNL     1      -2.208 -52.030   4.012  1.00  0.00    -0.550 OA
ATOM     12  O   UNL     1      -0.131 -51.063   4.010  1.00  0.00    -0.550 OA
ENDBRANCH   9  10
ENDBRANCH   8   9
ENDBRANCH   7   8
ENDBRANCH   6   7
ENDBRANCH   5   6
ENDBRANCH   4   5
ENDBRANCH   3   4
ENDBRANCH   1   3
BRANCH   2  13
ATOM     13  C   UNL     1      -8.660 -50.540   4.234  1.00  0.00     0.027 C 
BRANCH  13  14
ATOM     14  C   UNL     1      -9.123 -51.902   4.775  1.00  0.00     0.004 C 
BRANCH  14  15
ATOM     15  C   UNL     1      -8.828 -52.125   6.273  1.00  0.00     0.000 C 
BRANCH  15  16
ATOM     16  C   UNL     1      -7.406 -51.737   6.727  1.00  0.00     0.000 C 
BRANCH  16  17
ATOM     17  C   UNL     1      -7.118 -51.939   8.226  1.00  0.00    -0.000 C 
BRANCH  17  18
ATOM     18  C   UNL     1      -7.033 -50.615   9.003  1.00  0.00    -0.000 C 
BRANCH  18  19
ATOM     19  C   UNL     1      -5.788 -50.537   9.901  1.00  0.00    -0.003 C 
ATOM     20  C   UNL     1      -4.483 -50.733   9.129  1.00  0.00     0.004 C 
ENDBRANCH  18  19
ENDBRANCH  17  18
ENDBRANCH  16  17
ENDBRANCH  15  16
ENDBRANCH  14  15
ENDBRANCH  13  14
ENDBRANCH   2  13
TORSDOF 15
ENDMDL
