MODEL 1
REMARK VINA RESULT:    -3.486      0.000      0.000
REMARK INTER + INTRA:          -3.588
REMARK INTER:                  -3.588
REMARK INTRA:                   0.000
REMARK UNBOUND:                 0.000
REMARK SMILES CC1(C)[C@@H]2CC[C@@]1(C)[C@@H](O)C2
REMARK SMILES IDX 1 1 2 2 4 3 5 4 6 5 7 6 9 7 11 8 8 9 3 10 10 11
REMARK H PARENT 10 12
REMARK Flexibility Score: inf
ROOT
ATOM      1  C   UNL     1     156.635 152.814 136.759  1.00  0.00     0.012 C 
ATOM      2  C   UNL     1     157.614 153.506 137.758  1.00  0.00    -0.025 C 
ATOM      3  C   UNL     1     158.480 152.521 138.559  1.00  0.00    -0.002 C 
ATOM      4  C   UNL     1     157.443 151.737 139.399  1.00  0.00     0.005 C 
ATOM      5  C   UNL     1     156.384 152.809 139.724  1.00  0.00     0.010 C 
ATOM      6  C   UNL     1     156.967 154.077 139.041  1.00  0.00    -0.001 C 
ATOM      7  C   UNL     1     158.204 154.534 139.876  1.00  0.00     0.121 C 
ATOM      8  C   UNL     1     159.240 153.434 139.554  1.00  0.00     0.036 C 
ATOM      9  C   UNL     1     155.927 155.185 138.824  1.00  0.00     0.015 C 
ATOM     10  C   UNL     1     158.440 154.522 136.907  1.00  0.00     0.012 C 
ENDROOT
BRANCH   7  11
ATOM     11  O   UNL     1     157.945 154.584 141.256  1.00  0.00    -0.393 OA
ATOM     12  H   UNL     1     158.051 155.532 141.530  1.00  0.00     0.210 HD
ENDBRANCH   7  11
TORSDOF 1
ENDMDL
MODEL 2
REMARK VINA RESULT:    -3.483     13.956     15.260
REMARK INTER + INTRA:          -3.584
REMARK INTER:                  -3.584
REMARK INTRA:                   0.000
REMARK UNBOUND:                 0.000
REMARK SMILES CC1(C)[C@@H]2CC[C@@]1(C)[C@@H](O)C2
REMARK SMILES IDX 1 1 2 2 4 3 5 4 6 5 7 6 9 7 11 8 8 9 3 10 10 11
REMARK H PARENT 10 12
REMARK Flexibility Score: inf
ROOT
ATOM      1  C   UNL     1     144.755 148.454 136.748  1.00  0.00     0.012 C 
ATOM      2  C   UNL     1     143.766 147.767 137.740  1.00  0.00    -0.025 C 
ATOM      3  C   UNL     1     142.899 148.756 138.536  1.00  0.00    -0.002 C 
ATOM      4  C   UNL     1     143.934 149.535 139.383  1.00  0.00     0.005 C 
ATOM      5  C   UNL     1     144.986 148.458 139.715  1.00  0.00     0.010 C 
ATOM      6  C   UNL     1     144.401 147.193 139.028  1.00  0.00    -0.001 C 
ATOM      7  C   UNL     1     143.156 146.742 139.855  1.00  0.00     0.121 C 
ATOM      8  C   UNL     1     142.128 147.847 139.526  1.00  0.00     0.036 C 
ATOM      9  C   UNL     1     145.437 146.080 138.818  1.00  0.00     0.015 C 
ATOM     10  C   UNL     1     142.941 146.755 136.884  1.00  0.00     0.012 C 
ENDROOT
BRANCH   7  11
ATOM     11  O   UNL     1     143.406 146.690 141.236  1.00  0.00    -0.393 OA
ATOM     12  H   UNL     1     142.757 146.045 141.618  1.00  0.00     0.210 HD
ENDBRANCH   7  11
TORSDOF 1
ENDMDL
MODEL 3
REMARK VINA RESULT:    -3.469      9.333     10.794
REMARK INTER + INTRA:          -3.571
REMARK INTER:                  -3.571
REMARK INTRA:                   0.000
REMARK UNBOUND:                 0.000
REMARK SMILES CC1(C)[C@@H]2CC[C@@]1(C)[C@@H](O)C2
REMARK SMILES IDX 1 1 2 2 4 3 5 4 6 5 7 6 9 7 11 8 8 9 3 10 10 11
REMARK H PARENT 10 12
REMARK Flexibility Score: inf
ROOT
ATOM      1  C   UNL     1     148.490 156.476 136.749  1.00  0.00     0.012 C 
ATOM      2  C   UNL     1     147.792 157.477 137.721  1.00  0.00    -0.025 C 
ATOM      3  C   UNL     1     148.772 158.367 138.502  1.00  0.00    -0.002 C 
ATOM      4  C   UNL     1     149.559 157.355 139.370  1.00  0.00     0.005 C 
ATOM      5  C   UNL     1     148.491 156.301 139.720  1.00  0.00     0.010 C 
ATOM      6  C   UNL     1     147.222 156.861 139.020  1.00  0.00    -0.001 C 
ATOM      7  C   UNL     1     146.758 158.117 139.823  1.00  0.00     0.121 C 
ATOM      8  C   UNL     1     147.855 159.148 139.476  1.00  0.00     0.036 C 
ATOM      9  C   UNL     1     146.119 155.811 138.828  1.00  0.00     0.015 C 
ATOM     10  C   UNL     1     146.774 158.277 136.849  1.00  0.00     0.012 C 
ENDROOT
BRANCH   7  11
ATOM     11  O   UNL     1     146.707 157.892 141.209  1.00  0.00    -0.393 OA
ATOM     12  H   UNL     1     146.502 158.767 141.630  1.00  0.00     0.210 HD
ENDBRANCH   7  11
TORSDOF 1
ENDMDL
MODEL 4
REMARK VINA RESULT:    -3.413      9.131     10.576
REMARK INTER + INTRA:          -3.513
REMARK INTER:                  -3.513
REMARK INTRA:                   0.000
REMARK UNBOUND:                 0.000
REMARK SMILES CC1(C)[C@@H]2CC[C@@]1(C)[C@@H](O)C2
REMARK SMILES IDX 1 1 2 2 4 3 5 4 6 5 7 6 9 7 11 8 8 9 3 10 10 11
REMARK H PARENT 10 12
REMARK Flexibility Score: inf
ROOT
ATOM      1  C   UNL     1     152.995 144.868 136.467  1.00  0.00     0.012 C 
ATOM      2  C   UNL     1     153.604 143.919 137.545  1.00  0.00    -0.025 C 
ATOM      3  C   UNL     1     152.553 143.096 138.309  1.00  0.00    -0.002 C 
ATOM      4  C   UNL     1     151.730 144.174 139.055  1.00  0.00     0.005 C 
ATOM      5  C   UNL     1     152.794 145.230 139.414  1.00  0.00     0.010 C 
ATOM      6  C   UNL     1     154.096 144.606 138.840  1.00  0.00    -0.001 C 
ATOM      7  C   UNL     1     154.476 143.395 139.749  1.00  0.00     0.121 C 
ATOM      8  C   UNL     1     153.385 142.362 139.391  1.00  0.00     0.036 C 
ATOM      9  C   UNL     1     155.232 145.623 138.661  1.00  0.00     0.015 C 
ATOM     10  C   UNL     1     154.662 143.049 136.797  1.00  0.00     0.012 C 
ENDROOT
BRANCH   7  11
ATOM     11  O   UNL     1     154.438 143.705 141.119  1.00  0.00    -0.393 OA
ATOM     12  H   UNL     1     155.369 143.916 141.388  1.00  0.00     0.210 HD
ENDBRANCH   7  11
TORSDOF 1
ENDMDL
MODEL 5
REMARK VINA RESULT:    -3.268      1.305      2.942
REMARK INTER + INTRA:          -3.363
REMARK INTER:                  -3.363
REMARK INTRA:                   0.000
REMARK UNBOUND:                 0.000
REMARK SMILES CC1(C)[C@@H]2CC[C@@]1(C)[C@@H](O)C2
REMARK SMILES IDX 1 1 2 2 4 3 5 4 6 5 7 6 9 7 11 8 8 9 3 10 10 11
REMARK H PARENT 10 12
REMARK Flexibility Score: inf
ROOT
ATOM      1  C   UNL     1     157.615 154.752 137.061  1.00  0.00     0.012 C 
ATOM      2  C   UNL     1     157.072 153.535 137.873  1.00  0.00    -0.025 C 
ATOM      3  C   UNL     1     156.596 153.899 139.289  1.00  0.00    -0.002 C 
ATOM      4  C   UNL     1     157.891 154.378 139.989  1.00  0.00     0.005 C 
ATOM      5  C   UNL     1     158.969 153.463 139.377  1.00  0.00     0.010 C 
ATOM      6  C   UNL     1     158.143 152.562 138.418  1.00  0.00    -0.001 C 
ATOM      7  C   UNL     1     157.304 151.584 139.298  1.00  0.00     0.121 C 
ATOM      8  C   UNL     1     156.248 152.526 139.918  1.00  0.00     0.036 C 
ATOM      9  C   UNL     1     158.999 151.856 137.357  1.00  0.00     0.015 C 
ATOM     10  C   UNL     1     155.963 152.892 136.983  1.00  0.00     0.012 C 
ENDROOT
BRANCH   7  11
ATOM     11  O   UNL     1     158.065 150.961 140.302  1.00  0.00    -0.393 OA
ATOM     12  H   UNL     1     158.966 150.806 139.918  1.00  0.00     0.210 HD
ENDBRANCH   7  11
TORSDOF 1
ENDMDL
MODEL 6
REMARK VINA RESULT:    -3.262      8.876     10.229
REMARK INTER + INTRA:          -3.357
REMARK INTER:                  -3.357
REMARK INTRA:                   0.000
REMARK UNBOUND:                 0.000
REMARK SMILES CC1(C)[C@@H]2CC[C@@]1(C)[C@@H](O)C2
REMARK SMILES IDX 1 1 2 2 4 3 5 4 6 5 7 6 9 7 11 8 8 9 3 10 10 11
REMARK H PARENT 10 12
REMARK Flexibility Score: inf
ROOT
ATOM      1  C   UNL     1     146.539 157.594 137.057  1.00  0.00     0.012 C 
ATOM      2  C   UNL     1     147.766 157.072 137.868  1.00  0.00    -0.025 C 
ATOM      3  C   UNL     1     147.409 156.574 139.278  1.00  0.00    -0.002 C 
ATOM      4  C   UNL     1     146.898 157.851 139.988  1.00  0.00     0.005 C 
ATOM      5  C   UNL     1     147.789 158.956 139.389  1.00  0.00     0.010 C 
ATOM      6  C   UNL     1     148.712 158.160 138.425  1.00  0.00    -0.001 C 
ATOM      7  C   UNL     1     149.707 157.336 139.301  1.00  0.00     0.121 C 
ATOM      8  C   UNL     1     148.788 156.253 139.908  1.00  0.00     0.036 C 
ATOM      9  C   UNL     1     149.401 159.042 137.374  1.00  0.00     0.015 C 
ATOM     10  C   UNL     1     148.438 155.986 136.969  1.00  0.00     0.012 C 
ENDROOT
BRANCH   7  11
ATOM     11  O   UNL     1     150.309 158.102 140.313  1.00  0.00    -0.393 OA
ATOM     12  H   UNL     1     150.883 157.483 140.834  1.00  0.00     0.210 HD
ENDBRANCH   7  11
TORSDOF 1
ENDMDL
MODEL 7
REMARK VINA RESULT:    -3.253     13.697     14.774
REMARK INTER + INTRA:          -3.348
REMARK INTER:                  -3.348
REMARK INTRA:                   0.000
REMARK UNBOUND:                 0.000
REMARK SMILES CC1(C)[C@@H]2CC[C@@]1(C)[C@@H](O)C2
REMARK SMILES IDX 1 1 2 2 4 3 5 4 6 5 7 6 9 7 11 8 8 9 3 10 10 11
REMARK H PARENT 10 12
REMARK Flexibility Score: inf
ROOT
ATOM      1  C   UNL     1     143.830 146.546 137.049  1.00  0.00     0.012 C 
ATOM      2  C   UNL     1     144.308 147.779 137.879  1.00  0.00    -0.025 C 
ATOM      3  C   UNL     1     144.777 147.424 139.299  1.00  0.00    -0.002 C 
ATOM      4  C   UNL     1     143.493 146.884 139.974  1.00  0.00     0.005 C 
ATOM      5  C   UNL     1     142.386 147.758 139.352  1.00  0.00     0.010 C 
ATOM      6  C   UNL     1     143.188 148.701 138.413  1.00  0.00    -0.001 C 
ATOM      7  C   UNL     1     143.971 149.707 139.314  1.00  0.00     0.121 C 
ATOM      8  C   UNL     1     145.055 148.805 139.944  1.00  0.00     0.036 C 
ATOM      9  C   UNL     1     142.320 149.378 137.343  1.00  0.00     0.015 C 
ATOM     10  C   UNL     1     145.402 148.476 137.011  1.00  0.00     0.012 C 
ENDROOT
BRANCH   7  11
ATOM     11  O   UNL     1     143.168 150.289 140.310  1.00  0.00    -0.393 OA
ATOM     12  H   UNL     1     143.786 150.699 140.968  1.00  0.00     0.210 HD
ENDBRANCH   7  11
TORSDOF 1
ENDMDL
MODEL 8
REMARK VINA RESULT:    -3.240      9.963     11.084
REMARK INTER + INTRA:          -3.335
REMARK INTER:                  -3.335
REMARK INTRA:                   0.000
REMARK UNBOUND:                 0.000
REMARK SMILES CC1(C)[C@@H]2CC[C@@]1(C)[C@@H](O)C2
REMARK SMILES IDX 1 1 2 2 4 3 5 4 6 5 7 6 9 7 11 8 8 9 3 10 10 11
REMARK H PARENT 10 12
REMARK Flexibility Score: inf
ROOT
ATOM      1  C   UNL     1     154.753 143.858 137.068  1.00  0.00     0.012 C 
ATOM      2  C   UNL     1     153.502 144.316 137.881  1.00  0.00    -0.025 C 
ATOM      3  C   UNL     1     153.832 144.801 139.303  1.00  0.00    -0.002 C 
ATOM      4  C   UNL     1     154.390 143.532 139.991  1.00  0.00     0.005 C 
ATOM      5  C   UNL     1     153.547 142.403 139.367  1.00  0.00     0.010 C 
ATOM      6  C   UNL     1     152.597 143.180 138.413  1.00  0.00    -0.001 C 
ATOM      7  C   UNL     1     151.566 143.948 139.298  1.00  0.00     0.121 C 
ATOM      8  C   UNL     1     152.439 145.055 139.931  1.00  0.00     0.036 C 
ATOM      9  C   UNL     1     151.949 142.292 137.342  1.00  0.00     0.015 C 
ATOM     10  C   UNL     1     152.793 145.391 136.999  1.00  0.00     0.012 C 
ENDROOT
BRANCH   7  11
ATOM     11  O   UNL     1     150.990 143.140 140.293  1.00  0.00    -0.393 OA
ATOM     12  H   UNL     1     151.181 142.200 140.039  1.00  0.00     0.210 HD
ENDBRANCH   7  11
TORSDOF 1
ENDMDL
MODEL 9
REMARK VINA RESULT:    -3.188      1.394      2.240
REMARK INTER + INTRA:          -3.281
REMARK INTER:                  -3.281
REMARK INTRA:                   0.000
REMARK UNBOUND:                 0.000
REMARK SMILES CC1(C)[C@@H]2CC[C@@]1(C)[C@@H](O)C2
REMARK SMILES IDX 1 1 2 2 4 3 5 4 6 5 7 6 9 7 11 8 8 9 3 10 10 11
REMARK H PARENT 10 12
REMARK Flexibility Score: inf
ROOT
ATOM      1  C   UNL     1     155.965 154.984 138.136  1.00  0.00     0.012 C 
ATOM      2  C   UNL     1     157.028 153.843 138.075  1.00  0.00    -0.025 C 
ATOM      3  C   UNL     1     156.437 152.465 137.736  1.00  0.00    -0.002 C 
ATOM      4  C   UNL     1     155.511 152.167 138.940  1.00  0.00     0.005 C 
ATOM      5  C   UNL     1     156.276 152.790 140.123  1.00  0.00     0.010 C 
ATOM      6  C   UNL     1     157.557 153.347 139.441  1.00  0.00    -0.001 C 
ATOM      7  C   UNL     1     158.446 152.127 139.044  1.00  0.00     0.121 C 
ATOM      8  C   UNL     1     157.647 151.507 137.876  1.00  0.00     0.036 C 
ATOM      9  C   UNL     1     158.292 154.396 140.288  1.00  0.00     0.015 C 
ATOM     10  C   UNL     1     158.114 154.328 137.064  1.00  0.00     0.012 C 
ENDROOT
BRANCH   7  11
ATOM     11  O   UNL     1     158.602 151.200 140.088  1.00  0.00    -0.393 OA
ATOM     12  H   UNL     1     158.228 150.341 139.762  1.00  0.00     0.210 HD
ENDBRANCH   7  11
TORSDOF 1
ENDMDL
