MODEL 1
REMARK VINA RESULT:    -3.574      0.000      0.000
REMARK INTER + INTRA:          -4.698
REMARK INTER:                  -5.037
REMARK INTRA:                   0.339
REMARK UNBOUND:                 0.339
REMARK SMILES CC1=CCC(=C(C)C)C(=O)CC(C)=CCC1
REMARK SMILES IDX 12 1 14 2 13 3 15 4 16 5 2 6 1 7 3 8 11 10 9 11 10 12 5 13
REMARK SMILES IDX 6 14 7 15 8 16 4 17
REMARK H PARENT
REMARK Flexibility Score: 60.00
ROOT
ATOM      1  C   UNL     1      10.769 -23.099  41.061  1.00  0.00    -0.070 C 
ATOM      2  C   UNL     1      11.251 -21.980  41.652  1.00  0.00    -0.027 C 
ATOM      3  C   UNL     1       9.434 -22.997  40.364  1.00  0.00     0.039 C 
ENDROOT
BRANCH   2   4
ATOM      4  C   UNL     1      12.504 -21.880  42.488  1.00  0.00     0.032 C 
BRANCH   4   5
ATOM      5  C   UNL     1      13.789 -21.926  41.638  1.00  0.00     0.034 C 
BRANCH   5   6
ATOM      6  C   UNL     1      14.743 -23.009  42.102  1.00  0.00    -0.077 C 
ATOM      7  C   UNL     1      15.251 -22.955  43.520  1.00  0.00     0.039 C 
ATOM      8  C   UNL     1      15.146 -24.039  41.325  1.00  0.00    -0.023 CG0
ATOM      9  G   UNL     1      14.721 -24.284  39.896  1.00  0.00     0.000 G0
ENDBRANCH   5   6
ENDBRANCH   4   5
ENDBRANCH   2   4
BRANCH   1  10
ATOM     10  C   UNL     1      11.460 -24.451  41.121  1.00  0.00     0.111 C 
BRANCH  10  11
ATOM     11  C   UNL     1      12.201 -24.752  39.842  1.00  0.00     0.163 C 
ATOM     12  O   UNL     1      11.633 -24.484  38.748  1.00  0.00    -0.294 OA
BRANCH  11  13
ATOM     13  C   UNL     1      13.592 -25.303  39.844  1.00  0.00    -0.002 C 
ATOM     14  C   UNL     1      13.832 -26.650  39.872  1.00  0.00    -0.069 C 
ATOM     15  C   UNL     1      12.707 -27.653  39.978  1.00  0.00     0.039 C 
ATOM     16  C   UNL     1      15.242 -27.200  39.835  1.00  0.00     0.039 C 
BRANCH  13  17
ATOM     17  C   UNL     1      14.732 -24.301  39.888  1.00  0.00     0.066 CG0
ATOM     18  G   UNL     1      15.139 -24.053  41.321  1.00  0.00     0.000 G0
ENDBRANCH  13  17
ENDBRANCH  11  13
ENDBRANCH  10  11
ENDBRANCH   1  10
TORSDOF 0
ENDMDL
MODEL 2
REMARK VINA RESULT:    -3.371      1.730      2.198
REMARK INTER + INTRA:          -4.412
REMARK INTER:                  -4.823
REMARK INTRA:                   0.412
REMARK UNBOUND:                 0.339
REMARK SMILES CC1=CCC(=C(C)C)C(=O)CC(C)=CCC1
REMARK SMILES IDX 12 1 14 2 13 3 15 4 16 5 2 6 1 7 3 8 11 10 9 11 10 12 5 13
REMARK SMILES IDX 6 14 7 15 8 16 4 17
REMARK H PARENT
REMARK Flexibility Score: 60.00
ROOT
ATOM      1  C   UNL     1       9.667 -24.620  40.550  1.00  0.00    -0.070 C 
ATOM      2  C   UNL     1       9.642 -23.429  41.194  1.00  0.00    -0.027 C 
ATOM      3  C   UNL     1       8.709 -25.687  41.022  1.00  0.00     0.039 C 
ENDROOT
BRANCH   2   4
ATOM      4  C   UNL     1      10.577 -22.268  40.960  1.00  0.00     0.032 C 
BRANCH   4   5
ATOM      5  C   UNL     1      11.940 -22.455  41.655  1.00  0.00     0.034 C 
BRANCH   5   6
ATOM      6  C   UNL     1      13.100 -22.292  40.692  1.00  0.00    -0.077 C 
ATOM      7  C   UNL     1      13.381 -20.919  40.136  1.00  0.00     0.039 C 
ATOM      8  C   UNL     1      13.916 -23.304  40.320  1.00  0.00    -0.023 CG0
ATOM      9  G   UNL     1      13.817 -24.735  40.793  1.00  0.00     0.000 G0
ENDBRANCH   5   6
ENDBRANCH   4   5
ENDBRANCH   2   4
BRANCH   1  10
ATOM     10  C   UNL     1      10.643 -24.958  39.435  1.00  0.00     0.111 C 
BRANCH  10  11
ATOM     11  C   UNL     1      11.721 -25.901  39.908  1.00  0.00     0.163 C 
ATOM     12  O   UNL     1      11.368 -26.990  40.437  1.00  0.00    -0.294 OA
BRANCH  11  13
ATOM     13  C   UNL     1      13.175 -25.600  39.719  1.00  0.00    -0.002 C 
ATOM     14  C   UNL     1      13.888 -26.125  38.676  1.00  0.00    -0.069 C 
ATOM     15  C   UNL     1      13.265 -27.097  37.701  1.00  0.00     0.039 C 
ATOM     16  C   UNL     1      15.348 -25.786  38.470  1.00  0.00     0.039 C 
BRANCH  13  17
ATOM     17  C   UNL     1      13.846 -24.744  40.777  1.00  0.00     0.066 CG0
ATOM     18  G   UNL     1      13.913 -23.310  40.308  1.00  0.00     0.000 G0
ENDBRANCH  13  17
ENDBRANCH  11  13
ENDBRANCH  10  11
ENDBRANCH   1  10
TORSDOF 0
ENDMDL
MODEL 3
REMARK VINA RESULT:    -3.208      3.373      5.231
REMARK INTER + INTRA:          -4.183
REMARK INTER:                  -4.589
REMARK INTRA:                   0.407
REMARK UNBOUND:                 0.339
REMARK SMILES CC1=CCC(=C(C)C)C(=O)CC(C)=CCC1
REMARK SMILES IDX 12 1 14 2 13 3 15 4 16 5 2 6 1 7 3 8 11 10 9 11 10 12 5 13
REMARK SMILES IDX 6 14 7 15 8 16 4 17
REMARK H PARENT
REMARK Flexibility Score: 60.00
ROOT
ATOM      1  C   UNL     1       9.946 -24.893  40.680  1.00  0.00    -0.070 C 
ATOM      2  C   UNL     1       8.797 -25.488  41.080  1.00  0.00    -0.027 C 
ATOM      3  C   UNL     1       9.845 -23.499  40.109  1.00  0.00     0.039 C 
ENDROOT
BRANCH   2   4
ATOM      4  C   UNL     1       8.652 -26.906  41.577  1.00  0.00     0.032 C 
BRANCH   4   5
ATOM      5  C   UNL     1       8.436 -27.916  40.433  1.00  0.00     0.034 C 
BRANCH   5   6
ATOM      6  C   UNL     1       9.346 -29.122  40.556  1.00  0.00    -0.077 C 
ATOM      7  C   UNL     1       9.021 -30.161  41.600  1.00  0.00     0.039 C 
ATOM      8  C   UNL     1      10.422 -29.336  39.765  1.00  0.00    -0.023 CG0
ATOM      9  G   UNL     1      10.886 -28.433  38.647  1.00  0.00     0.000 G0
ENDBRANCH   5   6
ENDBRANCH   4   5
ENDBRANCH   2   4
BRANCH   1  10
ATOM     10  C   UNL     1      11.305 -25.571  40.712  1.00  0.00     0.111 C 
BRANCH  10  11
ATOM     11  C   UNL     1      11.694 -26.101  39.354  1.00  0.00     0.163 C 
ATOM     12  O   UNL     1      11.782 -25.281  38.400  1.00  0.00    -0.294 OA
BRANCH  11  13
ATOM     13  C   UNL     1      12.022 -27.544  39.131  1.00  0.00    -0.002 C 
ATOM     14  C   UNL     1      13.290 -28.028  39.304  1.00  0.00    -0.069 C 
ATOM     15  C   UNL     1      14.444 -27.117  39.656  1.00  0.00     0.039 C 
ATOM     16  C   UNL     1      13.606 -29.495  39.113  1.00  0.00     0.039 C 
BRANCH  13  17
ATOM     17  C   UNL     1      10.901 -28.438  38.633  1.00  0.00     0.066 CG0
ATOM     18  G   UNL     1      10.422 -29.330  39.754  1.00  0.00     0.000 G0
ENDBRANCH  13  17
ENDBRANCH  11  13
ENDBRANCH  10  11
ENDBRANCH   1  10
TORSDOF 0
ENDMDL
MODEL 4
REMARK VINA RESULT:    -3.149      2.272      4.193
REMARK INTER + INTRA:          -4.098
REMARK INTER:                  -4.534
REMARK INTRA:                   0.436
REMARK UNBOUND:                 0.339
REMARK SMILES CC1=CCC(=C(C)C)C(=O)CC(C)=CCC1
REMARK SMILES IDX 12 1 14 2 13 3 15 4 16 5 2 6 1 7 3 8 11 10 9 11 10 12 5 13
REMARK SMILES IDX 6 14 7 15 8 16 4 17
REMARK H PARENT
REMARK Flexibility Score: 60.00
ROOT
ATOM      1  C   UNL     1      11.389 -23.117  40.849  1.00  0.00    -0.070 C 
ATOM      2  C   UNL     1      10.093 -23.499  40.938  1.00  0.00    -0.027 C 
ATOM      3  C   UNL     1      11.878 -22.082  41.834  1.00  0.00     0.039 C 
ENDROOT
BRANCH   2   4
ATOM      4  C   UNL     1       9.371 -24.432  39.996  1.00  0.00     0.032 C 
BRANCH   4   5
ATOM      5  C   UNL     1       9.519 -25.913  40.400  1.00  0.00     0.034 C 
BRANCH   5   6
ATOM      6  C   UNL     1      10.110 -26.753  39.285  1.00  0.00    -0.077 C 
ATOM      7  C   UNL     1       9.244 -27.070  38.092  1.00  0.00     0.039 C 
ATOM      8  C   UNL     1      11.381 -27.215  39.285  1.00  0.00    -0.023 CG0
ATOM      9  G   UNL     1      12.406 -26.974  40.367  1.00  0.00     0.000 G0
ENDBRANCH   5   6
ENDBRANCH   4   5
ENDBRANCH   2   4
BRANCH   1  10
ATOM     10  C   UNL     1      12.347 -23.616  39.781  1.00  0.00     0.111 C 
BRANCH  10  11
ATOM     11  C   UNL     1      13.363 -24.575  40.350  1.00  0.00     0.163 C 
ATOM     12  O   UNL     1      14.109 -24.166  41.282  1.00  0.00    -0.294 OA
BRANCH  11  13
ATOM     13  C   UNL     1      13.467 -25.991  39.879  1.00  0.00    -0.002 C 
ATOM     14  C   UNL     1      14.430 -26.385  38.991  1.00  0.00    -0.069 C 
ATOM     15  C   UNL     1      15.396 -25.395  38.379  1.00  0.00     0.039 C 
ATOM     16  C   UNL     1      14.553 -27.827  38.548  1.00  0.00     0.039 C 
BRANCH  13  17
ATOM     17  C   UNL     1      12.410 -26.963  40.372  1.00  0.00     0.066 CG0
ATOM     18  G   UNL     1      11.397 -27.213  39.280  1.00  0.00     0.000 G0
ENDBRANCH  13  17
ENDBRANCH  11  13
ENDBRANCH  10  11
ENDBRANCH   1  10
TORSDOF 0
ENDMDL
MODEL 5
REMARK VINA RESULT:    -3.091      2.572      5.965
REMARK INTER + INTRA:          -4.017
REMARK INTER:                  -4.783
REMARK INTRA:                   0.765
REMARK UNBOUND:                 0.339
REMARK SMILES CC1=CCC(=C(C)C)C(=O)CC(C)=CCC1
REMARK SMILES IDX 12 1 14 2 13 3 15 4 16 5 2 6 1 7 3 8 11 10 9 11 10 12 5 13
REMARK SMILES IDX 6 14 7 15 8 16 4 17
REMARK H PARENT
REMARK Flexibility Score: 60.00
ROOT
ATOM      1  C   UNL     1      15.349 -26.888  39.485  1.00  0.00    -0.070 C 
ATOM      2  C   UNL     1      15.023 -28.184  39.703  1.00  0.00    -0.027 C 
ATOM      3  C   UNL     1      15.649 -26.033  40.692  1.00  0.00     0.039 C 
ENDROOT
BRANCH   2   4
ATOM      4  C   UNL     1      14.586 -29.183  38.660  1.00  0.00     0.032 C 
BRANCH   4   5
ATOM      5  C   UNL     1      13.089 -29.534  38.764  1.00  0.00     0.034 C 
BRANCH   5   6
ATOM      6  C   UNL     1      12.254 -28.789  37.741  1.00  0.00    -0.077 C 
ATOM      7  C   UNL     1      11.863 -29.511  36.476  1.00  0.00     0.039 C 
ATOM      8  C   UNL     1      11.817 -27.521  37.906  1.00  0.00    -0.023 CG0
ATOM      9  G   UNL     1      12.074 -26.650  39.113  1.00  0.00     0.000 G0
ENDBRANCH   5   6
ENDBRANCH   4   5
ENDBRANCH   2   4
BRANCH   1  10
ATOM     10  C   UNL     1      15.364 -26.240  38.111  1.00  0.00     0.111 C 
BRANCH  10  11
ATOM     11  C   UNL     1      14.006 -25.698  37.738  1.00  0.00     0.163 C 
ATOM     12  O   UNL     1      13.764 -25.489  36.518  1.00  0.00    -0.294 OA
BRANCH  11  13
ATOM     13  C   UNL     1      12.941 -25.457  38.762  1.00  0.00    -0.002 C 
ATOM     14  C   UNL     1      12.810 -24.251  39.392  1.00  0.00    -0.069 C 
ATOM     15  C   UNL     1      13.780 -23.118  39.145  1.00  0.00     0.039 C 
ATOM     16  C   UNL     1      11.707 -24.003  40.399  1.00  0.00     0.039 C 
BRANCH  13  17
ATOM     17  C   UNL     1      12.055 -26.634  39.126  1.00  0.00     0.066 CG0
ATOM     18  G   UNL     1      11.839 -27.507  37.913  1.00  0.00     0.000 G0
ENDBRANCH  13  17
ENDBRANCH  11  13
ENDBRANCH  10  11
ENDBRANCH   1  10
TORSDOF 0
ENDMDL
MODEL 6
REMARK VINA RESULT:    -3.086      1.748      3.770
REMARK INTER + INTRA:          -4.011
REMARK INTER:                  -4.706
REMARK INTRA:                   0.695
REMARK UNBOUND:                 0.339
REMARK SMILES CC1=CCC(=C(C)C)C(=O)CC(C)=CCC1
REMARK SMILES IDX 12 1 14 2 13 3 15 4 16 5 2 6 1 7 3 8 11 10 9 11 10 12 5 13
REMARK SMILES IDX 6 14 7 15 8 16 4 17
REMARK H PARENT
REMARK Flexibility Score: 60.00
ROOT
ATOM      1  C   UNL     1      12.217 -21.751  41.015  1.00  0.00    -0.070 C 
ATOM      2  C   UNL     1      11.070 -22.267  41.518  1.00  0.00    -0.027 C 
ATOM      3  C   UNL     1      13.113 -20.992  41.963  1.00  0.00     0.039 C 
ENDROOT
BRANCH   2   4
ATOM      4  C   UNL     1       9.985 -22.964  40.734  1.00  0.00     0.032 C 
BRANCH   4   5
ATOM      5  C   UNL     1       9.903 -24.471  41.048  1.00  0.00     0.034 C 
BRANCH   5   6
ATOM      6  C   UNL     1      10.574 -25.314  39.982  1.00  0.00    -0.077 C 
ATOM      7  C   UNL     1       9.722 -25.877  38.873  1.00  0.00     0.039 C 
ATOM      8  C   UNL     1      11.901 -25.572  39.952  1.00  0.00    -0.023 CG0
ATOM      9  G   UNL     1      12.918 -25.070  40.949  1.00  0.00     0.000 G0
ENDBRANCH   5   6
ENDBRANCH   4   5
ENDBRANCH   2   4
BRANCH   1  10
ATOM     10  C   UNL     1      12.611 -21.838  39.550  1.00  0.00     0.111 C 
BRANCH  10  11
ATOM     11  C   UNL     1      13.233 -23.173  39.221  1.00  0.00     0.163 C 
ATOM     12  O   UNL     1      13.271 -23.527  38.011  1.00  0.00    -0.294 OA
BRANCH  11  13
ATOM     13  C   UNL     1      13.841 -24.044  40.274  1.00  0.00    -0.002 C 
ATOM     14  C   UNL     1      15.171 -23.976  40.584  1.00  0.00    -0.069 C 
ATOM     15  C   UNL     1      16.116 -23.071  39.827  1.00  0.00     0.039 C 
ATOM     16  C   UNL     1      15.772 -24.835  41.677  1.00  0.00     0.039 C 
BRANCH  13  17
ATOM     17  C   UNL     1      12.931 -25.063  40.937  1.00  0.00     0.066 CG0
ATOM     18  G   UNL     1      11.900 -25.548  39.946  1.00  0.00     0.000 G0
ENDBRANCH  13  17
ENDBRANCH  11  13
ENDBRANCH  10  11
ENDBRANCH   1  10
TORSDOF 0
ENDMDL
MODEL 7
REMARK VINA RESULT:    -3.076      2.623      3.687
REMARK INTER + INTRA:          -3.995
REMARK INTER:                  -4.395
REMARK INTRA:                   0.400
REMARK UNBOUND:                 0.339
REMARK SMILES CC1=CCC(=C(C)C)C(=O)CC(C)=CCC1
REMARK SMILES IDX 12 1 14 2 13 3 15 4 16 5 2 6 1 7 3 8 11 10 9 11 10 12 5 13
REMARK SMILES IDX 6 14 7 15 8 16 4 17
REMARK H PARENT
REMARK Flexibility Score: 60.00
ROOT
ATOM      1  C   UNL     1       9.537 -27.220  41.203  1.00  0.00    -0.070 C 
ATOM      2  C   UNL     1       9.369 -25.885  41.357  1.00  0.00    -0.027 C 
ATOM      3  C   UNL     1       8.734 -28.131  42.100  1.00  0.00     0.039 C 
ENDROOT
BRANCH   2   4
ATOM      4  C   UNL     1      10.141 -24.801  40.646  1.00  0.00     0.032 C 
BRANCH   4   5
ATOM      5  C   UNL     1      11.600 -24.695  41.133  1.00  0.00     0.034 C 
BRANCH   5   6
ATOM      6  C   UNL     1      12.585 -24.656  39.981  1.00  0.00    -0.077 C 
ATOM      7  C   UNL     1      12.460 -23.544  38.970  1.00  0.00     0.039 C 
ATOM      8  C   UNL     1      13.589 -25.548  39.819  1.00  0.00    -0.023 CG0
ATOM      9  G   UNL     1      13.896 -26.705  40.740  1.00  0.00     0.000 G0
ENDBRANCH   5   6
ENDBRANCH   4   5
ENDBRANCH   2   4
BRANCH   1  10
ATOM     10  C   UNL     1      10.527 -27.841  40.232  1.00  0.00     0.111 C 
BRANCH  10  11
ATOM     11  C   UNL     1      11.824 -28.200  40.916  1.00  0.00     0.163 C 
ATOM     12  O   UNL     1      11.765 -28.764  42.042  1.00  0.00    -0.294 OA
BRANCH  11  13
ATOM     13  C   UNL     1      13.153 -27.951  40.273  1.00  0.00    -0.002 C 
ATOM     14  C   UNL     1      13.687 -28.824  39.365  1.00  0.00    -0.069 C 
ATOM     15  C   UNL     1      12.999 -30.124  39.017  1.00  0.00     0.039 C 
ATOM     16  C   UNL     1      15.013 -28.546  38.692  1.00  0.00     0.039 C 
BRANCH  13  17
ATOM     17  C   UNL     1      13.920 -26.722  40.727  1.00  0.00     0.066 CG0
ATOM     18  G   UNL     1      13.601 -25.557  39.821  1.00  0.00     0.000 G0
ENDBRANCH  13  17
ENDBRANCH  11  13
ENDBRANCH  10  11
ENDBRANCH   1  10
TORSDOF 0
ENDMDL
MODEL 8
REMARK VINA RESULT:    -3.052      2.516      5.231
REMARK INTER + INTRA:          -3.962
REMARK INTER:                  -4.728
REMARK INTRA:                   0.766
REMARK UNBOUND:                 0.339
REMARK SMILES CC1=CCC(=C(C)C)C(=O)CC(C)=CCC1
REMARK SMILES IDX 12 1 14 2 13 3 15 4 16 5 2 6 1 7 3 8 11 10 9 11 10 12 5 13
REMARK SMILES IDX 6 14 7 15 8 16 4 17
REMARK H PARENT
REMARK Flexibility Score: 60.00
ROOT
ATOM      1  C   UNL     1       9.640 -27.915  41.746  1.00  0.00    -0.070 C 
ATOM      2  C   UNL     1      10.691 -28.726  41.477  1.00  0.00    -0.027 C 
ATOM      3  C   UNL     1       8.256 -28.505  41.619  1.00  0.00     0.039 C 
ENDROOT
BRANCH   2   4
ATOM      4  C   UNL     1      12.144 -28.321  41.438  1.00  0.00     0.032 C 
BRANCH   4   5
ATOM      5  C   UNL     1      12.804 -28.612  40.076  1.00  0.00     0.034 C 
BRANCH   5   6
ATOM      6  C   UNL     1      12.117 -27.880  38.941  1.00  0.00    -0.077 C 
ATOM      7  C   UNL     1      11.641 -28.683  37.756  1.00  0.00     0.039 C 
ATOM      8  C   UNL     1      11.881 -26.549  38.937  1.00  0.00    -0.023 CG0
ATOM      9  G   UNL     1      12.248 -25.586  40.042  1.00  0.00     0.000 G0
ENDBRANCH   5   6
ENDBRANCH   4   5
ENDBRANCH   2   4
BRANCH   1  10
ATOM     10  C   UNL     1       9.777 -26.444  42.098  1.00  0.00     0.111 C 
BRANCH  10  11
ATOM     11  C   UNL     1       9.809 -25.578  40.863  1.00  0.00     0.163 C 
ATOM     12  O   UNL     1       8.761 -25.498  40.166  1.00  0.00    -0.294 OA
BRANCH  11  13
ATOM     13  C   UNL     1      11.020 -24.784  40.484  1.00  0.00    -0.002 C 
ATOM     14  C   UNL     1      11.007 -23.417  40.466  1.00  0.00    -0.069 C 
ATOM     15  C   UNL     1       9.747 -22.633  40.755  1.00  0.00     0.039 C 
ATOM     16  C   UNL     1      12.247 -22.621  40.118  1.00  0.00     0.039 C 
BRANCH  13  17
ATOM     17  C   UNL     1      12.248 -25.564  40.047  1.00  0.00     0.066 CG0
ATOM     18  G   UNL     1      11.875 -26.529  38.947  1.00  0.00     0.000 G0
ENDBRANCH  13  17
ENDBRANCH  11  13
ENDBRANCH  10  11
ENDBRANCH   1  10
TORSDOF 0
ENDMDL
MODEL 9
REMARK VINA RESULT:    -2.979      3.405      5.718
REMARK INTER + INTRA:          -3.860
REMARK INTER:                  -4.654
REMARK INTRA:                   0.794
REMARK UNBOUND:                 0.339
REMARK SMILES CC1=CCC(=C(C)C)C(=O)CC(C)=CCC1
REMARK SMILES IDX 12 1 14 2 13 3 15 4 16 5 2 6 1 7 3 8 11 10 9 11 10 12 5 13
REMARK SMILES IDX 6 14 7 15 8 16 4 17
REMARK H PARENT
REMARK Flexibility Score: 60.00
ROOT
ATOM      1  C   UNL     1      12.872 -30.092  39.445  1.00  0.00    -0.070 C 
ATOM      2  C   UNL     1      13.415 -29.396  38.418  1.00  0.00    -0.027 C 
ATOM      3  C   UNL     1      13.632 -31.297  39.947  1.00  0.00     0.039 C 
ENDROOT
BRANCH   2   4
ATOM      4  C   UNL     1      12.781 -28.232  37.696  1.00  0.00     0.032 C 
BRANCH   4   5
ATOM      5  C   UNL     1      13.589 -26.928  37.850  1.00  0.00     0.034 C 
BRANCH   5   6
ATOM      6  C   UNL     1      13.966 -26.656  39.293  1.00  0.00    -0.077 C 
ATOM      7  C   UNL     1      15.426 -26.691  39.670  1.00  0.00     0.039 C 
ATOM      8  C   UNL     1      13.070 -26.358  40.260  1.00  0.00    -0.023 CG0
ATOM      9  G   UNL     1      11.576 -26.241  40.072  1.00  0.00     0.000 G0
ENDBRANCH   5   6
ENDBRANCH   4   5
ENDBRANCH   2   4
BRANCH   1  10
ATOM     10  C   UNL     1      11.524 -29.769  40.067  1.00  0.00     0.111 C 
BRANCH  10  11
ATOM     11  C   UNL     1      11.629 -28.642  41.065  1.00  0.00     0.163 C 
ATOM     12  O   UNL     1      12.409 -28.788  42.045  1.00  0.00    -0.294 OA
BRANCH  11  13
ATOM     13  C   UNL     1      10.880 -27.358  40.891  1.00  0.00    -0.002 C 
ATOM     14  C   UNL     1       9.612 -27.194  41.374  1.00  0.00    -0.069 C 
ATOM     15  C   UNL     1       8.867 -28.325  42.046  1.00  0.00     0.039 C 
ATOM     16  C   UNL     1       8.876 -25.879  41.227  1.00  0.00     0.039 C 
BRANCH  13  17
ATOM     17  C   UNL     1      11.562 -26.265  40.087  1.00  0.00     0.066 CG0
ATOM     18  G   UNL     1      13.060 -26.361  40.263  1.00  0.00     0.000 G0
ENDBRANCH  13  17
ENDBRANCH  11  13
ENDBRANCH  10  11
ENDBRANCH   1  10
TORSDOF 0
ENDMDL
