MODEL 1
REMARK VINA RESULT:    -3.557      0.000      0.000
REMARK INTER + INTRA:          -5.717
REMARK INTER:                  -5.012
REMARK INTRA:                  -0.705
REMARK UNBOUND:                -0.705
REMARK SMILES OCC1=C[C@H](O)[C@@H]2C=CO[C@@H](O[C@@H]3O[C@@H](CO)[C@@H](O)[C@H](O)[C@H]3O)[C@@H]12
REMARK SMILES IDX 12 1 11 2 8 3 9 4 7 5 10 6 24 7 5 8 3 9 4 10 6 11 2 13 1 14
REMARK SMILES IDX 13 16 22 17 14 18 20 19 15 20 18 21 23 22 21 24 16 26 17 27
REMARK SMILES IDX 19 29
REMARK H PARENT 6 12 1 15 23 23 21 25 17 28 19 30
REMARK Flexibility Score: inf
ROOT
ATOM      1  O   UNL     1      21.614  34.439  39.981  1.00  0.00    -0.310 OA
ENDROOT
BRANCH   1   2
ATOM      2  C   UNL     1      22.959  34.039  40.178  1.00  0.00     0.316 C 
ATOM      3  C   UNL     1      24.000  32.743  42.590  1.00  0.00     0.018 C 
ATOM      4  C   UNL     1      23.757  32.035  41.477  1.00  0.00     0.186 C 
ATOM      5  C   UNL     1      23.336  34.079  42.662  1.00  0.00     0.061 C 
ATOM      6  O   UNL     1      23.020  32.614  40.413  1.00  0.00    -0.472 OA
ATOM      7  C   UNL     1      23.601  34.807  41.355  1.00  0.00     0.096 C 
ATOM      8  C   UNL     1      23.737  35.110  43.722  1.00  0.00     0.145 C 
ATOM      9  C   UNL     1      23.188  36.204  41.706  1.00  0.00    -0.036 C 
ATOM     10  C   UNL     1      23.313  36.382  43.030  1.00  0.00     0.007 C 
BRANCH   8  11
ATOM     11  O   UNL     1      25.125  35.093  43.928  1.00  0.00    -0.388 OA
ATOM     12  H   UNL     1      25.315  34.290  44.484  1.00  0.00     0.211 HD
ENDBRANCH   8  11
BRANCH   9  13
ATOM     13  C   UNL     1      22.577  37.211  40.762  1.00  0.00     0.187 C 
BRANCH  13  14
ATOM     14  O   UNL     1      21.912  38.216  41.484  1.00  0.00    -0.392 OA
ATOM     15  H   UNL     1      20.985  37.888  41.637  1.00  0.00     0.211 HD
ENDBRANCH  13  14
ENDBRANCH   9  13
ENDBRANCH   1   2
BRANCH   1  16
ATOM     16  C   UNL     1      20.987  33.601  39.025  1.00  0.00     0.286 C 
ATOM     17  C   UNL     1      19.489  33.507  39.346  1.00  0.00     0.202 C 
ATOM     18  O   UNL     1      21.163  34.164  37.727  1.00  0.00    -0.341 OA
ATOM     19  C   UNL     1      18.759  32.660  38.273  1.00  0.00     0.179 C 
ATOM     20  C   UNL     1      20.644  33.324  36.702  1.00  0.00     0.178 C 
ATOM     21  C   UNL     1      19.118  33.150  36.860  1.00  0.00     0.177 C 
BRANCH  17  22
ATOM     22  O   UNL     1      19.287  32.986  40.639  1.00  0.00    -0.385 OA
ATOM     23  H   UNL     1      19.037  32.030  40.553  1.00  0.00     0.211 HD
ENDBRANCH  17  22
BRANCH  19  24
ATOM     24  O   UNL     1      17.366  32.691  38.464  1.00  0.00    -0.387 OA
ATOM     25  H   UNL     1      17.139  33.532  38.944  1.00  0.00     0.211 HD
ENDBRANCH  19  24
BRANCH  20  26
ATOM     26  C   UNL     1      21.432  32.001  36.540  1.00  0.00     0.191 C 
BRANCH  26  27
ATOM     27  O   UNL     1      22.802  32.236  36.340  1.00  0.00    -0.394 OA
ATOM     28  H   UNL     1      23.269  32.027  37.189  1.00  0.00     0.210 HD
ENDBRANCH  26  27
ENDBRANCH  20  26
BRANCH  21  29
ATOM     29  O   UNL     1      18.623  32.239  35.908  1.00  0.00    -0.387 OA
ATOM     30  H   UNL     1      17.673  32.062  36.128  1.00  0.00     0.211 HD
ENDBRANCH  21  29
ENDBRANCH   1  16
TORSDOF 10
ENDMDL
MODEL 2
REMARK VINA RESULT:    -3.318      1.394      3.298
REMARK INTER + INTRA:          -5.382
REMARK INTER:                  -4.860
REMARK INTRA:                  -0.521
REMARK UNBOUND:                -0.705
REMARK SMILES OCC1=C[C@H](O)[C@@H]2C=CO[C@@H](O[C@@H]3O[C@@H](CO)[C@@H](O)[C@H](O)[C@H]3O)[C@@H]12
REMARK SMILES IDX 12 1 11 2 8 3 9 4 7 5 10 6 24 7 5 8 3 9 4 10 6 11 2 13 1 14
REMARK SMILES IDX 13 16 22 17 14 18 20 19 15 20 18 21 23 22 21 24 16 26 17 27
REMARK SMILES IDX 19 29
REMARK H PARENT 6 12 1 15 23 23 21 25 17 28 19 30
REMARK Flexibility Score: inf
ROOT
ATOM      1  O   UNL     1      22.416  34.322  39.882  1.00  0.00    -0.310 OA
ENDROOT
BRANCH   1   2
ATOM      2  C   UNL     1      22.116  35.013  41.082  1.00  0.00     0.316 C 
ATOM      3  C   UNL     1      24.002  36.670  42.593  1.00  0.00     0.018 C 
ATOM      4  C   UNL     1      23.060  37.229  41.817  1.00  0.00     0.186 C 
ATOM      5  C   UNL     1      24.294  35.232  42.317  1.00  0.00     0.061 C 
ATOM      6  O   UNL     1      22.329  36.431  40.900  1.00  0.00    -0.472 OA
ATOM      7  C   UNL     1      22.971  34.486  42.256  1.00  0.00     0.096 C 
ATOM      8  C   UNL     1      25.125  34.388  43.290  1.00  0.00     0.145 C 
ATOM      9  C   UNL     1      23.433  33.061  42.321  1.00  0.00    -0.036 C 
ATOM     10  C   UNL     1      24.619  33.010  42.945  1.00  0.00     0.007 C 
BRANCH   8  11
ATOM     11  O   UNL     1      24.814  34.717  44.618  1.00  0.00    -0.388 OA
ATOM     12  H   UNL     1      25.612  34.474  45.161  1.00  0.00     0.211 HD
ENDBRANCH   8  11
BRANCH   9  13
ATOM     13  C   UNL     1      22.763  31.882  41.658  1.00  0.00     0.187 C 
BRANCH  13  14
ATOM     14  O   UNL     1      21.370  31.961  41.816  1.00  0.00    -0.392 OA
ATOM     15  H   UNL     1      20.971  31.401  41.096  1.00  0.00     0.211 HD
ENDBRANCH  13  14
ENDBRANCH   9  13
ENDBRANCH   1   2
BRANCH   1  16
ATOM     16  C   UNL     1      21.220  33.944  39.221  1.00  0.00     0.286 C 
ATOM     17  C   UNL     1      21.039  34.823  37.975  1.00  0.00     0.202 C 
ATOM     18  O   UNL     1      21.317  32.577  38.831  1.00  0.00    -0.341 OA
ATOM     19  C   UNL     1      19.779  34.383  37.184  1.00  0.00     0.179 C 
ATOM     20  C   UNL     1      20.111  32.098  38.247  1.00  0.00     0.178 C 
ATOM     21  C   UNL     1      19.793  32.864  36.945  1.00  0.00     0.177 C 
BRANCH  17  22
ATOM     22  O   UNL     1      20.976  36.184  38.329  1.00  0.00    -0.385 OA
ATOM     23  H   UNL     1      21.688  36.364  38.997  1.00  0.00     0.211 HD
ENDBRANCH  17  22
BRANCH  19  24
ATOM     24  O   UNL     1      19.683  35.072  35.962  1.00  0.00    -0.387 OA
ATOM     25  H   UNL     1      18.805  35.538  35.939  1.00  0.00     0.211 HD
ENDBRANCH  19  24
BRANCH  20  26
ATOM     26  C   UNL     1      18.936  32.017  39.252  1.00  0.00     0.191 C 
BRANCH  26  27
ATOM     27  O   UNL     1      18.113  33.153  39.178  1.00  0.00    -0.394 OA
ATOM     28  H   UNL     1      18.699  33.951  39.224  1.00  0.00     0.210 HD
ENDBRANCH  26  27
ENDBRANCH  20  26
BRANCH  21  29
ATOM     29  O   UNL     1      18.550  32.461  36.423  1.00  0.00    -0.387 OA
ATOM     30  H   UNL     1      18.528  31.470  36.428  1.00  0.00     0.211 HD
ENDBRANCH  21  29
ENDBRANCH   1  16
TORSDOF 10
ENDMDL
MODEL 3
REMARK VINA RESULT:    -3.200      1.455      6.397
REMARK INTER + INTRA:          -5.215
REMARK INTER:                  -4.024
REMARK INTRA:                  -1.191
REMARK UNBOUND:                -0.705
REMARK SMILES OCC1=C[C@H](O)[C@@H]2C=CO[C@@H](O[C@@H]3O[C@@H](CO)[C@@H](O)[C@H](O)[C@H]3O)[C@@H]12
REMARK SMILES IDX 12 1 11 2 8 3 9 4 7 5 10 6 24 7 5 8 3 9 4 10 6 11 2 13 1 14
REMARK SMILES IDX 13 16 22 17 14 18 20 19 15 20 18 21 23 22 21 24 16 26 17 27
REMARK SMILES IDX 19 29
REMARK H PARENT 6 12 1 15 23 23 21 25 17 28 19 30
REMARK Flexibility Score: inf
ROOT
ATOM      1  O   UNL     1      21.050  33.228  40.484  1.00  0.00    -0.310 OA
ENDROOT
BRANCH   1   2
ATOM      2  C   UNL     1      21.342  32.268  39.484  1.00  0.00     0.316 C 
ATOM      3  C   UNL     1      21.436  32.802  36.605  1.00  0.00     0.018 C 
ATOM      4  C   UNL     1      22.564  32.675  37.320  1.00  0.00     0.186 C 
ATOM      5  C   UNL     1      20.199  33.074  37.396  1.00  0.00     0.061 C 
ATOM      6  O   UNL     1      22.512  32.674  38.737  1.00  0.00    -0.472 OA
ATOM      7  C   UNL     1      20.139  32.069  38.535  1.00  0.00     0.096 C 
ATOM      8  C   UNL     1      18.808  32.962  36.761  1.00  0.00     0.145 C 
ATOM      9  C   UNL     1      18.726  32.239  39.004  1.00  0.00    -0.036 C 
ATOM     10  C   UNL     1      17.976  32.694  37.990  1.00  0.00     0.007 C 
BRANCH   8  11
ATOM     11  O   UNL     1      18.756  31.875  35.875  1.00  0.00    -0.388 OA
ATOM     12  H   UNL     1      18.490  32.247  34.991  1.00  0.00     0.211 HD
ENDBRANCH   8  11
BRANCH   9  13
ATOM     13  C   UNL     1      18.239  32.080  40.425  1.00  0.00     0.187 C 
BRANCH  13  14
ATOM     14  O   UNL     1      18.082  33.338  41.029  1.00  0.00    -0.392 OA
ATOM     15  H   UNL     1      17.429  33.216  41.771  1.00  0.00     0.211 HD
ENDBRANCH  13  14
ENDBRANCH   9  13
ENDBRANCH   1   2
BRANCH   1  16
ATOM     16  C   UNL     1      22.228  33.923  40.856  1.00  0.00     0.286 C 
ATOM     17  C   UNL     1      22.016  35.427  40.626  1.00  0.00     0.202 C 
ATOM     18  O   UNL     1      22.492  33.684  42.236  1.00  0.00    -0.341 OA
ATOM     19  C   UNL     1      23.260  36.225  41.097  1.00  0.00     0.179 C 
ATOM     20  C   UNL     1      23.717  34.271  42.659  1.00  0.00     0.178 C 
ATOM     21  C   UNL     1      23.662  35.808  42.523  1.00  0.00     0.177 C 
BRANCH  17  22
ATOM     22  O   UNL     1      21.718  35.688  39.275  1.00  0.00    -0.385 OA
ATOM     23  H   UNL     1      21.681  34.821  38.792  1.00  0.00     0.211 HD
ENDBRANCH  17  22
BRANCH  19  24
ATOM     24  O   UNL     1      23.024  37.610  41.038  1.00  0.00    -0.387 OA
ATOM     25  H   UNL     1      22.054  37.751  40.871  1.00  0.00     0.211 HD
ENDBRANCH  19  24
BRANCH  20  26
ATOM     26  C   UNL     1      24.964  33.611  42.019  1.00  0.00     0.191 C 
BRANCH  26  27
ATOM     27  O   UNL     1      25.113  32.277  42.433  1.00  0.00    -0.394 OA
ATOM     28  H   UNL     1      25.118  31.710  41.620  1.00  0.00     0.210 HD
ENDBRANCH  26  27
ENDBRANCH  20  26
BRANCH  21  29
ATOM     29  O   UNL     1      24.907  36.380  42.843  1.00  0.00    -0.387 OA
ATOM     30  H   UNL     1      24.861  36.696  43.780  1.00  0.00     0.211 HD
ENDBRANCH  21  29
ENDBRANCH   1  16
TORSDOF 10
ENDMDL
MODEL 4
REMARK VINA RESULT:    -3.066      1.442      6.593
REMARK INTER + INTRA:          -5.026
REMARK INTER:                  -4.530
REMARK INTRA:                  -0.497
REMARK UNBOUND:                -0.705
REMARK SMILES OCC1=C[C@H](O)[C@@H]2C=CO[C@@H](O[C@@H]3O[C@@H](CO)[C@@H](O)[C@H](O)[C@H]3O)[C@@H]12
REMARK SMILES IDX 12 1 11 2 8 3 9 4 7 5 10 6 24 7 5 8 3 9 4 10 6 11 2 13 1 14
REMARK SMILES IDX 13 16 22 17 14 18 20 19 15 20 18 21 23 22 21 24 16 26 17 27
REMARK SMILES IDX 19 29
REMARK H PARENT 6 12 1 15 23 23 21 25 17 28 19 30
REMARK Flexibility Score: inf
ROOT
ATOM      1  O   UNL     1      20.943  33.021  39.429  1.00  0.00    -0.310 OA
ENDROOT
BRANCH   1   2
ATOM      2  C   UNL     1      19.685  33.645  39.618  1.00  0.00     0.316 C 
ATOM      3  C   UNL     1      17.114  32.248  39.774  1.00  0.00     0.018 C 
ATOM      4  C   UNL     1      17.717  32.709  40.880  1.00  0.00     0.186 C 
ATOM      5  C   UNL     1      17.990  32.112  38.572  1.00  0.00     0.061 C 
ATOM      6  O   UNL     1      19.064  33.148  40.825  1.00  0.00    -0.472 OA
ATOM      7  C   UNL     1      18.760  33.411  38.402  1.00  0.00     0.096 C 
ATOM      8  C   UNL     1      17.396  31.875  37.179  1.00  0.00     0.145 C 
ATOM      9  C   UNL     1      19.304  33.252  37.014  1.00  0.00    -0.036 C 
ATOM     10  C   UNL     1      18.507  32.427  36.320  1.00  0.00     0.007 C 
BRANCH   8  11
ATOM     11  O   UNL     1      16.218  32.618  37.010  1.00  0.00    -0.388 OA
ATOM     12  H   UNL     1      15.695  32.156  36.301  1.00  0.00     0.211 HD
ENDBRANCH   8  11
BRANCH   9  13
ATOM     13  C   UNL     1      20.619  33.796  36.511  1.00  0.00     0.187 C 
BRANCH  13  14
ATOM     14  O   UNL     1      21.659  32.896  36.792  1.00  0.00    -0.392 OA
ATOM     15  H   UNL     1      22.207  33.313  37.511  1.00  0.00     0.211 HD
ENDBRANCH  13  14
ENDBRANCH   9  13
ENDBRANCH   1   2
BRANCH   1  16
ATOM     16  C   UNL     1      21.953  33.733  40.124  1.00  0.00     0.286 C 
ATOM     17  C   UNL     1      21.719  35.240  39.941  1.00  0.00     0.202 C 
ATOM     18  O   UNL     1      21.886  33.403  41.508  1.00  0.00    -0.341 OA
ATOM     19  C   UNL     1      22.762  36.049  40.754  1.00  0.00     0.179 C 
ATOM     20  C   UNL     1      22.935  34.006  42.256  1.00  0.00     0.178 C 
ATOM     21  C   UNL     1      22.827  35.545  42.206  1.00  0.00     0.177 C 
BRANCH  17  22
ATOM     22  O   UNL     1      21.745  35.587  38.578  1.00  0.00    -0.385 OA
ATOM     23  H   UNL     1      22.683  35.795  38.328  1.00  0.00     0.211 HD
ENDBRANCH  17  22
BRANCH  19  24
ATOM     24  O   UNL     1      22.469  37.425  40.724  1.00  0.00    -0.387 OA
ATOM     25  H   UNL     1      22.182  37.699  41.636  1.00  0.00     0.211 HD
ENDBRANCH  19  24
BRANCH  20  26
ATOM     26  C   UNL     1      24.335  33.445  41.905  1.00  0.00     0.191 C 
BRANCH  26  27
ATOM     27  O   UNL     1      25.070  33.129  43.060  1.00  0.00    -0.394 OA
ATOM     28  H   UNL     1      25.580  32.299  42.872  1.00  0.00     0.210 HD
ENDBRANCH  26  27
ENDBRANCH  20  26
BRANCH  21  29
ATOM     29  O   UNL     1      23.922  36.141  42.859  1.00  0.00    -0.387 OA
ATOM     30  H   UNL     1      23.933  35.808  43.792  1.00  0.00     0.211 HD
ENDBRANCH  21  29
ENDBRANCH   1  16
TORSDOF 10
ENDMDL
MODEL 5
REMARK VINA RESULT:    -2.850      1.465      1.675
REMARK INTER + INTRA:          -4.722
REMARK INTER:                  -4.052
REMARK INTRA:                  -0.670
REMARK UNBOUND:                -0.705
REMARK SMILES OCC1=C[C@H](O)[C@@H]2C=CO[C@@H](O[C@@H]3O[C@@H](CO)[C@@H](O)[C@H](O)[C@H]3O)[C@@H]12
REMARK SMILES IDX 12 1 11 2 8 3 9 4 7 5 10 6 24 7 5 8 3 9 4 10 6 11 2 13 1 14
REMARK SMILES IDX 13 16 22 17 14 18 20 19 15 20 18 21 23 22 21 24 16 26 17 27
REMARK SMILES IDX 19 29
REMARK H PARENT 6 12 1 15 23 23 21 25 17 28 19 30
REMARK Flexibility Score: inf
ROOT
ATOM      1  O   UNL     1      20.745  34.115  40.953  1.00  0.00    -0.310 OA
ENDROOT
BRANCH   1   2
ATOM      2  C   UNL     1      22.136  33.862  40.856  1.00  0.00     0.316 C 
ATOM      3  C   UNL     1      24.034  33.984  43.085  1.00  0.00     0.018 C 
ATOM      4  C   UNL     1      23.598  32.806  42.613  1.00  0.00     0.186 C 
ATOM      5  C   UNL     1      23.207  35.171  42.715  1.00  0.00     0.061 C 
ATOM      6  O   UNL     1      22.498  32.761  41.719  1.00  0.00    -0.472 OA
ATOM      7  C   UNL     1      22.956  35.121  41.217  1.00  0.00     0.096 C 
ATOM      8  C   UNL     1      23.722  36.598  42.934  1.00  0.00     0.145 C 
ATOM      9  C   UNL     1      22.437  36.504  40.958  1.00  0.00    -0.036 C 
ATOM     10  C   UNL     1      22.911  37.335  41.898  1.00  0.00     0.007 C 
BRANCH   8  11
ATOM     11  O   UNL     1      25.093  36.678  42.644  1.00  0.00    -0.388 OA
ATOM     12  H   UNL     1      25.442  35.747  42.686  1.00  0.00     0.211 HD
ENDBRANCH   8  11
BRANCH   9  13
ATOM     13  C   UNL     1      21.420  36.886  39.911  1.00  0.00     0.187 C 
BRANCH  13  14
ATOM     14  O   UNL     1      21.788  36.364  38.660  1.00  0.00    -0.392 OA
ATOM     15  H   UNL     1      20.994  36.462  38.068  1.00  0.00     0.211 HD
ENDBRANCH  13  14
ENDBRANCH   9  13
ENDBRANCH   1   2
BRANCH   1  16
ATOM     16  C   UNL     1      20.031  33.282  40.054  1.00  0.00     0.286 C 
ATOM     17  C   UNL     1      18.622  33.035  40.613  1.00  0.00     0.202 C 
ATOM     18  O   UNL     1      19.936  33.936  38.791  1.00  0.00    -0.341 OA
ATOM     19  C   UNL     1      17.787  32.191  39.615  1.00  0.00     0.179 C 
ATOM     20  C   UNL     1      19.316  33.116  37.807  1.00  0.00     0.178 C 
ATOM     21  C   UNL     1      17.859  32.796  38.203  1.00  0.00     0.177 C 
BRANCH  17  22
ATOM     22  O   UNL     1      18.688  32.421  41.878  1.00  0.00    -0.385 OA
ATOM     23  H   UNL     1      19.134  31.541  41.774  1.00  0.00     0.211 HD
ENDBRANCH  17  22
BRANCH  19  24
ATOM     24  O   UNL     1      16.450  32.085  40.038  1.00  0.00    -0.387 OA
ATOM     25  H   UNL     1      16.090  33.005  40.156  1.00  0.00     0.211 HD
ENDBRANCH  19  24
BRANCH  20  26
ATOM     26  C   UNL     1      20.166  31.882  37.418  1.00  0.00     0.191 C 
BRANCH  26  27
ATOM     27  O   UNL     1      21.511  32.042  37.788  1.00  0.00    -0.394 OA
ATOM     28  H   UNL     1      21.633  32.984  38.075  1.00  0.00     0.210 HD
ENDBRANCH  26  27
ENDBRANCH  20  26
BRANCH  21  29
ATOM     29  O   UNL     1      17.280  31.903  37.282  1.00  0.00    -0.387 OA
ATOM     30  H   UNL     1      17.904  31.813  36.518  1.00  0.00     0.211 HD
ENDBRANCH  21  29
ENDBRANCH   1  16
TORSDOF 10
ENDMDL
MODEL 6
REMARK VINA RESULT:    -1.605      1.594      6.494
REMARK INTER + INTRA:          -2.968
REMARK INTER:                  -1.991
REMARK INTRA:                  -0.977
REMARK UNBOUND:                -0.705
REMARK SMILES OCC1=C[C@H](O)[C@@H]2C=CO[C@@H](O[C@@H]3O[C@@H](CO)[C@@H](O)[C@H](O)[C@H]3O)[C@@H]12
REMARK SMILES IDX 12 1 11 2 8 3 9 4 7 5 10 6 24 7 5 8 3 9 4 10 6 11 2 13 1 14
REMARK SMILES IDX 13 16 22 17 14 18 20 19 15 20 18 21 23 22 21 24 16 26 17 27
REMARK SMILES IDX 19 29
REMARK H PARENT 6 12 1 15 23 23 21 25 17 28 19 30
REMARK Flexibility Score: inf
ROOT
ATOM      1  O   UNL     1      22.627  34.518  39.874  1.00  0.00    -0.310 OA
ENDROOT
BRANCH   1   2
ATOM      2  C   UNL     1      22.664  33.191  39.379  1.00  0.00     0.316 C 
ATOM      3  C   UNL     1      22.715  32.446  36.546  1.00  0.00     0.018 C 
ATOM      4  C   UNL     1      23.828  32.397  37.292  1.00  0.00     0.186 C 
ATOM      5  C   UNL     1      21.602  33.272  37.103  1.00  0.00     0.061 C 
ATOM      6  O   UNL     1      23.851  32.997  38.577  1.00  0.00    -0.472 OA
ATOM      7  C   UNL     1      21.398  32.870  38.554  1.00  0.00     0.096 C 
ATOM      8  C   UNL     1      20.187  33.198  36.519  1.00  0.00     0.145 C 
ATOM      9  C   UNL     1      20.075  33.508  38.854  1.00  0.00    -0.036 C 
ATOM     10  C   UNL     1      19.382  33.644  37.714  1.00  0.00     0.007 C 
BRANCH   8  11
ATOM     11  O   UNL     1      19.867  31.877  36.167  1.00  0.00    -0.388 OA
ATOM     12  H   UNL     1      19.536  31.910  35.229  1.00  0.00     0.211 HD
ENDBRANCH   8  11
BRANCH   9  13
ATOM     13  C   UNL     1      19.641  34.060  40.191  1.00  0.00     0.187 C 
BRANCH  13  14
ATOM     14  O   UNL     1      20.119  33.247  41.232  1.00  0.00    -0.392 OA
ATOM     15  H   UNL     1      21.074  33.496  41.369  1.00  0.00     0.211 HD
ENDBRANCH  13  14
ENDBRANCH   9  13
ENDBRANCH   1   2
BRANCH   1  16
ATOM     16  C   UNL     1      23.443  34.636  41.027  1.00  0.00     0.286 C 
ATOM     17  C   UNL     1      23.502  36.110  41.451  1.00  0.00     0.202 C 
ATOM     18  O   UNL     1      22.877  33.858  42.079  1.00  0.00    -0.341 OA
ATOM     19  C   UNL     1      24.324  36.263  42.757  1.00  0.00     0.179 C 
ATOM     20  C   UNL     1      23.697  33.848  43.241  1.00  0.00     0.178 C 
ATOM     21  C   UNL     1      23.835  35.271  43.825  1.00  0.00     0.177 C 
BRANCH  17  22
ATOM     22  O   UNL     1      24.025  36.907  40.416  1.00  0.00    -0.385 OA
ATOM     23  H   UNL     1      25.015  36.871  40.466  1.00  0.00     0.211 HD
ENDBRANCH  17  22
BRANCH  19  24
ATOM     24  O   UNL     1      24.259  37.581  43.244  1.00  0.00    -0.387 OA
ATOM     25  H   UNL     1      25.098  38.048  42.985  1.00  0.00     0.211 HD
ENDBRANCH  19  24
BRANCH  20  26
ATOM     26  C   UNL     1      25.039  33.102  43.036  1.00  0.00     0.191 C 
BRANCH  26  27
ATOM     27  O   UNL     1      24.853  31.875  42.377  1.00  0.00    -0.394 OA
ATOM     28  H   UNL     1      23.877  31.742  42.262  1.00  0.00     0.210 HD
ENDBRANCH  26  27
ENDBRANCH  20  26
BRANCH  21  29
ATOM     29  O   UNL     1      24.728  35.276  44.913  1.00  0.00    -0.387 OA
ATOM     30  H   UNL     1      24.301  34.778  45.655  1.00  0.00     0.211 HD
ENDBRANCH  21  29
ENDBRANCH   1  16
TORSDOF 10
ENDMDL
MODEL 7
REMARK VINA RESULT:    -1.414      1.700      6.827
REMARK INTER + INTRA:          -2.698
REMARK INTER:                  -2.091
REMARK INTRA:                  -0.606
REMARK UNBOUND:                -0.705
REMARK SMILES OCC1=C[C@H](O)[C@@H]2C=CO[C@@H](O[C@@H]3O[C@@H](CO)[C@@H](O)[C@H](O)[C@H]3O)[C@@H]12
REMARK SMILES IDX 12 1 11 2 8 3 9 4 7 5 10 6 24 7 5 8 3 9 4 10 6 11 2 13 1 14
REMARK SMILES IDX 13 16 22 17 14 18 20 19 15 20 18 21 23 22 21 24 16 26 17 27
REMARK SMILES IDX 19 29
REMARK H PARENT 6 12 1 15 23 23 21 25 17 28 19 30
REMARK Flexibility Score: inf
ROOT
ATOM      1  O   UNL     1      23.232  33.601  40.052  1.00  0.00    -0.310 OA
ENDROOT
BRANCH   1   2
ATOM      2  C   UNL     1      22.835  34.594  39.123  1.00  0.00     0.316 C 
ATOM      3  C   UNL     1      20.067  35.195  38.372  1.00  0.00     0.018 C 
ATOM      4  C   UNL     1      20.741  35.989  39.218  1.00  0.00     0.186 C 
ATOM      5  C   UNL     1      20.633  33.825  38.187  1.00  0.00     0.061 C 
ATOM      6  O   UNL     1      21.973  35.558  39.770  1.00  0.00    -0.472 OA
ATOM      7  C   UNL     1      22.120  33.965  37.907  1.00  0.00     0.096 C 
ATOM      8  C   UNL     1      20.150  32.912  37.055  1.00  0.00     0.145 C 
ATOM      9  C   UNL     1      22.458  32.589  37.416  1.00  0.00    -0.036 C 
ATOM     10  C   UNL     1      21.359  32.024  36.896  1.00  0.00     0.007 C 
BRANCH   8  11
ATOM     11  O   UNL     1      19.918  33.653  35.887  1.00  0.00    -0.388 OA
ATOM     12  H   UNL     1      19.049  34.121  36.020  1.00  0.00     0.211 HD
ENDBRANCH   8  11
BRANCH   9  13
ATOM     13  C   UNL     1      23.776  31.879  37.610  1.00  0.00     0.187 C 
BRANCH  13  14
ATOM     14  O   UNL     1      24.634  32.137  36.528  1.00  0.00    -0.392 OA
ATOM     15  H   UNL     1      24.105  32.660  35.867  1.00  0.00     0.211 HD
ENDBRANCH  13  14
ENDBRANCH   9  13
ENDBRANCH   1   2
BRANCH   1  16
ATOM     16  C   UNL     1      23.405  34.172  41.338  1.00  0.00     0.286 C 
ATOM     17  C   UNL     1      24.045  33.130  42.266  1.00  0.00     0.202 C 
ATOM     18  O   UNL     1      24.260  35.307  41.232  1.00  0.00    -0.341 OA
ATOM     19  C   UNL     1      24.320  33.747  43.662  1.00  0.00     0.179 C 
ATOM     20  C   UNL     1      24.400  35.992  42.471  1.00  0.00     0.178 C 
ATOM     21  C   UNL     1      25.070  35.083  43.524  1.00  0.00     0.177 C 
BRANCH  17  22
ATOM     22  O   UNL     1      23.236  31.981  42.361  1.00  0.00    -0.385 OA
ATOM     23  H   UNL     1      22.343  32.257  42.693  1.00  0.00     0.211 HD
ENDBRANCH  17  22
BRANCH  19  24
ATOM     24  O   UNL     1      25.045  32.858  44.475  1.00  0.00    -0.387 OA
ATOM     25  H   UNL     1      25.910  33.289  44.708  1.00  0.00     0.211 HD
ENDBRANCH  19  24
BRANCH  20  26
ATOM     26  C   UNL     1      23.092  36.673  42.943  1.00  0.00     0.191 C 
BRANCH  26  27
ATOM     27  O   UNL     1      22.529  37.469  41.932  1.00  0.00    -0.394 OA
ATOM     28  H   UNL     1      23.273  37.924  41.460  1.00  0.00     0.210 HD
ENDBRANCH  26  27
ENDBRANCH  20  26
BRANCH  21  29
ATOM     29  O   UNL     1      25.114  35.725  44.776  1.00  0.00    -0.387 OA
ATOM     30  H   UNL     1      25.537  35.101  45.419  1.00  0.00     0.211 HD
ENDBRANCH  21  29
ENDBRANCH   1  16
TORSDOF 10
ENDMDL
