MODEL 1
REMARK VINA RESULT:    -5.679      0.000      0.000
REMARK INTER + INTRA:          -7.525
REMARK INTER:                  -7.007
REMARK INTRA:                  -0.518
REMARK UNBOUND:                -0.518
REMARK SMILES C=C(CCC=C(C)C)[C@H]1CC=C(C)CC1
REMARK SMILES IDX 3 1 2 2 1 3 9 4 13 5 12 6 11 7 14 8 10 9 15 10 4 11 5 12
REMARK SMILES IDX 6 13 7 14 8 15
REMARK H PARENT
REMARK Flexibility Score: inf
ROOT
ATOM      1  C   UNL     1      29.620  24.057  13.262  1.00  0.00     0.035 C 
ENDROOT
BRANCH   1   2
ATOM      2  C   UNL     1      28.702  24.672  12.229  1.00  0.00    -0.074 C 
ATOM      3  C   UNL     1      27.560  24.040  11.901  1.00  0.00     0.008 C 
BRANCH   2   4
ATOM      4  C   UNL     1      29.077  25.992  11.569  1.00  0.00     0.018 C 
ATOM      5  C   UNL     1      30.257  30.126  11.180  1.00  0.00     0.039 C 
ATOM      6  C   UNL     1      29.738  28.808  11.683  1.00  0.00    -0.077 C 
ATOM      7  C   UNL     1      28.488  28.416  11.386  1.00  0.00    -0.027 C 
ATOM      8  C   UNL     1      30.613  27.877  12.491  1.00  0.00     0.031 C 
ATOM      9  C   UNL     1      28.005  27.071  11.853  1.00  0.00     0.035 C 
ATOM     10  C   UNL     1      30.528  26.440  11.943  1.00  0.00     0.013 C 
ENDBRANCH   2   4
ENDBRANCH   1   2
BRANCH   1  11
ATOM     11  C   UNL     1      30.248  22.765  12.728  1.00  0.00     0.032 C 
BRANCH  11  12
ATOM     12  C   UNL     1      30.076  21.628  13.706  1.00  0.00    -0.028 C 
ATOM     13  C   UNL     1      30.754  20.465  13.609  1.00  0.00    -0.080 C 
ATOM     14  C   UNL     1      31.745  20.218  12.497  1.00  0.00     0.039 C 
ATOM     15  C   UNL     1      30.507  19.393  14.640  1.00  0.00     0.039 C 
ENDBRANCH  11  12
ENDBRANCH   1  11
TORSDOF 4
ENDMDL
MODEL 2
REMARK VINA RESULT:    -5.549      1.091      1.373
REMARK INTER + INTRA:          -7.365
REMARK INTER:                  -6.660
REMARK INTRA:                  -0.705
REMARK UNBOUND:                -0.518
REMARK SMILES C=C(CCC=C(C)C)[C@H]1CC=C(C)CC1
REMARK SMILES IDX 3 1 2 2 1 3 9 4 13 5 12 6 11 7 14 8 10 9 15 10 4 11 5 12
REMARK SMILES IDX 6 13 7 14 8 15
REMARK H PARENT
REMARK Flexibility Score: inf
ROOT
ATOM      1  C   UNL     1      28.767  24.137  12.347  1.00  0.00     0.035 C 
ENDROOT
BRANCH   1   2
ATOM      2  C   UNL     1      29.686  24.658  11.264  1.00  0.00    -0.074 C 
ATOM      3  C   UNL     1      30.535  23.809  10.655  1.00  0.00     0.008 C 
BRANCH   2   4
ATOM      4  C   UNL     1      29.646  26.129  10.877  1.00  0.00     0.018 C 
ATOM      5  C   UNL     1      30.172  30.404  11.173  1.00  0.00     0.039 C 
ATOM      6  C   UNL     1      30.019  28.938  11.470  1.00  0.00    -0.077 C 
ATOM      7  C   UNL     1      28.796  28.387  11.540  1.00  0.00    -0.027 C 
ATOM      8  C   UNL     1      31.225  28.045  11.652  1.00  0.00     0.031 C 
ATOM      9  C   UNL     1      28.666  26.909  11.785  1.00  0.00     0.035 C 
ATOM     10  C   UNL     1      31.077  26.757  10.820  1.00  0.00     0.013 C 
ENDBRANCH   2   4
ENDBRANCH   1   2
BRANCH   1  11
ATOM     11  C   UNL     1      29.575  23.632  13.547  1.00  0.00     0.032 C 
BRANCH  11  12
ATOM     12  C   UNL     1      29.573  22.124  13.614  1.00  0.00    -0.028 C 
ATOM     13  C   UNL     1      30.687  21.396  13.834  1.00  0.00    -0.080 C 
ATOM     14  C   UNL     1      32.034  22.051  14.032  1.00  0.00     0.039 C 
ATOM     15  C   UNL     1      30.574  19.893  13.882  1.00  0.00     0.039 C 
ENDBRANCH  11  12
ENDBRANCH   1  11
TORSDOF 4
ENDMDL
MODEL 3
REMARK VINA RESULT:    -5.303      1.179      6.575
REMARK INTER + INTRA:          -7.061
REMARK INTER:                  -6.237
REMARK INTRA:                  -0.824
REMARK UNBOUND:                -0.518
REMARK SMILES C=C(CCC=C(C)C)[C@H]1CC=C(C)CC1
REMARK SMILES IDX 3 1 2 2 1 3 9 4 13 5 12 6 11 7 14 8 10 9 15 10 4 11 5 12
REMARK SMILES IDX 6 13 7 14 8 15
REMARK H PARENT
REMARK Flexibility Score: inf
ROOT
ATOM      1  C   UNL     1      28.587  27.058  11.855  1.00  0.00     0.035 C 
ENDROOT
BRANCH   1   2
ATOM      2  C   UNL     1      29.575  25.954  11.547  1.00  0.00    -0.074 C 
ATOM      3  C   UNL     1      30.195  25.939  10.353  1.00  0.00     0.008 C 
BRANCH   2   4
ATOM      4  C   UNL     1      29.857  24.875  12.583  1.00  0.00     0.018 C 
ATOM      5  C   UNL     1      30.693  20.975  14.233  1.00  0.00     0.039 C 
ATOM      6  C   UNL     1      30.272  22.114  13.347  1.00  0.00    -0.077 C 
ATOM      7  C   UNL     1      29.070  22.689  13.511  1.00  0.00    -0.027 C 
ATOM      8  C   UNL     1      31.199  22.667  12.289  1.00  0.00     0.031 C 
ATOM      9  C   UNL     1      28.689  23.861  12.650  1.00  0.00     0.035 C 
ATOM     10  C   UNL     1      31.252  24.205  12.364  1.00  0.00     0.013 C 
ENDBRANCH   2   4
ENDBRANCH   1   2
BRANCH   1  11
ATOM     11  C   UNL     1      29.279  28.221  12.574  1.00  0.00     0.032 C 
BRANCH  11  12
ATOM     12  C   UNL     1      29.739  29.274  11.595  1.00  0.00    -0.028 C 
ATOM     13  C   UNL     1      31.032  29.442  11.249  1.00  0.00    -0.080 C 
ATOM     14  C   UNL     1      32.125  28.575  11.828  1.00  0.00     0.039 C 
ATOM     15  C   UNL     1      31.383  30.525  10.261  1.00  0.00     0.039 C 
ENDBRANCH  11  12
ENDBRANCH   1  11
TORSDOF 4
ENDMDL
MODEL 4
REMARK VINA RESULT:    -5.258      1.139      6.842
REMARK INTER + INTRA:          -7.006
REMARK INTER:                  -6.309
REMARK INTRA:                  -0.697
REMARK UNBOUND:                -0.518
REMARK SMILES C=C(CCC=C(C)C)[C@H]1CC=C(C)CC1
REMARK SMILES IDX 3 1 2 2 1 3 9 4 13 5 12 6 11 7 14 8 10 9 15 10 4 11 5 12
REMARK SMILES IDX 6 13 7 14 8 15
REMARK H PARENT
REMARK Flexibility Score: inf
ROOT
ATOM      1  C   UNL     1      30.647  25.745  11.339  1.00  0.00     0.035 C 
ENDROOT
BRANCH   1   2
ATOM      2  C   UNL     1      29.812  24.781  12.155  1.00  0.00    -0.074 C 
ATOM      3  C   UNL     1      28.478  24.948  12.209  1.00  0.00     0.008 C 
BRANCH   2   4
ATOM      4  C   UNL     1      30.484  23.641  12.906  1.00  0.00     0.018 C 
ATOM      5  C   UNL     1      31.916  19.663  13.778  1.00  0.00     0.039 C 
ATOM      6  C   UNL     1      31.175  20.848  13.224  1.00  0.00    -0.077 C 
ATOM      7  C   UNL     1      30.136  21.370  13.895  1.00  0.00    -0.027 C 
ATOM      8  C   UNL     1      31.602  21.505  11.931  1.00  0.00     0.031 C 
ATOM      9  C   UNL     1      29.442  22.587  13.351  1.00  0.00     0.035 C 
ATOM     10  C   UNL     1      31.679  23.035  12.099  1.00  0.00     0.013 C 
ENDBRANCH   2   4
ENDBRANCH   1   2
BRANCH   1  11
ATOM     11  C   UNL     1      31.293  26.801  12.242  1.00  0.00     0.032 C 
BRANCH  11  12
ATOM     12  C   UNL     1      31.297  28.158  11.582  1.00  0.00    -0.028 C 
ATOM     13  C   UNL     1      30.301  29.055  11.737  1.00  0.00    -0.080 C 
ATOM     14  C   UNL     1      29.095  28.756  12.596  1.00  0.00     0.039 C 
ATOM     15  C   UNL     1      30.403  30.383  11.032  1.00  0.00     0.039 C 
ENDBRANCH  11  12
ENDBRANCH   1  11
TORSDOF 4
ENDMDL
MODEL 5
REMARK VINA RESULT:    -5.233      1.530      6.958
REMARK INTER + INTRA:          -6.975
REMARK INTER:                  -6.294
REMARK INTRA:                  -0.681
REMARK UNBOUND:                -0.518
REMARK SMILES C=C(CCC=C(C)C)[C@H]1CC=C(C)CC1
REMARK SMILES IDX 3 1 2 2 1 3 9 4 13 5 12 6 11 7 14 8 10 9 15 10 4 11 5 12
REMARK SMILES IDX 6 13 7 14 8 15
REMARK H PARENT
REMARK Flexibility Score: inf
ROOT
ATOM      1  C   UNL     1      30.866  25.677  10.592  1.00  0.00     0.035 C 
ENDROOT
BRANCH   1   2
ATOM      2  C   UNL     1      31.443  25.271  11.931  1.00  0.00    -0.074 C 
ATOM      3  C   UNL     1      31.940  26.217  12.748  1.00  0.00     0.008 C 
BRANCH   2   4
ATOM      4  C   UNL     1      31.461  23.804  12.337  1.00  0.00     0.018 C 
ATOM      5  C   UNL     1      30.540  20.208  14.540  1.00  0.00     0.039 C 
ATOM      6  C   UNL     1      30.731  21.636  14.111  1.00  0.00    -0.077 C 
ATOM      7  C   UNL     1      31.938  22.216  14.210  1.00  0.00    -0.027 C 
ATOM      8  C   UNL     1      29.593  22.435  13.519  1.00  0.00     0.031 C 
ATOM      9  C   UNL     1      32.121  23.628  13.726  1.00  0.00     0.035 C 
ATOM     10  C   UNL     1      30.043  23.153  12.233  1.00  0.00     0.013 C 
ENDBRANCH   2   4
ENDBRANCH   1   2
BRANCH   1  11
ATOM     11  C   UNL     1      29.704  26.658  10.779  1.00  0.00     0.032 C 
BRANCH  11  12
ATOM     12  C   UNL     1      30.123  28.072  10.453  1.00  0.00    -0.028 C 
ATOM     13  C   UNL     1      29.973  29.100  11.313  1.00  0.00    -0.080 C 
ATOM     14  C   UNL     1      29.366  28.904  12.682  1.00  0.00     0.039 C 
ATOM     15  C   UNL     1      30.426  30.473  10.888  1.00  0.00     0.039 C 
ENDBRANCH  11  12
ENDBRANCH   1  11
TORSDOF 4
ENDMDL
MODEL 6
REMARK VINA RESULT:    -4.964      1.572      6.955
REMARK INTER + INTRA:          -6.643
REMARK INTER:                  -6.027
REMARK INTRA:                  -0.616
REMARK UNBOUND:                -0.518
REMARK SMILES C=C(CCC=C(C)C)[C@H]1CC=C(C)CC1
REMARK SMILES IDX 3 1 2 2 1 3 9 4 13 5 12 6 11 7 14 8 10 9 15 10 4 11 5 12
REMARK SMILES IDX 6 13 7 14 8 15
REMARK H PARENT
REMARK Flexibility Score: inf
ROOT
ATOM      1  C   UNL     1      29.684  26.902  12.153  1.00  0.00     0.035 C 
ENDROOT
BRANCH   1   2
ATOM      2  C   UNL     1      30.977  26.203  12.513  1.00  0.00    -0.074 C 
ATOM      3  C   UNL     1      32.067  26.939  12.795  1.00  0.00     0.008 C 
BRANCH   2   4
ATOM      4  C   UNL     1      31.034  24.683  12.549  1.00  0.00     0.018 C 
ATOM      5  C   UNL     1      30.273  20.638  13.849  1.00  0.00     0.039 C 
ATOM      6  C   UNL     1      30.423  22.131  13.772  1.00  0.00    -0.077 C 
ATOM      7  C   UNL     1      31.626  22.700  13.955  1.00  0.00    -0.027 C 
ATOM      8  C   UNL     1      29.246  23.021  13.446  1.00  0.00     0.031 C 
ATOM      9  C   UNL     1      31.765  24.191  13.822  1.00  0.00     0.035 C 
ATOM     10  C   UNL     1      29.622  24.041  12.353  1.00  0.00     0.013 C 
ENDBRANCH   2   4
ENDBRANCH   1   2
BRANCH   1  11
ATOM     11  C   UNL     1      29.786  27.553  10.769  1.00  0.00     0.032 C 
BRANCH  11  12
ATOM     12  C   UNL     1      30.231  28.992  10.872  1.00  0.00    -0.028 C 
ATOM     13  C   UNL     1      31.273  29.491  10.175  1.00  0.00    -0.080 C 
ATOM     14  C   UNL     1      32.077  28.630   9.230  1.00  0.00     0.039 C 
ATOM     15  C   UNL     1      31.634  30.944  10.351  1.00  0.00     0.039 C 
ENDBRANCH  11  12
ENDBRANCH   1  11
TORSDOF 4
ENDMDL
MODEL 7
REMARK VINA RESULT:    -4.940      1.217      1.853
REMARK INTER + INTRA:          -6.614
REMARK INTER:                  -6.101
REMARK INTRA:                  -0.513
REMARK UNBOUND:                -0.518
REMARK SMILES C=C(CCC=C(C)C)[C@H]1CC=C(C)CC1
REMARK SMILES IDX 3 1 2 2 1 3 9 4 13 5 12 6 11 7 14 8 10 9 15 10 4 11 5 12
REMARK SMILES IDX 6 13 7 14 8 15
REMARK H PARENT
REMARK Flexibility Score: inf
ROOT
ATOM      1  C   UNL     1      30.414  23.275  13.291  1.00  0.00     0.035 C 
ENDROOT
BRANCH   1   2
ATOM      2  C   UNL     1      30.793  23.715  11.894  1.00  0.00    -0.074 C 
ATOM      3  C   UNL     1      31.358  22.828  11.054  1.00  0.00     0.008 C 
BRANCH   2   4
ATOM      4  C   UNL     1      30.537  25.149  11.453  1.00  0.00     0.018 C 
ATOM      5  C   UNL     1      29.865  29.404  11.729  1.00  0.00     0.039 C 
ATOM      6  C   UNL     1      29.978  27.933  12.016  1.00  0.00    -0.077 C 
ATOM      7  C   UNL     1      28.984  27.098  11.668  1.00  0.00    -0.027 C 
ATOM      8  C   UNL     1      31.217  27.352  12.656  1.00  0.00     0.031 C 
ATOM      9  C   UNL     1      29.139  25.623  11.916  1.00  0.00     0.035 C 
ATOM     10  C   UNL     1      31.696  26.107  11.884  1.00  0.00     0.013 C 
ENDBRANCH   2   4
ENDBRANCH   1   2
BRANCH   1  11
ATOM     11  C   UNL     1      30.298  21.748  13.366  1.00  0.00     0.032 C 
BRANCH  11  12
ATOM     12  C   UNL     1      31.162  21.187  14.469  1.00  0.00    -0.028 C 
ATOM     13  C   UNL     1      31.168  19.880  14.806  1.00  0.00    -0.080 C 
ATOM     14  C   UNL     1      30.295  18.875  14.091  1.00  0.00     0.039 C 
ATOM     15  C   UNL     1      32.069  19.423  15.924  1.00  0.00     0.039 C 
ENDBRANCH  11  12
ENDBRANCH   1  11
TORSDOF 4
ENDMDL
MODEL 8
REMARK VINA RESULT:    -4.820      1.410      6.732
REMARK INTER + INTRA:          -6.465
REMARK INTER:                  -5.788
REMARK INTRA:                  -0.677
REMARK UNBOUND:                -0.518
REMARK SMILES C=C(CCC=C(C)C)[C@H]1CC=C(C)CC1
REMARK SMILES IDX 3 1 2 2 1 3 9 4 13 5 12 6 11 7 14 8 10 9 15 10 4 11 5 12
REMARK SMILES IDX 6 13 7 14 8 15
REMARK H PARENT
REMARK Flexibility Score: inf
ROOT
ATOM      1  C   UNL     1      29.944  24.663  10.957  1.00  0.00     0.035 C 
ENDROOT
BRANCH   1   2
ATOM      2  C   UNL     1      31.117  23.725  11.144  1.00  0.00    -0.074 C 
ATOM      3  C   UNL     1      32.049  23.637  10.178  1.00  0.00     0.008 C 
BRANCH   2   4
ATOM      4  C   UNL     1      31.229  22.892  12.412  1.00  0.00     0.018 C 
ATOM      5  C   UNL     1      30.874  19.513  15.075  1.00  0.00     0.039 C 
ATOM      6  C   UNL     1      30.708  20.495  13.949  1.00  0.00    -0.077 C 
ATOM      7  C   UNL     1      29.938  21.584  14.110  1.00  0.00    -0.027 C 
ATOM      8  C   UNL     1      31.429  20.309  12.634  1.00  0.00     0.031 C 
ATOM      9  C   UNL     1      29.827  22.581  12.990  1.00  0.00     0.035 C 
ATOM     10  C   UNL     1      32.112  21.620  12.199  1.00  0.00     0.013 C 
ENDBRANCH   2   4
ENDBRANCH   1   2
BRANCH   1  11
ATOM     11  C   UNL     1      30.413  26.015  10.408  1.00  0.00     0.032 C 
BRANCH  11  12
ATOM     12  C   UNL     1      29.693  27.159  11.081  1.00  0.00    -0.028 C 
ATOM     13  C   UNL     1      30.206  27.835  12.130  1.00  0.00    -0.080 C 
ATOM     14  C   UNL     1      31.556  27.486  12.712  1.00  0.00     0.039 C 
ATOM     15  C   UNL     1      29.405  28.962  12.729  1.00  0.00     0.039 C 
ENDBRANCH  11  12
ENDBRANCH   1  11
TORSDOF 4
ENDMDL
MODEL 9
REMARK VINA RESULT:    -3.993      1.268      6.713
REMARK INTER + INTRA:          -5.445
REMARK INTER:                  -5.410
REMARK INTRA:                  -0.036
REMARK UNBOUND:                -0.518
REMARK SMILES C=C(CCC=C(C)C)[C@H]1CC=C(C)CC1
REMARK SMILES IDX 3 1 2 2 1 3 9 4 13 5 12 6 11 7 14 8 10 9 15 10 4 11 5 12
REMARK SMILES IDX 6 13 7 14 8 15
REMARK H PARENT
REMARK Flexibility Score: inf
ROOT
ATOM      1  C   UNL     1      28.420  24.540  12.954  1.00  0.00     0.035 C 
ENDROOT
BRANCH   1   2
ATOM      2  C   UNL     1      29.852  24.077  12.798  1.00  0.00    -0.074 C 
ATOM      3  C   UNL     1      30.853  24.900  13.157  1.00  0.00     0.008 C 
BRANCH   2   4
ATOM      4  C   UNL     1      30.145  22.694  12.236  1.00  0.00     0.018 C 
ATOM      5  C   UNL     1      32.125  18.901  11.658  1.00  0.00     0.039 C 
ATOM      6  C   UNL     1      31.793  20.323  12.014  1.00  0.00    -0.077 C 
ATOM      7  C   UNL     1      31.862  21.288  11.081  1.00  0.00    -0.027 C 
ATOM      8  C   UNL     1      31.333  20.696  13.404  1.00  0.00     0.031 C 
ATOM      9  C   UNL     1      31.475  22.694  11.444  1.00  0.00     0.035 C 
ATOM     10  C   UNL     1      30.078  21.589  13.341  1.00  0.00     0.013 C 
ENDBRANCH   2   4
ENDBRANCH   1   2
BRANCH   1  11
ATOM     11  C   UNL     1      28.026  25.482  11.811  1.00  0.00     0.032 C 
BRANCH  11  12
ATOM     12  C   UNL     1      29.244  26.099  11.166  1.00  0.00    -0.028 C 
ATOM     13  C   UNL     1      29.405  27.430  11.020  1.00  0.00    -0.080 C 
ATOM     14  C   UNL     1      28.360  28.410  11.499  1.00  0.00     0.039 C 
ATOM     15  C   UNL     1      30.660  27.941  10.361  1.00  0.00     0.039 C 
ENDBRANCH  11  12
ENDBRANCH   1  11
TORSDOF 4
ENDMDL
