MODEL 1
REMARK VINA RESULT:    -3.745      0.000      0.000
REMARK INTER + INTRA:          -4.437
REMARK INTER:                  -4.402
REMARK INTRA:                  -0.035
REMARK UNBOUND:                -0.035
REMARK SMILES CCCCC(=O)[O-]
REMARK SMILES IDX 4 1 5 2 6 3 7 4 3 5 2 6 1 7
REMARK H PARENT
REMARK Flexibility Score: inf
ROOT
ATOM      1  C   UNL     1      -2.076  37.125  16.910  1.00  0.00     0.053 C 
ENDROOT
BRANCH   1   2
ATOM      2  C   UNL     1      -2.511  37.506  18.291  1.00  0.00     0.041 C 
ATOM      3  O   UNL     1      -1.680  37.978  19.110  1.00  0.00    -0.550 OA
ATOM      4  O   UNL     1      -3.828  37.307  18.686  1.00  0.00    -0.550 OA
ENDBRANCH   1   2
BRANCH   1   5
ATOM      5  C   UNL     1      -3.157  36.325  16.172  1.00  0.00     0.006 C 
BRANCH   5   6
ATOM      6  C   UNL     1      -3.122  36.563  14.656  1.00  0.00    -0.003 C 
ATOM      7  C   UNL     1      -3.999  37.750  14.266  1.00  0.00     0.004 C 
ENDBRANCH   5   6
ENDBRANCH   1   5
TORSDOF 3
ENDMDL
MODEL 2
REMARK VINA RESULT:    -3.455      1.131      1.483
REMARK INTER + INTRA:          -4.096
REMARK INTER:                  -4.072
REMARK INTRA:                  -0.024
REMARK UNBOUND:                -0.035
REMARK SMILES CCCCC(=O)[O-]
REMARK SMILES IDX 4 1 5 2 6 3 7 4 3 5 2 6 1 7
REMARK H PARENT
REMARK Flexibility Score: inf
ROOT
ATOM      1  C   UNL     1      -3.546  36.757  17.771  1.00  0.00     0.053 C 
ENDROOT
BRANCH   1   2
ATOM      2  C   UNL     1      -3.588  37.292  19.169  1.00  0.00     0.041 C 
ATOM      3  O   UNL     1      -2.519  37.565  19.775  1.00  0.00    -0.550 OA
ATOM      4  O   UNL     1      -4.806  37.458  19.815  1.00  0.00    -0.550 OA
ENDBRANCH   1   2
BRANCH   1   5
ATOM      5  C   UNL     1      -2.278  37.198  17.029  1.00  0.00     0.006 C 
BRANCH   5   6
ATOM      6  C   UNL     1      -2.040  36.384  15.750  1.00  0.00    -0.003 C 
ATOM      7  C   UNL     1      -3.118  36.670  14.708  1.00  0.00     0.004 C 
ENDBRANCH   5   6
ENDBRANCH   1   5
TORSDOF 3
ENDMDL
MODEL 3
REMARK VINA RESULT:    -3.405      1.761      2.161
REMARK INTER + INTRA:          -4.037
REMARK INTER:                  -4.018
REMARK INTRA:                  -0.019
REMARK UNBOUND:                -0.035
REMARK SMILES CCCCC(=O)[O-]
REMARK SMILES IDX 4 1 5 2 6 3 7 4 3 5 2 6 1 7
REMARK H PARENT
REMARK Flexibility Score: inf
ROOT
ATOM      1  C   UNL     1      -3.301  37.373  18.461  1.00  0.00     0.053 C 
ENDROOT
BRANCH   1   2
ATOM      2  C   UNL     1      -4.379  36.910  19.394  1.00  0.00     0.041 C 
ATOM      3  O   UNL     1      -4.683  35.691  19.454  1.00  0.00    -0.550 OA
ATOM      4  O   UNL     1      -5.069  37.831  20.171  1.00  0.00    -0.550 OA
ENDBRANCH   1   2
BRANCH   1   5
ATOM      5  C   UNL     1      -3.275  36.550  17.167  1.00  0.00     0.006 C 
BRANCH   5   6
ATOM      6  C   UNL     1      -2.863  37.392  15.952  1.00  0.00    -0.003 C 
ATOM      7  C   UNL     1      -3.264  36.709  14.647  1.00  0.00     0.004 C 
ENDBRANCH   5   6
ENDBRANCH   1   5
TORSDOF 3
ENDMDL
MODEL 4
REMARK VINA RESULT:    -3.352      2.640      3.995
REMARK INTER + INTRA:          -3.975
REMARK INTER:                  -3.955
REMARK INTRA:                  -0.020
REMARK UNBOUND:                -0.035
REMARK SMILES CCCCC(=O)[O-]
REMARK SMILES IDX 4 1 5 2 6 3 7 4 3 5 2 6 1 7
REMARK H PARENT
REMARK Flexibility Score: inf
ROOT
ATOM      1  C   UNL     1      -3.259  36.267  16.299  1.00  0.00     0.053 C 
ENDROOT
BRANCH   1   2
ATOM      2  C   UNL     1      -3.129  36.825  14.916  1.00  0.00     0.041 C 
ATOM      3  O   UNL     1      -2.140  36.520  14.200  1.00  0.00    -0.550 OA
ATOM      4  O   UNL     1      -4.083  37.710  14.429  1.00  0.00    -0.550 OA
ENDBRANCH   1   2
BRANCH   1   5
ATOM      5  C   UNL     1      -2.819  37.278  17.366  1.00  0.00     0.006 C 
BRANCH   5   6
ATOM      6  C   UNL     1      -3.639  37.153  18.657  1.00  0.00    -0.003 C 
ATOM      7  C   UNL     1      -2.786  37.473  19.883  1.00  0.00     0.004 C 
ENDBRANCH   5   6
ENDBRANCH   1   5
TORSDOF 3
ENDMDL
MODEL 5
REMARK VINA RESULT:    -3.192      2.577      3.889
REMARK INTER + INTRA:          -3.787
REMARK INTER:                  -3.769
REMARK INTRA:                  -0.018
REMARK UNBOUND:                -0.035
REMARK SMILES CCCCC(=O)[O-]
REMARK SMILES IDX 4 1 5 2 6 3 7 4 3 5 2 6 1 7
REMARK H PARENT
REMARK Flexibility Score: inf
ROOT
ATOM      1  C   UNL     1      -2.730  37.503  17.681  1.00  0.00     0.053 C 
ENDROOT
BRANCH   1   2
ATOM      2  C   UNL     1      -2.676  37.122  16.234  1.00  0.00     0.041 C 
ATOM      3  O   UNL     1      -1.751  36.382  15.808  1.00  0.00    -0.550 OA
ATOM      4  O   UNL     1      -3.628  37.611  15.349  1.00  0.00    -0.550 OA
ENDBRANCH   1   2
BRANCH   1   5
ATOM      5  C   UNL     1      -3.806  36.714  18.438  1.00  0.00     0.006 C 
BRANCH   5   6
ATOM      6  C   UNL     1      -4.352  37.488  19.646  1.00  0.00    -0.003 C 
ATOM      7  C   UNL     1      -5.125  36.567  20.587  1.00  0.00     0.004 C 
ENDBRANCH   5   6
ENDBRANCH   1   5
TORSDOF 3
ENDMDL
MODEL 6
REMARK VINA RESULT:    -1.879      2.210      3.757
REMARK INTER + INTRA:          -2.244
REMARK INTER:                  -2.232
REMARK INTRA:                  -0.012
REMARK UNBOUND:                -0.035
REMARK SMILES CCCCC(=O)[O-]
REMARK SMILES IDX 4 1 5 2 6 3 7 4 3 5 2 6 1 7
REMARK H PARENT
REMARK Flexibility Score: inf
ROOT
ATOM      1  C   UNL     1      -3.523  37.480  17.740  1.00  0.00     0.053 C 
ENDROOT
BRANCH   1   2
ATOM      2  C   UNL     1      -2.894  36.657  16.658  1.00  0.00     0.041 C 
ATOM      3  O   UNL     1      -1.891  37.091  16.034  1.00  0.00    -0.550 OA
ATOM      4  O   UNL     1      -3.436  35.424  16.317  1.00  0.00    -0.550 OA
ENDBRANCH   1   2
BRANCH   1   5
ATOM      5  C   UNL     1      -2.943  37.146  19.120  1.00  0.00     0.006 C 
BRANCH   5   6
ATOM      6  C   UNL     1      -1.841  38.129  19.540  1.00  0.00    -0.003 C 
ATOM      7  C   UNL     1      -0.471  37.657  19.058  1.00  0.00     0.004 C 
ENDBRANCH   5   6
ENDBRANCH   1   5
TORSDOF 3
ENDMDL
