MODEL 1
REMARK VINA RESULT:    -3.323      0.000      0.000
REMARK INTER + INTRA:          -3.239
REMARK INTER:                  -4.488
REMARK INTRA:                   1.249
REMARK UNBOUND:                 1.249
REMARK SMILES C=C1C(=O)O[C@H]2[C@H]3O[C@]3(C)CCC=C(C)CC[C@@H]12
REMARK SMILES IDX 6 1 18 2 2 3 1 4 3 5 4 6 5 7 17 8 16 9 14 10 15 11 13 12
REMARK SMILES IDX 7 14 9 15 8 16 10 17 11 18 12 19
REMARK H PARENT
REMARK Flexibility Score: 70.00
ROOT
ATOM      1  C   UNL     1      -7.123  -8.321   4.448  1.00  0.00     0.216 C 
ATOM      2  C   UNL     1      -8.679  -8.424   4.640  1.00  0.00     0.070 C 
ATOM      3  C   UNL     1      -9.160  -8.332   3.219  1.00  0.00     0.037 C 
ATOM      4  C   UNL     1     -10.384  -8.628   2.784  1.00  0.00     0.021 C 
ATOM      5  C   UNL     1      -8.059  -7.876   2.400  1.00  0.00     0.334 C 
ATOM      6  O   UNL     1      -8.126  -7.580   1.177  1.00  0.00    -0.247 OA
ATOM      7  O   UNL     1      -6.903  -7.790   3.144  1.00  0.00    -0.455 OA
ENDROOT
BRANCH   2   8
ATOM      8  C   UNL     1      -9.337  -7.293   5.467  1.00  0.00     0.017 C 
BRANCH   8   9
ATOM      9  C   UNL     1      -9.119  -7.407   6.989  1.00  0.00     0.031 C 
BRANCH   9  10
ATOM     10  C   UNL     1      -9.090  -6.028   7.629  1.00  0.00    -0.077 C 
ATOM     11  C   UNL     1     -10.381  -5.249   7.680  1.00  0.00     0.039 C 
ATOM     12  C   UNL     1      -7.971  -5.425   8.101  1.00  0.00    -0.028 CG0
ATOM     13  G   UNL     1      -6.589  -6.032   8.183  1.00  0.00     0.000 G0
ENDBRANCH   9  10
ENDBRANCH   8   9
ENDBRANCH   2   8
BRANCH   1  14
ATOM     14  C   UNL     1      -6.312  -7.634   5.563  1.00  0.00     0.192 C 
ATOM     15  C   UNL     1      -6.123  -6.151   5.673  1.00  0.00     0.096 C 
ATOM     16  O   UNL     1      -5.156  -6.994   5.074  1.00  0.00    -0.362 OA
ATOM     17  C   UNL     1      -6.591  -5.108   4.651  1.00  0.00     0.045 C 
BRANCH  15  18
ATOM     18  C   UNL     1      -5.648  -5.625   7.040  1.00  0.00     0.042 C 
BRANCH  18  19
ATOM     19  C   UNL     1      -6.580  -6.023   8.198  1.00  0.00     0.030 CG0
ATOM     20  G   UNL     1      -7.960  -5.416   8.082  1.00  0.00     0.000 G0
ENDBRANCH  18  19
ENDBRANCH  15  18
ENDBRANCH   1  14
TORSDOF 0
ENDMDL
MODEL 2
REMARK VINA RESULT:    -3.186      1.955      4.466
REMARK INTER + INTRA:          -3.054
REMARK INTER:                  -4.532
REMARK INTRA:                   1.478
REMARK UNBOUND:                 1.249
REMARK SMILES C=C1C(=O)O[C@H]2[C@H]3O[C@]3(C)CCC=C(C)CC[C@@H]12
REMARK SMILES IDX 6 1 18 2 2 3 1 4 3 5 4 6 5 7 17 8 16 9 14 10 15 11 13 12
REMARK SMILES IDX 7 14 9 15 8 16 10 17 11 18 12 19
REMARK H PARENT
REMARK Flexibility Score: 70.00
ROOT
ATOM      1  C   UNL     1      -6.770  -5.497   5.109  1.00  0.00     0.216 C 
ATOM      2  C   UNL     1      -6.922  -5.256   6.654  1.00  0.00     0.070 C 
ATOM      3  C   UNL     1      -5.609  -5.781   7.166  1.00  0.00     0.037 C 
ATOM      4  C   UNL     1      -5.105  -5.581   8.382  1.00  0.00     0.021 C 
ATOM      5  C   UNL     1      -4.982  -6.536   6.105  1.00  0.00     0.334 C 
ATOM      6  O   UNL     1      -3.923  -7.211   6.209  1.00  0.00    -0.247 OA
ATOM      7  O   UNL     1      -5.711  -6.435   4.940  1.00  0.00    -0.455 OA
ENDROOT
BRANCH   2   8
ATOM      8  C   UNL     1      -8.074  -6.019   7.350  1.00  0.00     0.017 C 
BRANCH   8   9
ATOM      9  C   UNL     1      -9.484  -5.500   7.002  1.00  0.00     0.031 C 
BRANCH   9  10
ATOM     10  C   UNL     1     -10.483  -6.646   6.975  1.00  0.00    -0.077 C 
ATOM     11  C   UNL     1     -10.789  -7.342   8.277  1.00  0.00     0.039 C 
ATOM     12  C   UNL     1     -11.072  -7.124   5.851  1.00  0.00    -0.028 CG0
ATOM     13  G   UNL     1     -10.938  -6.558   4.456  1.00  0.00     0.000 G0
ENDBRANCH   9  10
ENDBRANCH   8   9
ENDBRANCH   2   8
BRANCH   1  14
ATOM     14  C   UNL     1      -8.046  -5.824   4.310  1.00  0.00     0.192 C 
ATOM     15  C   UNL     1      -8.500  -7.215   3.984  1.00  0.00     0.096 C 
ATOM     16  O   UNL     1      -7.767  -6.424   3.067  1.00  0.00    -0.362 OA
ATOM     17  C   UNL     1      -7.724  -8.505   4.277  1.00  0.00     0.045 C 
BRANCH  15  18
ATOM     18  C   UNL     1      -9.970  -7.367   3.552  1.00  0.00     0.042 C 
BRANCH  18  19
ATOM     19  C   UNL     1     -10.946  -6.575   4.440  1.00  0.00     0.030 CG0
ATOM     20  G   UNL     1     -11.053  -7.129   5.842  1.00  0.00     0.000 G0
ENDBRANCH  18  19
ENDBRANCH  15  18
ENDBRANCH   1  14
TORSDOF 0
ENDMDL
MODEL 3
REMARK VINA RESULT:    -3.183      9.403     11.921
REMARK INTER + INTRA:          -3.050
REMARK INTER:                  -4.372
REMARK INTRA:                   1.322
REMARK UNBOUND:                 1.249
REMARK SMILES C=C1C(=O)O[C@H]2[C@H]3O[C@]3(C)CCC=C(C)CC[C@@H]12
REMARK SMILES IDX 6 1 18 2 2 3 1 4 3 5 4 6 5 7 17 8 16 9 14 10 15 11 13 12
REMARK SMILES IDX 7 14 9 15 8 16 10 17 11 18 12 19
REMARK H PARENT
REMARK Flexibility Score: 70.00
ROOT
ATOM      1  C   UNL     1      -1.582   1.998   8.922  1.00  0.00     0.216 C 
ATOM      2  C   UNL     1      -2.039   0.601   8.368  1.00  0.00     0.070 C 
ATOM      3  C   UNL     1      -3.402   0.467   8.987  1.00  0.00     0.037 C 
ATOM      4  C   UNL     1      -4.339  -0.414   8.639  1.00  0.00     0.021 C 
ATOM      5  C   UNL     1      -3.526   1.468  10.023  1.00  0.00     0.334 C 
ATOM      6  O   UNL     1      -4.491   1.580  10.825  1.00  0.00    -0.247 OA
ATOM      7  O   UNL     1      -2.425   2.295  10.033  1.00  0.00    -0.455 OA
ENDROOT
BRANCH   2   8
ATOM      8  C   UNL     1      -1.175  -0.612   8.788  1.00  0.00     0.017 C 
BRANCH   8   9
ATOM      9  C   UNL     1       0.177  -0.718   8.053  1.00  0.00     0.031 C 
BRANCH   9  10
ATOM     10  C   UNL     1       1.220  -1.373   8.944  1.00  0.00    -0.077 C 
ATOM     11  C   UNL     1       1.032  -2.829   9.292  1.00  0.00     0.039 C 
ATOM     12  C   UNL     1       2.275  -0.724   9.495  1.00  0.00    -0.028 CG0
ATOM     13  G   UNL     1       2.672   0.714   9.252  1.00  0.00     0.000 G0
ENDBRANCH   9  10
ENDBRANCH   8   9
ENDBRANCH   2   8
BRANCH   1  14
ATOM     14  C   UNL     1      -0.079   2.202   9.189  1.00  0.00     0.192 C 
ATOM     15  C   UNL     1       0.621   1.759  10.439  1.00  0.00     0.096 C 
ATOM     16  O   UNL     1       0.166   3.087  10.257  1.00  0.00    -0.362 OA
ATOM     17  C   UNL     1      -0.051   1.158  11.679  1.00  0.00     0.045 C 
BRANCH  15  18
ATOM     18  C   UNL     1       2.157   1.671  10.364  1.00  0.00     0.042 C 
BRANCH  18  19
ATOM     19  C   UNL     1       2.655   0.724   9.258  1.00  0.00     0.030 CG0
ATOM     20  G   UNL     1       2.262  -0.717   9.492  1.00  0.00     0.000 G0
ENDBRANCH  18  19
ENDBRANCH  15  18
ENDBRANCH   1  14
TORSDOF 0
ENDMDL
MODEL 4
REMARK VINA RESULT:    -3.132     11.087     13.270
REMARK INTER + INTRA:          -2.981
REMARK INTER:                  -4.240
REMARK INTRA:                   1.259
REMARK UNBOUND:                 1.249
REMARK SMILES C=C1C(=O)O[C@H]2[C@H]3O[C@]3(C)CCC=C(C)CC[C@@H]12
REMARK SMILES IDX 6 1 18 2 2 3 1 4 3 5 4 6 5 7 17 8 16 9 14 10 15 11 13 12
REMARK SMILES IDX 7 14 9 15 8 16 10 17 11 18 12 19
REMARK H PARENT
REMARK Flexibility Score: 70.00
ROOT
ATOM      1  C   UNL     1       1.492   2.777   9.391  1.00  0.00     0.216 C 
ATOM      2  C   UNL     1       2.913   2.110   9.335  1.00  0.00     0.070 C 
ATOM      3  C   UNL     1       3.482   2.728   8.089  1.00  0.00     0.037 C 
ATOM      4  C   UNL     1       4.761   2.709   7.716  1.00  0.00     0.021 C 
ATOM      5  C   UNL     1       2.400   3.357   7.364  1.00  0.00     0.334 C 
ATOM      6  O   UNL     1       2.486   3.878   6.220  1.00  0.00    -0.247 OA
ATOM      7  O   UNL     1       1.232   3.301   8.091  1.00  0.00    -0.455 OA
ENDROOT
BRANCH   2   8
ATOM      8  C   UNL     1       2.935   0.570   9.188  1.00  0.00     0.017 C 
BRANCH   8   9
ATOM      9  C   UNL     1       2.592  -0.199  10.480  1.00  0.00     0.031 C 
BRANCH   9  10
ATOM     10  C   UNL     1       1.910  -1.518  10.151  1.00  0.00    -0.077 C 
ATOM     11  C   UNL     1       2.740  -2.594   9.496  1.00  0.00     0.039 C 
ATOM     12  C   UNL     1       0.594  -1.771  10.351  1.00  0.00    -0.028 CG0
ATOM     13  G   UNL     1      -0.406  -0.857  11.022  1.00  0.00     0.000 G0
ENDBRANCH   9  10
ENDBRANCH   8   9
ENDBRANCH   2   8
BRANCH   1  14
ATOM     14  C   UNL     1       0.339   1.948   9.987  1.00  0.00     0.192 C 
ATOM     15  C   UNL     1      -0.469   0.952   9.211  1.00  0.00     0.096 C 
ATOM     16  O   UNL     1      -0.911   2.279   9.428  1.00  0.00    -0.362 OA
ATOM     17  C   UNL     1      -0.366   0.691   7.703  1.00  0.00     0.045 C 
BRANCH  15  18
ATOM     18  C   UNL     1      -1.283  -0.059  10.040  1.00  0.00     0.042 C 
BRANCH  18  19
ATOM     19  C   UNL     1      -0.422  -0.855  11.037  1.00  0.00     0.030 CG0
ATOM     20  G   UNL     1       0.586  -1.755  10.360  1.00  0.00     0.000 G0
ENDBRANCH  18  19
ENDBRANCH  15  18
ENDBRANCH   1  14
TORSDOF 0
ENDMDL
MODEL 5
REMARK VINA RESULT:    -3.041     10.685     13.182
REMARK INTER + INTRA:          -2.859
REMARK INTER:                  -4.133
REMARK INTRA:                   1.275
REMARK UNBOUND:                 1.249
REMARK SMILES C=C1C(=O)O[C@H]2[C@H]3O[C@]3(C)CCC=C(C)CC[C@@H]12
REMARK SMILES IDX 6 1 18 2 2 3 1 4 3 5 4 6 5 7 17 8 16 9 14 10 15 11 13 12
REMARK SMILES IDX 7 14 9 15 8 16 10 17 11 18 12 19
REMARK H PARENT
REMARK Flexibility Score: 70.00
ROOT
ATOM      1  C   UNL     1      -0.285   1.156   8.014  1.00  0.00     0.216 C 
ATOM      2  C   UNL     1       0.734  -0.027   8.185  1.00  0.00     0.070 C 
ATOM      3  C   UNL     1      -0.189  -1.170   8.500  1.00  0.00     0.037 C 
ATOM      4  C   UNL     1       0.128  -2.464   8.482  1.00  0.00     0.021 C 
ATOM      5  C   UNL     1      -1.489  -0.624   8.820  1.00  0.00     0.334 C 
ATOM      6  O   UNL     1      -2.480  -1.280   9.239  1.00  0.00    -0.247 OA
ATOM      7  O   UNL     1      -1.507   0.738   8.618  1.00  0.00    -0.455 OA
ENDROOT
BRANCH   2   8
ATOM      8  C   UNL     1       1.760   0.122   9.335  1.00  0.00     0.017 C 
BRANCH   8   9
ATOM      9  C   UNL     1       2.932   1.075   9.024  1.00  0.00     0.031 C 
BRANCH   9  10
ATOM     10  C   UNL     1       3.438   1.733  10.298  1.00  0.00    -0.077 C 
ATOM     11  C   UNL     1       4.174   0.868  11.290  1.00  0.00     0.039 C 
ATOM     12  C   UNL     1       3.220   3.029  10.630  1.00  0.00    -0.028 CG0
ATOM     13  G   UNL     1       2.544   4.075   9.773  1.00  0.00     0.000 G0
ENDBRANCH   9  10
ENDBRANCH   8   9
ENDBRANCH   2   8
BRANCH   1  14
ATOM     14  C   UNL     1       0.182   2.564   8.428  1.00  0.00     0.192 C 
ATOM     15  C   UNL     1       0.206   3.061   9.842  1.00  0.00     0.096 C 
ATOM     16  O   UNL     1      -0.862   3.347   8.958  1.00  0.00    -0.362 OA
ATOM     17  C   UNL     1      -0.335   2.311  11.066  1.00  0.00     0.045 C 
BRANCH  15  18
ATOM     18  C   UNL     1       1.068   4.308  10.112  1.00  0.00     0.042 C 
BRANCH  18  19
ATOM     19  C   UNL     1       2.556   4.096   9.785  1.00  0.00     0.030 CG0
ATOM     20  G   UNL     1       3.200   3.019  10.629  1.00  0.00     0.000 G0
ENDBRANCH  18  19
ENDBRANCH  15  18
ENDBRANCH   1  14
TORSDOF 0
ENDMDL
MODEL 6
REMARK VINA RESULT:    -3.034     18.770     20.547
REMARK INTER + INTRA:          -2.848
REMARK INTER:                  -4.141
REMARK INTRA:                   1.293
REMARK UNBOUND:                 1.249
REMARK SMILES C=C1C(=O)O[C@H]2[C@H]3O[C@]3(C)CCC=C(C)CC[C@@H]12
REMARK SMILES IDX 6 1 18 2 2 3 1 4 3 5 4 6 5 7 17 8 16 9 14 10 15 11 13 12
REMARK SMILES IDX 7 14 9 15 8 16 10 17 11 18 12 19
REMARK H PARENT
REMARK Flexibility Score: 70.00
ROOT
ATOM      1  C   UNL     1       3.446   6.605   0.456  1.00  0.00     0.216 C 
ATOM      2  C   UNL     1       4.900   6.441   1.028  1.00  0.00     0.070 C 
ATOM      3  C   UNL     1       4.849   7.339   2.231  1.00  0.00     0.037 C 
ATOM      4  C   UNL     1       5.735   7.370   3.226  1.00  0.00     0.021 C 
ATOM      5  C   UNL     1       3.665   8.162   2.129  1.00  0.00     0.334 C 
ATOM      6  O   UNL     1       3.357   9.106   2.904  1.00  0.00    -0.247 OA
ATOM      7  O   UNL     1       2.903   7.784   1.045  1.00  0.00    -0.455 OA
ENDROOT
BRANCH   2   8
ATOM      8  C   UNL     1       6.050   6.905   0.102  1.00  0.00     0.017 C 
BRANCH   8   9
ATOM      9  C   UNL     1       6.340   5.957  -1.080  1.00  0.00     0.031 C 
BRANCH   9  10
ATOM     10  C   UNL     1       6.826   6.743  -2.288  1.00  0.00    -0.077 C 
ATOM     11  C   UNL     1       8.186   7.389  -2.205  1.00  0.00     0.039 C 
ATOM     12  C   UNL     1       6.096   6.953  -3.410  1.00  0.00    -0.028 CG0
ATOM     13  G   UNL     1       4.734   6.373  -3.719  1.00  0.00     0.000 G0
ENDBRANCH   9  10
ENDBRANCH   8   9
ENDBRANCH   2   8
BRANCH   1  14
ATOM     14  C   UNL     1       3.266   6.513  -1.071  1.00  0.00     0.192 C 
ATOM     15  C   UNL     1       3.367   7.684  -2.001  1.00  0.00     0.096 C 
ATOM     16  O   UNL     1       2.125   7.203  -1.523  1.00  0.00    -0.362 OA
ATOM     17  C   UNL     1       3.538   9.151  -1.584  1.00  0.00     0.045 C 
BRANCH  15  18
ATOM     18  C   UNL     1       3.567   7.355  -3.492  1.00  0.00     0.042 C 
BRANCH  18  19
ATOM     19  C   UNL     1       4.728   6.377  -3.744  1.00  0.00     0.030 CG0
ATOM     20  G   UNL     1       6.080   6.968  -3.415  1.00  0.00     0.000 G0
ENDBRANCH  18  19
ENDBRANCH  15  18
ENDBRANCH   1  14
TORSDOF 0
ENDMDL
MODEL 7
REMARK VINA RESULT:    -3.015     12.540     15.147
REMARK INTER + INTRA:          -2.823
REMARK INTER:                  -4.146
REMARK INTRA:                   1.323
REMARK UNBOUND:                 1.249
REMARK SMILES C=C1C(=O)O[C@H]2[C@H]3O[C@]3(C)CCC=C(C)CC[C@@H]12
REMARK SMILES IDX 6 1 18 2 2 3 1 4 3 5 4 6 5 7 17 8 16 9 14 10 15 11 13 12
REMARK SMILES IDX 7 14 9 15 8 16 10 17 11 18 12 19
REMARK H PARENT
REMARK Flexibility Score: 70.00
ROOT
ATOM      1  C   UNL     1       4.264   3.474   9.416  1.00  0.00     0.216 C 
ATOM      2  C   UNL     1       4.198   1.921   9.645  1.00  0.00     0.070 C 
ATOM      3  C   UNL     1       5.480   1.472   9.001  1.00  0.00     0.037 C 
ATOM      4  C   UNL     1       6.051   0.276   9.139  1.00  0.00     0.021 C 
ATOM      5  C   UNL     1       5.995   2.568   8.211  1.00  0.00     0.334 C 
ATOM      6  O   UNL     1       6.995   2.517   7.446  1.00  0.00    -0.247 OA
ATOM      7  O   UNL     1       5.230   3.699   8.393  1.00  0.00    -0.455 OA
ENDROOT
BRANCH   2   8
ATOM      8  C   UNL     1       3.014   1.185   8.973  1.00  0.00     0.017 C 
BRANCH   8   9
ATOM      9  C   UNL     1       1.649   1.424   9.649  1.00  0.00     0.031 C 
BRANCH   9  10
ATOM     10  C   UNL     1       0.530   1.390   8.621  1.00  0.00    -0.077 C 
ATOM     11  C   UNL     1       0.228   0.071   7.954  1.00  0.00     0.039 C 
ATOM     12  C   UNL     1      -0.174   2.476   8.217  1.00  0.00    -0.028 CG0
ATOM     13  G   UNL     1      -0.064   3.877   8.774  1.00  0.00     0.000 G0
ENDBRANCH   9  10
ENDBRANCH   8   9
ENDBRANCH   2   8
BRANCH   1  14
ATOM     14  C   UNL     1       2.932   4.221   9.213  1.00  0.00     0.192 C 
ATOM     15  C   UNL     1       2.286   4.439   7.878  1.00  0.00     0.096 C 
ATOM     16  O   UNL     1       3.091   5.424   8.498  1.00  0.00    -0.362 OA
ATOM     17  C   UNL     1       2.891   4.072   6.516  1.00  0.00     0.045 C 
BRANCH  15  18
ATOM     18  C   UNL     1       0.796   4.828   7.897  1.00  0.00     0.042 C 
BRANCH  18  19
ATOM     19  C   UNL     1      -0.060   3.897   8.774  1.00  0.00     0.030 CG0
ATOM     20  G   UNL     1      -0.156   2.492   8.225  1.00  0.00     0.000 G0
ENDBRANCH  18  19
ENDBRANCH  15  18
ENDBRANCH   1  14
TORSDOF 0
ENDMDL
MODEL 8
REMARK VINA RESULT:    -2.996     12.582     14.556
REMARK INTER + INTRA:          -2.797
REMARK INTER:                  -4.054
REMARK INTRA:                   1.257
REMARK UNBOUND:                 1.249
REMARK SMILES C=C1C(=O)O[C@H]2[C@H]3O[C@]3(C)CCC=C(C)CC[C@@H]12
REMARK SMILES IDX 6 1 18 2 2 3 1 4 3 5 4 6 5 7 17 8 16 9 14 10 15 11 13 12
REMARK SMILES IDX 7 14 9 15 8 16 10 17 11 18 12 19
REMARK H PARENT
REMARK Flexibility Score: 70.00
ROOT
ATOM      1  C   UNL     1       1.558  -0.622  -4.277  1.00  0.00     0.216 C 
ATOM      2  C   UNL     1       2.485  -1.187  -3.142  1.00  0.00     0.070 C 
ATOM      3  C   UNL     1       3.850  -0.917  -3.712  1.00  0.00     0.037 C 
ATOM      4  C   UNL     1       5.002  -0.962  -3.045  1.00  0.00     0.021 C 
ATOM      5  C   UNL     1       3.696  -0.591  -5.112  1.00  0.00     0.334 C 
ATOM      6  O   UNL     1       4.635  -0.414  -5.933  1.00  0.00    -0.247 OA
ATOM      7  O   UNL     1       2.363  -0.509  -5.448  1.00  0.00    -0.455 OA
ENDROOT
BRANCH   2   8
ATOM      8  C   UNL     1       2.354  -2.701  -2.848  1.00  0.00     0.017 C 
BRANCH   8   9
ATOM      9  C   UNL     1       1.088  -3.090  -2.058  1.00  0.00     0.031 C 
BRANCH   9  10
ATOM     10  C   UNL     1       0.627  -4.487  -2.441  1.00  0.00    -0.077 C 
ATOM     11  C   UNL     1       1.492  -5.651  -2.026  1.00  0.00     0.039 C 
ATOM     12  C   UNL     1      -0.476  -4.755  -3.183  1.00  0.00    -0.028 CG0
ATOM     13  G   UNL     1      -1.497  -3.752  -3.670  1.00  0.00     0.000 G0
ENDBRANCH   9  10
ENDBRANCH   8   9
ENDBRANCH   2   8
BRANCH   1  14
ATOM     14  C   UNL     1       0.201  -1.317  -4.500  1.00  0.00     0.192 C 
ATOM     15  C   UNL     1       0.009  -2.531  -5.357  1.00  0.00     0.096 C 
ATOM     16  O   UNL     1      -0.242  -1.222  -5.833  1.00  0.00    -0.362 OA
ATOM     17  C   UNL     1       1.082  -3.193  -6.232  1.00  0.00     0.045 C 
BRANCH  15  18
ATOM     18  C   UNL     1      -1.297  -3.317  -5.143  1.00  0.00     0.042 C 
BRANCH  18  19
ATOM     19  C   UNL     1      -1.508  -3.752  -3.681  1.00  0.00     0.030 CG0
ATOM     20  G   UNL     1      -0.470  -4.742  -3.204  1.00  0.00     0.000 G0
ENDBRANCH  18  19
ENDBRANCH  15  18
ENDBRANCH   1  14
TORSDOF 0
ENDMDL
MODEL 9
REMARK VINA RESULT:    -2.867      9.851     12.119
REMARK INTER + INTRA:          -2.623
REMARK INTER:                  -4.012
REMARK INTRA:                   1.389
REMARK UNBOUND:                 1.249
REMARK SMILES C=C1C(=O)O[C@H]2[C@H]3O[C@]3(C)CCC=C(C)CC[C@@H]12
REMARK SMILES IDX 6 1 18 2 2 3 1 4 3 5 4 6 5 7 17 8 16 9 14 10 15 11 13 12
REMARK SMILES IDX 7 14 9 15 8 16 10 17 11 18 12 19
REMARK H PARENT
REMARK Flexibility Score: 70.00
ROOT
ATOM      1  C   UNL     1      -0.096  -1.233   8.097  1.00  0.00     0.216 C 
ATOM      2  C   UNL     1       1.211  -1.834   8.728  1.00  0.00     0.070 C 
ATOM      3  C   UNL     1       0.668  -3.040   9.442  1.00  0.00     0.037 C 
ATOM      4  C   UNL     1       1.384  -4.053   9.928  1.00  0.00     0.021 C 
ATOM      5  C   UNL     1      -0.771  -2.917   9.505  1.00  0.00     0.334 C 
ATOM      6  O   UNL     1      -1.549  -3.688  10.126  1.00  0.00    -0.247 OA
ATOM      7  O   UNL     1      -1.195  -1.815   8.794  1.00  0.00    -0.455 OA
ENDROOT
BRANCH   2   8
ATOM      8  C   UNL     1       1.947  -0.935   9.750  1.00  0.00     0.017 C 
BRANCH   8   9
ATOM      9  C   UNL     1       2.684   0.268   9.125  1.00  0.00     0.031 C 
BRANCH   9  10
ATOM     10  C   UNL     1       2.674   1.453  10.077  1.00  0.00    -0.077 C 
ATOM     11  C   UNL     1       3.452   1.329  11.363  1.00  0.00     0.039 C 
ATOM     12  C   UNL     1       1.964   2.591   9.877  1.00  0.00    -0.028 CG0
ATOM     13  G   UNL     1       1.151   2.940   8.651  1.00  0.00     0.000 G0
ENDBRANCH   9  10
ENDBRANCH   8   9
ENDBRANCH   2   8
BRANCH   1  14
ATOM     14  C   UNL     1      -0.175   0.298   7.946  1.00  0.00     0.192 C 
ATOM     15  C   UNL     1      -0.737   1.218   8.988  1.00  0.00     0.096 C 
ATOM     16  O   UNL     1      -1.502   0.767   7.886  1.00  0.00    -0.362 OA
ATOM     17  C   UNL     1      -1.421   0.788  10.292  1.00  0.00     0.045 C 
BRANCH  15  18
ATOM     18  C   UNL     1      -0.368   2.707   8.852  1.00  0.00     0.042 C 
BRANCH  18  19
ATOM     19  C   UNL     1       1.139   2.939   8.647  1.00  0.00     0.030 CG0
ATOM     20  G   UNL     1       1.961   2.604   9.870  1.00  0.00     0.000 G0
ENDBRANCH  18  19
ENDBRANCH  15  18
ENDBRANCH   1  14
TORSDOF 0
ENDMDL
