MODEL 1
REMARK VINA RESULT:    -3.478      0.000      0.000
REMARK INTER + INTRA:          -3.485
REMARK INTER:                  -3.783
REMARK INTRA:                   0.298
REMARK UNBOUND:                 0.298
REMARK SMILES CC(C)c1cc2c(cc1O)[C@@]1(C)CCCC(C)(C)[C@H]1CC2=O
REMARK SMILES IDX 4 1 9 2 8 3 7 4 6 5 5 6 21 7 22 8 20 9 19 10 11 11 13 12
REMARK SMILES IDX 14 13 15 14 16 15 17 16 18 17 12 18 2 19 1 20 3 21 10 22
REMARK H PARENT 10 23
REMARK Flexibility Score: inf
ROOT
ATOM      1  C   UNL     1      74.044  33.768  53.609  1.00  0.00    -0.003 A 
ATOM      2  C   UNL     1      74.371  35.128  53.467  1.00  0.00     0.119 A 
ATOM      3  C   UNL     1      75.573  35.499  52.852  1.00  0.00     0.051 A 
ATOM      4  C   UNL     1      76.474  34.537  52.340  1.00  0.00    -0.027 A 
ATOM      5  C   UNL     1      76.177  33.177  52.563  1.00  0.00     0.022 A 
ATOM      6  C   UNL     1      74.964  32.804  53.167  1.00  0.00     0.020 A 
ATOM      7  C   UNL     1      77.168  32.149  52.232  1.00  0.00     0.163 C 
ATOM      8  O   UNL     1      76.860  30.926  52.246  1.00  0.00    -0.294 OA
ATOM      9  C   UNL     1      78.571  32.555  51.951  1.00  0.00     0.086 C 
ATOM     10  C   UNL     1      78.609  33.785  51.010  1.00  0.00     0.013 C 
ATOM     11  C   UNL     1      77.774  34.999  51.624  1.00  0.00    -0.003 C 
ATOM     12  C   UNL     1      78.631  35.736  52.697  1.00  0.00     0.012 C 
ATOM     13  C   UNL     1      80.037  36.124  52.233  1.00  0.00     0.001 C 
ATOM     14  C   UNL     1      80.819  34.915  51.726  1.00  0.00     0.007 C 
ATOM     15  C   UNL     1      80.098  34.158  50.582  1.00  0.00    -0.031 C 
ATOM     16  C   UNL     1      80.939  32.892  50.256  1.00  0.00     0.011 C 
ATOM     17  C   UNL     1      80.122  35.006  49.280  1.00  0.00     0.011 C 
ATOM     18  C   UNL     1      77.352  35.982  50.477  1.00  0.00     0.017 C 
ENDROOT
BRANCH   1  19
ATOM     19  C   UNL     1      72.741  33.341  54.270  1.00  0.00     0.017 C 
ATOM     20  C   UNL     1      71.531  33.882  53.499  1.00  0.00     0.012 C 
ATOM     21  C   UNL     1      72.694  33.772  55.742  1.00  0.00     0.012 C 
ENDBRANCH   1  19
BRANCH   2  22
ATOM     22  O   UNL     1      73.506  36.118  53.935  1.00  0.00    -0.508 OA
ATOM     23  H   UNL     1      72.582  36.250  53.541  1.00  0.00     0.293 HD
ENDBRANCH   2  22
TORSDOF 2
ENDMDL
MODEL 2
REMARK VINA RESULT:    -1.897      1.730      6.161
REMARK INTER + INTRA:          -1.765
REMARK INTER:                  -1.643
REMARK INTRA:                  -0.122
REMARK UNBOUND:                 0.298
REMARK SMILES CC(C)c1cc2c(cc1O)[C@@]1(C)CCCC(C)(C)[C@H]1CC2=O
REMARK SMILES IDX 4 1 9 2 8 3 7 4 6 5 5 6 21 7 22 8 20 9 19 10 11 11 13 12
REMARK SMILES IDX 14 13 15 14 16 15 17 16 18 17 12 18 2 19 1 20 3 21 10 22
REMARK H PARENT 10 23
REMARK Flexibility Score: inf
ROOT
ATOM      1  C   UNL     1      79.616  33.788  50.987  1.00  0.00    -0.003 A 
ATOM      2  C   UNL     1      79.248  35.145  51.019  1.00  0.00     0.119 A 
ATOM      3  C   UNL     1      78.014  35.525  51.563  1.00  0.00     0.051 A 
ATOM      4  C   UNL     1      77.120  34.576  52.112  1.00  0.00    -0.027 A 
ATOM      5  C   UNL     1      77.462  33.212  51.999  1.00  0.00     0.022 A 
ATOM      6  C   UNL     1      78.706  32.832  51.466  1.00  0.00     0.020 A 
ATOM      7  C   UNL     1      76.486  32.182  52.369  1.00  0.00     0.163 C 
ATOM      8  O   UNL     1      76.826  30.971  52.455  1.00  0.00    -0.294 OA
ATOM      9  C   UNL     1      75.063  32.567  52.571  1.00  0.00     0.086 C 
ATOM     10  C   UNL     1      74.959  33.860  53.418  1.00  0.00     0.013 C 
ATOM     11  C   UNL     1      75.784  35.051  52.746  1.00  0.00    -0.003 C 
ATOM     12  C   UNL     1      74.948  35.684  51.593  1.00  0.00     0.012 C 
ATOM     13  C   UNL     1      73.516  36.064  51.979  1.00  0.00     0.001 C 
ATOM     14  C   UNL     1      72.747  34.872  52.545  1.00  0.00     0.007 C 
ATOM     15  C   UNL     1      73.446  34.220  53.766  1.00  0.00    -0.031 C 
ATOM     16  C   UNL     1      72.627  32.957  54.154  1.00  0.00     0.011 C 
ATOM     17  C   UNL     1      73.351  35.158  55.001  1.00  0.00     0.011 C 
ATOM     18  C   UNL     1      76.138  36.125  53.833  1.00  0.00     0.017 C 
ENDROOT
BRANCH   1  19
ATOM     19  C   UNL     1      80.953  33.352  50.405  1.00  0.00     0.017 C 
ATOM     20  C   UNL     1      80.949  33.463  48.876  1.00  0.00     0.012 C 
ATOM     21  C   UNL     1      81.319  31.931  50.854  1.00  0.00     0.012 C 
ENDBRANCH   1  19
BRANCH   2  22
ATOM     22  O   UNL     1      80.103  36.123  50.510  1.00  0.00    -0.508 OA
ATOM     23  H   UNL     1      80.746  35.928  49.751  1.00  0.00     0.293 HD
ENDBRANCH   2  22
TORSDOF 2
ENDMDL
