MODEL 1
REMARK VINA RESULT:    -3.639      0.000      0.000
REMARK INTER + INTRA:          -5.493
REMARK INTER:                  -5.128
REMARK INTRA:                  -0.364
REMARK UNBOUND:                -0.364
REMARK SMILES C=CCCCCCCC(=O)[O-]
REMARK SMILES IDX 6 1 7 2 8 3 9 4 10 5 11 6 5 7 4 8 3 9 2 10 1 11
REMARK H PARENT
REMARK Flexibility Score: inf
ROOT
ATOM      1  C   UNL     1      57.494  28.709  51.323  1.00  0.00     0.000 C 
ENDROOT
BRANCH   1   2
ATOM      2  C   UNL     1      58.797  29.236  50.696  1.00  0.00     0.006 C 
BRANCH   2   3
ATOM      3  C   UNL     1      59.007  28.751  49.257  1.00  0.00     0.053 C 
BRANCH   3   4
ATOM      4  C   UNL     1      59.892  27.546  49.235  1.00  0.00     0.041 C 
ATOM      5  O   UNL     1      61.141  27.678  49.155  1.00  0.00    -0.550 OA
ATOM      6  O   UNL     1      59.334  26.273  49.254  1.00  0.00    -0.550 OA
ENDBRANCH   3   4
ENDBRANCH   2   3
ENDBRANCH   1   2
BRANCH   1   7
ATOM      7  C   UNL     1      56.471  28.204  50.284  1.00  0.00     0.000 C 
BRANCH   7   8
ATOM      8  C   UNL     1      55.062  28.767  50.537  1.00  0.00     0.004 C 
BRANCH   8   9
ATOM      9  C   UNL     1      53.964  27.871  49.943  1.00  0.00     0.027 C 
BRANCH   9  10
ATOM     10  C   UNL     1      54.466  26.487  49.624  1.00  0.00    -0.035 C 
ATOM     11  C   UNL     1      53.687  25.572  49.038  1.00  0.00     0.004 C 
ENDBRANCH   9  10
ENDBRANCH   8   9
ENDBRANCH   7   8
ENDBRANCH   1   7
TORSDOF 7
ENDMDL
MODEL 2
REMARK VINA RESULT:    -3.556     12.623     14.379
REMARK INTER + INTRA:          -5.376
REMARK INTER:                  -5.074
REMARK INTRA:                  -0.302
REMARK UNBOUND:                -0.364
REMARK SMILES C=CCCCCCCC(=O)[O-]
REMARK SMILES IDX 6 1 7 2 8 3 9 4 10 5 11 6 5 7 4 8 3 9 2 10 1 11
REMARK H PARENT
REMARK Flexibility Score: inf
ROOT
ATOM      1  C   UNL     1      61.423  32.400  60.430  1.00  0.00     0.000 C 
ENDROOT
BRANCH   1   2
ATOM      2  C   UNL     1      61.147  31.471  61.624  1.00  0.00     0.006 C 
BRANCH   2   3
ATOM      3  C   UNL     1      61.177  29.985  61.245  1.00  0.00     0.053 C 
BRANCH   3   4
ATOM      4  C   UNL     1      62.465  29.361  61.678  1.00  0.00     0.041 C 
ATOM      5  O   UNL     1      62.538  28.117  61.858  1.00  0.00    -0.550 OA
ATOM      6  O   UNL     1      63.574  30.160  61.931  1.00  0.00    -0.550 OA
ENDBRANCH   3   4
ENDBRANCH   2   3
ENDBRANCH   1   2
BRANCH   1   7
ATOM      7  C   UNL     1      62.430  33.526  60.745  1.00  0.00     0.000 C 
BRANCH   7   8
ATOM      8  C   UNL     1      61.804  34.924  60.593  1.00  0.00     0.004 C 
BRANCH   8   9
ATOM      9  C   UNL     1      62.653  36.015  61.263  1.00  0.00     0.027 C 
BRANCH   9  10
ATOM     10  C   UNL     1      64.039  35.534  61.602  1.00  0.00    -0.035 C 
ATOM     11  C   UNL     1      64.926  36.320  62.220  1.00  0.00     0.004 C 
ENDBRANCH   9  10
ENDBRANCH   8   9
ENDBRANCH   7   8
ENDBRANCH   1   7
TORSDOF 7
ENDMDL
MODEL 3
REMARK VINA RESULT:    -3.455      1.335      2.035
REMARK INTER + INTRA:          -5.233
REMARK INTER:                  -4.840
REMARK INTRA:                  -0.393
REMARK UNBOUND:                -0.364
REMARK SMILES C=CCCCCCCC(=O)[O-]
REMARK SMILES IDX 6 1 7 2 8 3 9 4 10 5 11 6 5 7 4 8 3 9 2 10 1 11
REMARK H PARENT
REMARK Flexibility Score: inf
ROOT
ATOM      1  C   UNL     1      58.408  28.883  49.507  1.00  0.00     0.000 C 
ENDROOT
BRANCH   1   2
ATOM      2  C   UNL     1      59.675  28.142  49.044  1.00  0.00     0.006 C 
BRANCH   2   3
ATOM      3  C   UNL     1      59.700  26.672  49.481  1.00  0.00     0.053 C 
BRANCH   3   4
ATOM      4  C   UNL     1      61.018  26.336  50.105  1.00  0.00     0.041 C 
ATOM      5  O   UNL     1      61.067  25.895  51.283  1.00  0.00    -0.550 OA
ATOM      6  O   UNL     1      62.196  26.556  49.402  1.00  0.00    -0.550 OA
ENDBRANCH   3   4
ENDBRANCH   2   3
ENDBRANCH   1   2
BRANCH   1   7
ATOM      7  C   UNL     1      57.677  28.185  50.673  1.00  0.00     0.000 C 
BRANCH   7   8
ATOM      8  C   UNL     1      56.215  27.854  50.326  1.00  0.00     0.004 C 
BRANCH   8   9
ATOM      9  C   UNL     1      55.985  26.343  50.168  1.00  0.00     0.027 C 
BRANCH   9  10
ATOM     10  C   UNL     1      54.724  26.033  49.406  1.00  0.00    -0.035 C 
ATOM     11  C   UNL     1      53.638  26.807  49.495  1.00  0.00     0.004 C 
ENDBRANCH   9  10
ENDBRANCH   8   9
ENDBRANCH   7   8
ENDBRANCH   1   7
TORSDOF 7
ENDMDL
MODEL 4
REMARK VINA RESULT:    -3.454      2.802      4.900
REMARK INTER + INTRA:          -5.232
REMARK INTER:                  -4.622
REMARK INTRA:                  -0.610
REMARK UNBOUND:                -0.364
REMARK SMILES C=CCCCCCCC(=O)[O-]
REMARK SMILES IDX 6 1 7 2 8 3 9 4 10 5 11 6 5 7 4 8 3 9 2 10 1 11
REMARK H PARENT
REMARK Flexibility Score: inf
ROOT
ATOM      1  C   UNL     1      57.190  29.062  50.974  1.00  0.00     0.000 C 
ENDROOT
BRANCH   1   2
ATOM      2  C   UNL     1      55.773  28.532  50.695  1.00  0.00     0.006 C 
BRANCH   2   3
ATOM      3  C   UNL     1      55.765  27.086  50.186  1.00  0.00     0.053 C 
BRANCH   3   4
ATOM      4  C   UNL     1      54.439  26.753  49.579  1.00  0.00     0.041 C 
ATOM      5  O   UNL     1      54.233  25.609  49.096  1.00  0.00    -0.550 OA
ATOM      6  O   UNL     1      53.447  27.722  49.502  1.00  0.00    -0.550 OA
ENDBRANCH   3   4
ENDBRANCH   2   3
ENDBRANCH   1   2
BRANCH   1   7
ATOM      7  C   UNL     1      58.094  29.095  49.724  1.00  0.00     0.000 C 
BRANCH   7   8
ATOM      8  C   UNL     1      59.544  28.693  50.046  1.00  0.00     0.004 C 
BRANCH   8   9
ATOM      9  C   UNL     1      60.043  27.552  49.147  1.00  0.00     0.027 C 
BRANCH   9  10
ATOM     10  C   UNL     1      59.400  26.233  49.487  1.00  0.00    -0.035 C 
ATOM     11  C   UNL     1      59.304  25.800  50.748  1.00  0.00     0.004 C 
ENDBRANCH   9  10
ENDBRANCH   8   9
ENDBRANCH   7   8
ENDBRANCH   1   7
TORSDOF 7
ENDMDL
MODEL 5
REMARK VINA RESULT:    -3.449      3.241      5.381
REMARK INTER + INTRA:          -5.225
REMARK INTER:                  -4.614
REMARK INTRA:                  -0.611
REMARK UNBOUND:                -0.364
REMARK SMILES C=CCCCCCCC(=O)[O-]
REMARK SMILES IDX 6 1 7 2 8 3 9 4 10 5 11 6 5 7 4 8 3 9 2 10 1 11
REMARK H PARENT
REMARK Flexibility Score: inf
ROOT
ATOM      1  C   UNL     1      56.983  25.929  50.819  1.00  0.00     0.000 C 
ENDROOT
BRANCH   1   2
ATOM      2  C   UNL     1      55.719  26.197  49.983  1.00  0.00     0.006 C 
BRANCH   2   3
ATOM      3  C   UNL     1      55.125  27.589  50.228  1.00  0.00     0.053 C 
BRANCH   3   4
ATOM      4  C   UNL     1      53.736  27.668  49.680  1.00  0.00     0.041 C 
ATOM      5  O   UNL     1      53.057  28.720  49.820  1.00  0.00    -0.550 OA
ATOM      6  O   UNL     1      53.171  26.563  49.056  1.00  0.00    -0.550 OA
ENDBRANCH   3   4
ENDBRANCH   2   3
ENDBRANCH   1   2
BRANCH   1   7
ATOM      7  C   UNL     1      58.245  25.681  49.966  1.00  0.00     0.000 C 
BRANCH   7   8
ATOM      8  C   UNL     1      59.386  26.649  50.325  1.00  0.00     0.004 C 
BRANCH   8   9
ATOM      9  C   UNL     1      59.698  27.626  49.182  1.00  0.00     0.027 C 
BRANCH   9  10
ATOM     10  C   UNL     1      58.922  28.911  49.299  1.00  0.00    -0.035 C 
ATOM     11  C   UNL     1      58.409  29.321  50.464  1.00  0.00     0.004 C 
ENDBRANCH   9  10
ENDBRANCH   8   9
ENDBRANCH   7   8
ENDBRANCH   1   7
TORSDOF 7
ENDMDL
MODEL 6
REMARK VINA RESULT:    -3.380     13.422     14.241
REMARK INTER + INTRA:          -5.128
REMARK INTER:                  -4.700
REMARK INTRA:                  -0.428
REMARK UNBOUND:                -0.364
REMARK SMILES C=CCCCCCCC(=O)[O-]
REMARK SMILES IDX 6 1 7 2 8 3 9 4 10 5 11 6 5 7 4 8 3 9 2 10 1 11
REMARK H PARENT
REMARK Flexibility Score: inf
ROOT
ATOM      1  C   UNL     1      62.200  32.320  60.330  1.00  0.00     0.000 C 
ENDROOT
BRANCH   1   2
ATOM      2  C   UNL     1      62.489  33.786  60.696  1.00  0.00     0.006 C 
BRANCH   2   3
ATOM      3  C   UNL     1      63.959  34.034  61.053  1.00  0.00     0.053 C 
BRANCH   3   4
ATOM      4  C   UNL     1      64.143  35.424  61.574  1.00  0.00     0.041 C 
ATOM      5  O   UNL     1      63.151  36.188  61.705  1.00  0.00    -0.550 OA
ATOM      6  O   UNL     1      65.417  35.893  61.868  1.00  0.00    -0.550 OA
ENDBRANCH   3   4
ENDBRANCH   2   3
ENDBRANCH   1   2
BRANCH   1   7
ATOM      7  C   UNL     1      61.164  31.646  61.253  1.00  0.00     0.000 C 
BRANCH   7   8
ATOM      8  C   UNL     1      61.752  30.435  61.999  1.00  0.00     0.004 C 
BRANCH   8   9
ATOM      9  C   UNL     1      63.261  30.282  61.756  1.00  0.00     0.027 C 
BRANCH   9  10
ATOM     10  C   UNL     1      63.610  28.950  61.146  1.00  0.00    -0.035 C 
ATOM     11  C   UNL     1      62.973  27.827  61.493  1.00  0.00     0.004 C 
ENDBRANCH   9  10
ENDBRANCH   8   9
ENDBRANCH   7   8
ENDBRANCH   1   7
TORSDOF 7
ENDMDL
MODEL 7
REMARK VINA RESULT:    -3.344     12.860     13.818
REMARK INTER + INTRA:          -5.077
REMARK INTER:                  -4.749
REMARK INTRA:                  -0.328
REMARK UNBOUND:                -0.364
REMARK SMILES C=CCCCCCCC(=O)[O-]
REMARK SMILES IDX 6 1 7 2 8 3 9 4 10 5 11 6 5 7 4 8 3 9 2 10 1 11
REMARK H PARENT
REMARK Flexibility Score: inf
ROOT
ATOM      1  C   UNL     1      61.228  32.010  61.125  1.00  0.00     0.000 C 
ENDROOT
BRANCH   1   2
ATOM      2  C   UNL     1      61.135  30.592  61.715  1.00  0.00     0.006 C 
BRANCH   2   3
ATOM      3  C   UNL     1      62.507  29.938  61.918  1.00  0.00     0.053 C 
BRANCH   3   4
ATOM      4  C   UNL     1      62.435  28.473  61.627  1.00  0.00     0.041 C 
ATOM      5  O   UNL     1      63.483  27.775  61.621  1.00  0.00    -0.550 OA
ATOM      6  O   UNL     1      61.215  27.885  61.314  1.00  0.00    -0.550 OA
ENDBRANCH   3   4
ENDBRANCH   2   3
ENDBRANCH   1   2
BRANCH   1   7
ATOM      7  C   UNL     1      62.650  32.395  60.667  1.00  0.00     0.000 C 
BRANCH   7   8
ATOM      8  C   UNL     1      62.900  33.910  60.764  1.00  0.00     0.004 C 
BRANCH   8   9
ATOM      9  C   UNL     1      61.665  34.729  60.360  1.00  0.00     0.027 C 
BRANCH   9  10
ATOM     10  C   UNL     1      61.658  36.099  60.987  1.00  0.00    -0.035 C 
ATOM     11  C   UNL     1      62.781  36.688  61.407  1.00  0.00     0.004 C 
ENDBRANCH   9  10
ENDBRANCH   8   9
ENDBRANCH   7   8
ENDBRANCH   1   7
TORSDOF 7
ENDMDL
MODEL 8
REMARK VINA RESULT:    -3.273     12.997     14.677
REMARK INTER + INTRA:          -4.977
REMARK INTER:                  -4.446
REMARK INTRA:                  -0.531
REMARK UNBOUND:                -0.364
REMARK SMILES C=CCCCCCCC(=O)[O-]
REMARK SMILES IDX 6 1 7 2 8 3 9 4 10 5 11 6 5 7 4 8 3 9 2 10 1 11
REMARK H PARENT
REMARK Flexibility Score: inf
ROOT
ATOM      1  C   UNL     1      61.885  33.206  60.282  1.00  0.00     0.000 C 
ENDROOT
BRANCH   1   2
ATOM      2  C   UNL     1      63.378  32.993  59.980  1.00  0.00     0.006 C 
BRANCH   2   3
ATOM      3  C   UNL     1      64.167  32.488  61.195  1.00  0.00     0.053 C 
BRANCH   3   4
ATOM      4  C   UNL     1      64.252  30.995  61.179  1.00  0.00     0.041 C 
ATOM      5  O   UNL     1      63.379  30.304  61.767  1.00  0.00    -0.550 OA
ATOM      6  O   UNL     1      65.323  30.366  60.556  1.00  0.00    -0.550 OA
ENDBRANCH   3   4
ENDBRANCH   2   3
ENDBRANCH   1   2
BRANCH   1   7
ATOM      7  C   UNL     1      61.529  34.668  60.625  1.00  0.00     0.000 C 
BRANCH   7   8
ATOM      8  C   UNL     1      62.697  35.630  60.349  1.00  0.00     0.004 C 
BRANCH   8   9
ATOM      9  C   UNL     1      62.754  36.780  61.366  1.00  0.00     0.027 C 
BRANCH   9  10
ATOM     10  C   UNL     1      64.115  36.922  61.994  1.00  0.00    -0.035 C 
ATOM     11  C   UNL     1      65.027  35.947  61.928  1.00  0.00     0.004 C 
ENDBRANCH   9  10
ENDBRANCH   8   9
ENDBRANCH   7   8
ENDBRANCH   1   7
TORSDOF 7
ENDMDL
MODEL 9
REMARK VINA RESULT:    -3.259      1.862      2.306
REMARK INTER + INTRA:          -4.957
REMARK INTER:                  -4.489
REMARK INTRA:                  -0.468
REMARK UNBOUND:                -0.364
REMARK SMILES C=CCCCCCCC(=O)[O-]
REMARK SMILES IDX 6 1 7 2 8 3 9 4 10 5 11 6 5 7 4 8 3 9 2 10 1 11
REMARK H PARENT
REMARK Flexibility Score: inf
ROOT
ATOM      1  C   UNL     1      58.355  25.785  50.291  1.00  0.00     0.000 C 
ENDROOT
BRANCH   1   2
ATOM      2  C   UNL     1      59.380  26.484  49.382  1.00  0.00     0.006 C 
BRANCH   2   3
ATOM      3  C   UNL     1      60.140  27.610  50.093  1.00  0.00     0.053 C 
BRANCH   3   4
ATOM      4  C   UNL     1      59.340  28.874  50.072  1.00  0.00     0.041 C 
ATOM      5  O   UNL     1      59.257  29.589  51.105  1.00  0.00    -0.550 OA
ATOM      6  O   UNL     1      58.645  29.237  48.925  1.00  0.00    -0.550 OA
ENDBRANCH   3   4
ENDBRANCH   2   3
ENDBRANCH   1   2
BRANCH   1   7
ATOM      7  C   UNL     1      56.903  25.890  49.778  1.00  0.00     0.000 C 
BRANCH   7   8
ATOM      8  C   UNL     1      56.146  27.067  50.416  1.00  0.00     0.004 C 
BRANCH   8   9
ATOM      9  C   UNL     1      54.685  27.141  49.945  1.00  0.00     0.027 C 
BRANCH   9  10
ATOM     10  C   UNL     1      54.271  25.917  49.172  1.00  0.00    -0.035 C 
ATOM     11  C   UNL     1      53.153  25.244  49.463  1.00  0.00     0.004 C 
ENDBRANCH   9  10
ENDBRANCH   8   9
ENDBRANCH   7   8
ENDBRANCH   1   7
TORSDOF 7
ENDMDL
