MODEL 1
REMARK VINA RESULT:    -4.409      0.000      0.000
REMARK INTER + INTRA:          -6.351
REMARK INTER:                  -5.955
REMARK INTRA:                  -0.396
REMARK UNBOUND:                -0.396
REMARK SMILES CCCCCCCC(=O)[O-]
REMARK SMILES IDX 5 1 6 2 7 3 8 4 9 5 10 6 4 7 3 8 2 9 1 10
REMARK H PARENT
REMARK Flexibility Score: inf
ROOT
ATOM      1  C   UNL     1       2.490  43.990  12.131  1.00  0.00     0.000 C 
ENDROOT
BRANCH   1   2
ATOM      2  C   UNL     1       4.012  44.174  12.096  1.00  0.00     0.006 C 
BRANCH   2   3
ATOM      3  C   UNL     1       4.415  45.214  11.047  1.00  0.00     0.053 C 
BRANCH   3   4
ATOM      4  C   UNL     1       3.782  44.901   9.729  1.00  0.00     0.041 C 
ATOM      5  O   UNL     1       3.010  45.732   9.182  1.00  0.00    -0.550 OA
ATOM      6  O   UNL     1       4.085  43.712   9.077  1.00  0.00    -0.550 OA
ENDBRANCH   3   4
ENDBRANCH   2   3
ENDBRANCH   1   2
BRANCH   1   7
ATOM      7  C   UNL     1       2.114  42.504  12.090  1.00  0.00     0.000 C 
BRANCH   7   8
ATOM      8  C   UNL     1       3.355  41.627  11.884  1.00  0.00    -0.000 C 
BRANCH   8   9
ATOM      9  C   UNL     1       3.194  40.272  12.582  1.00  0.00    -0.003 C 
ATOM     10  C   UNL     1       4.511  39.809  13.197  1.00  0.00     0.004 C 
ENDBRANCH   8   9
ENDBRANCH   7   8
ENDBRANCH   1   7
TORSDOF 6
ENDMDL
MODEL 2
REMARK VINA RESULT:    -4.261      2.976      5.195
REMARK INTER + INTRA:          -6.151
REMARK INTER:                  -5.961
REMARK INTRA:                  -0.190
REMARK UNBOUND:                -0.396
REMARK SMILES CCCCCCCC(=O)[O-]
REMARK SMILES IDX 5 1 6 2 7 3 8 4 9 5 10 6 4 7 3 8 2 9 1 10
REMARK H PARENT
REMARK Flexibility Score: inf
ROOT
ATOM      1  C   UNL     1       2.627  43.612  12.102  1.00  0.00     0.000 C 
ENDROOT
BRANCH   1   2
ATOM      2  C   UNL     1       2.771  42.131  11.734  1.00  0.00     0.006 C 
BRANCH   2   3
ATOM      3  C   UNL     1       4.073  41.551  12.293  1.00  0.00     0.053 C 
BRANCH   3   4
ATOM      4  C   UNL     1       3.840  40.185  12.855  1.00  0.00     0.041 C 
ATOM      5  O   UNL     1       4.787  39.546  13.386  1.00  0.00    -0.550 OA
ATOM      6  O   UNL     1       2.564  39.634  12.838  1.00  0.00    -0.550 OA
ENDBRANCH   3   4
ENDBRANCH   2   3
ENDBRANCH   1   2
BRANCH   1   7
ATOM      7  C   UNL     1       4.000  44.283  12.235  1.00  0.00     0.000 C 
BRANCH   7   8
ATOM      8  C   UNL     1       4.471  44.847  10.889  1.00  0.00    -0.000 C 
BRANCH   8   9
ATOM      9  C   UNL     1       4.049  46.311  10.729  1.00  0.00    -0.003 C 
ATOM     10  C   UNL     1       4.856  47.001   9.632  1.00  0.00     0.004 C 
ENDBRANCH   8   9
ENDBRANCH   7   8
ENDBRANCH   1   7
TORSDOF 6
ENDMDL
MODEL 3
REMARK VINA RESULT:    -4.259      2.552      5.134
REMARK INTER + INTRA:          -6.150
REMARK INTER:                  -5.841
REMARK INTRA:                  -0.308
REMARK UNBOUND:                -0.396
REMARK SMILES CCCCCCCC(=O)[O-]
REMARK SMILES IDX 5 1 6 2 7 3 8 4 9 5 10 6 4 7 3 8 2 9 1 10
REMARK H PARENT
REMARK Flexibility Score: inf
ROOT
ATOM      1  C   UNL     1       4.192  44.772  11.249  1.00  0.00     0.000 C 
ENDROOT
BRANCH   1   2
ATOM      2  C   UNL     1       4.147  43.770  10.089  1.00  0.00     0.006 C 
BRANCH   2   3
ATOM      3  C   UNL     1       2.902  42.883  10.178  1.00  0.00     0.053 C 
BRANCH   3   4
ATOM      4  C   UNL     1       2.767  42.306  11.551  1.00  0.00     0.041 C 
ATOM      5  O   UNL     1       1.747  42.555  12.246  1.00  0.00    -0.550 OA
ATOM      6  O   UNL     1       3.745  41.451  12.045  1.00  0.00    -0.550 OA
ENDBRANCH   3   4
ENDBRANCH   2   3
ENDBRANCH   1   2
BRANCH   1   7
ATOM      7  C   UNL     1       4.172  46.216  10.731  1.00  0.00     0.000 C 
BRANCH   7   8
ATOM      8  C   UNL     1       4.523  46.271   9.240  1.00  0.00    -0.000 C 
BRANCH   8   9
ATOM      9  C   UNL     1       5.240  47.580   8.892  1.00  0.00    -0.003 C 
ATOM     10  C   UNL     1       6.680  47.571   9.399  1.00  0.00     0.004 C 
ENDBRANCH   8   9
ENDBRANCH   7   8
ENDBRANCH   1   7
TORSDOF 6
ENDMDL
MODEL 4
REMARK VINA RESULT:    -4.176      1.904      2.817
REMARK INTER + INTRA:          -6.037
REMARK INTER:                  -5.708
REMARK INTRA:                  -0.329
REMARK UNBOUND:                -0.396
REMARK SMILES CCCCCCCC(=O)[O-]
REMARK SMILES IDX 5 1 6 2 7 3 8 4 9 5 10 6 4 7 3 8 2 9 1 10
REMARK H PARENT
REMARK Flexibility Score: inf
ROOT
ATOM      1  C   UNL     1       4.502  44.863  11.105  1.00  0.00     0.000 C 
ENDROOT
BRANCH   1   2
ATOM      2  C   UNL     1       3.967  46.249  10.723  1.00  0.00     0.006 C 
BRANCH   2   3
ATOM      3  C   UNL     1       3.480  46.268   9.272  1.00  0.00     0.053 C 
BRANCH   3   4
ATOM      4  C   UNL     1       4.136  47.378   8.513  1.00  0.00     0.041 C 
ATOM      5  O   UNL     1       5.332  47.690   8.753  1.00  0.00    -0.550 OA
ATOM      6  O   UNL     1       3.443  48.036   7.505  1.00  0.00    -0.550 OA
ENDBRANCH   3   4
ENDBRANCH   2   3
ENDBRANCH   1   2
BRANCH   1   7
ATOM      7  C   UNL     1       3.835  44.349  12.387  1.00  0.00     0.000 C 
BRANCH   7   8
ATOM      8  C   UNL     1       2.500  43.662  12.077  1.00  0.00    -0.000 C 
BRANCH   8   9
ATOM      9  C   UNL     1       2.710  42.424  11.199  1.00  0.00    -0.003 C 
ATOM     10  C   UNL     1       3.092  41.210  12.041  1.00  0.00     0.004 C 
ENDBRANCH   8   9
ENDBRANCH   7   8
ENDBRANCH   1   7
TORSDOF 6
ENDMDL
MODEL 5
REMARK VINA RESULT:    -4.176      2.596      5.172
REMARK INTER + INTRA:          -6.036
REMARK INTER:                  -5.706
REMARK INTRA:                  -0.331
REMARK UNBOUND:                -0.396
REMARK SMILES CCCCCCCC(=O)[O-]
REMARK SMILES IDX 5 1 6 2 7 3 8 4 9 5 10 6 4 7 3 8 2 9 1 10
REMARK H PARENT
REMARK Flexibility Score: inf
ROOT
ATOM      1  C   UNL     1       3.957  44.380   9.306  1.00  0.00     0.000 C 
ENDROOT
BRANCH   1   2
ATOM      2  C   UNL     1       2.608  43.877   9.834  1.00  0.00     0.006 C 
BRANCH   2   3
ATOM      3  C   UNL     1       2.476  44.136  11.337  1.00  0.00     0.053 C 
BRANCH   3   4
ATOM      4  C   UNL     1       3.637  43.549  12.075  1.00  0.00     0.041 C 
ATOM      5  O   UNL     1       4.378  44.284  12.779  1.00  0.00    -0.550 OA
ATOM      6  O   UNL     1       3.872  42.180  12.025  1.00  0.00    -0.550 OA
ENDBRANCH   3   4
ENDBRANCH   2   3
ENDBRANCH   1   2
BRANCH   1   7
ATOM      7  C   UNL     1       3.943  45.903   9.124  1.00  0.00     0.000 C 
BRANCH   7   8
ATOM      8  C   UNL     1       5.032  46.570   9.972  1.00  0.00    -0.000 C 
BRANCH   8   9
ATOM      9  C   UNL     1       5.772  47.646   9.171  1.00  0.00    -0.003 C 
ATOM     10  C   UNL     1       7.275  47.589   9.428  1.00  0.00     0.004 C 
ENDBRANCH   8   9
ENDBRANCH   7   8
ENDBRANCH   1   7
TORSDOF 6
ENDMDL
MODEL 6
REMARK VINA RESULT:    -4.129      2.093      3.009
REMARK INTER + INTRA:          -5.973
REMARK INTER:                  -5.470
REMARK INTRA:                  -0.503
REMARK UNBOUND:                -0.396
REMARK SMILES CCCCCCCC(=O)[O-]
REMARK SMILES IDX 5 1 6 2 7 3 8 4 9 5 10 6 4 7 3 8 2 9 1 10
REMARK H PARENT
REMARK Flexibility Score: inf
ROOT
ATOM      1  C   UNL     1       4.045  43.901   9.730  1.00  0.00     0.000 C 
ENDROOT
BRANCH   1   2
ATOM      2  C   UNL     1       4.439  44.795  10.913  1.00  0.00     0.006 C 
BRANCH   2   3
ATOM      3  C   UNL     1       3.932  46.226  10.712  1.00  0.00     0.053 C 
BRANCH   3   4
ATOM      4  C   UNL     1       4.625  46.869   9.553  1.00  0.00     0.041 C 
ATOM      5  O   UNL     1       5.872  47.041   9.576  1.00  0.00    -0.550 OA
ATOM      6  O   UNL     1       3.901  47.234   8.425  1.00  0.00    -0.550 OA
ENDBRANCH   3   4
ENDBRANCH   2   3
ENDBRANCH   1   2
BRANCH   1   7
ATOM      7  C   UNL     1       2.774  43.102  10.043  1.00  0.00     0.000 C 
BRANCH   7   8
ATOM      8  C   UNL     1       2.798  42.568  11.480  1.00  0.00    -0.000 C 
BRANCH   8   9
ATOM      9  C   UNL     1       1.524  42.963  12.234  1.00  0.00    -0.003 C 
ATOM     10  C   UNL     1       0.843  44.159  11.577  1.00  0.00     0.004 C 
ENDBRANCH   8   9
ENDBRANCH   7   8
ENDBRANCH   1   7
TORSDOF 6
ENDMDL
MODEL 7
REMARK VINA RESULT:    -4.114      2.019      2.986
REMARK INTER + INTRA:          -5.954
REMARK INTER:                  -5.603
REMARK INTRA:                  -0.351
REMARK UNBOUND:                -0.396
REMARK SMILES CCCCCCCC(=O)[O-]
REMARK SMILES IDX 5 1 6 2 7 3 8 4 9 5 10 6 4 7 3 8 2 9 1 10
REMARK H PARENT
REMARK Flexibility Score: inf
ROOT
ATOM      1  C   UNL     1       3.889  43.863   9.149  1.00  0.00     0.000 C 
ENDROOT
BRANCH   1   2
ATOM      2  C   UNL     1       3.569  45.320   9.506  1.00  0.00     0.006 C 
BRANCH   2   3
ATOM      3  C   UNL     1       4.769  45.999  10.172  1.00  0.00     0.053 C 
BRANCH   3   4
ATOM      4  C   UNL     1       5.199  47.195   9.383  1.00  0.00     0.041 C 
ATOM      5  O   UNL     1       6.300  47.754   9.628  1.00  0.00    -0.550 OA
ATOM      6  O   UNL     1       4.407  47.663   8.342  1.00  0.00    -0.550 OA
ENDBRANCH   3   4
ENDBRANCH   2   3
ENDBRANCH   1   2
BRANCH   1   7
ATOM      7  C   UNL     1       2.746  42.930   9.568  1.00  0.00     0.000 C 
BRANCH   7   8
ATOM      8  C   UNL     1       1.899  43.560  10.679  1.00  0.00    -0.000 C 
BRANCH   8   9
ATOM      9  C   UNL     1       2.178  42.893  12.030  1.00  0.00    -0.003 C 
ATOM     10  C   UNL     1       2.986  41.610  11.854  1.00  0.00     0.004 C 
ENDBRANCH   8   9
ENDBRANCH   7   8
ENDBRANCH   1   7
TORSDOF 6
ENDMDL
MODEL 8
REMARK VINA RESULT:    -4.076      2.410      3.348
REMARK INTER + INTRA:          -5.902
REMARK INTER:                  -5.355
REMARK INTRA:                  -0.547
REMARK UNBOUND:                -0.396
REMARK SMILES CCCCCCCC(=O)[O-]
REMARK SMILES IDX 5 1 6 2 7 3 8 4 9 5 10 6 4 7 3 8 2 9 1 10
REMARK H PARENT
REMARK Flexibility Score: inf
ROOT
ATOM      1  C   UNL     1       4.292  44.739  11.422  1.00  0.00     0.000 C 
ENDROOT
BRANCH   1   2
ATOM      2  C   UNL     1       4.055  46.184  10.966  1.00  0.00     0.006 C 
BRANCH   2   3
ATOM      3  C   UNL     1       4.410  46.358   9.487  1.00  0.00     0.053 C 
BRANCH   3   4
ATOM      4  C   UNL     1       3.464  47.312   8.830  1.00  0.00     0.041 C 
ATOM      5  O   UNL     1       2.361  47.586   9.371  1.00  0.00    -0.550 OA
ATOM      6  O   UNL     1       3.822  47.939   7.642  1.00  0.00    -0.550 OA
ENDBRANCH   3   4
ENDBRANCH   2   3
ENDBRANCH   1   2
BRANCH   1   7
ATOM      7  C   UNL     1       2.966  43.982  11.564  1.00  0.00     0.000 C 
BRANCH   7   8
ATOM      8  C   UNL     1       2.966  42.706  10.715  1.00  0.00    -0.000 C 
BRANCH   8   9
ATOM      9  C   UNL     1       2.676  43.024   9.244  1.00  0.00    -0.003 C 
ATOM     10  C   UNL     1       1.508  43.996   9.110  1.00  0.00     0.004 C 
ENDBRANCH   8   9
ENDBRANCH   7   8
ENDBRANCH   1   7
TORSDOF 6
ENDMDL
MODEL 9
REMARK VINA RESULT:    -3.950      1.885      2.795
REMARK INTER + INTRA:          -5.731
REMARK INTER:                  -5.156
REMARK INTRA:                  -0.575
REMARK UNBOUND:                -0.396
REMARK SMILES CCCCCCCC(=O)[O-]
REMARK SMILES IDX 5 1 6 2 7 3 8 4 9 5 10 6 4 7 3 8 2 9 1 10
REMARK H PARENT
REMARK Flexibility Score: inf
ROOT
ATOM      1  C   UNL     1       0.823  44.749  10.858  1.00  0.00     0.000 C 
ENDROOT
BRANCH   1   2
ATOM      2  C   UNL     1       1.715  45.031   9.643  1.00  0.00     0.006 C 
BRANCH   2   3
ATOM      3  C   UNL     1       2.278  46.454   9.694  1.00  0.00     0.053 C 
BRANCH   3   4
ATOM      4  C   UNL     1       3.651  46.496   9.103  1.00  0.00     0.041 C 
ATOM      5  O   UNL     1       4.423  45.509   9.222  1.00  0.00    -0.550 OA
ATOM      6  O   UNL     1       4.061  47.607   8.376  1.00  0.00    -0.550 OA
ENDBRANCH   3   4
ENDBRANCH   2   3
ENDBRANCH   1   2
BRANCH   1   7
ATOM      7  C   UNL     1       1.435  43.662  11.751  1.00  0.00     0.000 C 
BRANCH   7   8
ATOM      8  C   UNL     1       2.551  42.910  11.017  1.00  0.00    -0.000 C 
BRANCH   8   9
ATOM      9  C   UNL     1       3.827  42.856  11.864  1.00  0.00    -0.003 C 
ATOM     10  C   UNL     1       4.117  44.208  12.510  1.00  0.00     0.004 C 
ENDBRANCH   8   9
ENDBRANCH   7   8
ENDBRANCH   1   7
TORSDOF 6
ENDMDL
