MODEL 1
REMARK VINA RESULT:    -5.625      0.000      0.000
REMARK INTER + INTRA:          -9.909
REMARK INTER:                  -8.584
REMARK INTRA:                  -1.325
REMARK UNBOUND:                -1.325
REMARK SMILES OC[C@@H]1O[C@@H](O[C@@]2(CO)O[C@@H](CO)[C@H](O)[C@H]2O)[C@H](O)[C@@H](O)[C@H]1O
REMARK SMILES IDX 6 1 5 2 3 3 22 4 4 5 20 6 18 7 2 8 1 9 23 11 21 13 19 15
REMARK SMILES IDX 7 17 16 18 10 19 14 20 11 21 8 22 9 23 17 25 15 27 12 29
REMARK SMILES IDX 13 30
REMARK H PARENT 1 10 23 12 21 14 19 16 9 24 17 26 15 28 13 31
REMARK Flexibility Score: inf
ROOT
ATOM      1  O   UNL     1     -12.875  32.382  27.894  1.00  0.00    -0.313 OA
ENDROOT
BRANCH   1   2
ATOM      2  C   UNL     1     -12.267  32.631  29.156  1.00  0.00     0.285 C 
ATOM      3  C   UNL     1     -12.682  30.433  29.891  1.00  0.00     0.178 C 
ATOM      4  C   UNL     1     -13.707  30.893  30.959  1.00  0.00     0.177 C 
ATOM      5  O   UNL     1     -11.701  31.441  29.685  1.00  0.00    -0.341 OA
ATOM      6  C   UNL     1     -14.382  32.199  30.500  1.00  0.00     0.179 C 
ATOM      7  C   UNL     1     -13.312  33.237  30.125  1.00  0.00     0.202 C 
BRANCH   3   8
ATOM      8  C   UNL     1     -11.954  29.153  30.324  1.00  0.00     0.191 C 
BRANCH   8   9
ATOM      9  O   UNL     1     -11.985  29.024  31.723  1.00  0.00    -0.394 OA
ATOM     10  H   UNL     1     -11.089  29.271  32.069  1.00  0.00     0.210 HD
ENDBRANCH   8   9
ENDBRANCH   3   8
BRANCH   4  11
ATOM     11  O   UNL     1     -14.690  29.908  31.160  1.00  0.00    -0.387 OA
ATOM     12  H   UNL     1     -15.207  30.167  31.968  1.00  0.00     0.211 HD
ENDBRANCH   4  11
BRANCH   6  13
ATOM     13  O   UNL     1     -15.220  31.961  29.393  1.00  0.00    -0.387 OA
ATOM     14  H   UNL     1     -15.604  32.835  29.116  1.00  0.00     0.211 HD
ENDBRANCH   6  13
BRANCH   7  15
ATOM     15  O   UNL     1     -12.678  33.687  31.296  1.00  0.00    -0.385 OA
ATOM     16  H   UNL     1     -11.940  33.050  31.484  1.00  0.00     0.211 HD
ENDBRANCH   7  15
ENDBRANCH   1   2
BRANCH   1  17
ATOM     17  C   UNL     1     -12.314  33.131  26.819  1.00  0.00     0.224 C 
ATOM     18  C   UNL     1     -11.729  32.132  25.783  1.00  0.00     0.208 C 
ATOM     19  O   UNL     1     -11.260  33.970  27.274  1.00  0.00    -0.337 OA
ATOM     20  C   UNL     1     -10.295  32.608  25.585  1.00  0.00     0.180 C 
ATOM     21  C   UNL     1     -10.247  33.958  26.296  1.00  0.00     0.179 C 
BRANCH  17  22
ATOM     22  C   UNL     1     -13.439  33.985  26.176  1.00  0.00     0.225 C 
BRANCH  22  23
ATOM     23  O   UNL     1     -13.729  33.552  24.876  1.00  0.00    -0.391 OA
ATOM     24  H   UNL     1     -14.597  33.072  24.930  1.00  0.00     0.210 HD
ENDBRANCH  22  23
ENDBRANCH  17  22
BRANCH  18  25
ATOM     25  O   UNL     1     -11.733  30.818  26.288  1.00  0.00    -0.385 OA
ATOM     26  H   UNL     1     -10.916  30.377  25.941  1.00  0.00     0.211 HD
ENDBRANCH  18  25
BRANCH  20  27
ATOM     27  O   UNL     1      -9.943  32.714  24.224  1.00  0.00    -0.387 OA
ATOM     28  H   UNL     1      -9.166  32.118  24.055  1.00  0.00     0.211 HD
ENDBRANCH  20  27
BRANCH  21  29
ATOM     29  C   UNL     1      -8.896  34.230  26.962  1.00  0.00     0.191 C 
BRANCH  29  30
ATOM     30  O   UNL     1      -7.893  33.489  26.330  1.00  0.00    -0.394 OA
ATOM     31  H   UNL     1      -8.316  33.087  25.526  1.00  0.00     0.210 HD
ENDBRANCH  29  30
ENDBRANCH  21  29
ENDBRANCH   1  17
TORSDOF 13
ENDMDL
MODEL 2
REMARK VINA RESULT:    -5.531      1.891      3.974
REMARK INTER + INTRA:          -9.766
REMARK INTER:                  -8.555
REMARK INTRA:                  -1.211
REMARK UNBOUND:                -1.325
REMARK SMILES OC[C@@H]1O[C@@H](O[C@@]2(CO)O[C@@H](CO)[C@H](O)[C@H]2O)[C@H](O)[C@@H](O)[C@H]1O
REMARK SMILES IDX 6 1 5 2 3 3 22 4 4 5 20 6 18 7 2 8 1 9 23 11 21 13 19 15
REMARK SMILES IDX 7 17 16 18 10 19 14 20 11 21 8 22 9 23 17 25 15 27 12 29
REMARK SMILES IDX 13 30
REMARK H PARENT 1 10 23 12 21 14 19 16 9 24 17 26 15 28 13 31
REMARK Flexibility Score: inf
ROOT
ATOM      1  O   UNL     1     -12.244  32.715  29.492  1.00  0.00    -0.313 OA
ENDROOT
BRANCH   1   2
ATOM      2  C   UNL     1     -13.296  33.221  28.679  1.00  0.00     0.285 C 
ATOM      3  C   UNL     1     -14.251  34.393  30.484  1.00  0.00     0.178 C 
ATOM      4  C   UNL     1     -15.509  33.487  30.517  1.00  0.00     0.177 C 
ATOM      5  O   UNL     1     -13.743  34.479  29.159  1.00  0.00    -0.341 OA
ATOM      6  C   UNL     1     -15.149  32.082  29.997  1.00  0.00     0.179 C 
ATOM      7  C   UNL     1     -14.454  32.193  28.631  1.00  0.00     0.202 C 
BRANCH   3   8
ATOM      8  C   UNL     1     -14.571  35.817  30.957  1.00  0.00     0.191 C 
BRANCH   8   9
ATOM      9  O   UNL     1     -14.660  35.856  32.359  1.00  0.00    -0.394 OA
ATOM     10  H   UNL     1     -14.356  34.978  32.706  1.00  0.00     0.210 HD
ENDBRANCH   8   9
ENDBRANCH   3   8
BRANCH   4  11
ATOM     11  O   UNL     1     -16.011  33.383  31.827  1.00  0.00    -0.387 OA
ATOM     12  H   UNL     1     -16.268  34.298  32.118  1.00  0.00     0.211 HD
ENDBRANCH   4  11
BRANCH   6  13
ATOM     13  O   UNL     1     -14.303  31.419  30.908  1.00  0.00    -0.387 OA
ATOM     14  H   UNL     1     -14.797  30.628  31.251  1.00  0.00     0.211 HD
ENDBRANCH   6  13
BRANCH   7  15
ATOM     15  O   UNL     1     -15.399  32.577  27.664  1.00  0.00    -0.385 OA
ATOM     16  H   UNL     1     -14.930  32.569  26.788  1.00  0.00     0.211 HD
ENDBRANCH   7  15
ENDBRANCH   1   2
BRANCH   1  17
ATOM     17  C   UNL     1     -11.067  32.361  28.770  1.00  0.00     0.224 C 
ATOM     18  C   UNL     1      -9.992  33.452  29.026  1.00  0.00     0.208 C 
ATOM     19  O   UNL     1     -11.322  32.304  27.372  1.00  0.00    -0.337 OA
ATOM     20  C   UNL     1      -9.556  33.871  27.626  1.00  0.00     0.180 C 
ATOM     21  C   UNL     1     -10.200  32.835  26.708  1.00  0.00     0.179 C 
BRANCH  17  22
ATOM     22  C   UNL     1     -10.575  30.980  29.282  1.00  0.00     0.225 C 
BRANCH  22  23
ATOM     23  O   UNL     1     -11.430  30.467  30.265  1.00  0.00    -0.391 OA
ATOM     24  H   UNL     1     -11.701  31.239  30.827  1.00  0.00     0.210 HD
ENDBRANCH  22  23
ENDBRANCH  17  22
BRANCH  18  25
ATOM     25  O   UNL     1     -10.539  34.554  29.708  1.00  0.00    -0.385 OA
ATOM     26  H   UNL     1     -10.315  34.436  30.667  1.00  0.00     0.211 HD
ENDBRANCH  18  25
BRANCH  20  27
ATOM     27  O   UNL     1      -8.154  33.905  27.484  1.00  0.00    -0.387 OA
ATOM     28  H   UNL     1      -7.826  32.971  27.406  1.00  0.00     0.211 HD
ENDBRANCH  20  27
BRANCH  21  29
ATOM     29  C   UNL     1     -10.638  33.424  25.365  1.00  0.00     0.191 C 
BRANCH  29  30
ATOM     30  O   UNL     1     -11.006  32.397  24.490  1.00  0.00    -0.394 OA
ATOM     31  H   UNL     1     -10.350  32.426  23.745  1.00  0.00     0.210 HD
ENDBRANCH  29  30
ENDBRANCH  21  29
ENDBRANCH   1  17
TORSDOF 13
ENDMDL
MODEL 3
REMARK VINA RESULT:    -5.499      1.819      5.516
REMARK INTER + INTRA:          -9.717
REMARK INTER:                  -8.821
REMARK INTRA:                  -0.895
REMARK UNBOUND:                -1.325
REMARK SMILES OC[C@@H]1O[C@@H](O[C@@]2(CO)O[C@@H](CO)[C@H](O)[C@H]2O)[C@H](O)[C@@H](O)[C@H]1O
REMARK SMILES IDX 6 1 5 2 3 3 22 4 4 5 20 6 18 7 2 8 1 9 23 11 21 13 19 15
REMARK SMILES IDX 7 17 16 18 10 19 14 20 11 21 8 22 9 23 17 25 15 27 12 29
REMARK SMILES IDX 13 30
REMARK H PARENT 1 10 23 12 21 14 19 16 9 24 17 26 15 28 13 31
REMARK Flexibility Score: inf
ROOT
ATOM      1  O   UNL     1     -12.480  33.361  27.523  1.00  0.00    -0.313 OA
ENDROOT
BRANCH   1   2
ATOM      2  C   UNL     1     -12.587  33.224  26.111  1.00  0.00     0.285 C 
ATOM      3  C   UNL     1     -10.331  33.817  25.791  1.00  0.00     0.178 C 
ATOM      4  C   UNL     1     -10.692  35.153  25.095  1.00  0.00     0.177 C 
ATOM      5  O   UNL     1     -11.341  32.846  25.546  1.00  0.00    -0.341 OA
ATOM      6  C   UNL     1     -12.049  35.660  25.619  1.00  0.00     0.179 C 
ATOM      7  C   UNL     1     -13.104  34.550  25.499  1.00  0.00     0.202 C 
BRANCH   3   8
ATOM      8  C   UNL     1      -9.003  33.252  25.270  1.00  0.00     0.191 C 
BRANCH   8   9
ATOM      9  O   UNL     1      -7.963  33.544  26.170  1.00  0.00    -0.394 OA
ATOM     10  H   UNL     1      -8.373  33.768  27.044  1.00  0.00     0.210 HD
ENDBRANCH   8   9
ENDBRANCH   3   8
BRANCH   4  11
ATOM     11  O   UNL     1      -9.706  36.125  25.343  1.00  0.00    -0.387 OA
ATOM     12  H   UNL     1      -8.936  35.923  24.748  1.00  0.00     0.211 HD
ENDBRANCH   4  11
BRANCH   6  13
ATOM     13  O   UNL     1     -11.939  36.066  26.964  1.00  0.00    -0.387 OA
ATOM     14  H   UNL     1     -11.851  37.057  26.970  1.00  0.00     0.211 HD
ENDBRANCH   6  13
BRANCH   7  15
ATOM     15  O   UNL     1     -13.421  34.362  24.142  1.00  0.00    -0.385 OA
ATOM     16  H   UNL     1     -12.882  33.589  23.827  1.00  0.00     0.211 HD
ENDBRANCH   7  15
ENDBRANCH   1   2
BRANCH   1  17
ATOM     17  C   UNL     1     -12.580  32.131  28.237  1.00  0.00     0.224 C 
ATOM     18  C   UNL     1     -11.530  32.145  29.380  1.00  0.00     0.208 C 
ATOM     19  O   UNL     1     -12.304  31.023  27.390  1.00  0.00    -0.337 OA
ATOM     20  C   UNL     1     -10.755  30.848  29.181  1.00  0.00     0.180 C 
ATOM     21  C   UNL     1     -11.565  30.085  28.136  1.00  0.00     0.179 C 
BRANCH  17  22
ATOM     22  C   UNL     1     -14.016  32.018  28.818  1.00  0.00     0.225 C 
BRANCH  22  23
ATOM     23  O   UNL     1     -13.998  31.983  30.217  1.00  0.00    -0.391 OA
ATOM     24  H   UNL     1     -13.097  31.656  30.476  1.00  0.00     0.210 HD
ENDBRANCH  22  23
ENDBRANCH  17  22
BRANCH  18  25
ATOM     25  O   UNL     1     -10.662  33.247  29.258  1.00  0.00    -0.385 OA
ATOM     26  H   UNL     1     -10.450  33.546  30.179  1.00  0.00     0.211 HD
ENDBRANCH  18  25
BRANCH  20  27
ATOM     27  O   UNL     1     -10.610  30.115  30.377  1.00  0.00    -0.387 OA
ATOM     28  H   UNL     1      -9.690  29.740  30.403  1.00  0.00     0.211 HD
ENDBRANCH  20  27
BRANCH  21  29
ATOM     29  C   UNL     1     -10.687  29.263  27.189  1.00  0.00     0.191 C 
BRANCH  29  30
ATOM     30  O   UNL     1      -9.633  30.049  26.712  1.00  0.00    -0.394 OA
ATOM     31  H   UNL     1     -10.030  30.658  26.035  1.00  0.00     0.210 HD
ENDBRANCH  29  30
ENDBRANCH  21  29
ENDBRANCH   1  17
TORSDOF 13
ENDMDL
MODEL 4
REMARK VINA RESULT:    -5.480      1.979      6.316
REMARK INTER + INTRA:          -9.687
REMARK INTER:                  -8.509
REMARK INTRA:                  -1.179
REMARK UNBOUND:                -1.325
REMARK SMILES OC[C@@H]1O[C@@H](O[C@@]2(CO)O[C@@H](CO)[C@H](O)[C@H]2O)[C@H](O)[C@@H](O)[C@H]1O
REMARK SMILES IDX 6 1 5 2 3 3 22 4 4 5 20 6 18 7 2 8 1 9 23 11 21 13 19 15
REMARK SMILES IDX 7 17 16 18 10 19 14 20 11 21 8 22 9 23 17 25 15 27 12 29
REMARK SMILES IDX 13 30
REMARK H PARENT 1 10 23 12 21 14 19 16 9 24 17 26 15 28 13 31
REMARK Flexibility Score: inf
ROOT
ATOM      1  O   UNL     1     -12.827  33.645  28.254  1.00  0.00    -0.313 OA
ENDROOT
BRANCH   1   2
ATOM      2  C   UNL     1     -11.465  34.041  28.366  1.00  0.00     0.285 C 
ATOM      3  C   UNL     1     -11.307  34.477  26.057  1.00  0.00     0.178 C 
ATOM      4  C   UNL     1     -10.329  33.299  25.815  1.00  0.00     0.177 C 
ATOM      5  O   UNL     1     -11.135  34.996  27.369  1.00  0.00    -0.341 OA
ATOM      6  C   UNL     1     -10.582  32.194  26.858  1.00  0.00     0.179 C 
ATOM      7  C   UNL     1     -10.552  32.792  28.273  1.00  0.00     0.202 C 
BRANCH   3   8
ATOM      8  C   UNL     1     -11.065  35.622  25.065  1.00  0.00     0.191 C 
BRANCH   8   9
ATOM      9  O   UNL     1      -9.689  35.776  24.823  1.00  0.00    -0.394 OA
ATOM     10  H   UNL     1      -9.485  36.746  24.846  1.00  0.00     0.210 HD
ENDBRANCH   8   9
ENDBRANCH   3   8
BRANCH   4  11
ATOM     11  O   UNL     1     -10.501  32.768  24.524  1.00  0.00    -0.387 OA
ATOM     12  H   UNL     1      -9.671  32.961  24.013  1.00  0.00     0.211 HD
ENDBRANCH   4  11
BRANCH   6  13
ATOM     13  O   UNL     1     -11.826  31.574  26.630  1.00  0.00    -0.387 OA
ATOM     14  H   UNL     1     -12.082  31.101  27.466  1.00  0.00     0.211 HD
ENDBRANCH   6  13
BRANCH   7  15
ATOM     15  O   UNL     1      -9.229  33.138  28.598  1.00  0.00    -0.385 OA
ATOM     16  H   UNL     1      -9.124  32.977  29.573  1.00  0.00     0.211 HD
ENDBRANCH   7  15
ENDBRANCH   1   2
BRANCH   1  17
ATOM     17  C   UNL     1     -13.586  33.826  29.446  1.00  0.00     0.224 C 
ATOM     18  C   UNL     1     -13.745  32.444  30.137  1.00  0.00     0.208 C 
ATOM     19  O   UNL     1     -14.883  34.332  29.156  1.00  0.00    -0.337 OA
ATOM     20  C   UNL     1     -15.248  32.313  30.352  1.00  0.00     0.180 C 
ATOM     21  C   UNL     1     -15.796  33.700  30.022  1.00  0.00     0.179 C 
BRANCH  17  22
ATOM     22  C   UNL     1     -12.821  34.812  30.370  1.00  0.00     0.225 C 
BRANCH  22  23
ATOM     23  O   UNL     1     -12.556  34.238  31.620  1.00  0.00    -0.391 OA
ATOM     24  H   UNL     1     -11.570  34.259  31.731  1.00  0.00     0.210 HD
ENDBRANCH  22  23
ENDBRANCH  17  22
BRANCH  18  25
ATOM     25  O   UNL     1     -13.287  31.406  29.305  1.00  0.00    -0.385 OA
ATOM     26  H   UNL     1     -12.297  31.441  29.323  1.00  0.00     0.211 HD
ENDBRANCH  18  25
BRANCH  20  27
ATOM     27  O   UNL     1     -15.575  31.915  31.664  1.00  0.00    -0.387 OA
ATOM     28  H   UNL     1     -15.818  32.725  32.185  1.00  0.00     0.211 HD
ENDBRANCH  20  27
BRANCH  21  29
ATOM     29  C   UNL     1     -17.174  33.651  29.357  1.00  0.00     0.191 C 
BRANCH  29  30
ATOM     30  O   UNL     1     -18.120  33.150  30.257  1.00  0.00    -0.394 OA
ATOM     31  H   UNL     1     -18.059  33.723  31.065  1.00  0.00     0.210 HD
ENDBRANCH  29  30
ENDBRANCH  21  29
ENDBRANCH   1  17
TORSDOF 13
ENDMDL
MODEL 5
REMARK VINA RESULT:    -5.280      1.816      5.846
REMARK INTER + INTRA:          -9.382
REMARK INTER:                  -8.136
REMARK INTRA:                  -1.246
REMARK UNBOUND:                -1.325
REMARK SMILES OC[C@@H]1O[C@@H](O[C@@]2(CO)O[C@@H](CO)[C@H](O)[C@H]2O)[C@H](O)[C@@H](O)[C@H]1O
REMARK SMILES IDX 6 1 5 2 3 3 22 4 4 5 20 6 18 7 2 8 1 9 23 11 21 13 19 15
REMARK SMILES IDX 7 17 16 18 10 19 14 20 11 21 8 22 9 23 17 25 15 27 12 29
REMARK SMILES IDX 13 30
REMARK H PARENT 1 10 23 12 21 14 19 16 9 24 17 26 15 28 13 31
REMARK Flexibility Score: inf
ROOT
ATOM      1  O   UNL     1     -12.345  33.507  28.541  1.00  0.00    -0.313 OA
ENDROOT
BRANCH   1   2
ATOM      2  C   UNL     1     -12.802  33.220  27.225  1.00  0.00     0.285 C 
ATOM      3  C   UNL     1     -11.130  31.594  26.900  1.00  0.00     0.178 C 
ATOM      4  C   UNL     1     -10.398  32.437  25.826  1.00  0.00     0.177 C 
ATOM      5  O   UNL     1     -12.524  31.872  26.878  1.00  0.00    -0.341 OA
ATOM      6  C   UNL     1     -10.642  33.935  26.089  1.00  0.00     0.179 C 
ATOM      7  C   UNL     1     -12.148  34.205  26.223  1.00  0.00     0.202 C 
BRANCH   3   8
ATOM      8  C   UNL     1     -10.949  30.090  26.656  1.00  0.00     0.191 C 
BRANCH   8   9
ATOM      9  O   UNL     1      -9.602  29.727  26.827  1.00  0.00    -0.394 OA
ATOM     10  H   UNL     1      -9.280  29.347  25.969  1.00  0.00     0.210 HD
ENDBRANCH   8   9
ENDBRANCH   3   8
BRANCH   4  11
ATOM     11  O   UNL     1      -9.016  32.180  25.849  1.00  0.00    -0.387 OA
ATOM     12  H   UNL     1      -8.887  31.231  25.583  1.00  0.00     0.211 HD
ENDBRANCH   4  11
BRANCH   6  13
ATOM     13  O   UNL     1      -9.980  34.345  27.263  1.00  0.00    -0.387 OA
ATOM     14  H   UNL     1      -9.692  35.287  27.130  1.00  0.00     0.211 HD
ENDBRANCH   6  13
BRANCH   7  15
ATOM     15  O   UNL     1     -12.752  34.077  24.960  1.00  0.00    -0.385 OA
ATOM     16  H   UNL     1     -12.361  33.268  24.537  1.00  0.00     0.211 HD
ENDBRANCH   7  15
ENDBRANCH   1   2
BRANCH   1  17
ATOM     17  C   UNL     1     -13.379  33.877  29.449  1.00  0.00     0.224 C 
ATOM     18  C   UNL     1     -13.725  32.641  30.323  1.00  0.00     0.208 C 
ATOM     19  O   UNL     1     -14.553  34.275  28.754  1.00  0.00    -0.337 OA
ATOM     20  C   UNL     1     -15.235  32.499  30.175  1.00  0.00     0.180 C 
ATOM     21  C   UNL     1     -15.663  33.781  29.465  1.00  0.00     0.179 C 
BRANCH  17  22
ATOM     22  C   UNL     1     -12.859  35.042  30.335  1.00  0.00     0.225 C 
BRANCH  22  23
ATOM     23  O   UNL     1     -12.569  34.605  31.633  1.00  0.00    -0.391 OA
ATOM     24  H   UNL     1     -13.315  34.923  32.206  1.00  0.00     0.210 HD
ENDBRANCH  22  23
ENDBRANCH  17  22
BRANCH  18  25
ATOM     25  O   UNL     1     -13.084  31.484  29.841  1.00  0.00    -0.385 OA
ATOM     26  H   UNL     1     -13.326  30.746  30.458  1.00  0.00     0.211 HD
ENDBRANCH  18  25
BRANCH  20  27
ATOM     27  O   UNL     1     -15.887  32.337  31.414  1.00  0.00    -0.387 OA
ATOM     28  H   UNL     1     -15.658  31.439  31.772  1.00  0.00     0.211 HD
ENDBRANCH  20  27
BRANCH  21  29
ATOM     29  C   UNL     1     -16.829  33.563  28.498  1.00  0.00     0.191 C 
BRANCH  29  30
ATOM     30  O   UNL     1     -17.946  33.091  29.194  1.00  0.00    -0.394 OA
ATOM     31  H   UNL     1     -17.724  33.179  30.158  1.00  0.00     0.210 HD
ENDBRANCH  29  30
ENDBRANCH  21  29
ENDBRANCH   1  17
TORSDOF 13
ENDMDL
MODEL 6
REMARK VINA RESULT:    -5.267      1.730      3.421
REMARK INTER + INTRA:          -9.362
REMARK INTER:                  -8.182
REMARK INTRA:                  -1.180
REMARK UNBOUND:                -1.325
REMARK SMILES OC[C@@H]1O[C@@H](O[C@@]2(CO)O[C@@H](CO)[C@H](O)[C@H]2O)[C@H](O)[C@@H](O)[C@H]1O
REMARK SMILES IDX 6 1 5 2 3 3 22 4 4 5 20 6 18 7 2 8 1 9 23 11 21 13 19 15
REMARK SMILES IDX 7 17 16 18 10 19 14 20 11 21 8 22 9 23 17 25 15 27 12 29
REMARK SMILES IDX 13 30
REMARK H PARENT 1 10 23 12 21 14 19 16 9 24 17 26 15 28 13 31
REMARK Flexibility Score: inf
ROOT
ATOM      1  O   UNL     1     -12.314  32.848  28.040  1.00  0.00    -0.313 OA
ENDROOT
BRANCH   1   2
ATOM      2  C   UNL     1     -12.952  31.612  28.341  1.00  0.00     0.285 C 
ATOM      3  C   UNL     1     -14.970  32.686  28.905  1.00  0.00     0.178 C 
ATOM      4  C   UNL     1     -14.850  32.311  30.404  1.00  0.00     0.177 C 
ATOM      5  O   UNL     1     -14.348  31.694  28.098  1.00  0.00    -0.341 OA
ATOM      6  C   UNL     1     -13.364  32.176  30.786  1.00  0.00     0.179 C 
ATOM      7  C   UNL     1     -12.657  31.221  29.811  1.00  0.00     0.202 C 
BRANCH   3   8
ATOM      8  C   UNL     1     -16.436  32.794  28.467  1.00  0.00     0.191 C 
BRANCH   8   9
ATOM      9  O   UNL     1     -16.515  33.104  27.098  1.00  0.00    -0.394 OA
ATOM     10  H   UNL     1     -17.352  33.615  26.951  1.00  0.00     0.210 HD
ENDBRANCH   8   9
ENDBRANCH   3   8
BRANCH   4  11
ATOM     11  O   UNL     1     -15.450  33.295  31.211  1.00  0.00    -0.387 OA
ATOM     12  H   UNL     1     -15.124  34.178  30.892  1.00  0.00     0.211 HD
ENDBRANCH   4  11
BRANCH   6  13
ATOM     13  O   UNL     1     -12.730  33.434  30.762  1.00  0.00    -0.387 OA
ATOM     14  H   UNL     1     -12.386  33.612  31.677  1.00  0.00     0.211 HD
ENDBRANCH   6  13
BRANCH   7  15
ATOM     15  O   UNL     1     -13.094  29.908  30.056  1.00  0.00    -0.385 OA
ATOM     16  H   UNL     1     -12.279  29.357  30.195  1.00  0.00     0.211 HD
ENDBRANCH   7  15
ENDBRANCH   1   2
BRANCH   1  17
ATOM     17  C   UNL     1     -11.279  32.747  27.066  1.00  0.00     0.224 C 
ATOM     18  C   UNL     1      -9.932  33.118  27.745  1.00  0.00     0.208 C 
ATOM     19  O   UNL     1     -11.499  33.649  25.989  1.00  0.00    -0.337 OA
ATOM     20  C   UNL     1      -9.351  34.198  26.840  1.00  0.00     0.180 C 
ATOM     21  C   UNL     1     -10.251  34.177  25.607  1.00  0.00     0.179 C 
BRANCH  17  22
ATOM     22  C   UNL     1     -11.240  31.286  26.541  1.00  0.00     0.225 C 
BRANCH  22  23
ATOM     23  O   UNL     1      -9.959  30.734  26.666  1.00  0.00    -0.391 OA
ATOM     24  H   UNL     1     -10.052  29.951  27.269  1.00  0.00     0.210 HD
ENDBRANCH  22  23
ENDBRANCH  17  22
BRANCH  18  25
ATOM     25  O   UNL     1     -10.142  33.636  29.036  1.00  0.00    -0.385 OA
ATOM     26  H   UNL     1      -9.280  33.555  29.519  1.00  0.00     0.211 HD
ENDBRANCH  18  25
BRANCH  20  27
ATOM     27  O   UNL     1      -8.001  33.962  26.513  1.00  0.00    -0.387 OA
ATOM     28  H   UNL     1      -7.529  34.836  26.483  1.00  0.00     0.211 HD
ENDBRANCH  20  27
BRANCH  21  29
ATOM     29  C   UNL     1     -10.453  35.566  24.996  1.00  0.00     0.191 C 
BRANCH  29  30
ATOM     30  O   UNL     1      -9.229  36.077  24.554  1.00  0.00    -0.394 OA
ATOM     31  H   UNL     1      -9.367  36.335  23.605  1.00  0.00     0.210 HD
ENDBRANCH  29  30
ENDBRANCH  21  29
ENDBRANCH   1  17
TORSDOF 13
ENDMDL
MODEL 7
REMARK VINA RESULT:    -5.236      2.112      3.459
REMARK INTER + INTRA:          -9.315
REMARK INTER:                  -8.428
REMARK INTRA:                  -0.886
REMARK UNBOUND:                -1.325
REMARK SMILES OC[C@@H]1O[C@@H](O[C@@]2(CO)O[C@@H](CO)[C@H](O)[C@H]2O)[C@H](O)[C@@H](O)[C@H]1O
REMARK SMILES IDX 6 1 5 2 3 3 22 4 4 5 20 6 18 7 2 8 1 9 23 11 21 13 19 15
REMARK SMILES IDX 7 17 16 18 10 19 14 20 11 21 8 22 9 23 17 25 15 27 12 29
REMARK SMILES IDX 13 30
REMARK H PARENT 1 10 23 12 21 14 19 16 9 24 17 26 15 28 13 31
REMARK Flexibility Score: inf
ROOT
ATOM      1  O   UNL     1     -11.926  33.923  28.872  1.00  0.00    -0.313 OA
ENDROOT
BRANCH   1   2
ATOM      2  C   UNL     1     -12.161  33.989  30.274  1.00  0.00     0.285 C 
ATOM      3  C   UNL     1     -14.171  32.777  30.086  1.00  0.00     0.178 C 
ATOM      4  C   UNL     1     -15.042  33.996  30.481  1.00  0.00     0.177 C 
ATOM      5  O   UNL     1     -12.898  32.858  30.714  1.00  0.00    -0.341 OA
ATOM      6  C   UNL     1     -14.331  35.297  30.065  1.00  0.00     0.179 C 
ATOM      7  C   UNL     1     -12.896  35.309  30.615  1.00  0.00     0.202 C 
BRANCH   3   8
ATOM      8  C   UNL     1     -14.822  31.456  30.517  1.00  0.00     0.191 C 
BRANCH   8   9
ATOM      9  O   UNL     1     -15.615  31.654  31.661  1.00  0.00    -0.394 OA
ATOM     10  H   UNL     1     -15.424  32.563  32.008  1.00  0.00     0.210 HD
ENDBRANCH   8   9
ENDBRANCH   3   8
BRANCH   4  11
ATOM     11  O   UNL     1     -16.299  33.932  29.853  1.00  0.00    -0.387 OA
ATOM     12  H   UNL     1     -16.189  34.295  28.935  1.00  0.00     0.211 HD
ENDBRANCH   4  11
BRANCH   6  13
ATOM     13  O   UNL     1     -14.302  35.419  28.662  1.00  0.00    -0.387 OA
ATOM     14  H   UNL     1     -13.441  35.035  28.346  1.00  0.00     0.211 HD
ENDBRANCH   6  13
BRANCH   7  15
ATOM     15  O   UNL     1     -12.940  35.488  32.009  1.00  0.00    -0.385 OA
ATOM     16  H   UNL     1     -12.005  35.645  32.306  1.00  0.00     0.211 HD
ENDBRANCH   7  15
ENDBRANCH   1   2
BRANCH   1  17
ATOM     17  C   UNL     1     -10.694  33.301  28.516  1.00  0.00     0.224 C 
ATOM     18  C   UNL     1     -10.349  33.704  27.057  1.00  0.00     0.208 C 
ATOM     19  O   UNL     1     -10.800  31.884  28.575  1.00  0.00    -0.337 OA
ATOM     20  C   UNL     1     -10.109  32.372  26.356  1.00  0.00     0.180 C 
ATOM     21  C   UNL     1     -10.074  31.352  27.492  1.00  0.00     0.179 C 
BRANCH  17  22
ATOM     22  C   UNL     1      -9.594  33.797  29.493  1.00  0.00     0.225 C 
BRANCH  22  23
ATOM     23  O   UNL     1      -8.343  33.851  28.866  1.00  0.00    -0.391 OA
ATOM     24  H   UNL     1      -8.514  33.736  27.895  1.00  0.00     0.210 HD
ENDBRANCH  22  23
ENDBRANCH  17  22
BRANCH  18  25
ATOM     25  O   UNL     1     -11.424  34.378  26.449  1.00  0.00    -0.385 OA
ATOM     26  H   UNL     1     -12.114  34.506  27.150  1.00  0.00     0.211 HD
ENDBRANCH  18  25
BRANCH  20  27
ATOM     27  O   UNL     1      -8.918  32.364  25.602  1.00  0.00    -0.387 OA
ATOM     28  H   UNL     1      -9.159  32.316  24.639  1.00  0.00     0.211 HD
ENDBRANCH  20  27
BRANCH  21  29
ATOM     29  C   UNL     1     -10.672  30.001  27.095  1.00  0.00     0.191 C 
BRANCH  29  30
ATOM     30  O   UNL     1      -9.675  29.020  27.091  1.00  0.00    -0.394 OA
ATOM     31  H   UNL     1      -9.591  28.711  28.031  1.00  0.00     0.210 HD
ENDBRANCH  29  30
ENDBRANCH  21  29
ENDBRANCH   1  17
TORSDOF 13
ENDMDL
MODEL 8
REMARK VINA RESULT:    -5.182      1.873      5.780
REMARK INTER + INTRA:          -9.233
REMARK INTER:                  -7.955
REMARK INTRA:                  -1.279
REMARK UNBOUND:                -1.325
REMARK SMILES OC[C@@H]1O[C@@H](O[C@@]2(CO)O[C@@H](CO)[C@H](O)[C@H]2O)[C@H](O)[C@@H](O)[C@H]1O
REMARK SMILES IDX 6 1 5 2 3 3 22 4 4 5 20 6 18 7 2 8 1 9 23 11 21 13 19 15
REMARK SMILES IDX 7 17 16 18 10 19 14 20 11 21 8 22 9 23 17 25 15 27 12 29
REMARK SMILES IDX 13 30
REMARK H PARENT 1 10 23 12 21 14 19 16 9 24 17 26 15 28 13 31
REMARK Flexibility Score: inf
ROOT
ATOM      1  O   UNL     1     -12.812  33.574  27.289  1.00  0.00    -0.313 OA
ENDROOT
BRANCH   1   2
ATOM      2  C   UNL     1     -11.952  32.458  27.484  1.00  0.00     0.285 C 
ATOM      3  C   UNL     1     -10.096  33.845  27.904  1.00  0.00     0.178 C 
ATOM      4  C   UNL     1      -9.376  33.421  26.598  1.00  0.00     0.177 C 
ATOM      5  O   UNL     1     -10.905  32.781  28.387  1.00  0.00    -0.341 OA
ATOM      6  C   UNL     1     -10.420  33.027  25.536  1.00  0.00     0.179 C 
ATOM      7  C   UNL     1     -11.392  31.989  26.118  1.00  0.00     0.202 C 
BRANCH   3   8
ATOM      8  C   UNL     1      -9.093  34.209  29.007  1.00  0.00     0.191 C 
BRANCH   8   9
ATOM      9  O   UNL     1      -7.781  33.940  28.581  1.00  0.00    -0.394 OA
ATOM     10  H   UNL     1      -7.319  34.809  28.457  1.00  0.00     0.210 HD
ENDBRANCH   8   9
ENDBRANCH   3   8
BRANCH   4  11
ATOM     11  O   UNL     1      -8.583  34.472  26.104  1.00  0.00    -0.387 OA
ATOM     12  H   UNL     1      -9.010  34.795  25.266  1.00  0.00     0.211 HD
ENDBRANCH   4  11
BRANCH   6  13
ATOM     13  O   UNL     1     -11.136  34.159  25.103  1.00  0.00    -0.387 OA
ATOM     14  H   UNL     1     -12.059  33.862  24.882  1.00  0.00     0.211 HD
ENDBRANCH   6  13
BRANCH   7  15
ATOM     15  O   UNL     1     -10.721  30.763  26.268  1.00  0.00    -0.385 OA
ATOM     16  H   UNL     1     -11.400  30.049  26.147  1.00  0.00     0.211 HD
ENDBRANCH   7  15
ENDBRANCH   1   2
BRANCH   1  17
ATOM     17  C   UNL     1     -14.140  33.377  27.766  1.00  0.00     0.224 C 
ATOM     18  C   UNL     1     -14.462  34.500  28.789  1.00  0.00     0.208 C 
ATOM     19  O   UNL     1     -14.267  32.123  28.424  1.00  0.00    -0.337 OA
ATOM     20  C   UNL     1     -14.942  33.745  30.023  1.00  0.00     0.180 C 
ATOM     21  C   UNL     1     -15.107  32.306  29.540  1.00  0.00     0.179 C 
BRANCH  17  22
ATOM     22  C   UNL     1     -15.111  33.448  26.556  1.00  0.00     0.225 C 
BRANCH  22  23
ATOM     23  O   UNL     1     -14.423  33.716  25.366  1.00  0.00    -0.391 OA
ATOM     24  H   UNL     1     -13.712  34.369  25.597  1.00  0.00     0.210 HD
ENDBRANCH  22  23
ENDBRANCH  17  22
BRANCH  18  25
ATOM     25  O   UNL     1     -13.311  35.247  29.101  1.00  0.00    -0.385 OA
ATOM     26  H   UNL     1     -13.423  35.568  30.033  1.00  0.00     0.211 HD
ENDBRANCH  18  25
BRANCH  20  27
ATOM     27  O   UNL     1     -16.141  34.268  30.546  1.00  0.00    -0.387 OA
ATOM     28  H   UNL     1     -16.462  33.658  31.262  1.00  0.00     0.211 HD
ENDBRANCH  20  27
BRANCH  21  29
ATOM     29  C   UNL     1     -14.753  31.274  30.615  1.00  0.00     0.191 C 
BRANCH  29  30
ATOM     30  O   UNL     1     -15.501  31.514  31.771  1.00  0.00    -0.394 OA
ATOM     31  H   UNL     1     -14.858  31.471  32.527  1.00  0.00     0.210 HD
ENDBRANCH  29  30
ENDBRANCH  21  29
ENDBRANCH   1  17
TORSDOF 13
ENDMDL
MODEL 9
REMARK VINA RESULT:    -5.037      1.764      5.971
REMARK INTER + INTRA:          -9.012
REMARK INTER:                  -7.986
REMARK INTRA:                  -1.026
REMARK UNBOUND:                -1.325
REMARK SMILES OC[C@@H]1O[C@@H](O[C@@]2(CO)O[C@@H](CO)[C@H](O)[C@H]2O)[C@H](O)[C@@H](O)[C@H]1O
REMARK SMILES IDX 6 1 5 2 3 3 22 4 4 5 20 6 18 7 2 8 1 9 23 11 21 13 19 15
REMARK SMILES IDX 7 17 16 18 10 19 14 20 11 21 8 22 9 23 17 25 15 27 12 29
REMARK SMILES IDX 13 30
REMARK H PARENT 1 10 23 12 21 14 19 16 9 24 17 26 15 28 13 31
REMARK Flexibility Score: inf
ROOT
ATOM      1  O   UNL     1     -13.274  32.192  28.458  1.00  0.00    -0.313 OA
ENDROOT
BRANCH   1   2
ATOM      2  C   UNL     1     -12.053  32.914  28.558  1.00  0.00     0.285 C 
ATOM      3  C   UNL     1     -12.139  33.556  26.295  1.00  0.00     0.178 C 
ATOM      4  C   UNL     1     -10.911  32.691  25.914  1.00  0.00     0.177 C 
ATOM      5  O   UNL     1     -12.031  33.998  27.642  1.00  0.00    -0.341 OA
ATOM      6  C   UNL     1     -10.818  31.479  26.861  1.00  0.00     0.179 C 
ATOM      7  C   UNL     1     -10.861  31.953  28.322  1.00  0.00     0.202 C 
BRANCH   3   8
ATOM      8  C   UNL     1     -12.251  34.799  25.402  1.00  0.00     0.191 C 
BRANCH   8   9
ATOM      9  O   UNL     1     -11.009  35.087  24.809  1.00  0.00    -0.394 OA
ATOM     10  H   UNL     1     -10.790  34.343  24.191  1.00  0.00     0.210 HD
ENDBRANCH   8   9
ENDBRANCH   3   8
BRANCH   4  11
ATOM     11  O   UNL     1     -11.016  32.237  24.587  1.00  0.00    -0.387 OA
ATOM     12  H   UNL     1     -10.229  32.588  24.092  1.00  0.00     0.211 HD
ENDBRANCH   4  11
BRANCH   6  13
ATOM     13  O   UNL     1     -11.876  30.581  26.621  1.00  0.00    -0.387 OA
ATOM     14  H   UNL     1     -11.993  30.031  27.440  1.00  0.00     0.211 HD
ENDBRANCH   6  13
BRANCH   7  15
ATOM     15  O   UNL     1      -9.652  32.599  28.632  1.00  0.00    -0.385 OA
ATOM     16  H   UNL     1      -9.255  32.891  27.769  1.00  0.00     0.211 HD
ENDBRANCH   7  15
ENDBRANCH   1   2
BRANCH   1  17
ATOM     17  C   UNL     1     -14.102  32.284  29.614  1.00  0.00     0.224 C 
ATOM     18  C   UNL     1     -15.578  32.407  29.149  1.00  0.00     0.208 C 
ATOM     19  O   UNL     1     -13.779  33.434  30.386  1.00  0.00    -0.337 OA
ATOM     20  C   UNL     1     -16.089  33.647  29.874  1.00  0.00     0.180 C 
ATOM     21  C   UNL     1     -14.983  33.976  30.875  1.00  0.00     0.179 C 
BRANCH  17  22
ATOM     22  C   UNL     1     -13.905  30.998  30.461  1.00  0.00     0.225 C 
BRANCH  22  23
ATOM     23  O   UNL     1     -12.991  31.207  31.502  1.00  0.00    -0.391 OA
ATOM     24  H   UNL     1     -13.356  30.730  32.292  1.00  0.00     0.210 HD
ENDBRANCH  22  23
ENDBRANCH  17  22
BRANCH  18  25
ATOM     25  O   UNL     1     -15.656  32.600  27.757  1.00  0.00    -0.385 OA
ATOM     26  H   UNL     1     -14.727  32.564  27.411  1.00  0.00     0.211 HD
ENDBRANCH  18  25
BRANCH  20  27
ATOM     27  O   UNL     1     -17.329  33.431  30.508  1.00  0.00    -0.387 OA
ATOM     28  H   UNL     1     -17.752  32.629  30.101  1.00  0.00     0.211 HD
ENDBRANCH  20  27
BRANCH  21  29
ATOM     29  C   UNL     1     -14.810  35.481  31.093  1.00  0.00     0.191 C 
BRANCH  29  30
ATOM     30  O   UNL     1     -13.794  35.715  32.025  1.00  0.00    -0.394 OA
ATOM     31  H   UNL     1     -14.226  36.177  32.790  1.00  0.00     0.210 HD
ENDBRANCH  29  30
ENDBRANCH  21  29
ENDBRANCH   1  17
TORSDOF 13
ENDMDL
