MODEL 1
REMARK VINA RESULT:    -6.367      0.000      0.000
REMARK INTER + INTRA:         -10.606
REMARK INTER:                  -8.786
REMARK INTRA:                  -1.820
REMARK UNBOUND:                -1.820
REMARK SMILES CC[C@H](CC[C@H](C)[C@@H]1CC[C@H]2[C@@H]3CC=C4C[C@H](O)CC[C@@]4(C)[C@H]3CC[C@@]21C)C(C)C
REMARK SMILES IDX 5 1 4 2 3 3 2 4 1 5 28 6 29 7 30 8 6 9 7 10 8 11 9 12 26 13
REMARK SMILES IDX 10 14 11 15 25 16 27 17 12 18 24 19 23 20 13 21 21 22 14 23
REMARK SMILES IDX 15 24 20 25 22 26 16 27 19 28 17 29 18 30
REMARK H PARENT 18 31
REMARK Flexibility Score: inf
ROOT
ATOM      1  C   UNL     1      -0.762 -11.031 -40.982  1.00  0.00     0.004 C 
ENDROOT
BRANCH   1   2
ATOM      2  C   UNL     1      -0.399 -11.187 -42.476  1.00  0.00     0.004 C 
BRANCH   2   3
ATOM      3  C   UNL     1       1.119 -11.329 -42.801  1.00  0.00    -0.009 C 
BRANCH   3   4
ATOM      4  C   UNL     1       1.624 -10.191 -43.736  1.00  0.00     0.000 C 
ATOM      5  C   UNL     1       1.135  -8.784 -43.389  1.00  0.00     0.004 C 
ENDBRANCH   3   4
BRANCH   3   6
ATOM      6  C   UNL     1       2.024 -11.610 -41.551  1.00  0.00    -0.014 C 
ATOM      7  C   UNL     1       3.409 -10.947 -41.668  1.00  0.00     0.007 C 
ATOM      8  C   UNL     1       2.228 -13.123 -41.342  1.00  0.00     0.007 C 
ENDBRANCH   3   6
ENDBRANCH   2   3
ENDBRANCH   1   2
BRANCH   1   9
ATOM      9  C   UNL     1      -1.095  -9.549 -40.620  1.00  0.00    -0.011 C 
ATOM     10  C   UNL     1      -0.334  -9.198 -39.315  1.00  0.00     0.008 C 
BRANCH   9  11
ATOM     11  C   UNL     1      -2.646  -9.321 -40.484  1.00  0.00    -0.002 C 
ATOM     12  C   UNL     1      -3.404 -10.628 -40.084  1.00  0.00     0.005 C 
ATOM     13  C   UNL     1      -3.445  -8.795 -41.741  1.00  0.00    -0.026 C 
ATOM     14  C   UNL     1      -4.554 -10.830 -41.067  1.00  0.00     0.005 C 
ATOM     15  C   UNL     1      -4.084 -10.079 -42.292  1.00  0.00    -0.001 C 
ATOM     16  C   UNL     1      -2.660  -8.161 -42.919  1.00  0.00     0.007 C 
ATOM     17  C   UNL     1      -4.494  -7.763 -41.210  1.00  0.00     0.012 C 
ATOM     18  C   UNL     1      -5.108  -9.832 -43.426  1.00  0.00     0.000 C 
ATOM     19  C   UNL     1      -3.575  -7.866 -44.131  1.00  0.00     0.005 C 
ATOM     20  C   UNL     1      -4.395  -9.109 -44.605  1.00  0.00     0.003 C 
ATOM     21  C   UNL     1      -5.660 -11.166 -43.947  1.00  0.00     0.031 C 
ATOM     22  C   UNL     1      -5.381  -8.817 -45.812  1.00  0.00    -0.008 C 
ATOM     23  C   UNL     1      -6.571 -10.953 -45.114  1.00  0.00    -0.027 C 
ATOM     24  C   UNL     1      -6.432  -9.930 -45.985  1.00  0.00    -0.065 C 
ATOM     25  C   UNL     1      -6.161  -7.479 -45.608  1.00  0.00     0.014 C 
ATOM     26  C   UNL     1      -4.532  -8.730 -47.109  1.00  0.00     0.016 C 
ATOM     27  C   UNL     1      -7.514  -9.722 -47.025  1.00  0.00     0.063 C 
ATOM     28  C   UNL     1      -7.286  -7.239 -46.637  1.00  0.00     0.033 C 
ATOM     29  C   UNL     1      -8.263  -8.419 -46.715  1.00  0.00     0.118 C 
BRANCH  29  30
ATOM     30  O   UNL     1      -9.212  -8.165 -47.716  1.00  0.00    -0.393 OA
ATOM     31  H   UNL     1      -9.368  -9.024 -48.189  1.00  0.00     0.210 HD
ENDBRANCH  29  30
ENDBRANCH   9  11
ENDBRANCH   1   9
TORSDOF 7
ENDMDL
MODEL 2
REMARK VINA RESULT:    -6.226      3.156      7.619
REMARK INTER + INTRA:         -10.413
REMARK INTER:                  -8.473
REMARK INTRA:                  -1.939
REMARK UNBOUND:                -1.820
REMARK SMILES CC[C@H](CC[C@H](C)[C@@H]1CC[C@H]2[C@@H]3CC=C4C[C@H](O)CC[C@@]4(C)[C@H]3CC[C@@]21C)C(C)C
REMARK SMILES IDX 5 1 4 2 3 3 2 4 1 5 28 6 29 7 30 8 6 9 7 10 8 11 9 12 26 13
REMARK SMILES IDX 10 14 11 15 25 16 27 17 12 18 24 19 23 20 13 21 21 22 14 23
REMARK SMILES IDX 15 24 20 25 22 26 16 27 19 28 17 29 18 30
REMARK H PARENT 18 31
REMARK Flexibility Score: inf
ROOT
ATOM      1  C   UNL     1      -7.019  -9.321 -46.212  1.00  0.00     0.004 C 
ENDROOT
BRANCH   1   2
ATOM      2  C   UNL     1      -5.552  -9.354 -46.699  1.00  0.00     0.004 C 
BRANCH   2   3
ATOM      3  C   UNL     1      -5.016  -8.041 -47.345  1.00  0.00    -0.009 C 
BRANCH   3   4
ATOM      4  C   UNL     1      -4.170  -7.202 -46.342  1.00  0.00     0.000 C 
ATOM      5  C   UNL     1      -3.559  -7.983 -45.178  1.00  0.00     0.004 C 
ENDBRANCH   3   4
BRANCH   3   6
ATOM      6  C   UNL     1      -4.369  -8.232 -48.760  1.00  0.00    -0.014 C 
ATOM      7  C   UNL     1      -3.040  -9.007 -48.698  1.00  0.00     0.007 C 
ATOM      8  C   UNL     1      -4.106  -6.875 -49.440  1.00  0.00     0.007 C 
ENDBRANCH   3   6
ENDBRANCH   2   3
ENDBRANCH   1   2
BRANCH   1   9
ATOM      9  C   UNL     1      -7.408 -10.632 -45.459  1.00  0.00    -0.011 C 
ATOM     10  C   UNL     1      -8.718 -11.170 -46.093  1.00  0.00     0.008 C 
BRANCH   9  11
ATOM     11  C   UNL     1      -7.552 -10.389 -43.911  1.00  0.00    -0.002 C 
ATOM     12  C   UNL     1      -7.887  -8.901 -43.573  1.00  0.00     0.005 C 
ATOM     13  C   UNL     1      -6.320 -10.716 -42.978  1.00  0.00    -0.026 C 
ATOM     14  C   UNL     1      -6.893  -8.417 -42.520  1.00  0.00     0.005 C 
ATOM     15  C   UNL     1      -5.707  -9.328 -42.736  1.00  0.00    -0.001 C 
ATOM     16  C   UNL     1      -5.176 -11.606 -43.529  1.00  0.00     0.007 C 
ATOM     17  C   UNL     1      -6.897 -11.370 -41.680  1.00  0.00     0.012 C 
ATOM     18  C   UNL     1      -4.584  -9.318 -41.671  1.00  0.00     0.000 C 
ATOM     19  C   UNL     1      -3.977 -11.676 -42.554  1.00  0.00     0.005 C 
ATOM     20  C   UNL     1      -3.442 -10.272 -42.127  1.00  0.00     0.003 C 
ATOM     21  C   UNL     1      -3.999  -7.906 -41.527  1.00  0.00     0.031 C 
ATOM     22  C   UNL     1      -2.249 -10.318 -41.084  1.00  0.00    -0.008 C 
ATOM     23  C   UNL     1      -2.841  -7.897 -40.579  1.00  0.00    -0.027 C 
ATOM     24  C   UNL     1      -2.020  -8.955 -40.402  1.00  0.00    -0.065 C 
ATOM     25  C   UNL     1      -2.515 -11.358 -39.950  1.00  0.00     0.014 C 
ATOM     26  C   UNL     1      -0.959 -10.709 -41.856  1.00  0.00     0.016 C 
ATOM     27  C   UNL     1      -0.990  -8.885 -39.295  1.00  0.00     0.063 C 
ATOM     28  C   UNL     1      -1.496 -11.305 -38.792  1.00  0.00     0.033 C 
ATOM     29  C   UNL     1      -1.360  -9.896 -38.201  1.00  0.00     0.118 C 
BRANCH  29  30
ATOM     30  O   UNL     1      -0.370  -9.908 -37.207  1.00  0.00    -0.393 OA
ATOM     31  H   UNL     1      -0.101  -8.964 -37.059  1.00  0.00     0.210 HD
ENDBRANCH  29  30
ENDBRANCH   9  11
ENDBRANCH   1   9
TORSDOF 7
ENDMDL
MODEL 3
REMARK VINA RESULT:    -5.968      3.262      7.529
REMARK INTER + INTRA:         -10.057
REMARK INTER:                  -6.926
REMARK INTRA:                  -3.131
REMARK UNBOUND:                -1.820
REMARK SMILES CC[C@H](CC[C@H](C)[C@@H]1CC[C@H]2[C@@H]3CC=C4C[C@H](O)CC[C@@]4(C)[C@H]3CC[C@@]21C)C(C)C
REMARK SMILES IDX 5 1 4 2 3 3 2 4 1 5 28 6 29 7 30 8 6 9 7 10 8 11 9 12 26 13
REMARK SMILES IDX 10 14 11 15 25 16 27 17 12 18 24 19 23 20 13 21 21 22 14 23
REMARK SMILES IDX 15 24 20 25 22 26 16 27 19 28 17 29 18 30
REMARK H PARENT 18 31
REMARK Flexibility Score: inf
ROOT
ATOM      1  C   UNL     1      -8.845  -9.316 -42.805  1.00  0.00     0.004 C 
ENDROOT
BRANCH   1   2
ATOM      2  C   UNL     1      -8.824  -9.536 -41.275  1.00  0.00     0.004 C 
BRANCH   2   3
ATOM      3  C   UNL     1      -7.415  -9.570 -40.608  1.00  0.00    -0.009 C 
BRANCH   3   4
ATOM      4  C   UNL     1      -7.153  -8.309 -39.735  1.00  0.00     0.000 C 
ATOM      5  C   UNL     1      -8.399  -7.545 -39.287  1.00  0.00     0.004 C 
ENDBRANCH   3   4
BRANCH   3   6
ATOM      6  C   UNL     1      -7.054 -10.936 -39.927  1.00  0.00    -0.014 C 
ATOM      7  C   UNL     1      -5.577 -11.005 -39.498  1.00  0.00     0.007 C 
ATOM      8  C   UNL     1      -7.340 -12.120 -40.870  1.00  0.00     0.007 C 
ENDBRANCH   3   6
ENDBRANCH   2   3
ENDBRANCH   1   2
BRANCH   1   9
ATOM      9  C   UNL     1      -7.757  -8.291 -43.256  1.00  0.00    -0.011 C 
ATOM     10  C   UNL     1      -8.479  -7.118 -43.969  1.00  0.00     0.008 C 
BRANCH   9  11
ATOM     11  C   UNL     1      -6.670  -8.967 -44.172  1.00  0.00    -0.002 C 
ATOM     12  C   UNL     1      -6.932 -10.494 -44.374  1.00  0.00     0.005 C 
ATOM     13  C   UNL     1      -5.157  -8.903 -43.722  1.00  0.00    -0.026 C 
ATOM     14  C   UNL     1      -5.644 -11.245 -44.044  1.00  0.00     0.005 C 
ATOM     15  C   UNL     1      -4.932 -10.294 -43.109  1.00  0.00    -0.001 C 
ATOM     16  C   UNL     1      -4.739  -7.878 -42.636  1.00  0.00     0.007 C 
ATOM     17  C   UNL     1      -4.312  -8.653 -45.013  1.00  0.00     0.012 C 
ATOM     18  C   UNL     1      -3.454 -10.593 -42.762  1.00  0.00     0.000 C 
ATOM     19  C   UNL     1      -3.271  -8.073 -42.191  1.00  0.00     0.005 C 
ATOM     20  C   UNL     1      -2.948  -9.534 -41.740  1.00  0.00     0.003 C 
ATOM     21  C   UNL     1      -3.328 -11.979 -42.115  1.00  0.00     0.031 C 
ATOM     22  C   UNL     1      -1.434  -9.770 -41.332  1.00  0.00    -0.008 C 
ATOM     23  C   UNL     1      -1.922 -12.243 -41.676  1.00  0.00    -0.027 C 
ATOM     24  C   UNL     1      -1.075 -11.269 -41.279  1.00  0.00    -0.065 C 
ATOM     25  C   UNL     1      -0.453  -9.101 -42.347  1.00  0.00     0.014 C 
ATOM     26  C   UNL     1      -1.221  -9.159 -39.922  1.00  0.00     0.016 C 
ATOM     27  C   UNL     1       0.371 -11.637 -41.020  1.00  0.00     0.063 C 
ATOM     28  C   UNL     1       1.030  -9.467 -42.128  1.00  0.00     0.033 C 
ATOM     29  C   UNL     1       1.254 -10.985 -42.093  1.00  0.00     0.118 C 
BRANCH  29  30
ATOM     30  O   UNL     1       2.606 -11.243 -41.820  1.00  0.00    -0.393 OA
ATOM     31  H   UNL     1       2.628 -11.981 -41.156  1.00  0.00     0.210 HD
ENDBRANCH  29  30
ENDBRANCH   9  11
ENDBRANCH   1   9
TORSDOF 7
ENDMDL
MODEL 4
REMARK VINA RESULT:    -5.727      9.891     13.788
REMARK INTER + INTRA:          -9.723
REMARK INTER:                  -6.716
REMARK INTRA:                  -3.007
REMARK UNBOUND:                -1.820
REMARK SMILES CC[C@H](CC[C@H](C)[C@@H]1CC[C@H]2[C@@H]3CC=C4C[C@H](O)CC[C@@]4(C)[C@H]3CC[C@@]21C)C(C)C
REMARK SMILES IDX 5 1 4 2 3 3 2 4 1 5 28 6 29 7 30 8 6 9 7 10 8 11 9 12 26 13
REMARK SMILES IDX 10 14 11 15 25 16 27 17 12 18 24 19 23 20 13 21 21 22 14 23
REMARK SMILES IDX 15 24 20 25 22 26 16 27 19 28 17 29 18 30
REMARK H PARENT 18 31
REMARK Flexibility Score: inf
ROOT
ATOM      1  C   UNL     1      -0.214 -18.540 -38.748  1.00  0.00     0.004 C 
ENDROOT
BRANCH   1   2
ATOM      2  C   UNL     1      -1.121 -19.786 -38.879  1.00  0.00     0.004 C 
BRANCH   2   3
ATOM      3  C   UNL     1      -1.705 -20.060 -40.298  1.00  0.00    -0.009 C 
BRANCH   3   4
ATOM      4  C   UNL     1      -2.018 -21.569 -40.517  1.00  0.00     0.000 C 
ATOM      5  C   UNL     1      -1.426 -22.524 -39.480  1.00  0.00     0.004 C 
ENDBRANCH   3   4
BRANCH   3   6
ATOM      6  C   UNL     1      -2.847 -19.076 -40.729  1.00  0.00    -0.014 C 
ATOM      7  C   UNL     1      -4.118 -19.816 -41.185  1.00  0.00     0.007 C 
ATOM      8  C   UNL     1      -2.386 -18.156 -41.874  1.00  0.00     0.007 C 
ENDBRANCH   3   6
ENDBRANCH   2   3
ENDBRANCH   1   2
BRANCH   1   9
ATOM      9  C   UNL     1       1.293 -18.933 -38.626  1.00  0.00    -0.011 C 
ATOM     10  C   UNL     1       1.939 -18.001 -37.569  1.00  0.00     0.008 C 
BRANCH   9  11
ATOM     11  C   UNL     1       2.026 -18.856 -40.016  1.00  0.00    -0.002 C 
ATOM     12  C   UNL     1       1.289 -17.913 -41.023  1.00  0.00     0.005 C 
ATOM     13  C   UNL     1       2.233 -20.189 -40.836  1.00  0.00    -0.026 C 
ATOM     14  C   UNL     1       1.085 -18.679 -42.327  1.00  0.00     0.005 C 
ATOM     15  C   UNL     1       1.104 -20.122 -41.876  1.00  0.00    -0.001 C 
ATOM     16  C   UNL     1       2.073 -21.550 -40.110  1.00  0.00     0.007 C 
ATOM     17  C   UNL     1       3.661 -20.113 -41.470  1.00  0.00     0.012 C 
ATOM     18  C   UNL     1       1.190 -21.219 -42.964  1.00  0.00     0.000 C 
ATOM     19  C   UNL     1       2.134 -22.742 -41.094  1.00  0.00     0.005 C 
ATOM     20  C   UNL     1       1.128 -22.616 -42.282  1.00  0.00     0.003 C 
ATOM     21  C   UNL     1       0.002 -21.104 -43.930  1.00  0.00     0.031 C 
ATOM     22  C   UNL     1       1.211 -23.799 -43.334  1.00  0.00    -0.008 C 
ATOM     23  C   UNL     1       0.010 -22.221 -44.926  1.00  0.00    -0.027 C 
ATOM     24  C   UNL     1       0.507 -23.448 -44.660  1.00  0.00    -0.065 C 
ATOM     25  C   UNL     1       2.691 -24.157 -43.684  1.00  0.00     0.014 C 
ATOM     26  C   UNL     1       0.509 -25.037 -42.713  1.00  0.00     0.016 C 
ATOM     27  C   UNL     1       0.613 -24.441 -45.798  1.00  0.00     0.063 C 
ATOM     28  C   UNL     1       2.841 -25.153 -44.853  1.00  0.00     0.033 C 
ATOM     29  C   UNL     1       2.095 -24.690 -46.110  1.00  0.00     0.118 C 
BRANCH  29  30
ATOM     30  O   UNL     1       2.215 -25.673 -47.105  1.00  0.00    -0.393 OA
ATOM     31  H   UNL     1       2.220 -26.550 -46.641  1.00  0.00     0.210 HD
ENDBRANCH  29  30
ENDBRANCH   9  11
ENDBRANCH   1   9
TORSDOF 7
ENDMDL
MODEL 5
REMARK VINA RESULT:    -5.461      3.535      7.858
REMARK INTER + INTRA:          -9.357
REMARK INTER:                  -7.731
REMARK INTRA:                  -1.626
REMARK UNBOUND:                -1.820
REMARK SMILES CC[C@H](CC[C@H](C)[C@@H]1CC[C@H]2[C@@H]3CC=C4C[C@H](O)CC[C@@]4(C)[C@H]3CC[C@@]21C)C(C)C
REMARK SMILES IDX 5 1 4 2 3 3 2 4 1 5 28 6 29 7 30 8 6 9 7 10 8 11 9 12 26 13
REMARK SMILES IDX 10 14 11 15 25 16 27 17 12 18 24 19 23 20 13 21 21 22 14 23
REMARK SMILES IDX 15 24 20 25 22 26 16 27 19 28 17 29 18 30
REMARK H PARENT 18 31
REMARK Flexibility Score: inf
ROOT
ATOM      1  C   UNL     1      -5.824 -10.695 -44.714  1.00  0.00     0.004 C 
ENDROOT
BRANCH   1   2
ATOM      2  C   UNL     1      -6.112  -9.852 -45.978  1.00  0.00     0.004 C 
BRANCH   2   3
ATOM      3  C   UNL     1      -4.898  -9.077 -46.574  1.00  0.00    -0.009 C 
BRANCH   3   4
ATOM      4  C   UNL     1      -4.915  -9.075 -48.130  1.00  0.00     0.000 C 
ATOM      5  C   UNL     1      -3.546  -8.998 -48.806  1.00  0.00     0.004 C 
ENDBRANCH   3   4
BRANCH   3   6
ATOM      6  C   UNL     1      -4.634  -7.680 -45.911  1.00  0.00    -0.014 C 
ATOM      7  C   UNL     1      -3.804  -7.790 -44.620  1.00  0.00     0.007 C 
ATOM      8  C   UNL     1      -5.957  -6.964 -45.577  1.00  0.00     0.007 C 
ENDBRANCH   3   6
ENDBRANCH   2   3
ENDBRANCH   1   2
BRANCH   1   9
ATOM      9  C   UNL     1      -7.139 -11.079 -43.964  1.00  0.00    -0.011 C 
ATOM     10  C   UNL     1      -8.332 -10.708 -44.883  1.00  0.00     0.008 C 
BRANCH   9  11
ATOM     11  C   UNL     1      -7.230 -10.378 -42.558  1.00  0.00    -0.002 C 
ATOM     12  C   UNL     1      -7.223  -8.819 -42.672  1.00  0.00     0.005 C 
ATOM     13  C   UNL     1      -6.106 -10.679 -41.490  1.00  0.00    -0.026 C 
ATOM     14  C   UNL     1      -6.150  -8.278 -41.731  1.00  0.00     0.005 C 
ATOM     15  C   UNL     1      -5.197  -9.445 -41.604  1.00  0.00    -0.001 C 
ATOM     16  C   UNL     1      -5.189 -11.913 -41.693  1.00  0.00     0.007 C 
ATOM     17  C   UNL     1      -6.819 -10.794 -40.103  1.00  0.00     0.012 C 
ATOM     18  C   UNL     1      -4.104  -9.371 -40.511  1.00  0.00     0.000 C 
ATOM     19  C   UNL     1      -4.040 -11.956 -40.658  1.00  0.00     0.005 C 
ATOM     20  C   UNL     1      -3.204 -10.637 -40.605  1.00  0.00     0.003 C 
ATOM     21  C   UNL     1      -3.218  -8.136 -40.727  1.00  0.00     0.031 C 
ATOM     22  C   UNL     1      -2.055 -10.637 -39.512  1.00  0.00    -0.008 C 
ATOM     23  C   UNL     1      -2.091  -8.104 -39.743  1.00  0.00    -0.027 C 
ATOM     24  C   UNL     1      -1.529  -9.217 -39.224  1.00  0.00    -0.065 C 
ATOM     25  C   UNL     1      -2.552 -11.225 -38.154  1.00  0.00     0.014 C 
ATOM     26  C   UNL     1      -0.884 -11.499 -40.055  1.00  0.00     0.016 C 
ATOM     27  C   UNL     1      -0.512  -9.055 -38.113  1.00  0.00     0.063 C 
ATOM     28  C   UNL     1      -1.551 -11.062 -36.990  1.00  0.00     0.033 C 
ATOM     29  C   UNL     1      -1.104  -9.606 -36.808  1.00  0.00     0.118 C 
BRANCH  29  30
ATOM     30  O   UNL     1      -0.145  -9.544 -35.785  1.00  0.00    -0.393 OA
ATOM     31  H   UNL     1      -0.055  -8.588 -35.534  1.00  0.00     0.210 HD
ENDBRANCH  29  30
ENDBRANCH   9  11
ENDBRANCH   1   9
TORSDOF 7
ENDMDL
MODEL 6
REMARK VINA RESULT:    -5.274      2.801      4.871
REMARK INTER + INTRA:          -9.098
REMARK INTER:                  -8.020
REMARK INTRA:                  -1.079
REMARK UNBOUND:                -1.820
REMARK SMILES CC[C@H](CC[C@H](C)[C@@H]1CC[C@H]2[C@@H]3CC=C4C[C@H](O)CC[C@@]4(C)[C@H]3CC[C@@]21C)C(C)C
REMARK SMILES IDX 5 1 4 2 3 3 2 4 1 5 28 6 29 7 30 8 6 9 7 10 8 11 9 12 26 13
REMARK SMILES IDX 10 14 11 15 25 16 27 17 12 18 24 19 23 20 13 21 21 22 14 23
REMARK SMILES IDX 15 24 20 25 22 26 16 27 19 28 17 29 18 30
REMARK H PARENT 18 31
REMARK Flexibility Score: inf
ROOT
ATOM      1  C   UNL     1      -1.561 -10.486 -37.875  1.00  0.00     0.004 C 
ENDROOT
BRANCH   1   2
ATOM      2  C   UNL     1      -1.295 -11.371 -36.636  1.00  0.00     0.004 C 
BRANCH   2   3
ATOM      3  C   UNL     1      -0.797 -10.628 -35.359  1.00  0.00    -0.009 C 
BRANCH   3   4
ATOM      4  C   UNL     1      -0.463  -9.135 -35.646  1.00  0.00     0.000 C 
ATOM      5  C   UNL     1      -1.522  -8.124 -35.206  1.00  0.00     0.004 C 
ENDBRANCH   3   4
BRANCH   3   6
ATOM      6  C   UNL     1      -1.673 -10.877 -34.082  1.00  0.00    -0.014 C 
ATOM      7  C   UNL     1      -0.820 -11.172 -32.834  1.00  0.00     0.007 C 
ATOM      8  C   UNL     1      -2.643 -12.055 -34.294  1.00  0.00     0.007 C 
ENDBRANCH   3   6
ENDBRANCH   2   3
ENDBRANCH   1   2
BRANCH   1   9
ATOM      9  C   UNL     1      -2.711 -11.062 -38.760  1.00  0.00    -0.011 C 
ATOM     10  C   UNL     1      -3.288 -12.305 -38.034  1.00  0.00     0.008 C 
BRANCH   9  11
ATOM     11  C   UNL     1      -2.210 -11.400 -40.213  1.00  0.00    -0.002 C 
ATOM     12  C   UNL     1      -0.995 -10.515 -40.641  1.00  0.00     0.005 C 
ATOM     13  C   UNL     1      -3.223 -11.253 -41.415  1.00  0.00    -0.026 C 
ATOM     14  C   UNL     1      -1.315  -9.897 -42.000  1.00  0.00     0.005 C 
ATOM     15  C   UNL     1      -2.826  -9.899 -42.023  1.00  0.00    -0.001 C 
ATOM     16  C   UNL     1      -4.741 -11.164 -41.111  1.00  0.00     0.007 C 
ATOM     17  C   UNL     1      -2.963 -12.460 -42.375  1.00  0.00     0.012 C 
ATOM     18  C   UNL     1      -3.530  -9.585 -43.365  1.00  0.00     0.000 C 
ATOM     19  C   UNL     1      -5.567 -10.846 -42.379  1.00  0.00     0.005 C 
ATOM     20  C   UNL     1      -5.070  -9.575 -43.140  1.00  0.00     0.003 C 
ATOM     21  C   UNL     1      -3.112  -8.199 -43.874  1.00  0.00     0.031 C 
ATOM     22  C   UNL     1      -5.867  -9.261 -44.474  1.00  0.00    -0.008 C 
ATOM     23  C   UNL     1      -3.862  -7.833 -45.116  1.00  0.00    -0.027 C 
ATOM     24  C   UNL     1      -5.115  -8.264 -45.379  1.00  0.00    -0.065 C 
ATOM     25  C   UNL     1      -6.109 -10.552 -45.319  1.00  0.00     0.014 C 
ATOM     26  C   UNL     1      -7.231  -8.636 -44.076  1.00  0.00     0.016 C 
ATOM     27  C   UNL     1      -5.705  -7.967 -46.742  1.00  0.00     0.063 C 
ATOM     28  C   UNL     1      -6.692 -10.289 -46.723  1.00  0.00     0.033 C 
ATOM     29  C   UNL     1      -5.854  -9.281 -47.521  1.00  0.00     0.118 C 
BRANCH  29  30
ATOM     30  O   UNL     1      -6.479  -9.037 -48.753  1.00  0.00    -0.393 OA
ATOM     31  H   UNL     1      -6.575  -9.916 -49.205  1.00  0.00     0.210 HD
ENDBRANCH  29  30
ENDBRANCH   9  11
ENDBRANCH   1   9
TORSDOF 7
ENDMDL
MODEL 7
REMARK VINA RESULT:    -5.221      4.086      7.375
REMARK INTER + INTRA:          -9.025
REMARK INTER:                  -6.606
REMARK INTRA:                  -2.419
REMARK UNBOUND:                -1.820
REMARK SMILES CC[C@H](CC[C@H](C)[C@@H]1CC[C@H]2[C@@H]3CC=C4C[C@H](O)CC[C@@]4(C)[C@H]3CC[C@@]21C)C(C)C
REMARK SMILES IDX 5 1 4 2 3 3 2 4 1 5 28 6 29 7 30 8 6 9 7 10 8 11 9 12 26 13
REMARK SMILES IDX 10 14 11 15 25 16 27 17 12 18 24 19 23 20 13 21 21 22 14 23
REMARK SMILES IDX 15 24 20 25 22 26 16 27 19 28 17 29 18 30
REMARK H PARENT 18 31
REMARK Flexibility Score: inf
ROOT
ATOM      1  C   UNL     1      -1.554  -8.800 -42.973  1.00  0.00     0.004 C 
ENDROOT
BRANCH   1   2
ATOM      2  C   UNL     1      -0.652 -10.034 -42.739  1.00  0.00     0.004 C 
BRANCH   2   3
ATOM      3  C   UNL     1       0.583  -9.813 -41.813  1.00  0.00    -0.009 C 
BRANCH   3   4
ATOM      4  C   UNL     1       0.495 -10.664 -40.513  1.00  0.00     0.000 C 
ATOM      5  C   UNL     1       0.065 -12.119 -40.703  1.00  0.00     0.004 C 
ENDBRANCH   3   4
BRANCH   3   6
ATOM      6  C   UNL     1       1.964  -9.870 -42.552  1.00  0.00    -0.014 C 
ATOM      7  C   UNL     1       1.872 -10.579 -43.915  1.00  0.00     0.007 C 
ATOM      8  C   UNL     1       3.021 -10.597 -41.699  1.00  0.00     0.007 C 
ENDBRANCH   3   6
ENDBRANCH   2   3
ENDBRANCH   1   2
BRANCH   1   9
ATOM      9  C   UNL     1      -3.060  -9.197 -43.076  1.00  0.00    -0.011 C 
ATOM     10  C   UNL     1      -3.704  -8.322 -44.183  1.00  0.00     0.008 C 
BRANCH   9  11
ATOM     11  C   UNL     1      -3.796  -9.045 -41.693  1.00  0.00    -0.002 C 
ATOM     12  C   UNL     1      -3.029  -8.097 -40.716  1.00  0.00     0.005 C 
ATOM     13  C   UNL     1      -4.056 -10.341 -40.830  1.00  0.00    -0.026 C 
ATOM     14  C   UNL     1      -2.858  -8.824 -39.385  1.00  0.00     0.005 C 
ATOM     15  C   UNL     1      -2.930 -10.280 -39.787  1.00  0.00    -0.001 C 
ATOM     16  C   UNL     1      -3.944 -11.731 -41.508  1.00  0.00     0.007 C 
ATOM     17  C   UNL     1      -5.482 -10.190 -40.207  1.00  0.00     0.012 C 
ATOM     18  C   UNL     1      -3.060 -11.335 -38.662  1.00  0.00     0.000 C 
ATOM     19  C   UNL     1      -4.053 -12.885 -40.484  1.00  0.00     0.005 C 
ATOM     20  C   UNL     1      -3.048 -12.756 -39.296  1.00  0.00     0.003 C 
ATOM     21  C   UNL     1      -1.873 -11.232 -37.694  1.00  0.00     0.031 C 
ATOM     22  C   UNL     1      -3.179 -13.899 -38.204  1.00  0.00    -0.008 C 
ATOM     23  C   UNL     1      -1.926 -12.313 -36.661  1.00  0.00    -0.027 C 
ATOM     24  C   UNL     1      -2.468 -13.529 -36.888  1.00  0.00    -0.065 C 
ATOM     25  C   UNL     1      -4.673 -14.189 -37.851  1.00  0.00     0.014 C 
ATOM     26  C   UNL     1      -2.522 -15.182 -38.779  1.00  0.00     0.016 C 
ATOM     27  C   UNL     1      -2.615 -14.478 -35.717  1.00  0.00     0.063 C 
ATOM     28  C   UNL     1      -4.866 -15.138 -36.649  1.00  0.00     0.033 C 
ATOM     29  C   UNL     1      -4.107 -14.660 -35.404  1.00  0.00     0.118 C 
BRANCH  29  30
ATOM     30  O   UNL     1      -4.268 -15.603 -34.378  1.00  0.00    -0.393 OA
ATOM     31  H   UNL     1      -3.460 -15.544 -33.805  1.00  0.00     0.210 HD
ENDBRANCH  29  30
ENDBRANCH   9  11
ENDBRANCH   1   9
TORSDOF 7
ENDMDL
MODEL 8
REMARK VINA RESULT:    -5.113     12.135     15.159
REMARK INTER + INTRA:          -8.876
REMARK INTER:                  -5.643
REMARK INTRA:                  -3.233
REMARK UNBOUND:                -1.820
REMARK SMILES CC[C@H](CC[C@H](C)[C@@H]1CC[C@H]2[C@@H]3CC=C4C[C@H](O)CC[C@@]4(C)[C@H]3CC[C@@]21C)C(C)C
REMARK SMILES IDX 5 1 4 2 3 3 2 4 1 5 28 6 29 7 30 8 6 9 7 10 8 11 9 12 26 13
REMARK SMILES IDX 10 14 11 15 25 16 27 17 12 18 24 19 23 20 13 21 21 22 14 23
REMARK SMILES IDX 15 24 20 25 22 26 16 27 19 28 17 29 18 30
REMARK H PARENT 18 31
REMARK Flexibility Score: inf
ROOT
ATOM      1  C   UNL     1       0.970 -21.785 -39.162  1.00  0.00     0.004 C 
ENDROOT
BRANCH   1   2
ATOM      2  C   UNL     1       1.601 -23.196 -39.151  1.00  0.00     0.004 C 
BRANCH   2   3
ATOM      3  C   UNL     1       0.601 -24.392 -39.197  1.00  0.00    -0.009 C 
BRANCH   3   4
ATOM      4  C   UNL     1      -0.846 -23.957 -38.822  1.00  0.00     0.000 C 
ATOM      5  C   UNL     1      -1.331 -24.396 -37.441  1.00  0.00     0.004 C 
ENDBRANCH   3   4
BRANCH   3   6
ATOM      6  C   UNL     1       0.715 -25.281 -40.483  1.00  0.00    -0.014 C 
ATOM      7  C   UNL     1      -0.386 -26.356 -40.552  1.00  0.00     0.007 C 
ATOM      8  C   UNL     1       2.083 -25.984 -40.554  1.00  0.00     0.007 C 
ENDBRANCH   3   6
ENDBRANCH   2   3
ENDBRANCH   1   2
BRANCH   1   9
ATOM      9  C   UNL     1       1.494 -20.927 -40.357  1.00  0.00    -0.011 C 
ATOM     10  C   UNL     1       2.014 -19.584 -39.781  1.00  0.00     0.008 C 
BRANCH   9  11
ATOM     11  C   UNL     1       0.381 -20.715 -41.449  1.00  0.00    -0.002 C 
ATOM     12  C   UNL     1      -1.060 -20.784 -40.848  1.00  0.00     0.005 C 
ATOM     13  C   UNL     1       0.325 -21.712 -42.672  1.00  0.00    -0.026 C 
ATOM     14  C   UNL     1      -1.874 -21.773 -41.679  1.00  0.00     0.005 C 
ATOM     15  C   UNL     1      -0.810 -22.668 -42.272  1.00  0.00    -0.001 C 
ATOM     16  C   UNL     1       1.557 -22.603 -42.972  1.00  0.00     0.007 C 
ATOM     17  C   UNL     1      -0.008 -20.856 -43.938  1.00  0.00     0.012 C 
ATOM     18  C   UNL     1      -1.231 -23.644 -43.397  1.00  0.00     0.000 C 
ATOM     19  C   UNL     1       1.266 -23.638 -44.085  1.00  0.00     0.005 C 
ATOM     20  C   UNL     1      -0.003 -24.507 -43.807  1.00  0.00     0.003 C 
ATOM     21  C   UNL     1      -2.333 -24.589 -42.898  1.00  0.00     0.031 C 
ATOM     22  C   UNL     1      -0.353 -25.536 -44.961  1.00  0.00    -0.008 C 
ATOM     23  C   UNL     1      -2.679 -25.609 -43.936  1.00  0.00    -0.027 C 
ATOM     24  C   UNL     1      -1.791 -26.077 -44.839  1.00  0.00    -0.065 C 
ATOM     25  C   UNL     1      -0.228 -24.883 -46.374  1.00  0.00     0.014 C 
ATOM     26  C   UNL     1       0.636 -26.728 -44.850  1.00  0.00     0.016 C 
ATOM     27  C   UNL     1      -2.300 -26.978 -45.945  1.00  0.00     0.063 C 
ATOM     28  C   UNL     1      -0.754 -25.763 -47.527  1.00  0.00     0.033 C 
ATOM     29  C   UNL     1      -2.193 -26.237 -47.285  1.00  0.00     0.118 C 
BRANCH  29  30
ATOM     30  O   UNL     1      -2.579 -27.087 -48.333  1.00  0.00    -0.393 OA
ATOM     31  H   UNL     1      -3.518 -26.856 -48.558  1.00  0.00     0.210 HD
ENDBRANCH  29  30
ENDBRANCH   9  11
ENDBRANCH   1   9
TORSDOF 7
ENDMDL
