MODEL 1
REMARK VINA RESULT:    -6.896      0.000      0.000
REMARK INTER + INTRA:         -11.257
REMARK INTER:                 -10.121
REMARK INTRA:                  -1.135
REMARK UNBOUND:                -1.135
REMARK SMILES O=c1c(O[C@H]2O[C@@H](CO)[C@H](O)[C@@H](O)[C@H]2O)c(-c2ccc(O)c(O)c2)oc2cc(O)cc(O)c12
REMARK SMILES IDX 4 1 3 2 16 3 25 4 2 5 26 6 1 7 33 8 27 9 31 10 28 11 30 12
REMARK SMILES IDX 17 13 18 14 19 15 20 16 24 17 22 18 21 19 23 21 32 23 29 25
REMARK SMILES IDX 5 27 14 28 6 29 12 30 7 31 10 32 15 33 13 35 8 37 9 38 11 40
REMARK H PARENT 21 20 23 22 32 24 29 26 15 34 13 36 9 39 11 41
REMARK Flexibility Score: inf
ROOT
ATOM      1  O   UNL     1      13.079   0.665   1.447  1.00  0.00    -0.454 OA
ENDROOT
BRANCH   1   2
ATOM      2  C   UNL     1      12.248   1.587   0.777  1.00  0.00     0.214 A 
ATOM      3  C   UNL     1      12.753   2.210  -0.383  1.00  0.00     0.180 A 
ATOM      4  O   UNL     1      12.040   3.139  -1.010  1.00  0.00    -0.452 OA
ATOM      5  C   UNL     1      10.954   1.950   1.220  1.00  0.00     0.239 A 
ATOM      6  C   UNL     1      10.831   3.517  -0.620  1.00  0.00     0.146 A 
ATOM      7  O   UNL     1      10.454   1.409   2.241  1.00  0.00    -0.285 OA
ATOM      8  C   UNL     1      10.225   2.932   0.515  1.00  0.00     0.111 A 
ATOM      9  C   UNL     1      10.161   4.505  -1.348  1.00  0.00     0.094 A 
ATOM     10  C   UNL     1       8.929   3.357   0.898  1.00  0.00     0.134 A 
ATOM     11  C   UNL     1       8.883   4.924  -0.963  1.00  0.00     0.123 A 
ATOM     12  C   UNL     1       8.273   4.349   0.154  1.00  0.00     0.093 A 
BRANCH   3  13
ATOM     13  C   UNL     1      14.085   1.872  -0.931  1.00  0.00     0.025 A 
ATOM     14  C   UNL     1      15.225   2.613  -0.580  1.00  0.00     0.016 A 
ATOM     15  C   UNL     1      16.474   2.272  -1.101  1.00  0.00     0.051 A 
ATOM     16  C   UNL     1      16.615   1.183  -1.968  1.00  0.00     0.157 A 
ATOM     17  C   UNL     1      14.226   0.765  -1.780  1.00  0.00     0.062 A 
ATOM     18  C   UNL     1      15.476   0.417  -2.309  1.00  0.00     0.158 A 
BRANCH  16  19
ATOM     19  O   UNL     1      17.890   0.897  -2.457  1.00  0.00    -0.504 OA
ATOM     20  H   UNL     1      18.686   1.510  -2.350  1.00  0.00     0.293 HD
ENDBRANCH  16  19
BRANCH  18  21
ATOM     21  O   UNL     1      15.537  -0.687  -3.163  1.00  0.00    -0.504 OA
ATOM     22  H   UNL     1      14.911  -1.476  -3.111  1.00  0.00     0.293 HD
ENDBRANCH  18  21
ENDBRANCH   3  13
BRANCH  10  23
ATOM     23  O   UNL     1       8.289   2.805   2.008  1.00  0.00    -0.507 OA
ATOM     24  H   UNL     1       8.367   1.820   2.234  1.00  0.00     0.293 HD
ENDBRANCH  10  23
BRANCH  11  25
ATOM     25  O   UNL     1       8.212   5.910  -1.683  1.00  0.00    -0.508 OA
ATOM     26  H   UNL     1       7.203   5.900  -1.780  1.00  0.00     0.293 HD
ENDBRANCH  11  25
ENDBRANCH   1   2
BRANCH   1  27
ATOM     27  C   UNL     1      13.320   0.574   2.850  1.00  0.00     0.339 C 
ATOM     28  C   UNL     1      14.052   1.845   3.309  1.00  0.00     0.214 C 
ATOM     29  O   UNL     1      14.124  -0.560   3.112  1.00  0.00    -0.332 OA
ATOM     30  C   UNL     1      14.343   1.799   4.833  1.00  0.00     0.180 C 
ATOM     31  C   UNL     1      14.416  -0.762   4.494  1.00  0.00     0.179 C 
ATOM     32  C   UNL     1      14.043   0.415   5.458  1.00  0.00     0.177 C 
BRANCH  28  33
ATOM     33  O   UNL     1      15.254   1.976   2.587  1.00  0.00    -0.384 OA
ATOM     34  H   UNL     1      15.025   1.910   1.623  1.00  0.00     0.211 HD
ENDBRANCH  28  33
BRANCH  30  35
ATOM     35  O   UNL     1      15.678   2.166   5.089  1.00  0.00    -0.387 OA
ATOM     36  H   UNL     1      15.925   2.860   4.424  1.00  0.00     0.211 HD
ENDBRANCH  30  35
BRANCH  31  37
ATOM     37  C   UNL     1      15.905  -1.125   4.607  1.00  0.00     0.191 C 
BRANCH  37  38
ATOM     38  O   UNL     1      16.438  -0.676   5.824  1.00  0.00    -0.394 OA
ATOM     39  H   UNL     1      15.841   0.044   6.159  1.00  0.00     0.210 HD
ENDBRANCH  37  38
ENDBRANCH  31  37
BRANCH  32  40
ATOM     40  O   UNL     1      12.677   0.345   5.786  1.00  0.00    -0.387 OA
ATOM     41  H   UNL     1      12.539   0.918   6.585  1.00  0.00     0.211 HD
ENDBRANCH  32  40
ENDBRANCH   1  27
TORSDOF 12
ENDMDL
MODEL 2
REMARK VINA RESULT:    -6.701      1.720      6.531
REMARK INTER + INTRA:         -10.971
REMARK INTER:                  -9.285
REMARK INTRA:                  -1.685
REMARK UNBOUND:                -1.135
REMARK SMILES O=c1c(O[C@H]2O[C@@H](CO)[C@H](O)[C@@H](O)[C@H]2O)c(-c2ccc(O)c(O)c2)oc2cc(O)cc(O)c12
REMARK SMILES IDX 4 1 3 2 16 3 25 4 2 5 26 6 1 7 33 8 27 9 31 10 28 11 30 12
REMARK SMILES IDX 17 13 18 14 19 15 20 16 24 17 22 18 21 19 23 21 32 23 29 25
REMARK SMILES IDX 5 27 14 28 6 29 12 30 7 31 10 32 15 33 13 35 8 37 9 38 11 40
REMARK H PARENT 21 20 23 22 32 24 29 26 15 34 13 36 9 39 11 41
REMARK Flexibility Score: inf
ROOT
ATOM      1  O   UNL     1      12.202   0.664   1.619  1.00  0.00    -0.454 OA
ENDROOT
BRANCH   1   2
ATOM      2  C   UNL     1      13.140   0.737   2.669  1.00  0.00     0.214 A 
ATOM      3  C   UNL     1      14.336   1.446   2.438  1.00  0.00     0.180 A 
ATOM      4  O   UNL     1      15.285   1.484   3.367  1.00  0.00    -0.452 OA
ATOM      5  C   UNL     1      12.968   0.111   3.927  1.00  0.00     0.239 A 
ATOM      6  C   UNL     1      15.168   0.900   4.552  1.00  0.00     0.146 A 
ATOM      7  O   UNL     1      11.909  -0.520   4.186  1.00  0.00    -0.285 OA
ATOM      8  C   UNL     1      13.996   0.189   4.891  1.00  0.00     0.111 A 
ATOM      9  C   UNL     1      16.225   0.998   5.463  1.00  0.00     0.094 A 
ATOM     10  C   UNL     1      13.905  -0.416   6.169  1.00  0.00     0.134 A 
ATOM     11  C   UNL     1      16.131   0.394   6.722  1.00  0.00     0.123 A 
ATOM     12  C   UNL     1      14.975  -0.306   7.070  1.00  0.00     0.093 A 
BRANCH   3  13
ATOM     13  C   UNL     1      14.589   2.151   1.161  1.00  0.00     0.025 A 
ATOM     14  C   UNL     1      14.646   3.552   1.103  1.00  0.00     0.016 A 
ATOM     15  C   UNL     1      14.894   4.197  -0.110  1.00  0.00     0.051 A 
ATOM     16  C   UNL     1      15.105   3.462  -1.281  1.00  0.00     0.157 A 
ATOM     17  C   UNL     1      14.824   1.409  -0.006  1.00  0.00     0.062 A 
ATOM     18  C   UNL     1      15.073   2.048  -1.228  1.00  0.00     0.158 A 
BRANCH  16  19
ATOM     19  O   UNL     1      15.345   4.166  -2.462  1.00  0.00    -0.504 OA
ATOM     20  H   UNL     1      15.723   3.750  -3.301  1.00  0.00     0.293 HD
ENDBRANCH  16  19
BRANCH  18  21
ATOM     21  O   UNL     1      15.279   1.246  -2.352  1.00  0.00    -0.504 OA
ATOM     22  H   UNL     1      15.603   0.291  -2.313  1.00  0.00     0.293 HD
ENDBRANCH  18  21
ENDBRANCH   3  13
BRANCH  10  23
ATOM     23  O   UNL     1      12.765  -1.125   6.551  1.00  0.00    -0.507 OA
ATOM     24  H   UNL     1      11.935  -1.153   5.969  1.00  0.00     0.293 HD
ENDBRANCH  10  23
BRANCH  11  25
ATOM     25  O   UNL     1      17.181   0.486   7.632  1.00  0.00    -0.508 OA
ATOM     26  H   UNL     1      17.855  -0.263   7.742  1.00  0.00     0.293 HD
ENDBRANCH  11  25
ENDBRANCH   1   2
BRANCH   1  27
ATOM     27  C   UNL     1      10.984   1.396   1.491  1.00  0.00     0.339 C 
ATOM     28  C   UNL     1      10.427   1.185   0.075  1.00  0.00     0.214 C 
ATOM     29  O   UNL     1      11.243   2.771   1.701  1.00  0.00    -0.332 OA
ATOM     30  C   UNL     1       9.098   1.963  -0.122  1.00  0.00     0.180 C 
ATOM     31  C   UNL     1      10.087   3.603   1.615  1.00  0.00     0.179 C 
ATOM     32  C   UNL     1       8.791   2.928   1.050  1.00  0.00     0.177 C 
BRANCH  28  33
ATOM     33  O   UNL     1      11.382   1.607  -0.869  1.00  0.00    -0.384 OA
ATOM     34  H   UNL     1      11.037   1.355  -1.767  1.00  0.00     0.211 HD
ENDBRANCH  28  33
BRANCH  30  35
ATOM     35  O   UNL     1       9.120   2.673  -1.337  1.00  0.00    -0.387 OA
ATOM     36  H   UNL     1       9.291   2.013  -2.060  1.00  0.00     0.211 HD
ENDBRANCH  30  35
BRANCH  31  37
ATOM     37  C   UNL     1      10.469   4.847   0.798  1.00  0.00     0.191 C 
BRANCH  37  38
ATOM     38  O   UNL     1      11.229   4.493  -0.327  1.00  0.00    -0.394 OA
ATOM     39  H   UNL     1      12.147   4.842  -0.184  1.00  0.00     0.210 HD
ENDBRANCH  37  38
ENDBRANCH  31  37
BRANCH  32  40
ATOM     40  O   UNL     1       8.142   2.215   2.075  1.00  0.00    -0.387 OA
ATOM     41  H   UNL     1       7.946   2.863   2.801  1.00  0.00     0.211 HD
ENDBRANCH  32  40
ENDBRANCH   1  27
TORSDOF 12
ENDMDL
MODEL 3
REMARK VINA RESULT:    -5.767      2.128      7.429
REMARK INTER + INTRA:          -9.600
REMARK INTER:                  -8.260
REMARK INTRA:                  -1.341
REMARK UNBOUND:                -1.135
REMARK SMILES O=c1c(O[C@H]2O[C@@H](CO)[C@H](O)[C@@H](O)[C@H]2O)c(-c2ccc(O)c(O)c2)oc2cc(O)cc(O)c12
REMARK SMILES IDX 4 1 3 2 16 3 25 4 2 5 26 6 1 7 33 8 27 9 31 10 28 11 30 12
REMARK SMILES IDX 17 13 18 14 19 15 20 16 24 17 22 18 21 19 23 21 32 23 29 25
REMARK SMILES IDX 5 27 14 28 6 29 12 30 7 31 10 32 15 33 13 35 8 37 9 38 11 40
REMARK H PARENT 21 20 23 22 32 24 29 26 15 34 13 36 9 39 11 41
REMARK Flexibility Score: inf
ROOT
ATOM      1  O   UNL     1      13.065   2.659   1.477  1.00  0.00    -0.454 OA
ENDROOT
BRANCH   1   2
ATOM      2  C   UNL     1      13.467   1.878   2.580  1.00  0.00     0.214 A 
ATOM      3  C   UNL     1      12.693   0.745   2.904  1.00  0.00     0.180 A 
ATOM      4  O   UNL     1      12.985   0.016   3.976  1.00  0.00    -0.452 OA
ATOM      5  C   UNL     1      14.579   2.182   3.400  1.00  0.00     0.239 A 
ATOM      6  C   UNL     1      14.009   0.276   4.777  1.00  0.00     0.146 A 
ATOM      7  O   UNL     1      15.311   3.174   3.141  1.00  0.00    -0.285 OA
ATOM      8  C   UNL     1      14.863   1.372   4.521  1.00  0.00     0.111 A 
ATOM      9  C   UNL     1      14.233  -0.552   5.882  1.00  0.00     0.094 A 
ATOM     10  C   UNL     1      15.951   1.615   5.396  1.00  0.00     0.134 A 
ATOM     11  C   UNL     1      15.306  -0.305   6.744  1.00  0.00     0.123 A 
ATOM     12  C   UNL     1      16.160   0.772   6.498  1.00  0.00     0.093 A 
BRANCH   3  13
ATOM     13  C   UNL     1      11.528   0.338   2.087  1.00  0.00     0.025 A 
ATOM     14  C   UNL     1      11.648  -0.634   1.082  1.00  0.00     0.016 A 
ATOM     15  C   UNL     1      10.535  -1.009   0.328  1.00  0.00     0.051 A 
ATOM     16  C   UNL     1       9.282  -0.437   0.570  1.00  0.00     0.157 A 
ATOM     17  C   UNL     1      10.269   0.897   2.349  1.00  0.00     0.062 A 
ATOM     18  C   UNL     1       9.146   0.527   1.596  1.00  0.00     0.158 A 
BRANCH  16  19
ATOM     19  O   UNL     1       8.209  -0.853  -0.221  1.00  0.00    -0.504 OA
ATOM     20  H   UNL     1       8.311  -1.361  -1.088  1.00  0.00     0.293 HD
ENDBRANCH  16  19
BRANCH  18  21
ATOM     21  O   UNL     1       7.928   1.139   1.900  1.00  0.00    -0.504 OA
ATOM     22  H   UNL     1       7.037   0.838   1.533  1.00  0.00     0.293 HD
ENDBRANCH  18  21
ENDBRANCH   3  13
BRANCH  10  23
ATOM     23  O   UNL     1      16.823   2.683   5.181  1.00  0.00    -0.507 OA
ATOM     24  H   UNL     1      17.770   2.540   4.852  1.00  0.00     0.293 HD
ENDBRANCH  10  23
BRANCH  11  25
ATOM     25  O   UNL     1      15.533  -1.125   7.847  1.00  0.00    -0.508 OA
ATOM     26  H   UNL     1      16.182  -0.860   8.580  1.00  0.00     0.293 HD
ENDBRANCH  11  25
ENDBRANCH   1   2
BRANCH   1  27
ATOM     27  C   UNL     1      13.777   2.873   0.260  1.00  0.00     0.339 C 
ATOM     28  C   UNL     1      12.769   3.215  -0.848  1.00  0.00     0.214 C 
ATOM     29  O   UNL     1      14.479   1.693  -0.082  1.00  0.00    -0.332 OA
ATOM     30  C   UNL     1      13.491   3.456  -2.201  1.00  0.00     0.180 C 
ATOM     31  C   UNL     1      15.246   1.797  -1.281  1.00  0.00     0.179 C 
ATOM     32  C   UNL     1      14.990   3.070  -2.157  1.00  0.00     0.177 C 
BRANCH  28  33
ATOM     33  O   UNL     1      11.840   2.165  -0.973  1.00  0.00    -0.384 OA
ATOM     34  H   UNL     1      12.138   1.598  -1.733  1.00  0.00     0.211 HD
ENDBRANCH  28  33
BRANCH  30  35
ATOM     35  O   UNL     1      12.842   2.755  -3.236  1.00  0.00    -0.387 OA
ATOM     36  H   UNL     1      12.638   1.846  -2.891  1.00  0.00     0.211 HD
ENDBRANCH  30  35
BRANCH  31  37
ATOM     37  C   UNL     1      15.022   0.509  -2.089  1.00  0.00     0.191 C 
BRANCH  37  38
ATOM     38  O   UNL     1      16.222   0.066  -2.666  1.00  0.00    -0.394 OA
ATOM     39  H   UNL     1      16.905   0.046  -1.945  1.00  0.00     0.210 HD
ENDBRANCH  37  38
ENDBRANCH  31  37
BRANCH  32  40
ATOM     40  O   UNL     1      15.729   4.153  -1.648  1.00  0.00    -0.387 OA
ATOM     41  H   UNL     1      15.863   3.984  -0.679  1.00  0.00     0.211 HD
ENDBRANCH  32  40
ENDBRANCH   1  27
TORSDOF 12
ENDMDL
MODEL 4
REMARK VINA RESULT:    -5.622      1.815      3.034
REMARK INTER + INTRA:          -9.387
REMARK INTER:                  -8.385
REMARK INTRA:                  -1.002
REMARK UNBOUND:                -1.135
REMARK SMILES O=c1c(O[C@H]2O[C@@H](CO)[C@H](O)[C@@H](O)[C@H]2O)c(-c2ccc(O)c(O)c2)oc2cc(O)cc(O)c12
REMARK SMILES IDX 4 1 3 2 16 3 25 4 2 5 26 6 1 7 33 8 27 9 31 10 28 11 30 12
REMARK SMILES IDX 17 13 18 14 19 15 20 16 24 17 22 18 21 19 23 21 32 23 29 25
REMARK SMILES IDX 5 27 14 28 6 29 12 30 7 31 10 32 15 33 13 35 8 37 9 38 11 40
REMARK H PARENT 21 20 23 22 32 24 29 26 15 34 13 36 9 39 11 41
REMARK Flexibility Score: inf
ROOT
ATOM      1  O   UNL     1      12.602   3.031   1.625  1.00  0.00    -0.454 OA
ENDROOT
BRANCH   1   2
ATOM      2  C   UNL     1      11.773   3.678   0.685  1.00  0.00     0.214 A 
ATOM      3  C   UNL     1      12.079   3.525  -0.682  1.00  0.00     0.180 A 
ATOM      4  O   UNL     1      11.375   4.172  -1.605  1.00  0.00    -0.452 OA
ATOM      5  C   UNL     1      10.675   4.501   1.035  1.00  0.00     0.239 A 
ATOM      6  C   UNL     1      10.350   4.961  -1.318  1.00  0.00     0.146 A 
ATOM      7  O   UNL     1      10.353   4.655   2.242  1.00  0.00    -0.285 OA
ATOM      8  C   UNL     1       9.945   5.158   0.021  1.00  0.00     0.111 A 
ATOM      9  C   UNL     1       9.672   5.599  -2.362  1.00  0.00     0.094 A 
ATOM     10  C   UNL     1       8.840   6.004   0.288  1.00  0.00     0.134 A 
ATOM     11  C   UNL     1       8.585   6.437  -2.092  1.00  0.00     0.123 A 
ATOM     12  C   UNL     1       8.173   6.634  -0.773  1.00  0.00     0.093 A 
BRANCH   3  13
ATOM     13  C   UNL     1      13.193   2.665  -1.139  1.00  0.00     0.025 A 
ATOM     14  C   UNL     1      12.951   1.439  -1.778  1.00  0.00     0.016 A 
ATOM     15  C   UNL     1      14.016   0.646  -2.209  1.00  0.00     0.051 A 
ATOM     16  C   UNL     1      15.339   1.064  -2.025  1.00  0.00     0.157 A 
ATOM     17  C   UNL     1      14.517   3.098  -0.974  1.00  0.00     0.062 A 
ATOM     18  C   UNL     1      15.592   2.309  -1.402  1.00  0.00     0.158 A 
BRANCH  16  19
ATOM     19  O   UNL     1      16.359   0.225  -2.475  1.00  0.00    -0.504 OA
ATOM     20  H   UNL     1      16.200  -0.651  -2.953  1.00  0.00     0.293 HD
ENDBRANCH  16  19
BRANCH  18  21
ATOM     21  O   UNL     1      16.884   2.796  -1.188  1.00  0.00    -0.504 OA
ATOM     22  H   UNL     1      17.329   3.491  -1.769  1.00  0.00     0.293 HD
ENDBRANCH  18  21
ENDBRANCH   3  13
BRANCH  10  23
ATOM     23  O   UNL     1       8.402   6.225   1.595  1.00  0.00    -0.507 OA
ATOM     24  H   UNL     1       7.996   7.109   1.879  1.00  0.00     0.293 HD
ENDBRANCH  10  23
BRANCH  11  25
ATOM     25  O   UNL     1       7.907   7.077  -3.127  1.00  0.00    -0.508 OA
ATOM     26  H   UNL     1       8.219   7.969  -3.493  1.00  0.00     0.293 HD
ENDBRANCH  11  25
ENDBRANCH   1   2
BRANCH   1  27
ATOM     27  C   UNL     1      12.803   1.627   1.782  1.00  0.00     0.339 C 
ATOM     28  C   UNL     1      11.449   0.915   1.639  1.00  0.00     0.214 C 
ATOM     29  O   UNL     1      13.340   1.375   3.067  1.00  0.00    -0.332 OA
ATOM     30  C   UNL     1      11.607  -0.620   1.804  1.00  0.00     0.180 C 
ATOM     31  C   UNL     1      13.600  -0.003   3.330  1.00  0.00     0.179 C 
ATOM     32  C   UNL     1      13.018  -1.026   2.296  1.00  0.00     0.177 C 
BRANCH  28  33
ATOM     33  O   UNL     1      10.553   1.418   2.602  1.00  0.00    -0.384 OA
ATOM     34  H   UNL     1      10.178   2.263   2.239  1.00  0.00     0.211 HD
ENDBRANCH  28  33
BRANCH  30  35
ATOM     35  O   UNL     1      10.627  -1.124   2.680  1.00  0.00    -0.387 OA
ATOM     36  H   UNL     1      10.817  -0.750   3.580  1.00  0.00     0.211 HD
ENDBRANCH  30  35
BRANCH  31  37
ATOM     37  C   UNL     1      13.105  -0.306   4.753  1.00  0.00     0.191 C 
BRANCH  37  38
ATOM     38  O   UNL     1      11.746   0.014   4.889  1.00  0.00    -0.394 OA
ATOM     39  H   UNL     1      11.459  -0.299   5.786  1.00  0.00     0.210 HD
ENDBRANCH  37  38
ENDBRANCH  31  37
BRANCH  32  40
ATOM     40  O   UNL     1      13.881  -1.125   1.189  1.00  0.00    -0.387 OA
ATOM     41  H   UNL     1      14.345  -2.000   1.259  1.00  0.00     0.211 HD
ENDBRANCH  32  40
ENDBRANCH   1  27
TORSDOF 12
ENDMDL
MODEL 5
REMARK VINA RESULT:    -5.561      2.192      7.525
REMARK INTER + INTRA:          -9.297
REMARK INTER:                  -8.225
REMARK INTRA:                  -1.071
REMARK UNBOUND:                -1.135
REMARK SMILES O=c1c(O[C@H]2O[C@@H](CO)[C@H](O)[C@@H](O)[C@H]2O)c(-c2ccc(O)c(O)c2)oc2cc(O)cc(O)c12
REMARK SMILES IDX 4 1 3 2 16 3 25 4 2 5 26 6 1 7 33 8 27 9 31 10 28 11 30 12
REMARK SMILES IDX 17 13 18 14 19 15 20 16 24 17 22 18 21 19 23 21 32 23 29 25
REMARK SMILES IDX 5 27 14 28 6 29 12 30 7 31 10 32 15 33 13 35 8 37 9 38 11 40
REMARK H PARENT 21 20 23 22 32 24 29 26 15 34 13 36 9 39 11 41
REMARK Flexibility Score: inf
ROOT
ATOM      1  O   UNL     1      13.142   2.634   1.393  1.00  0.00    -0.454 OA
ENDROOT
BRANCH   1   2
ATOM      2  C   UNL     1      13.458   1.858   2.528  1.00  0.00     0.214 A 
ATOM      3  C   UNL     1      12.602   0.787   2.855  1.00  0.00     0.180 A 
ATOM      4  O   UNL     1      12.812   0.071   3.955  1.00  0.00    -0.452 OA
ATOM      5  C   UNL     1      14.562   2.113   3.377  1.00  0.00     0.239 A 
ATOM      6  C   UNL     1      13.825   0.286   4.782  1.00  0.00     0.146 A 
ATOM      7  O   UNL     1      15.364   3.048   3.117  1.00  0.00    -0.285 OA
ATOM      8  C   UNL     1      14.756   1.317   4.526  1.00  0.00     0.111 A 
ATOM      9  C   UNL     1      13.961  -0.524   5.914  1.00  0.00     0.094 A 
ATOM     10  C   UNL     1      15.830   1.513   5.430  1.00  0.00     0.134 A 
ATOM     11  C   UNL     1      15.020  -0.323   6.805  1.00  0.00     0.123 A 
ATOM     12  C   UNL     1      15.949   0.690   6.560  1.00  0.00     0.093 A 
BRANCH   3  13
ATOM     13  C   UNL     1      11.439   0.434   2.011  1.00  0.00     0.025 A 
ATOM     14  C   UNL     1      11.467  -0.687   1.167  1.00  0.00     0.016 A 
ATOM     15  C   UNL     1      10.356  -1.008   0.385  1.00  0.00     0.051 A 
ATOM     16  C   UNL     1       9.195  -0.229   0.438  1.00  0.00     0.157 A 
ATOM     17  C   UNL     1      10.269   1.203   2.085  1.00  0.00     0.062 A 
ATOM     18  C   UNL     1       9.150   0.890   1.303  1.00  0.00     0.158 A 
BRANCH  16  19
ATOM     19  O   UNL     1       8.120  -0.601  -0.371  1.00  0.00    -0.504 OA
ATOM     20  H   UNL     1       7.691   0.007  -1.054  1.00  0.00     0.293 HD
ENDBRANCH  16  19
BRANCH  18  21
ATOM     21  O   UNL     1       8.026   1.712   1.415  1.00  0.00    -0.504 OA
ATOM     22  H   UNL     1       7.688   2.311   0.677  1.00  0.00     0.293 HD
ENDBRANCH  18  21
ENDBRANCH   3  13
BRANCH  10  23
ATOM     23  O   UNL     1      16.776   2.517   5.217  1.00  0.00    -0.507 OA
ATOM     24  H   UNL     1      16.506   3.459   4.958  1.00  0.00     0.293 HD
ENDBRANCH  10  23
BRANCH  11  25
ATOM     25  O   UNL     1      15.159  -1.125   7.935  1.00  0.00    -0.508 OA
ATOM     26  H   UNL     1      14.420  -1.200   8.626  1.00  0.00     0.293 HD
ENDBRANCH  11  25
ENDBRANCH   1   2
BRANCH   1  27
ATOM     27  C   UNL     1      13.223   2.240   0.025  1.00  0.00     0.339 C 
ATOM     28  C   UNL     1      14.607   1.626  -0.232  1.00  0.00     0.214 C 
ATOM     29  O   UNL     1      13.047   3.379  -0.798  1.00  0.00    -0.332 OA
ATOM     30  C   UNL     1      14.753   1.181  -1.712  1.00  0.00     0.180 C 
ATOM     31  C   UNL     1      13.092   3.101  -2.197  1.00  0.00     0.179 C 
ATOM     32  C   UNL     1      13.584   1.670  -2.601  1.00  0.00     0.177 C 
BRANCH  28  33
ATOM     33  O   UNL     1      15.603   2.567   0.093  1.00  0.00    -0.384 OA
ATOM     34  H   UNL     1      15.144   3.353   0.491  1.00  0.00     0.211 HD
ENDBRANCH  28  33
BRANCH  30  35
ATOM     35  O   UNL     1      15.980   1.626  -2.241  1.00  0.00    -0.387 OA
ATOM     36  H   UNL     1      16.701   1.207  -1.702  1.00  0.00     0.211 HD
ENDBRANCH  30  35
BRANCH  31  37
ATOM     37  C   UNL     1      13.945   4.193  -2.861  1.00  0.00     0.191 C 
BRANCH  37  38
ATOM     38  O   UNL     1      13.133   5.161  -3.471  1.00  0.00    -0.394 OA
ATOM     39  H   UNL     1      13.646   6.010  -3.483  1.00  0.00     0.210 HD
ENDBRANCH  37  38
ENDBRANCH  31  37
BRANCH  32  40
ATOM     40  O   UNL     1      12.518   0.756  -2.503  1.00  0.00    -0.387 OA
ATOM     41  H   UNL     1      11.679   1.274  -2.621  1.00  0.00     0.211 HD
ENDBRANCH  32  40
ENDBRANCH   1  27
TORSDOF 12
ENDMDL
MODEL 6
REMARK VINA RESULT:    -5.266      2.278      5.788
REMARK INTER + INTRA:          -8.864
REMARK INTER:                  -7.284
REMARK INTRA:                  -1.580
REMARK UNBOUND:                -1.135
REMARK SMILES O=c1c(O[C@H]2O[C@@H](CO)[C@H](O)[C@@H](O)[C@H]2O)c(-c2ccc(O)c(O)c2)oc2cc(O)cc(O)c12
REMARK SMILES IDX 4 1 3 2 16 3 25 4 2 5 26 6 1 7 33 8 27 9 31 10 28 11 30 12
REMARK SMILES IDX 17 13 18 14 19 15 20 16 24 17 22 18 21 19 23 21 32 23 29 25
REMARK SMILES IDX 5 27 14 28 6 29 12 30 7 31 10 32 15 33 13 35 8 37 9 38 11 40
REMARK H PARENT 21 20 23 22 32 24 29 26 15 34 13 36 9 39 11 41
REMARK Flexibility Score: inf
ROOT
ATOM      1  O   UNL     1      13.422   2.111   2.919  1.00  0.00    -0.454 OA
ENDROOT
BRANCH   1   2
ATOM      2  C   UNL     1      13.654   1.582   1.633  1.00  0.00     0.214 A 
ATOM      3  C   UNL     1      12.705   0.681   1.108  1.00  0.00     0.180 A 
ATOM      4  O   UNL     1      12.911   0.097  -0.067  1.00  0.00    -0.452 OA
ATOM      5  C   UNL     1      14.799   1.873   0.854  1.00  0.00     0.239 A 
ATOM      6  C   UNL     1      13.976   0.333  -0.821  1.00  0.00     0.146 A 
ATOM      7  O   UNL     1      15.666   2.685   1.273  1.00  0.00    -0.285 OA
ATOM      8  C   UNL     1      14.971   1.242  -0.397  1.00  0.00     0.111 A 
ATOM      9  C   UNL     1      14.102  -0.333  -2.045  1.00  0.00     0.094 A 
ATOM     10  C   UNL     1      16.092   1.472  -1.232  1.00  0.00     0.134 A 
ATOM     11  C   UNL     1      15.213  -0.104  -2.863  1.00  0.00     0.123 A 
ATOM     12  C   UNL     1      16.200   0.796  -2.456  1.00  0.00     0.093 A 
BRANCH   3  13
ATOM     13  C   UNL     1      11.467   0.338   1.843  1.00  0.00     0.025 A 
ATOM     14  C   UNL     1      11.384  -0.823   2.627  1.00  0.00     0.016 A 
ATOM     15  C   UNL     1      10.210  -1.123   3.320  1.00  0.00     0.051 A 
ATOM     16  C   UNL     1       9.104  -0.269   3.257  1.00  0.00     0.157 A 
ATOM     17  C   UNL     1      10.369   1.210   1.797  1.00  0.00     0.062 A 
ATOM     18  C   UNL     1       9.186   0.916   2.488  1.00  0.00     0.158 A 
BRANCH  16  19
ATOM     19  O   UNL     1       7.959  -0.627   3.970  1.00  0.00    -0.504 OA
ATOM     20  H   UNL     1       7.022  -0.360   3.704  1.00  0.00     0.293 HD
ENDBRANCH  16  19
BRANCH  18  21
ATOM     21  O   UNL     1       8.127   1.820   2.380  1.00  0.00    -0.504 OA
ATOM     22  H   UNL     1       7.154   1.562   2.450  1.00  0.00     0.293 HD
ENDBRANCH  18  21
ENDBRANCH   3  13
BRANCH  10  23
ATOM     23  O   UNL     1      17.098   2.364  -0.857  1.00  0.00    -0.507 OA
ATOM     24  H   UNL     1      17.450   3.070  -1.494  1.00  0.00     0.293 HD
ENDBRANCH  10  23
BRANCH  11  25
ATOM     25  O   UNL     1      15.345  -0.766  -4.081  1.00  0.00    -0.508 OA
ATOM     26  H   UNL     1      16.088  -1.435  -4.243  1.00  0.00     0.293 HD
ENDBRANCH  11  25
ENDBRANCH   1   2
BRANCH   1  27
ATOM     27  C   UNL     1      13.743   1.513   4.174  1.00  0.00     0.339 C 
ATOM     28  C   UNL     1      14.766   2.401   4.897  1.00  0.00     0.214 C 
ATOM     29  O   UNL     1      14.299   0.231   3.949  1.00  0.00    -0.332 OA
ATOM     30  C   UNL     1      15.156   1.795   6.272  1.00  0.00     0.180 C 
ATOM     31  C   UNL     1      14.644  -0.472   5.142  1.00  0.00     0.179 C 
ATOM     32  C   UNL     1      14.610   0.360   6.469  1.00  0.00     0.177 C 
BRANCH  28  33
ATOM     33  O   UNL     1      15.910   2.548   4.089  1.00  0.00    -0.384 OA
ATOM     34  H   UNL     1      15.721   3.280   3.444  1.00  0.00     0.211 HD
ENDBRANCH  28  33
BRANCH  30  35
ATOM     35  O   UNL     1      16.554   1.807   6.436  1.00  0.00    -0.387 OA
ATOM     36  H   UNL     1      16.936   1.209   5.741  1.00  0.00     0.211 HD
ENDBRANCH  30  35
BRANCH  31  37
ATOM     37  C   UNL     1      16.023  -1.114   4.921  1.00  0.00     0.191 C 
BRANCH  37  38
ATOM     38  O   UNL     1      16.766  -1.124   6.111  1.00  0.00    -0.394 OA
ATOM     39  H   UNL     1      16.215  -0.677   6.806  1.00  0.00     0.210 HD
ENDBRANCH  37  38
ENDBRANCH  31  37
BRANCH  32  40
ATOM     40  O   UNL     1      13.290   0.431   6.951  1.00  0.00    -0.387 OA
ATOM     41  H   UNL     1      12.910  -0.484   6.893  1.00  0.00     0.211 HD
ENDBRANCH  32  40
ENDBRANCH   1  27
TORSDOF 12
ENDMDL
MODEL 7
REMARK VINA RESULT:    -5.208      2.570      7.400
REMARK INTER + INTRA:          -8.779
REMARK INTER:                  -7.615
REMARK INTRA:                  -1.165
REMARK UNBOUND:                -1.135
REMARK SMILES O=c1c(O[C@H]2O[C@@H](CO)[C@H](O)[C@@H](O)[C@H]2O)c(-c2ccc(O)c(O)c2)oc2cc(O)cc(O)c12
REMARK SMILES IDX 4 1 3 2 16 3 25 4 2 5 26 6 1 7 33 8 27 9 31 10 28 11 30 12
REMARK SMILES IDX 17 13 18 14 19 15 20 16 24 17 22 18 21 19 23 21 32 23 29 25
REMARK SMILES IDX 5 27 14 28 6 29 12 30 7 31 10 32 15 33 13 35 8 37 9 38 11 40
REMARK H PARENT 21 20 23 22 32 24 29 26 15 34 13 36 9 39 11 41
REMARK Flexibility Score: inf
ROOT
ATOM      1  O   UNL     1      12.260   3.230   0.556  1.00  0.00    -0.454 OA
ENDROOT
BRANCH   1   2
ATOM      2  C   UNL     1      12.964   2.353   1.407  1.00  0.00     0.214 A 
ATOM      3  C   UNL     1      12.622   0.986   1.376  1.00  0.00     0.180 A 
ATOM      4  O   UNL     1      13.203   0.129   2.209  1.00  0.00    -0.452 OA
ATOM      5  C   UNL     1      13.966   2.770   2.315  1.00  0.00     0.239 A 
ATOM      6  C   UNL     1      14.136   0.481   3.083  1.00  0.00     0.146 A 
ATOM      7  O   UNL     1      14.318   3.978   2.368  1.00  0.00    -0.285 OA
ATOM      8  C   UNL     1      14.568   1.823   3.172  1.00  0.00     0.111 A 
ATOM      9  C   UNL     1      14.687  -0.496   3.918  1.00  0.00     0.094 A 
ATOM     10  C   UNL     1      15.572   2.161   4.114  1.00  0.00     0.134 A 
ATOM     11  C   UNL     1      15.674  -0.156   4.849  1.00  0.00     0.123 A 
ATOM     12  C   UNL     1      16.113   1.166   4.942  1.00  0.00     0.093 A 
BRANCH   3  13
ATOM     13  C   UNL     1      11.604   0.459   0.441  1.00  0.00     0.025 A 
ATOM     14  C   UNL     1      11.936   0.116  -0.879  1.00  0.00     0.016 A 
ATOM     15  C   UNL     1      10.962  -0.388  -1.743  1.00  0.00     0.051 A 
ATOM     16  C   UNL     1       9.645  -0.572  -1.306  1.00  0.00     0.157 A 
ATOM     17  C   UNL     1      10.291   0.253   0.889  1.00  0.00     0.062 A 
ATOM     18  C   UNL     1       9.306  -0.250   0.029  1.00  0.00     0.158 A 
BRANCH  16  19
ATOM     19  O   UNL     1       8.718  -1.076  -2.219  1.00  0.00    -0.504 OA
ATOM     20  H   UNL     1       7.717  -0.996  -2.110  1.00  0.00     0.293 HD
ENDBRANCH  16  19
BRANCH  18  21
ATOM     21  O   UNL     1       8.016  -0.412   0.540  1.00  0.00    -0.504 OA
ATOM     22  H   UNL     1       7.574   0.238   1.172  1.00  0.00     0.293 HD
ENDBRANCH  18  21
ENDBRANCH   3  13
BRANCH  10  23
ATOM     23  O   UNL     1      16.033   3.472   4.236  1.00  0.00    -0.507 OA
ATOM     24  H   UNL     1      16.890   3.780   3.789  1.00  0.00     0.293 HD
ENDBRANCH  10  23
BRANCH  11  25
ATOM     25  O   UNL     1      16.225  -1.125   5.684  1.00  0.00    -0.508 OA
ATOM     26  H   UNL     1      17.038  -0.930   6.257  1.00  0.00     0.293 HD
ENDBRANCH  11  25
ENDBRANCH   1   2
BRANCH   1  27
ATOM     27  C   UNL     1      10.848   3.423   0.485  1.00  0.00     0.339 C 
ATOM     28  C   UNL     1      10.428   3.462  -0.992  1.00  0.00     0.214 C 
ATOM     29  O   UNL     1      10.515   4.650   1.108  1.00  0.00    -0.332 OA
ATOM     30  C   UNL     1       8.897   3.673  -1.129  1.00  0.00     0.180 C 
ATOM     31  C   UNL     1       9.118   4.941   1.113  1.00  0.00     0.179 C 
ATOM     32  C   UNL     1       8.218   4.022   0.218  1.00  0.00     0.177 C 
BRANCH  28  33
ATOM     33  O   UNL     1      11.123   4.497  -1.647  1.00  0.00    -0.384 OA
ATOM     34  H   UNL     1      10.595   5.329  -1.522  1.00  0.00     0.211 HD
ENDBRANCH  28  33
BRANCH  30  35
ATOM     35  O   UNL     1       8.622   4.674  -2.081  1.00  0.00    -0.387 OA
ATOM     36  H   UNL     1       9.430   5.247  -2.146  1.00  0.00     0.211 HD
ENDBRANCH  30  35
BRANCH  31  37
ATOM     37  C   UNL     1       8.950   6.422   0.738  1.00  0.00     0.191 C 
BRANCH  37  38
ATOM     38  O   UNL     1       9.750   6.752  -0.367  1.00  0.00    -0.394 OA
ATOM     39  H   UNL     1       9.931   7.727  -0.318  1.00  0.00     0.210 HD
ENDBRANCH  37  38
ENDBRANCH  31  37
BRANCH  32  40
ATOM     40  O   UNL     1       7.922   2.831   0.906  1.00  0.00    -0.387 OA
ATOM     41  H   UNL     1       7.928   2.099   0.236  1.00  0.00     0.211 HD
ENDBRANCH  32  40
ENDBRANCH   1  27
TORSDOF 12
ENDMDL
MODEL 8
REMARK VINA RESULT:    -5.060      1.610      2.376
REMARK INTER + INTRA:          -8.562
REMARK INTER:                  -7.242
REMARK INTRA:                  -1.320
REMARK UNBOUND:                -1.135
REMARK SMILES O=c1c(O[C@H]2O[C@@H](CO)[C@H](O)[C@@H](O)[C@H]2O)c(-c2ccc(O)c(O)c2)oc2cc(O)cc(O)c12
REMARK SMILES IDX 4 1 3 2 16 3 25 4 2 5 26 6 1 7 33 8 27 9 31 10 28 11 30 12
REMARK SMILES IDX 17 13 18 14 19 15 20 16 24 17 22 18 21 19 23 21 32 23 29 25
REMARK SMILES IDX 5 27 14 28 6 29 12 30 7 31 10 32 15 33 13 35 8 37 9 38 11 40
REMARK H PARENT 21 20 23 22 32 24 29 26 15 34 13 36 9 39 11 41
REMARK Flexibility Score: inf
ROOT
ATOM      1  O   UNL     1      13.606   3.252   1.902  1.00  0.00    -0.454 OA
ENDROOT
BRANCH   1   2
ATOM      2  C   UNL     1      12.591   3.739   1.053  1.00  0.00     0.214 A 
ATOM      3  C   UNL     1      12.707   3.483  -0.329  1.00  0.00     0.180 A 
ATOM      4  O   UNL     1      11.818   3.982  -1.181  1.00  0.00    -0.452 OA
ATOM      5  C   UNL     1      11.483   4.498   1.500  1.00  0.00     0.239 A 
ATOM      6  C   UNL     1      10.775   4.708  -0.804  1.00  0.00     0.146 A 
ATOM      7  O   UNL     1      11.327   4.738   2.726  1.00  0.00    -0.285 OA
ATOM      8  C   UNL     1      10.554   4.995   0.561  1.00  0.00     0.111 A 
ATOM      9  C   UNL     1       9.894   5.188  -1.779  1.00  0.00     0.094 A 
ATOM     10  C   UNL     1       9.425   5.770   0.926  1.00  0.00     0.134 A 
ATOM     11  C   UNL     1       8.784   5.956  -1.413  1.00  0.00     0.123 A 
ATOM     12  C   UNL     1       8.552   6.241  -0.066  1.00  0.00     0.093 A 
BRANCH   3  13
ATOM     13  C   UNL     1      13.819   2.678  -0.881  1.00  0.00     0.025 A 
ATOM     14  C   UNL     1      13.574   1.565  -1.700  1.00  0.00     0.016 A 
ATOM     15  C   UNL     1      14.638   0.824  -2.218  1.00  0.00     0.051 A 
ATOM     16  C   UNL     1      15.961   1.184  -1.943  1.00  0.00     0.157 A 
ATOM     17  C   UNL     1      15.144   3.056  -0.622  1.00  0.00     0.062 A 
ATOM     18  C   UNL     1      16.218   2.317  -1.137  1.00  0.00     0.158 A 
BRANCH  16  19
ATOM     19  O   UNL     1      16.979   0.400  -2.488  1.00  0.00    -0.504 OA
ATOM     20  H   UNL     1      17.961   0.632  -2.435  1.00  0.00     0.293 HD
ENDBRANCH  16  19
BRANCH  18  21
ATOM     21  O   UNL     1      17.511   2.742  -0.822  1.00  0.00    -0.504 OA
ATOM     22  H   UNL     1      18.314   2.594  -1.415  1.00  0.00     0.293 HD
ENDBRANCH  18  21
ENDBRANCH   3  13
BRANCH  10  23
ATOM     23  O   UNL     1       9.163   6.076   2.263  1.00  0.00    -0.507 OA
ATOM     24  H   UNL     1       9.309   5.399   3.003  1.00  0.00     0.293 HD
ENDBRANCH  10  23
BRANCH  11  25
ATOM     25  O   UNL     1       7.905   6.438  -2.380  1.00  0.00    -0.508 OA
ATOM     26  H   UNL     1       7.053   5.942  -2.616  1.00  0.00     0.293 HD
ENDBRANCH  11  25
ENDBRANCH   1   2
BRANCH   1  27
ATOM     27  C   UNL     1      13.481   2.268   2.927  1.00  0.00     0.339 C 
ATOM     28  C   UNL     1      14.864   1.654   3.195  1.00  0.00     0.214 C 
ATOM     29  O   UNL     1      12.587   1.258   2.496  1.00  0.00    -0.332 OA
ATOM     30  C   UNL     1      14.787   0.571   4.303  1.00  0.00     0.180 C 
ATOM     31  C   UNL     1      12.370   0.223   3.454  1.00  0.00     0.179 C 
ATOM     32  C   UNL     1      13.331   0.215   4.691  1.00  0.00     0.177 C 
BRANCH  28  33
ATOM     33  O   UNL     1      15.365   1.096   2.003  1.00  0.00    -0.384 OA
ATOM     34  H   UNL     1      14.645   0.529   1.620  1.00  0.00     0.211 HD
ENDBRANCH  28  33
BRANCH  30  35
ATOM     35  O   UNL     1      15.478  -0.589   3.905  1.00  0.00    -0.387 OA
ATOM     36  H   UNL     1      15.475  -0.606   2.912  1.00  0.00     0.211 HD
ENDBRANCH  30  35
BRANCH  31  37
ATOM     37  C   UNL     1      12.413  -1.119   2.706  1.00  0.00     0.191 C 
BRANCH  37  38
ATOM     38  O   UNL     1      13.175  -1.014   1.533  1.00  0.00    -0.394 OA
ATOM     39  H   UNL     1      12.869  -0.198   1.056  1.00  0.00     0.210 HD
ENDBRANCH  37  38
ENDBRANCH  31  37
BRANCH  32  40
ATOM     40  O   UNL     1      12.873   1.134   5.654  1.00  0.00    -0.387 OA
ATOM     41  H   UNL     1      12.678   0.618   6.479  1.00  0.00     0.211 HD
ENDBRANCH  32  40
ENDBRANCH   1  27
TORSDOF 12
ENDMDL
MODEL 9
REMARK VINA RESULT:    -4.949     18.090     21.145
REMARK INTER + INTRA:          -8.399
REMARK INTER:                  -6.999
REMARK INTRA:                  -1.400
REMARK UNBOUND:                -1.135
REMARK SMILES O=c1c(O[C@H]2O[C@@H](CO)[C@H](O)[C@@H](O)[C@H]2O)c(-c2ccc(O)c(O)c2)oc2cc(O)cc(O)c12
REMARK SMILES IDX 4 1 3 2 16 3 25 4 2 5 26 6 1 7 33 8 27 9 31 10 28 11 30 12
REMARK SMILES IDX 17 13 18 14 19 15 20 16 24 17 22 18 21 19 23 21 32 23 29 25
REMARK SMILES IDX 5 27 14 28 6 29 12 30 7 31 10 32 15 33 13 35 8 37 9 38 11 40
REMARK H PARENT 21 20 23 22 32 24 29 26 15 34 13 36 9 39 11 41
REMARK Flexibility Score: inf
ROOT
ATOM      1  O   UNL     1      27.059  14.641   7.629  1.00  0.00    -0.454 OA
ENDROOT
BRANCH   1   2
ATOM      2  C   UNL     1      26.989  14.916   9.010  1.00  0.00     0.214 A 
ATOM      3  C   UNL     1      26.928  13.823   9.899  1.00  0.00     0.180 A 
ATOM      4  O   UNL     1      26.788  14.027  11.204  1.00  0.00    -0.452 OA
ATOM      5  C   UNL     1      26.941  16.221   9.553  1.00  0.00     0.239 A 
ATOM      6  C   UNL     1      26.726  15.232  11.751  1.00  0.00     0.146 A 
ATOM      7  O   UNL     1      27.010  17.229   8.801  1.00  0.00    -0.285 OA
ATOM      8  C   UNL     1      26.807  16.392  10.949  1.00  0.00     0.111 A 
ATOM      9  C   UNL     1      26.578  15.342  13.138  1.00  0.00     0.094 A 
ATOM     10  C   UNL     1      26.743  17.664  11.570  1.00  0.00     0.134 A 
ATOM     11  C   UNL     1      26.511  16.600  13.745  1.00  0.00     0.123 A 
ATOM     12  C   UNL     1      26.595  17.753  12.962  1.00  0.00     0.093 A 
BRANCH   3  13
ATOM     13  C   UNL     1      26.997  12.425   9.420  1.00  0.00     0.025 A 
ATOM     14  C   UNL     1      28.031  11.996   8.573  1.00  0.00     0.016 A 
ATOM     15  C   UNL     1      28.083  10.670   8.139  1.00  0.00     0.051 A 
ATOM     16  C   UNL     1      27.116   9.745   8.550  1.00  0.00     0.157 A 
ATOM     17  C   UNL     1      26.040  11.496   9.852  1.00  0.00     0.062 A 
ATOM     18  C   UNL     1      26.083  10.163   9.421  1.00  0.00     0.158 A 
BRANCH  16  19
ATOM     19  O   UNL     1      27.222   8.436   8.078  1.00  0.00    -0.504 OA
ATOM     20  H   UNL     1      26.515   7.978   7.520  1.00  0.00     0.293 HD
ENDBRANCH  16  19
BRANCH  18  21
ATOM     21  O   UNL     1      25.086   9.298   9.878  1.00  0.00    -0.504 OA
ATOM     22  H   UNL     1      24.189   9.183   9.430  1.00  0.00     0.293 HD
ENDBRANCH  18  21
ENDBRANCH   3  13
BRANCH  10  23
ATOM     23  O   UNL     1      26.823  18.837  10.818  1.00  0.00    -0.507 OA
ATOM     24  H   UNL     1      27.296  19.663  11.167  1.00  0.00     0.293 HD
ENDBRANCH  10  23
BRANCH  11  25
ATOM     25  O   UNL     1      26.361  16.715  15.125  1.00  0.00    -0.508 OA
ATOM     26  H   UNL     1      26.426  15.907  15.734  1.00  0.00     0.293 HD
ENDBRANCH  11  25
ENDBRANCH   1   2
BRANCH   1  27
ATOM     27  C   UNL     1      26.086  14.951   6.633  1.00  0.00     0.339 C 
ATOM     28  C   UNL     1      26.759  15.773   5.523  1.00  0.00     0.214 C 
ATOM     29  O   UNL     1      25.043  15.707   7.220  1.00  0.00    -0.332 OA
ATOM     30  C   UNL     1      25.743  16.142   4.410  1.00  0.00     0.180 C 
ATOM     31  C   UNL     1      23.998  16.061   6.315  1.00  0.00     0.179 C 
ATOM     32  C   UNL     1      24.282  15.803   4.797  1.00  0.00     0.177 C 
BRANCH  28  33
ATOM     33  O   UNL     1      27.316  16.940   6.080  1.00  0.00    -0.384 OA
ATOM     34  H   UNL     1      27.809  16.667   6.898  1.00  0.00     0.211 HD
ENDBRANCH  28  33
BRANCH  30  35
ATOM     35  O   UNL     1      25.850  17.506   4.079  1.00  0.00    -0.387 OA
ATOM     36  H   UNL     1      25.883  18.013   4.932  1.00  0.00     0.211 HD
ENDBRANCH  30  35
BRANCH  31  37
ATOM     37  C   UNL     1      23.639  17.533   6.573  1.00  0.00     0.191 C 
BRANCH  37  38
ATOM     38  O   UNL     1      24.767  18.258   6.989  1.00  0.00    -0.394 OA
ATOM     39  H   UNL     1      25.456  17.597   7.263  1.00  0.00     0.210 HD
ENDBRANCH  37  38
ENDBRANCH  31  37
BRANCH  32  40
ATOM     40  O   UNL     1      24.026  14.455   4.488  1.00  0.00    -0.387 OA
ATOM     41  H   UNL     1      24.882  13.964   4.592  1.00  0.00     0.211 HD
ENDBRANCH  32  40
ENDBRANCH   1  27
TORSDOF 12
ENDMDL
