MODEL 1
REMARK VINA RESULT:    -2.161      0.000      0.000
REMARK INTER + INTRA:          -2.161
REMARK INTER:                  -2.161
REMARK INTRA:                   0.000
REMARK UNBOUND:                 0.000
REMARK SMILES CC(=O)[O-]
REMARK SMILES IDX 1 1 2 2 3 3 4 4
REMARK H PARENT
REMARK Flexibility Score: inf
ROOT
ATOM      1  C   UNL     1       2.816 -16.624  53.663  1.00  0.00     0.063 C 
ATOM      2  C   UNL     1       3.800 -15.838  54.460  1.00  0.00     0.038 C 
ATOM      3  O   UNL     1       3.488 -14.701  54.905  1.00  0.00    -0.550 OA
ATOM      4  O   UNL     1       5.082 -16.332  54.668  1.00  0.00    -0.550 OA
ENDROOT
TORSDOF 0
ENDMDL
MODEL 2
REMARK VINA RESULT:    -2.143      9.512     10.078
REMARK INTER + INTRA:          -2.143
REMARK INTER:                  -2.143
REMARK INTRA:                   0.000
REMARK UNBOUND:                 0.000
REMARK SMILES CC(=O)[O-]
REMARK SMILES IDX 1 1 2 2 3 3 4 4
REMARK H PARENT
REMARK Flexibility Score: inf
ROOT
ATOM      1  C   UNL     1      -2.031  -7.196  55.736  1.00  0.00     0.063 C 
ATOM      2  C   UNL     1      -0.709  -6.931  55.102  1.00  0.00     0.038 C 
ATOM      3  O   UNL     1      -0.301  -5.747  54.962  1.00  0.00    -0.550 OA
ATOM      4  O   UNL     1       0.055  -7.985  54.616  1.00  0.00    -0.550 OA
ENDROOT
TORSDOF 0
ENDMDL
MODEL 3
REMARK VINA RESULT:    -2.128      1.818      1.961
REMARK INTER + INTRA:          -2.128
REMARK INTER:                  -2.128
REMARK INTRA:                   0.000
REMARK UNBOUND:                 0.000
REMARK SMILES CC(=O)[O-]
REMARK SMILES IDX 1 1 2 2 3 3 4 4
REMARK H PARENT
REMARK Flexibility Score: inf
ROOT
ATOM      1  C   UNL     1       1.198 -15.842  54.248  1.00  0.00     0.063 C 
ATOM      2  C   UNL     1       2.626 -16.268  54.216  1.00  0.00     0.038 C 
ATOM      3  O   UNL     1       3.133 -16.857  55.207  1.00  0.00    -0.550 OA
ATOM      4  O   UNL     1       3.417 -15.968  53.114  1.00  0.00    -0.550 OA
ENDROOT
TORSDOF 0
ENDMDL
MODEL 4
REMARK VINA RESULT:    -2.119      1.970      2.092
REMARK INTER + INTRA:          -2.119
REMARK INTER:                  -2.119
REMARK INTRA:                   0.000
REMARK UNBOUND:                 0.000
REMARK SMILES CC(=O)[O-]
REMARK SMILES IDX 1 1 2 2 3 3 4 4
REMARK H PARENT
REMARK Flexibility Score: inf
ROOT
ATOM      1  C   UNL     1       3.727 -16.287  53.897  1.00  0.00     0.063 C 
ATOM      2  C   UNL     1       2.508 -15.557  54.349  1.00  0.00     0.038 C 
ATOM      3  O   UNL     1       2.345 -14.347  54.041  1.00  0.00    -0.550 OA
ATOM      4  O   UNL     1       1.574 -16.194  55.156  1.00  0.00    -0.550 OA
ENDROOT
TORSDOF 0
ENDMDL
MODEL 5
REMARK VINA RESULT:    -2.108      8.084      8.546
REMARK INTER + INTRA:          -2.108
REMARK INTER:                  -2.108
REMARK INTRA:                   0.000
REMARK UNBOUND:                 0.000
REMARK SMILES CC(=O)[O-]
REMARK SMILES IDX 1 1 2 2 3 3 4 4
REMARK H PARENT
REMARK Flexibility Score: inf
ROOT
ATOM      1  C   UNL     1       7.875  -7.162  54.256  1.00  0.00     0.063 C 
ATOM      2  C   UNL     1       7.822  -8.587  54.692  1.00  0.00     0.038 C 
ATOM      3  O   UNL     1       6.911  -9.344  54.265  1.00  0.00    -0.550 OA
ATOM      4  O   UNL     1       8.745  -9.069  55.611  1.00  0.00    -0.550 OA
ENDROOT
TORSDOF 0
ENDMDL
MODEL 6
REMARK VINA RESULT:    -2.104      8.889      9.466
REMARK INTER + INTRA:          -2.104
REMARK INTER:                  -2.104
REMARK INTRA:                   0.000
REMARK UNBOUND:                 0.000
REMARK SMILES CC(=O)[O-]
REMARK SMILES IDX 1 1 2 2 3 3 4 4
REMARK H PARENT
REMARK Flexibility Score: inf
ROOT
ATOM      1  C   UNL     1      -1.894  -6.953  54.609  1.00  0.00     0.063 C 
ATOM      2  C   UNL     1      -1.666  -8.361  55.042  1.00  0.00     0.038 C 
ATOM      3  O   UNL     1      -2.642  -9.147  55.171  1.00  0.00    -0.550 OA
ATOM      4  O   UNL     1      -0.385  -8.795  55.355  1.00  0.00    -0.550 OA
ENDROOT
TORSDOF 0
ENDMDL
MODEL 7
REMARK VINA RESULT:    -2.086      8.216      8.735
REMARK INTER + INTRA:          -2.086
REMARK INTER:                  -2.086
REMARK INTRA:                   0.000
REMARK UNBOUND:                 0.000
REMARK SMILES CC(=O)[O-]
REMARK SMILES IDX 1 1 2 2 3 3 4 4
REMARK H PARENT
REMARK Flexibility Score: inf
ROOT
ATOM      1  C   UNL     1       8.734  -9.267  54.627  1.00  0.00     0.063 C 
ATOM      2  C   UNL     1       7.652  -8.242  54.652  1.00  0.00     0.038 C 
ATOM      3  O   UNL     1       6.566  -8.483  55.242  1.00  0.00    -0.550 OA
ATOM      4  O   UNL     1       7.817  -7.039  53.977  1.00  0.00    -0.550 OA
ENDROOT
TORSDOF 0
ENDMDL
MODEL 8
REMARK VINA RESULT:    -2.083      9.053      9.652
REMARK INTER + INTRA:          -2.083
REMARK INTER:                  -2.083
REMARK INTRA:                   0.000
REMARK UNBOUND:                 0.000
REMARK SMILES CC(=O)[O-]
REMARK SMILES IDX 1 1 2 2 3 3 4 4
REMARK H PARENT
REMARK Flexibility Score: inf
ROOT
ATOM      1  C   UNL     1      -2.157  -8.645  55.015  1.00  0.00     0.063 C 
ATOM      2  C   UNL     1      -1.005  -7.704  55.103  1.00  0.00     0.038 C 
ATOM      3  O   UNL     1       0.107  -8.017  54.601  1.00  0.00    -0.550 OA
ATOM      4  O   UNL     1      -1.139  -6.502  55.787  1.00  0.00    -0.550 OA
ENDROOT
TORSDOF 0
ENDMDL
MODEL 9
REMARK VINA RESULT:    -1.882     11.472     11.861
REMARK INTER + INTRA:          -1.882
REMARK INTER:                  -1.882
REMARK INTRA:                   0.000
REMARK UNBOUND:                 0.000
REMARK SMILES CC(=O)[O-]
REMARK SMILES IDX 1 1 2 2 3 3 4 4
REMARK H PARENT
REMARK Flexibility Score: inf
ROOT
ATOM      1  C   UNL     1       6.249 -10.998  64.535  1.00  0.00     0.063 C 
ATOM      2  C   UNL     1       7.656 -10.590  64.262  1.00  0.00     0.038 C 
ATOM      3  O   UNL     1       7.934  -9.935  63.222  1.00  0.00    -0.550 OA
ATOM      4  O   UNL     1       8.673 -10.977  65.125  1.00  0.00    -0.550 OA
ENDROOT
TORSDOF 0
ENDMDL
