MODEL 1
REMARK VINA RESULT:    -9.157      0.000      0.000
REMARK INTER + INTRA:         -13.375
REMARK INTER:                 -12.101
REMARK INTRA:                  -1.273
REMARK UNBOUND:                -1.273
REMARK SMILES CC[C@@H](C=C[C@H](C)[C@H]1CC[C@H]2C3=CC[C@@H]4C[C@@H](O)CC[C@@]4(C)[C@H]3CC[C@@]12C)C(C)C
REMARK SMILES IDX 6 1 7 2 5 3 4 4 3 5 2 6 1 7 28 8 29 9 30 10 8 11 9 12 26 13
REMARK SMILES IDX 10 14 11 15 25 16 27 17 12 18 24 19 23 20 13 21 21 22 14 23
REMARK SMILES IDX 15 24 20 25 22 26 16 27 19 28 17 29 18 30
REMARK H PARENT 18 31
REMARK Flexibility Score: inf
ROOT
ATOM      1  C   UNL     1     -32.098  42.102  40.981  1.00  0.00     0.012 C 
ATOM      2  C   UNL     1     -30.793  41.371  40.618  1.00  0.00     0.012 C 
ENDROOT
BRANCH   1   3
ATOM      3  C   UNL     1     -32.130  43.410  40.222  1.00  0.00    -0.028 C 
ATOM      4  C   UNL     1     -33.256  43.874  39.657  1.00  0.00    -0.027 C 
BRANCH   4   5
ATOM      5  C   UNL     1     -33.291  45.163  38.857  1.00  0.00     0.014 C 
BRANCH   5   6
ATOM      6  C   UNL     1     -34.708  45.802  38.951  1.00  0.00     0.004 C 
ATOM      7  C   UNL     1     -35.336  45.645  40.338  1.00  0.00     0.004 C 
ENDBRANCH   5   6
BRANCH   5   8
ATOM      8  C   UNL     1     -32.820  44.926  37.385  1.00  0.00    -0.011 C 
ATOM      9  C   UNL     1     -33.742  45.613  36.365  1.00  0.00     0.008 C 
ATOM     10  C   UNL     1     -31.379  45.424  37.168  1.00  0.00     0.008 C 
ENDBRANCH   5   8
ENDBRANCH   4   5
ENDBRANCH   1   3
BRANCH   1  11
ATOM     11  C   UNL     1     -33.430  41.309  40.715  1.00  0.00     0.002 C 
ATOM     12  C   UNL     1     -33.270  39.943  40.057  1.00  0.00     0.005 C 
ATOM     13  C   UNL     1     -34.401  41.095  41.915  1.00  0.00    -0.023 C 
ATOM     14  C   UNL     1     -34.567  39.196  40.333  1.00  0.00     0.009 C 
ATOM     15  C   UNL     1     -35.382  40.007  41.372  1.00  0.00     0.021 C 
ATOM     16  C   UNL     1     -33.665  40.550  43.176  1.00  0.00     0.008 C 
ATOM     17  C   UNL     1     -35.111  42.444  42.223  1.00  0.00     0.012 C 
ATOM     18  C   UNL     1     -36.000  39.127  42.463  1.00  0.00    -0.067 C 
ATOM     19  C   UNL     1     -34.583  40.037  44.315  1.00  0.00     0.009 C 
ATOM     20  C   UNL     1     -36.028  39.676  43.884  1.00  0.00     0.021 C 
ATOM     21  C   UNL     1     -36.484  37.896  42.162  1.00  0.00    -0.027 C 
ATOM     22  C   UNL     1     -36.850  38.787  44.901  1.00  0.00    -0.023 C 
ATOM     23  C   UNL     1     -36.955  36.902  43.190  1.00  0.00     0.031 C 
ATOM     24  C   UNL     1     -36.532  37.288  44.617  1.00  0.00     0.002 C 
ATOM     25  C   UNL     1     -36.497  39.119  46.387  1.00  0.00     0.010 C 
ATOM     26  C   UNL     1     -38.366  39.100  44.685  1.00  0.00     0.012 C 
ATOM     27  C   UNL     1     -37.164  36.324  45.646  1.00  0.00     0.036 C 
ATOM     28  C   UNL     1     -37.158  38.160  47.389  1.00  0.00     0.032 C 
ATOM     29  C   UNL     1     -36.796  36.698  47.092  1.00  0.00     0.114 C 
BRANCH  29  30
ATOM     30  O   UNL     1     -35.424  36.497  47.317  1.00  0.00    -0.393 OA
ATOM     31  H   UNL     1     -35.292  35.519  47.433  1.00  0.00     0.210 HD
ENDBRANCH  29  30
ENDBRANCH   1  11
TORSDOF 6
ENDMDL
MODEL 2
REMARK VINA RESULT:    -9.088      3.069      9.464
REMARK INTER + INTRA:         -13.283
REMARK INTER:                 -12.746
REMARK INTRA:                  -0.537
REMARK UNBOUND:                -1.273
REMARK SMILES CC[C@@H](C=C[C@H](C)[C@H]1CC[C@H]2C3=CC[C@@H]4C[C@@H](O)CC[C@@]4(C)[C@H]3CC[C@@]12C)C(C)C
REMARK SMILES IDX 6 1 7 2 5 3 4 4 3 5 2 6 1 7 28 8 29 9 30 10 8 11 9 12 26 13
REMARK SMILES IDX 10 14 11 15 25 16 27 17 12 18 24 19 23 20 13 21 21 22 14 23
REMARK SMILES IDX 15 24 20 25 22 26 16 27 19 28 17 29 18 30
REMARK H PARENT 18 31
REMARK Flexibility Score: inf
ROOT
ATOM      1  C   UNL     1     -37.743  35.153  46.247  1.00  0.00     0.012 C 
ATOM      2  C   UNL     1     -37.828  33.730  46.829  1.00  0.00     0.012 C 
ENDROOT
BRANCH   1   3
ATOM      3  C   UNL     1     -38.507  36.081  47.165  1.00  0.00    -0.028 C 
ATOM      4  C   UNL     1     -39.826  35.941  47.374  1.00  0.00    -0.027 C 
BRANCH   4   5
ATOM      5  C   UNL     1     -40.612  36.892  48.258  1.00  0.00     0.014 C 
BRANCH   5   6
ATOM      6  C   UNL     1     -40.150  38.356  47.994  1.00  0.00     0.004 C 
ATOM      7  C   UNL     1     -40.566  38.868  46.613  1.00  0.00     0.004 C 
ENDBRANCH   5   6
BRANCH   5   8
ATOM      8  C   UNL     1     -40.512  36.478  49.762  1.00  0.00    -0.011 C 
ATOM      9  C   UNL     1     -41.508  37.251  50.642  1.00  0.00     0.008 C 
ATOM     10  C   UNL     1     -40.753  34.968  49.946  1.00  0.00     0.008 C 
ENDBRANCH   5   8
ENDBRANCH   4   5
ENDBRANCH   1   3
BRANCH   1  11
ATOM     11  C   UNL     1     -36.294  35.719  46.016  1.00  0.00     0.002 C 
ATOM     12  C   UNL     1     -35.468  35.011  44.947  1.00  0.00     0.005 C 
ATOM     13  C   UNL     1     -36.144  37.244  45.732  1.00  0.00    -0.023 C 
ATOM     14  C   UNL     1     -34.355  35.982  44.575  1.00  0.00     0.009 C 
ATOM     15  C   UNL     1     -34.674  37.354  45.219  1.00  0.00     0.021 C 
ATOM     16  C   UNL     1     -37.122  37.733  44.622  1.00  0.00     0.008 C 
ATOM     17  C   UNL     1     -36.376  38.018  47.061  1.00  0.00     0.012 C 
ATOM     18  C   UNL     1     -34.435  38.529  44.265  1.00  0.00    -0.067 C 
ATOM     19  C   UNL     1     -36.850  39.157  44.074  1.00  0.00     0.009 C 
ATOM     20  C   UNL     1     -35.416  39.694  44.317  1.00  0.00     0.021 C 
ATOM     21  C   UNL     1     -33.392  38.510  43.398  1.00  0.00    -0.027 C 
ATOM     22  C   UNL     1     -34.985  40.937  43.440  1.00  0.00    -0.023 C 
ATOM     23  C   UNL     1     -33.176  39.536  42.317  1.00  0.00     0.031 C 
ATOM     24  C   UNL     1     -34.417  40.415  42.086  1.00  0.00     0.002 C 
ATOM     25  C   UNL     1     -36.184  41.900  43.162  1.00  0.00     0.010 C 
ATOM     26  C   UNL     1     -33.906  41.731  44.243  1.00  0.00     0.012 C 
ATOM     27  C   UNL     1     -34.099  41.545  41.081  1.00  0.00     0.036 C 
ATOM     28  C   UNL     1     -35.833  43.028  42.179  1.00  0.00     0.032 C 
ATOM     29  C   UNL     1     -35.306  42.470  40.849  1.00  0.00     0.114 C 
BRANCH  29  30
ATOM     30  O   UNL     1     -36.334  41.779  40.186  1.00  0.00    -0.393 OA
ATOM     31  H   UNL     1     -37.192  42.162  40.511  1.00  0.00     0.210 HD
ENDBRANCH  29  30
ENDBRANCH   1  11
TORSDOF 6
ENDMDL
MODEL 3
REMARK VINA RESULT:    -9.045      1.423      2.527
REMARK INTER + INTRA:         -13.226
REMARK INTER:                 -12.762
REMARK INTRA:                  -0.464
REMARK UNBOUND:                -1.273
REMARK SMILES CC[C@@H](C=C[C@H](C)[C@H]1CC[C@H]2C3=CC[C@@H]4C[C@@H](O)CC[C@@]4(C)[C@H]3CC[C@@]12C)C(C)C
REMARK SMILES IDX 6 1 7 2 5 3 4 4 3 5 2 6 1 7 28 8 29 9 30 10 8 11 9 12 26 13
REMARK SMILES IDX 10 14 11 15 25 16 27 17 12 18 24 19 23 20 13 21 21 22 14 23
REMARK SMILES IDX 15 24 20 25 22 26 16 27 19 28 17 29 18 30
REMARK H PARENT 18 31
REMARK Flexibility Score: inf
ROOT
ATOM      1  C   UNL     1     -33.526  41.620  40.332  1.00  0.00     0.012 C 
ATOM      2  C   UNL     1     -33.977  40.398  39.509  1.00  0.00     0.012 C 
ENDROOT
BRANCH   1   3
ATOM      3  C   UNL     1     -33.798  42.862  39.514  1.00  0.00    -0.028 C 
ATOM      4  C   UNL     1     -33.077  43.984  39.669  1.00  0.00    -0.027 C 
BRANCH   4   5
ATOM      5  C   UNL     1     -33.369  45.251  38.886  1.00  0.00     0.014 C 
BRANCH   5   6
ATOM      6  C   UNL     1     -34.868  45.637  39.052  1.00  0.00     0.004 C 
ATOM      7  C   UNL     1     -35.285  45.773  40.518  1.00  0.00     0.004 C 
ENDBRANCH   5   6
BRANCH   5   8
ATOM      8  C   UNL     1     -32.934  45.103  37.391  1.00  0.00    -0.011 C 
ATOM      9  C   UNL     1     -33.820  45.931  36.447  1.00  0.00     0.008 C 
ATOM     10  C   UNL     1     -31.465  45.519  37.189  1.00  0.00     0.008 C 
ENDBRANCH   5   8
ENDBRANCH   4   5
ENDBRANCH   1   3
BRANCH   1  11
ATOM     11  C   UNL     1     -34.179  41.774  41.754  1.00  0.00     0.002 C 
ATOM     12  C   UNL     1     -35.668  42.100  41.769  1.00  0.00     0.005 C 
ATOM     13  C   UNL     1     -33.985  40.612  42.774  1.00  0.00    -0.023 C 
ATOM     14  C   UNL     1     -36.158  41.735  43.164  1.00  0.00     0.009 C 
ATOM     15  C   UNL     1     -35.031  40.951  43.882  1.00  0.00     0.021 C 
ATOM     16  C   UNL     1     -34.317  39.222  42.151  1.00  0.00     0.008 C 
ATOM     17  C   UNL     1     -32.521  40.653  43.297  1.00  0.00     0.012 C 
ATOM     18  C   UNL     1     -35.551  39.726  44.643  1.00  0.00    -0.067 C 
ATOM     19  C   UNL     1     -34.431  38.050  43.158  1.00  0.00     0.009 C 
ATOM     20  C   UNL     1     -34.691  38.468  44.629  1.00  0.00     0.021 C 
ATOM     21  C   UNL     1     -36.744  39.771  45.286  1.00  0.00    -0.027 C 
ATOM     22  C   UNL     1     -35.209  37.325  45.591  1.00  0.00    -0.023 C 
ATOM     23  C   UNL     1     -37.407  38.574  45.915  1.00  0.00     0.031 C 
ATOM     24  C   UNL     1     -36.762  37.248  45.477  1.00  0.00     0.002 C 
ATOM     25  C   UNL     1     -34.594  35.934  45.230  1.00  0.00     0.010 C 
ATOM     26  C   UNL     1     -34.760  37.688  47.042  1.00  0.00     0.012 C 
ATOM     27  C   UNL     1     -37.373  36.065  46.261  1.00  0.00     0.036 C 
ATOM     28  C   UNL     1     -35.203  34.780  46.042  1.00  0.00     0.032 C 
ATOM     29  C   UNL     1     -36.729  34.722  45.879  1.00  0.00     0.114 C 
BRANCH  29  30
ATOM     30  O   UNL     1     -37.050  34.383  44.554  1.00  0.00    -0.393 OA
ATOM     31  H   UNL     1     -37.802  33.736  44.598  1.00  0.00     0.210 HD
ENDBRANCH  29  30
ENDBRANCH   1  11
TORSDOF 6
ENDMDL
MODEL 4
REMARK VINA RESULT:    -8.717      1.522      2.145
REMARK INTER + INTRA:         -12.794
REMARK INTER:                 -12.214
REMARK INTRA:                  -0.580
REMARK UNBOUND:                -1.273
REMARK SMILES CC[C@@H](C=C[C@H](C)[C@H]1CC[C@H]2C3=CC[C@@H]4C[C@@H](O)CC[C@@]4(C)[C@H]3CC[C@@]12C)C(C)C
REMARK SMILES IDX 6 1 7 2 5 3 4 4 3 5 2 6 1 7 28 8 29 9 30 10 8 11 9 12 26 13
REMARK SMILES IDX 10 14 11 15 25 16 27 17 12 18 24 19 23 20 13 21 21 22 14 23
REMARK SMILES IDX 15 24 20 25 22 26 16 27 19 28 17 29 18 30
REMARK H PARENT 18 31
REMARK Flexibility Score: inf
ROOT
ATOM      1  C   UNL     1     -31.185  42.476  40.794  1.00  0.00     0.012 C 
ATOM      2  C   UNL     1     -29.769  42.703  40.234  1.00  0.00     0.012 C 
ENDROOT
BRANCH   1   3
ATOM      3  C   UNL     1     -32.171  43.135  39.855  1.00  0.00    -0.028 C 
ATOM      4  C   UNL     1     -32.274  44.471  39.760  1.00  0.00    -0.027 C 
BRANCH   4   5
ATOM      5  C   UNL     1     -33.289  45.143  38.855  1.00  0.00     0.014 C 
BRANCH   5   6
ATOM      6  C   UNL     1     -34.704  44.550  39.121  1.00  0.00     0.004 C 
ATOM      7  C   UNL     1     -35.127  44.665  40.587  1.00  0.00     0.004 C 
ENDBRANCH   5   6
BRANCH   5   8
ATOM      8  C   UNL     1     -32.857  45.052  37.355  1.00  0.00    -0.011 C 
ATOM      9  C   UNL     1     -33.714  45.952  36.450  1.00  0.00     0.008 C 
ATOM     10  C   UNL     1     -31.375  45.429  37.173  1.00  0.00     0.008 C 
ENDBRANCH   5   8
ENDBRANCH   4   5
ENDBRANCH   1   3
BRANCH   1  11
ATOM     11  C   UNL     1     -31.604  40.978  41.029  1.00  0.00     0.002 C 
ATOM     12  C   UNL     1     -30.794  40.219  42.074  1.00  0.00     0.005 C 
ATOM     13  C   UNL     1     -33.100  40.682  41.348  1.00  0.00    -0.023 C 
ATOM     14  C   UNL     1     -31.643  39.016  42.462  1.00  0.00     0.009 C 
ATOM     15  C   UNL     1     -33.055  39.205  41.854  1.00  0.00     0.021 C 
ATOM     16  C   UNL     1     -33.652  41.603  42.477  1.00  0.00     0.008 C 
ATOM     17  C   UNL     1     -33.926  40.845  40.041  1.00  0.00     0.012 C 
ATOM     18  C   UNL     1     -34.178  38.850  42.834  1.00  0.00    -0.067 C 
ATOM     19  C   UNL     1     -35.030  41.193  43.058  1.00  0.00     0.009 C 
ATOM     20  C   UNL     1     -35.432  39.715  42.818  1.00  0.00     0.021 C 
ATOM     21  C   UNL     1     -34.037  37.810  43.693  1.00  0.00    -0.027 C 
ATOM     22  C   UNL     1     -36.606  39.163  43.722  1.00  0.00    -0.023 C 
ATOM     23  C   UNL     1     -35.011  37.491  44.797  1.00  0.00     0.031 C 
ATOM     24  C   UNL     1     -35.998  38.641  45.059  1.00  0.00     0.002 C 
ATOM     25  C   UNL     1     -37.672  40.262  44.032  1.00  0.00     0.010 C 
ATOM     26  C   UNL     1     -37.313  38.016  42.931  1.00  0.00     0.012 C 
ATOM     27  C   UNL     1     -37.066  38.211  46.089  1.00  0.00     0.036 C 
ATOM     28  C   UNL     1     -38.736  39.800  45.040  1.00  0.00     0.032 C 
ATOM     29  C   UNL     1     -38.097  39.322  46.352  1.00  0.00     0.114 C 
BRANCH  29  30
ATOM     30  O   UNL     1     -37.492  40.409  47.005  1.00  0.00    -0.393 OA
ATOM     31  H   UNL     1     -37.408  40.159  47.962  1.00  0.00     0.210 HD
ENDBRANCH  29  30
ENDBRANCH   1  11
TORSDOF 6
ENDMDL
MODEL 5
REMARK VINA RESULT:    -8.634      2.803      9.586
REMARK INTER + INTRA:         -12.684
REMARK INTER:                 -11.427
REMARK INTRA:                  -1.257
REMARK UNBOUND:                -1.273
REMARK SMILES CC[C@@H](C=C[C@H](C)[C@H]1CC[C@H]2C3=CC[C@@H]4C[C@@H](O)CC[C@@]4(C)[C@H]3CC[C@@]12C)C(C)C
REMARK SMILES IDX 6 1 7 2 5 3 4 4 3 5 2 6 1 7 28 8 29 9 30 10 8 11 9 12 26 13
REMARK SMILES IDX 10 14 11 15 25 16 27 17 12 18 24 19 23 20 13 21 21 22 14 23
REMARK SMILES IDX 15 24 20 25 22 26 16 27 19 28 17 29 18 30
REMARK H PARENT 18 31
REMARK Flexibility Score: inf
ROOT
ATOM      1  C   UNL     1     -37.242  35.737  46.021  1.00  0.00     0.012 C 
ATOM      2  C   UNL     1     -36.324  34.556  46.388  1.00  0.00     0.012 C 
ENDROOT
BRANCH   1   3
ATOM      3  C   UNL     1     -38.567  35.537  46.722  1.00  0.00    -0.028 C 
ATOM      4  C   UNL     1     -39.187  36.541  47.363  1.00  0.00    -0.027 C 
BRANCH   4   5
ATOM      5  C   UNL     1     -40.494  36.343  48.107  1.00  0.00     0.014 C 
BRANCH   5   6
ATOM      6  C   UNL     1     -41.412  37.583  47.895  1.00  0.00     0.004 C 
ATOM      7  C   UNL     1     -40.763  38.656  47.019  1.00  0.00     0.004 C 
ENDBRANCH   5   6
BRANCH   5   8
ATOM      8  C   UNL     1     -40.242  36.016  49.615  1.00  0.00    -0.011 C 
ATOM      9  C   UNL     1     -41.145  36.842  50.545  1.00  0.00     0.008 C 
ATOM     10  C   UNL     1     -40.458  34.520  49.911  1.00  0.00     0.008 C 
ENDBRANCH   5   8
ENDBRANCH   4   5
ENDBRANCH   1   3
BRANCH   1  11
ATOM     11  C   UNL     1     -36.685  37.171  46.348  1.00  0.00     0.002 C 
ATOM     12  C   UNL     1     -35.330  37.214  47.045  1.00  0.00     0.005 C 
ATOM     13  C   UNL     1     -36.600  38.202  45.183  1.00  0.00    -0.023 C 
ATOM     14  C   UNL     1     -34.798  38.624  46.829  1.00  0.00     0.009 C 
ATOM     15  C   UNL     1     -35.703  39.328  45.787  1.00  0.00     0.021 C 
ATOM     16  C   UNL     1     -35.907  37.605  43.920  1.00  0.00     0.008 C 
ATOM     17  C   UNL     1     -38.038  38.692  44.850  1.00  0.00     0.012 C 
ATOM     18  C   UNL     1     -34.906  40.116  44.742  1.00  0.00    -0.067 C 
ATOM     19  C   UNL     1     -35.521  38.630  42.824  1.00  0.00     0.009 C 
ATOM     20  C   UNL     1     -35.414  40.100  43.305  1.00  0.00     0.021 C 
ATOM     21  C   UNL     1     -33.781  40.785  45.096  1.00  0.00    -0.027 C 
ATOM     22  C   UNL     1     -34.644  41.089  42.341  1.00  0.00    -0.023 C 
ATOM     23  C   UNL     1     -32.849  41.444  44.115  1.00  0.00     0.031 C 
ATOM     24  C   UNL     1     -33.121  41.010  42.665  1.00  0.00     0.002 C 
ATOM     25  C   UNL     1     -34.872  40.734  40.836  1.00  0.00     0.010 C 
ATOM     26  C   UNL     1     -35.206  42.525  42.588  1.00  0.00     0.012 C 
ATOM     27  C   UNL     1     -32.246  41.824  41.684  1.00  0.00     0.036 C 
ATOM     28  C   UNL     1     -34.008  41.574  39.883  1.00  0.00     0.032 C 
ATOM     29  C   UNL     1     -32.514  41.446  40.218  1.00  0.00     0.114 C 
BRANCH  29  30
ATOM     30  O   UNL     1     -32.085  40.133  39.963  1.00  0.00    -0.393 OA
ATOM     31  H   UNL     1     -31.282  40.201  39.382  1.00  0.00     0.210 HD
ENDBRANCH  29  30
ENDBRANCH   1  11
TORSDOF 6
ENDMDL
MODEL 6
REMARK VINA RESULT:    -8.630      2.904      9.432
REMARK INTER + INTRA:         -12.678
REMARK INTER:                 -12.396
REMARK INTRA:                  -0.283
REMARK UNBOUND:                -1.273
REMARK SMILES CC[C@@H](C=C[C@H](C)[C@H]1CC[C@H]2C3=CC[C@@H]4C[C@@H](O)CC[C@@]4(C)[C@H]3CC[C@@]12C)C(C)C
REMARK SMILES IDX 6 1 7 2 5 3 4 4 3 5 2 6 1 7 28 8 29 9 30 10 8 11 9 12 26 13
REMARK SMILES IDX 10 14 11 15 25 16 27 17 12 18 24 19 23 20 13 21 21 22 14 23
REMARK SMILES IDX 15 24 20 25 22 26 16 27 19 28 17 29 18 30
REMARK H PARENT 18 31
REMARK Flexibility Score: inf
ROOT
ATOM      1  C   UNL     1     -37.100  37.138  46.603  1.00  0.00     0.012 C 
ATOM      2  C   UNL     1     -35.877  37.629  47.398  1.00  0.00     0.012 C 
ENDROOT
BRANCH   1   3
ATOM      3  C   UNL     1     -38.328  37.329  47.466  1.00  0.00    -0.028 C 
ATOM      4  C   UNL     1     -39.409  36.542  47.343  1.00  0.00    -0.027 C 
BRANCH   4   5
ATOM      5  C   UNL     1     -40.662  36.752  48.172  1.00  0.00     0.014 C 
BRANCH   5   6
ATOM      6  C   UNL     1     -41.158  38.220  48.013  1.00  0.00     0.004 C 
ATOM      7  C   UNL     1     -41.204  38.673  46.552  1.00  0.00     0.004 C 
ENDBRANCH   5   6
BRANCH   5   8
ATOM      8  C   UNL     1     -40.429  36.340  49.663  1.00  0.00    -0.011 C 
ATOM      9  C   UNL     1     -41.501  36.922  50.598  1.00  0.00     0.008 C 
ATOM     10  C   UNL     1     -40.404  34.809  49.826  1.00  0.00     0.008 C 
ENDBRANCH   5   8
ENDBRANCH   4   5
ENDBRANCH   1   3
BRANCH   1  11
ATOM     11  C   UNL     1     -37.332  37.815  45.203  1.00  0.00     0.002 C 
ATOM     12  C   UNL     1     -37.873  39.240  45.236  1.00  0.00     0.005 C 
ATOM     13  C   UNL     1     -36.142  37.832  44.197  1.00  0.00    -0.023 C 
ATOM     14  C   UNL     1     -37.568  39.831  43.866  1.00  0.00     0.009 C 
ATOM     15  C   UNL     1     -36.618  38.859  43.121  1.00  0.00     0.021 C 
ATOM     16  C   UNL     1     -34.824  38.340  44.855  1.00  0.00     0.008 C 
ATOM     17  C   UNL     1     -35.962  36.399  43.620  1.00  0.00     0.012 C 
ATOM     18  C   UNL     1     -35.474  39.581  42.401  1.00  0.00    -0.067 C 
ATOM     19  C   UNL     1     -33.670  38.662  43.872  1.00  0.00     0.009 C 
ATOM     20  C   UNL     1     -34.104  38.914  42.405  1.00  0.00     0.021 C 
ATOM     21  C   UNL     1     -35.686  40.778  41.801  1.00  0.00    -0.027 C 
ATOM     22  C   UNL     1     -33.038  39.630  41.483  1.00  0.00    -0.023 C 
ATOM     23  C   UNL     1     -34.592  41.633  41.217  1.00  0.00     0.031 C 
ATOM     24  C   UNL     1     -33.192  41.172  41.653  1.00  0.00     0.002 C 
ATOM     25  C   UNL     1     -31.576  39.212  41.844  1.00  0.00     0.010 C 
ATOM     26  C   UNL     1     -33.315  39.189  40.010  1.00  0.00     0.012 C 
ATOM     27  C   UNL     1     -32.102  41.979  40.912  1.00  0.00     0.036 C 
ATOM     28  C   UNL     1     -30.515  40.014  41.074  1.00  0.00     0.032 C 
ATOM     29  C   UNL     1     -30.684  41.524  41.293  1.00  0.00     0.114 C 
BRANCH  29  30
ATOM     30  O   UNL     1     -30.410  41.840  42.635  1.00  0.00    -0.393 OA
ATOM     31  H   UNL     1     -29.509  41.475  42.837  1.00  0.00     0.210 HD
ENDBRANCH  29  30
ENDBRANCH   1  11
TORSDOF 6
ENDMDL
MODEL 7
REMARK VINA RESULT:    -8.388      1.904      3.762
REMARK INTER + INTRA:         -12.358
REMARK INTER:                 -11.300
REMARK INTRA:                  -1.058
REMARK UNBOUND:                -1.273
REMARK SMILES CC[C@@H](C=C[C@H](C)[C@H]1CC[C@H]2C3=CC[C@@H]4C[C@@H](O)CC[C@@]4(C)[C@H]3CC[C@@]12C)C(C)C
REMARK SMILES IDX 6 1 7 2 5 3 4 4 3 5 2 6 1 7 28 8 29 9 30 10 8 11 9 12 26 13
REMARK SMILES IDX 10 14 11 15 25 16 27 17 12 18 24 19 23 20 13 21 21 22 14 23
REMARK SMILES IDX 15 24 20 25 22 26 16 27 19 28 17 29 18 30
REMARK H PARENT 18 31
REMARK Flexibility Score: inf
ROOT
ATOM      1  C   UNL     1     -35.812  42.523  42.051  1.00  0.00     0.012 C 
ATOM      2  C   UNL     1     -35.881  43.942  42.645  1.00  0.00     0.012 C 
ENDROOT
BRANCH   1   3
ATOM      3  C   UNL     1     -35.009  42.589  40.772  1.00  0.00    -0.028 C 
ATOM      4  C   UNL     1     -34.361  43.705  40.399  1.00  0.00    -0.027 C 
BRANCH   4   5
ATOM      5  C   UNL     1     -33.588  43.798  39.097  1.00  0.00     0.014 C 
BRANCH   5   6
ATOM      6  C   UNL     1     -32.079  44.038  39.397  1.00  0.00     0.004 C 
ATOM      7  C   UNL     1     -31.465  42.934  40.261  1.00  0.00     0.004 C 
ENDBRANCH   5   6
BRANCH   5   8
ATOM      8  C   UNL     1     -34.206  44.877  38.149  1.00  0.00    -0.011 C 
ATOM      9  C   UNL     1     -35.134  45.844  38.902  1.00  0.00     0.008 C 
ATOM     10  C   UNL     1     -33.111  45.692  37.435  1.00  0.00     0.008 C 
ENDBRANCH   5   8
ENDBRANCH   4   5
ENDBRANCH   1   3
BRANCH   1  11
ATOM     11  C   UNL     1     -35.216  41.410  42.989  1.00  0.00     0.002 C 
ATOM     12  C   UNL     1     -34.468  41.910  44.220  1.00  0.00     0.005 C 
ATOM     13  C   UNL     1     -36.177  40.294  43.496  1.00  0.00    -0.023 C 
ATOM     14  C   UNL     1     -34.411  40.728  45.178  1.00  0.00     0.009 C 
ATOM     15  C   UNL     1     -35.348  39.620  44.635  1.00  0.00     0.021 C 
ATOM     16  C   UNL     1     -37.496  40.878  44.087  1.00  0.00     0.008 C 
ATOM     17  C   UNL     1     -36.475  39.325  42.316  1.00  0.00     0.012 C 
ATOM     18  C   UNL     1     -36.205  38.976  45.730  1.00  0.00    -0.067 C 
ATOM     19  C   UNL     1     -38.378  39.874  44.870  1.00  0.00     0.009 C 
ATOM     20  C   UNL     1     -37.642  38.608  45.380  1.00  0.00     0.021 C 
ATOM     21  C   UNL     1     -35.694  38.765  46.969  1.00  0.00    -0.027 C 
ATOM     22  C   UNL     1     -38.386  37.781  46.503  1.00  0.00    -0.023 C 
ATOM     23  C   UNL     1     -36.507  38.295  48.146  1.00  0.00     0.031 C 
ATOM     24  C   UNL     1     -38.020  38.390  47.890  1.00  0.00     0.002 C 
ATOM     25  C   UNL     1     -39.937  37.808  46.319  1.00  0.00     0.010 C 
ATOM     26  C   UNL     1     -37.913  36.296  46.389  1.00  0.00     0.012 C 
ATOM     27  C   UNL     1     -38.806  37.757  49.061  1.00  0.00     0.036 C 
ATOM     28  C   UNL     1     -40.692  37.150  47.485  1.00  0.00     0.032 C 
ATOM     29  C   UNL     1     -40.325  37.799  48.828  1.00  0.00     0.114 C 
BRANCH  29  30
ATOM     30  O   UNL     1     -40.791  39.124  48.855  1.00  0.00    -0.393 OA
ATOM     31  H   UNL     1     -40.111  39.677  48.387  1.00  0.00     0.210 HD
ENDBRANCH  29  30
ENDBRANCH   1  11
TORSDOF 6
ENDMDL
MODEL 8
REMARK VINA RESULT:    -8.129      2.433      4.326
REMARK INTER + INTRA:         -12.017
REMARK INTER:                 -11.356
REMARK INTRA:                  -0.660
REMARK UNBOUND:                -1.273
REMARK SMILES CC[C@@H](C=C[C@H](C)[C@H]1CC[C@H]2C3=CC[C@@H]4C[C@@H](O)CC[C@@]4(C)[C@H]3CC[C@@]12C)C(C)C
REMARK SMILES IDX 6 1 7 2 5 3 4 4 3 5 2 6 1 7 28 8 29 9 30 10 8 11 9 12 26 13
REMARK SMILES IDX 10 14 11 15 25 16 27 17 12 18 24 19 23 20 13 21 21 22 14 23
REMARK SMILES IDX 15 24 20 25 22 26 16 27 19 28 17 29 18 30
REMARK H PARENT 18 31
REMARK Flexibility Score: inf
ROOT
ATOM      1  C   UNL     1     -35.510  42.911  41.796  1.00  0.00     0.012 C 
ATOM      2  C   UNL     1     -35.319  44.421  41.563  1.00  0.00     0.012 C 
ENDROOT
BRANCH   1   3
ATOM      3  C   UNL     1     -34.169  42.236  41.621  1.00  0.00    -0.028 C 
ATOM      4  C   UNL     1     -33.858  41.559  40.503  1.00  0.00    -0.027 C 
BRANCH   4   5
ATOM      5  C   UNL     1     -32.532  40.840  40.333  1.00  0.00     0.014 C 
BRANCH   5   6
ATOM      6  C   UNL     1     -32.787  39.342  39.995  1.00  0.00     0.004 C 
ATOM      7  C   UNL     1     -34.210  39.083  39.493  1.00  0.00     0.004 C 
ENDBRANCH   5   6
BRANCH   5   8
ATOM      8  C   UNL     1     -31.617  41.041  41.584  1.00  0.00    -0.011 C 
ATOM      9  C   UNL     1     -31.454  39.745  42.395  1.00  0.00     0.008 C 
ATOM     10  C   UNL     1     -30.222  41.556  41.184  1.00  0.00     0.008 C 
ENDBRANCH   5   8
ENDBRANCH   4   5
ENDBRANCH   1   3
BRANCH   1  11
ATOM     11  C   UNL     1     -36.128  42.499  43.182  1.00  0.00     0.002 C 
ATOM     12  C   UNL     1     -37.640  42.301  43.202  1.00  0.00     0.005 C 
ATOM     13  C   UNL     1     -35.524  41.261  43.910  1.00  0.00    -0.023 C 
ATOM     14  C   UNL     1     -37.932  41.476  44.448  1.00  0.00     0.009 C 
ATOM     15  C   UNL     1     -36.585  40.962  45.016  1.00  0.00     0.021 C 
ATOM     16  C   UNL     1     -35.396  40.029  42.964  1.00  0.00     0.008 C 
ATOM     17  C   UNL     1     -34.140  41.660  44.497  1.00  0.00     0.012 C 
ATOM     18  C   UNL     1     -36.641  39.491  45.443  1.00  0.00    -0.067 C 
ATOM     19  C   UNL     1     -35.079  38.682  43.662  1.00  0.00     0.009 C 
ATOM     20  C   UNL     1     -35.413  38.630  45.175  1.00  0.00     0.021 C 
ATOM     21  C   UNL     1     -37.759  38.985  46.021  1.00  0.00    -0.027 C 
ATOM     22  C   UNL     1     -35.488  37.187  45.817  1.00  0.00    -0.023 C 
ATOM     23  C   UNL     1     -37.964  37.524  46.320  1.00  0.00     0.031 C 
ATOM     24  C   UNL     1     -36.930  36.630  45.615  1.00  0.00     0.002 C 
ATOM     25  C   UNL     1     -34.458  36.205  45.171  1.00  0.00     0.010 C 
ATOM     26  C   UNL     1     -35.137  37.324  47.333  1.00  0.00     0.012 C 
ATOM     27  C   UNL     1     -37.086  35.161  46.071  1.00  0.00     0.036 C 
ATOM     28  C   UNL     1     -34.620  34.757  45.660  1.00  0.00     0.032 C 
ATOM     29  C   UNL     1     -36.045  34.238  45.416  1.00  0.00     0.114 C 
BRANCH  29  30
ATOM     30  O   UNL     1     -36.279  34.135  44.034  1.00  0.00    -0.393 OA
ATOM     31  H   UNL     1     -37.095  34.667  43.841  1.00  0.00     0.210 HD
ENDBRANCH  29  30
ENDBRANCH   1  11
TORSDOF 6
ENDMDL
MODEL 9
REMARK VINA RESULT:    -8.122      2.735      8.437
REMARK INTER + INTRA:         -12.007
REMARK INTER:                 -11.371
REMARK INTRA:                  -0.636
REMARK UNBOUND:                -1.273
REMARK SMILES CC[C@@H](C=C[C@H](C)[C@H]1CC[C@H]2C3=CC[C@@H]4C[C@@H](O)CC[C@@]4(C)[C@H]3CC[C@@]12C)C(C)C
REMARK SMILES IDX 6 1 7 2 5 3 4 4 3 5 2 6 1 7 28 8 29 9 30 10 8 11 9 12 26 13
REMARK SMILES IDX 10 14 11 15 25 16 27 17 12 18 24 19 23 20 13 21 21 22 14 23
REMARK SMILES IDX 15 24 20 25 22 26 16 27 19 28 17 29 18 30
REMARK H PARENT 18 31
REMARK Flexibility Score: inf
ROOT
ATOM      1  C   UNL     1     -38.700  39.139  45.511  1.00  0.00     0.012 C 
ATOM      2  C   UNL     1     -40.180  38.884  45.848  1.00  0.00     0.012 C 
ENDROOT
BRANCH   1   3
ATOM      3  C   UNL     1     -37.972  37.814  45.564  1.00  0.00    -0.028 C 
ATOM      4  C   UNL     1     -37.253  37.444  46.637  1.00  0.00    -0.027 C 
BRANCH   4   5
ATOM      5  C   UNL     1     -36.484  36.137  46.684  1.00  0.00     0.014 C 
BRANCH   5   6
ATOM      6  C   UNL     1     -34.957  36.423  46.573  1.00  0.00     0.004 C 
ATOM      7  C   UNL     1     -34.548  37.728  47.259  1.00  0.00     0.004 C 
ENDBRANCH   5   6
BRANCH   5   8
ATOM      8  C   UNL     1     -37.002  35.137  45.601  1.00  0.00    -0.011 C 
ATOM      9  C   UNL     1     -35.966  34.900  44.490  1.00  0.00     0.008 C 
ATOM     10  C   UNL     1     -37.383  33.780  46.223  1.00  0.00     0.008 C 
ENDBRANCH   5   8
ENDBRANCH   4   5
ENDBRANCH   1   3
BRANCH   1  11
ATOM     11  C   UNL     1     -38.415  39.840  44.133  1.00  0.00     0.002 C 
ATOM     12  C   UNL     1     -38.428  41.364  44.148  1.00  0.00     0.005 C 
ATOM     13  C   UNL     1     -37.126  39.430  43.360  1.00  0.00    -0.023 C 
ATOM     14  C   UNL     1     -37.687  41.797  42.890  1.00  0.00     0.009 C 
ATOM     15  C   UNL     1     -37.007  40.548  42.275  1.00  0.00     0.021 C 
ATOM     16  C   UNL     1     -35.862  39.454  44.272  1.00  0.00     0.008 C 
ATOM     17  C   UNL     1     -37.345  38.018  42.746  1.00  0.00     0.012 C 
ATOM     18  C   UNL     1     -35.571  40.817  41.815  1.00  0.00    -0.067 C 
ATOM     19  C   UNL     1     -34.504  39.343  43.534  1.00  0.00     0.009 C 
ATOM     20  C   UNL     1     -34.541  39.715  42.029  1.00  0.00     0.021 C 
ATOM     21  C   UNL     1     -35.240  42.007  41.254  1.00  0.00    -0.027 C 
ATOM     22  C   UNL     1     -33.140  40.005  41.355  1.00  0.00    -0.023 C 
ATOM     23  C   UNL     1     -33.830  42.420  40.926  1.00  0.00     0.031 C 
ATOM     24  C   UNL     1     -32.782  41.505  41.581  1.00  0.00     0.002 C 
ATOM     25  C   UNL     1     -32.007  39.107  41.950  1.00  0.00     0.010 C 
ATOM     26  C   UNL     1     -33.269  39.672  39.834  1.00  0.00     0.012 C 
ATOM     27  C   UNL     1     -31.363  41.874  41.095  1.00  0.00     0.036 C 
ATOM     28  C   UNL     1     -30.610  39.481  41.431  1.00  0.00     0.032 C 
ATOM     29  C   UNL     1     -30.287  40.958  41.700  1.00  0.00     0.114 C 
BRANCH  29  30
ATOM     30  O   UNL     1     -30.179  41.172  43.084  1.00  0.00    -0.393 OA
ATOM     31  H   UNL     1     -30.520  42.088  43.260  1.00  0.00     0.210 HD
ENDBRANCH  29  30
ENDBRANCH   1  11
TORSDOF 6
ENDMDL
