MODEL 1
REMARK VINA RESULT:    -5.333      0.000      0.000
REMARK INTER + INTRA:          -5.333
REMARK INTER:                  -5.333
REMARK INTRA:                   0.000
REMARK UNBOUND:                 0.000
REMARK SMILES Cc1cc2cc3c(C)cc(=O)oc3c(C)c2o1
REMARK SMILES IDX 8 1 7 2 9 3 10 4 11 5 12 6 13 7 6 8 5 9 4 10 3 11 2 12 17 13
REMARK SMILES IDX 16 14 14 15 15 16 1 17
REMARK H PARENT
REMARK Flexibility Score: inf
ROOT
ATOM      1  C   UNL     1       3.250  23.644  -8.734  1.00  0.00     0.045 C 
ATOM      2  C   UNL     1       2.103  23.243  -9.626  1.00  0.00    -0.033 A 
ATOM      3  C   UNL     1       2.216  22.088 -10.411  1.00  0.00     0.098 A 
ATOM      4  C   UNL     1       1.159  21.709 -11.238  1.00  0.00     0.336 A 
ATOM      5  O   UNL     1       1.255  20.671 -11.943  1.00  0.00    -0.246 OA
ATOM      6  O   UNL     1       0.048  22.433 -11.288  1.00  0.00    -0.422 OA
ATOM      7  C   UNL     1      -0.127  23.540 -10.571  1.00  0.00     0.145 A 
ATOM      8  C   UNL     1       0.909  23.997  -9.695  1.00  0.00     0.022 A 
ATOM      9  C   UNL     1       0.710  25.171  -8.929  1.00  0.00     0.024 A 
ATOM     10  C   UNL     1      -0.501  25.839  -9.059  1.00  0.00     0.022 A 
ATOM     11  C   UNL     1      -0.964  26.978  -8.438  1.00  0.00     0.054 A 
ATOM     12  C   UNL     1      -2.239  27.156  -8.962  1.00  0.00     0.102 A 
ATOM     13  O   UNL     1      -2.530  26.202  -9.827  1.00  0.00    -0.461 OA
ATOM     14  C   UNL     1      -1.491  25.404  -9.896  1.00  0.00     0.140 A 
ATOM     15  C   UNL     1      -1.342  24.259 -10.683  1.00  0.00     0.036 A 
ATOM     16  C   UNL     1      -2.452  23.779 -11.575  1.00  0.00     0.052 C 
ATOM     17  C   UNL     1      -3.174  28.257  -8.592  1.00  0.00     0.087 C 
ENDROOT
TORSDOF 0
ENDMDL
MODEL 2
REMARK VINA RESULT:    -5.196      2.102      4.210
REMARK INTER + INTRA:          -5.196
REMARK INTER:                  -5.196
REMARK INTRA:                   0.000
REMARK UNBOUND:                 0.000
REMARK SMILES Cc1cc2cc3c(C)cc(=O)oc3c(C)c2o1
REMARK SMILES IDX 8 1 7 2 9 3 10 4 11 5 12 6 13 7 6 8 5 9 4 10 3 11 2 12 17 13
REMARK SMILES IDX 16 14 14 15 15 16 1 17
REMARK H PARENT
REMARK Flexibility Score: inf
ROOT
ATOM      1  C   UNL     1       1.201  21.246 -11.350  1.00  0.00     0.045 C 
ATOM      2  C   UNL     1       0.340  22.400 -10.908  1.00  0.00    -0.033 A 
ATOM      3  C   UNL     1      -0.978  22.491 -11.375  1.00  0.00     0.098 A 
ATOM      4  C   UNL     1      -1.783  23.556 -10.970  1.00  0.00     0.336 A 
ATOM      5  O   UNL     1      -2.968  23.640 -11.385  1.00  0.00    -0.246 OA
ATOM      6  O   UNL     1      -1.310  24.484 -10.147  1.00  0.00    -0.422 OA
ATOM      7  C   UNL     1      -0.070  24.460  -9.666  1.00  0.00     0.145 A 
ATOM      8  C   UNL     1       0.819  23.400 -10.032  1.00  0.00     0.022 A 
ATOM      9  C   UNL     1       2.135  23.379  -9.507  1.00  0.00     0.024 A 
ATOM     10  C   UNL     1       2.512  24.401  -8.645  1.00  0.00     0.022 A 
ATOM     11  C   UNL     1       3.701  24.622  -7.988  1.00  0.00     0.054 A 
ATOM     12  C   UNL     1       3.481  25.791  -7.269  1.00  0.00     0.102 A 
ATOM     13  O   UNL     1       2.256  26.242  -7.468  1.00  0.00    -0.461 OA
ATOM     14  C   UNL     1       1.662  25.415  -8.296  1.00  0.00     0.140 A 
ATOM     15  C   UNL     1       0.360  25.491  -8.795  1.00  0.00     0.036 A 
ATOM     16  C   UNL     1      -0.569  26.596  -8.377  1.00  0.00     0.052 C 
ATOM     17  C   UNL     1       4.473  26.449  -6.371  1.00  0.00     0.087 C 
ENDROOT
TORSDOF 0
ENDMDL
MODEL 3
REMARK VINA RESULT:    -5.115      2.504      4.378
REMARK INTER + INTRA:          -5.115
REMARK INTER:                  -5.115
REMARK INTRA:                   0.000
REMARK UNBOUND:                 0.000
REMARK SMILES Cc1cc2cc3c(C)cc(=O)oc3c(C)c2o1
REMARK SMILES IDX 8 1 7 2 9 3 10 4 11 5 12 6 13 7 6 8 5 9 4 10 3 11 2 12 17 13
REMARK SMILES IDX 16 14 14 15 15 16 1 17
REMARK H PARENT
REMARK Flexibility Score: inf
ROOT
ATOM      1  C   UNL     1       4.733  22.765  -9.081  1.00  0.00     0.045 C 
ATOM      2  C   UNL     1       3.811  23.893  -8.695  1.00  0.00    -0.033 A 
ATOM      3  C   UNL     1       4.308  24.951  -7.923  1.00  0.00     0.098 A 
ATOM      4  C   UNL     1       3.461  25.999  -7.563  1.00  0.00     0.336 A 
ATOM      5  O   UNL     1       3.903  26.953  -6.870  1.00  0.00    -0.246 OA
ATOM      6  O   UNL     1       2.191  26.003  -7.945  1.00  0.00    -0.422 OA
ATOM      7  C   UNL     1       1.653  25.031  -8.679  1.00  0.00     0.145 A 
ATOM      8  C   UNL     1       2.455  23.920  -9.092  1.00  0.00     0.022 A 
ATOM      9  C   UNL     1       1.876  22.895  -9.880  1.00  0.00     0.024 A 
ATOM     10  C   UNL     1       0.536  23.015 -10.228  1.00  0.00     0.022 A 
ATOM     11  C   UNL     1      -0.268  22.191 -10.982  1.00  0.00     0.054 A 
ATOM     12  C   UNL     1      -1.501  22.832 -10.988  1.00  0.00     0.102 A 
ATOM     13  O   UNL     1      -1.451  23.955 -10.297  1.00  0.00    -0.461 OA
ATOM     14  C   UNL     1      -0.230  24.077  -9.832  1.00  0.00     0.140 A 
ATOM     15  C   UNL     1       0.287  25.108  -9.044  1.00  0.00     0.036 A 
ATOM     16  C   UNL     1      -0.562  26.281  -8.643  1.00  0.00     0.052 C 
ATOM     17  C   UNL     1      -2.721  22.342 -11.693  1.00  0.00     0.087 C 
ENDROOT
TORSDOF 0
ENDMDL
MODEL 4
REMARK VINA RESULT:    -5.038      2.337      5.198
REMARK INTER + INTRA:          -5.038
REMARK INTER:                  -5.038
REMARK INTRA:                   0.000
REMARK UNBOUND:                 0.000
REMARK SMILES Cc1cc2cc3c(C)cc(=O)oc3c(C)c2o1
REMARK SMILES IDX 8 1 7 2 9 3 10 4 11 5 12 6 13 7 6 8 5 9 4 10 3 11 2 12 17 13
REMARK SMILES IDX 16 14 14 15 15 16 1 17
REMARK H PARENT
REMARK Flexibility Score: inf
ROOT
ATOM      1  C   UNL     1      -0.971  26.961  -8.356  1.00  0.00     0.045 C 
ATOM      2  C   UNL     1      -0.331  25.784  -9.046  1.00  0.00    -0.033 A 
ATOM      3  C   UNL     1      -1.041  25.107 -10.046  1.00  0.00     0.098 A 
ATOM      4  C   UNL     1      -0.456  24.017 -10.690  1.00  0.00     0.336 A 
ATOM      5  O   UNL     1      -1.090  23.406 -11.590  1.00  0.00    -0.246 OA
ATOM      6  O   UNL     1       0.766  23.616 -10.365  1.00  0.00    -0.422 OA
ATOM      7  C   UNL     1       1.497  24.213  -9.425  1.00  0.00     0.145 A 
ATOM      8  C   UNL     1       0.970  25.340  -8.718  1.00  0.00     0.022 A 
ATOM      9  C   UNL     1       1.758  25.974  -7.726  1.00  0.00     0.024 A 
ATOM     10  C   UNL     1       3.030  25.470  -7.481  1.00  0.00     0.022 A 
ATOM     11  C   UNL     1       4.001  25.888  -6.599  1.00  0.00     0.054 A 
ATOM     12  C   UNL     1       5.054  25.005  -6.809  1.00  0.00     0.102 A 
ATOM     13  O   UNL     1       4.750  24.125  -7.745  1.00  0.00    -0.461 OA
ATOM     14  C   UNL     1       3.533  24.392  -8.156  1.00  0.00     0.140 A 
ATOM     15  C   UNL     1       2.793  23.723  -9.134  1.00  0.00     0.036 A 
ATOM     16  C   UNL     1       3.373  22.559  -9.887  1.00  0.00     0.052 C 
ATOM     17  C   UNL     1       6.365  25.046  -6.100  1.00  0.00     0.087 C 
ENDROOT
TORSDOF 0
ENDMDL
MODEL 5
REMARK VINA RESULT:    -5.017      2.232      5.280
REMARK INTER + INTRA:          -5.017
REMARK INTER:                  -5.017
REMARK INTRA:                   0.000
REMARK UNBOUND:                 0.000
REMARK SMILES Cc1cc2cc3c(C)cc(=O)oc3c(C)c2o1
REMARK SMILES IDX 8 1 7 2 9 3 10 4 11 5 12 6 13 7 6 8 5 9 4 10 3 11 2 12 17 13
REMARK SMILES IDX 16 14 14 15 15 16 1 17
REMARK H PARENT
REMARK Flexibility Score: inf
ROOT
ATOM      1  C   UNL     1      -1.912  26.992  -9.954  1.00  0.00     0.045 C 
ATOM      2  C   UNL     1      -0.737  26.091  -9.673  1.00  0.00    -0.033 A 
ATOM      3  C   UNL     1       0.107  26.383  -8.594  1.00  0.00     0.098 A 
ATOM      4  C   UNL     1       1.196  25.554  -8.326  1.00  0.00     0.336 A 
ATOM      5  O   UNL     1       1.957  25.811  -7.356  1.00  0.00    -0.246 OA
ATOM      6  O   UNL     1       1.439  24.492  -9.084  1.00  0.00    -0.422 OA
ATOM      7  C   UNL     1       0.679  24.156 -10.124  1.00  0.00     0.145 A 
ATOM      8  C   UNL     1      -0.459  24.954 -10.464  1.00  0.00     0.022 A 
ATOM      9  C   UNL     1      -1.267  24.584 -11.567  1.00  0.00     0.024 A 
ATOM     10  C   UNL     1      -0.918  23.443 -12.280  1.00  0.00     0.022 A 
ATOM     11  C   UNL     1      -1.519  22.851 -13.368  1.00  0.00     0.054 A 
ATOM     12  C   UNL     1      -0.726  21.741 -13.633  1.00  0.00     0.102 A 
ATOM     13  O   UNL     1       0.273  21.661 -12.773  1.00  0.00    -0.461 OA
ATOM     14  C   UNL     1       0.170  22.681 -11.954  1.00  0.00     0.140 A 
ATOM     15  C   UNL     1       1.007  23.008 -10.885  1.00  0.00     0.036 A 
ATOM     16  C   UNL     1       2.181  22.143 -10.523  1.00  0.00     0.052 C 
ATOM     17  C   UNL     1      -0.968  20.750 -14.721  1.00  0.00     0.087 C 
ENDROOT
TORSDOF 0
ENDMDL
MODEL 6
REMARK VINA RESULT:    -4.986      1.888      3.019
REMARK INTER + INTRA:          -4.986
REMARK INTER:                  -4.986
REMARK INTRA:                   0.000
REMARK UNBOUND:                 0.000
REMARK SMILES Cc1cc2cc3c(C)cc(=O)oc3c(C)c2o1
REMARK SMILES IDX 8 1 7 2 9 3 10 4 11 5 12 6 13 7 6 8 5 9 4 10 3 11 2 12 17 13
REMARK SMILES IDX 16 14 14 15 15 16 1 17
REMARK H PARENT
REMARK Flexibility Score: inf
ROOT
ATOM      1  C   UNL     1       0.727  21.693 -11.699  1.00  0.00     0.045 C 
ATOM      2  C   UNL     1       1.497  22.480 -10.670  1.00  0.00    -0.033 A 
ATOM      3  C   UNL     1       2.789  22.068 -10.318  1.00  0.00     0.098 A 
ATOM      4  C   UNL     1       3.510  22.792  -9.368  1.00  0.00     0.336 A 
ATOM      5  O   UNL     1       4.672  22.427  -9.050  1.00  0.00    -0.246 OA
ATOM      6  O   UNL     1       2.981  23.866  -8.795  1.00  0.00    -0.422 OA
ATOM      7  C   UNL     1       1.760  24.312  -9.081  1.00  0.00     0.145 A 
ATOM      8  C   UNL     1       0.957  23.627 -10.047  1.00  0.00     0.022 A 
ATOM      9  C   UNL     1      -0.338  24.115 -10.351  1.00  0.00     0.024 A 
ATOM     10  C   UNL     1      -0.778  25.257  -9.693  1.00  0.00     0.022 A 
ATOM     11  C   UNL     1      -1.964  25.947  -9.798  1.00  0.00     0.054 A 
ATOM     12  C   UNL     1      -1.826  27.001  -8.902  1.00  0.00     0.102 A 
ATOM     13  O   UNL     1      -0.650  26.957  -8.303  1.00  0.00    -0.461 OA
ATOM     14  C   UNL     1      -0.010  25.911  -8.768  1.00  0.00     0.140 A 
ATOM     15  C   UNL     1       1.268  25.465  -8.422  1.00  0.00     0.036 A 
ATOM     16  C   UNL     1       2.109  26.213  -7.426  1.00  0.00     0.052 C 
ATOM     17  C   UNL     1      -2.847  28.059  -8.655  1.00  0.00     0.087 C 
ENDROOT
TORSDOF 0
ENDMDL
MODEL 7
REMARK VINA RESULT:    -4.968      4.460      6.962
REMARK INTER + INTRA:          -4.968
REMARK INTER:                  -4.968
REMARK INTRA:                   0.000
REMARK UNBOUND:                 0.000
REMARK SMILES Cc1cc2cc3c(C)cc(=O)oc3c(C)c2o1
REMARK SMILES IDX 8 1 7 2 9 3 10 4 11 5 12 6 13 7 6 8 5 9 4 10 3 11 2 12 17 13
REMARK SMILES IDX 16 14 14 15 15 16 1 17
REMARK H PARENT
REMARK Flexibility Score: inf
ROOT
ATOM      1  C   UNL     1       1.205  20.039 -12.905  1.00  0.00     0.045 C 
ATOM      2  C   UNL     1       0.454  21.328 -13.118  1.00  0.00    -0.033 A 
ATOM      3  C   UNL     1       0.835  22.470 -12.401  1.00  0.00     0.098 A 
ATOM      4  C   UNL     1       0.147  23.668 -12.593  1.00  0.00     0.336 A 
ATOM      5  O   UNL     1       0.487  24.697 -11.952  1.00  0.00    -0.246 OA
ATOM      6  O   UNL     1      -0.866  23.735 -13.448  1.00  0.00    -0.422 OA
ATOM      7  C   UNL     1      -1.282  22.690 -14.160  1.00  0.00     0.145 A 
ATOM      8  C   UNL     1      -0.627  21.425 -14.023  1.00  0.00     0.022 A 
ATOM      9  C   UNL     1      -1.070  20.321 -14.793  1.00  0.00     0.024 A 
ATOM     10  C   UNL     1      -2.135  20.517 -15.664  1.00  0.00     0.022 A 
ATOM     11  C   UNL     1      -2.755  19.642 -16.527  1.00  0.00     0.054 A 
ATOM     12  C   UNL     1      -3.744  20.407 -17.135  1.00  0.00     0.102 A 
ATOM     13  O   UNL     1      -3.724  21.647 -16.682  1.00  0.00    -0.461 OA
ATOM     14  C   UNL     1      -2.762  21.726 -15.794  1.00  0.00     0.140 A 
ATOM     15  C   UNL     1      -2.373  22.843 -15.050  1.00  0.00     0.036 A 
ATOM     16  C   UNL     1      -3.054  24.171 -15.227  1.00  0.00     0.052 C 
ATOM     17  C   UNL     1      -4.692  19.916 -18.176  1.00  0.00     0.087 C 
ENDROOT
TORSDOF 0
ENDMDL
MODEL 8
REMARK VINA RESULT:    -4.955      2.620      5.226
REMARK INTER + INTRA:          -4.955
REMARK INTER:                  -4.955
REMARK INTRA:                   0.000
REMARK UNBOUND:                 0.000
REMARK SMILES Cc1cc2cc3c(C)cc(=O)oc3c(C)c2o1
REMARK SMILES IDX 8 1 7 2 9 3 10 4 11 5 12 6 13 7 6 8 5 9 4 10 3 11 2 12 17 13
REMARK SMILES IDX 16 14 14 15 15 16 1 17
REMARK H PARENT
REMARK Flexibility Score: inf
ROOT
ATOM      1  C   UNL     1       2.355  22.161 -10.248  1.00  0.00     0.045 C 
ATOM      2  C   UNL     1       1.123  23.022 -10.363  1.00  0.00    -0.033 A 
ATOM      3  C   UNL     1       0.894  24.022  -9.410  1.00  0.00     0.098 A 
ATOM      4  C   UNL     1      -0.243  24.824  -9.510  1.00  0.00     0.336 A 
ATOM      5  O   UNL     1      -0.452  25.726  -8.657  1.00  0.00    -0.246 OA
ATOM      6  O   UNL     1      -1.109  24.647 -10.500  1.00  0.00    -0.422 OA
ATOM      7  C   UNL     1      -0.954  23.716 -11.438  1.00  0.00     0.145 A 
ATOM      8  C   UNL     1       0.187  22.853 -11.409  1.00  0.00     0.022 A 
ATOM      9  C   UNL     1       0.348  21.872 -12.417  1.00  0.00     0.024 A 
ATOM     10  C   UNL     1      -0.621  21.789 -13.410  1.00  0.00     0.022 A 
ATOM     11  C   UNL     1      -0.713  20.954 -14.500  1.00  0.00     0.054 A 
ATOM     12  C   UNL     1      -1.890  21.343 -15.129  1.00  0.00     0.102 A 
ATOM     13  O   UNL     1      -2.465  22.337 -14.476  1.00  0.00    -0.461 OA
ATOM     14  C   UNL     1      -1.713  22.613 -13.438  1.00  0.00     0.140 A 
ATOM     15  C   UNL     1      -1.926  23.589 -12.461  1.00  0.00     0.036 A 
ATOM     16  C   UNL     1      -3.115  24.505 -12.524  1.00  0.00     0.052 C 
ATOM     17  C   UNL     1      -2.434  20.747 -16.383  1.00  0.00     0.087 C 
ENDROOT
TORSDOF 0
ENDMDL
MODEL 9
REMARK VINA RESULT:    -4.949      2.579      5.161
REMARK INTER + INTRA:          -4.949
REMARK INTER:                  -4.949
REMARK INTRA:                   0.000
REMARK UNBOUND:                 0.000
REMARK SMILES Cc1cc2cc3c(C)cc(=O)oc3c(C)c2o1
REMARK SMILES IDX 8 1 7 2 9 3 10 4 11 5 12 6 13 7 6 8 5 9 4 10 3 11 2 12 17 13
REMARK SMILES IDX 16 14 14 15 15 16 1 17
REMARK H PARENT
REMARK Flexibility Score: inf
ROOT
ATOM      1  C   UNL     1      -0.701  25.158  -9.776  1.00  0.00     0.045 C 
ATOM      2  C   UNL     1       0.090  23.950 -10.205  1.00  0.00    -0.033 A 
ATOM      3  C   UNL     1       1.161  23.515  -9.413  1.00  0.00     0.098 A 
ATOM      4  C   UNL     1       1.897  22.396  -9.803  1.00  0.00     0.336 A 
ATOM      5  O   UNL     1       2.859  22.000  -9.094  1.00  0.00    -0.246 OA
ATOM      6  O   UNL     1       1.593  21.742 -10.917  1.00  0.00    -0.422 OA
ATOM      7  C   UNL     1       0.591  22.100 -11.715  1.00  0.00     0.145 A 
ATOM      8  C   UNL     1      -0.216  23.236 -11.386  1.00  0.00     0.022 A 
ATOM      9  C   UNL     1      -1.286  23.604 -12.237  1.00  0.00     0.024 A 
ATOM     10  C   UNL     1      -1.514  22.834 -13.371  1.00  0.00     0.022 A 
ATOM     11  C   UNL     1      -2.474  22.950 -14.351  1.00  0.00     0.054 A 
ATOM     12  C   UNL     1      -2.206  21.896 -15.217  1.00  0.00     0.102 A 
ATOM     13  O   UNL     1      -1.170  21.194 -14.796  1.00  0.00    -0.461 OA
ATOM     14  C   UNL     1      -0.743  21.749 -13.687  1.00  0.00     0.140 A 
ATOM     15  C   UNL     1       0.332  21.350 -12.889  1.00  0.00     0.036 A 
ATOM     16  C   UNL     1       1.150  20.138 -13.235  1.00  0.00     0.052 C 
ATOM     17  C   UNL     1      -2.985  21.574 -16.447  1.00  0.00     0.087 C 
ENDROOT
TORSDOF 0
ENDMDL
