MODEL 1
REMARK VINA RESULT:    -4.378      0.000      0.000
REMARK INTER + INTRA:          -6.210
REMARK INTER:                  -5.657
REMARK INTRA:                  -0.553
REMARK UNBOUND:                -0.553
REMARK SMILES C=CC(=O)CCCCC
REMARK SMILES IDX 6 1 7 2 8 3 9 4 5 5 3 6 4 7 2 8 1 9
REMARK H PARENT
REMARK Flexibility Score: inf
ROOT
ATOM      1  C   UNL     1     -11.997  72.249  29.342  1.00  0.00     0.008 C 
ENDROOT
BRANCH   1   2
ATOM      2  C   UNL     1     -11.889  73.426  28.361  1.00  0.00     0.000 C 
BRANCH   2   3
ATOM      3  C   UNL     1     -10.508  73.462  27.697  1.00  0.00    -0.003 C 
ATOM      4  C   UNL     1     -10.075  74.895  27.402  1.00  0.00     0.004 C 
ENDBRANCH   2   3
ENDBRANCH   1   2
BRANCH   1   5
ATOM      5  C   UNL     1     -10.914  72.301  30.432  1.00  0.00     0.080 C 
BRANCH   5   6
ATOM      6  C   UNL     1     -11.273  73.188  31.604  1.00  0.00     0.155 C 
ATOM      7  O   UNL     1     -12.077  72.773  32.481  1.00  0.00    -0.295 OA
BRANCH   6   8
ATOM      8  C   UNL     1     -10.756  74.566  31.733  1.00  0.00     0.039 C 
ATOM      9  C   UNL     1      -9.642  74.997  31.142  1.00  0.00     0.012 C 
ENDBRANCH   6   8
ENDBRANCH   5   6
ENDBRANCH   1   5
TORSDOF 5
ENDMDL
MODEL 2
REMARK VINA RESULT:    -4.330      2.130      4.323
REMARK INTER + INTRA:          -6.148
REMARK INTER:                  -5.650
REMARK INTRA:                  -0.498
REMARK UNBOUND:                -0.553
REMARK SMILES C=CC(=O)CCCCC
REMARK SMILES IDX 6 1 7 2 8 3 9 4 5 5 3 6 4 7 2 8 1 9
REMARK H PARENT
REMARK Flexibility Score: inf
ROOT
ATOM      1  C   UNL     1      -9.534  75.046  31.002  1.00  0.00     0.008 C 
ENDROOT
BRANCH   1   2
ATOM      2  C   UNL     1     -10.807  74.909  31.850  1.00  0.00     0.000 C 
BRANCH   2   3
ATOM      3  C   UNL     1     -10.729  73.681  32.764  1.00  0.00    -0.003 C 
ATOM      4  C   UNL     1     -11.915  72.749  32.539  1.00  0.00     0.004 C 
ENDBRANCH   2   3
ENDBRANCH   1   2
BRANCH   1   5
ATOM      5  C   UNL     1      -9.461  73.988  29.888  1.00  0.00     0.080 C 
BRANCH   5   6
ATOM      6  C   UNL     1     -10.369  74.281  28.713  1.00  0.00     0.155 C 
ATOM      7  O   UNL     1     -10.005  75.103  27.829  1.00  0.00    -0.295 OA
BRANCH   6   8
ATOM      8  C   UNL     1     -11.712  73.677  28.588  1.00  0.00     0.039 C 
ATOM      9  C   UNL     1     -11.982  72.406  28.884  1.00  0.00     0.012 C 
ENDBRANCH   6   8
ENDBRANCH   5   6
ENDBRANCH   1   5
TORSDOF 5
ENDMDL
MODEL 3
REMARK VINA RESULT:    -4.199      1.664      3.567
REMARK INTER + INTRA:          -5.980
REMARK INTER:                  -5.451
REMARK INTRA:                  -0.529
REMARK UNBOUND:                -0.553
REMARK SMILES C=CC(=O)CCCCC
REMARK SMILES IDX 6 1 7 2 8 3 9 4 5 5 3 6 4 7 2 8 1 9
REMARK H PARENT
REMARK Flexibility Score: inf
ROOT
ATOM      1  C   UNL     1     -10.709  72.457  30.244  1.00  0.00     0.008 C 
ENDROOT
BRANCH   1   2
ATOM      2  C   UNL     1     -11.134  73.203  31.517  1.00  0.00     0.000 C 
BRANCH   2   3
ATOM      3  C   UNL     1     -10.909  74.712  31.371  1.00  0.00    -0.003 C 
ATOM      4  C   UNL     1      -9.461  75.021  31.005  1.00  0.00     0.004 C 
ENDBRANCH   2   3
ENDBRANCH   1   2
BRANCH   1   5
ATOM      5  C   UNL     1     -11.871  72.298  29.249  1.00  0.00     0.080 C 
BRANCH   5   6
ATOM      6  C   UNL     1     -11.855  73.317  28.130  1.00  0.00     0.155 C 
ATOM      7  O   UNL     1     -12.935  73.839  27.742  1.00  0.00    -0.295 OA
BRANCH   6   8
ATOM      8  C   UNL     1     -10.612  73.687  27.421  1.00  0.00     0.039 C 
ATOM      9  C   UNL     1     -10.123  74.926  27.384  1.00  0.00     0.012 C 
ENDBRANCH   6   8
ENDBRANCH   5   6
ENDBRANCH   1   5
TORSDOF 5
ENDMDL
MODEL 4
REMARK VINA RESULT:    -4.179      1.846      4.179
REMARK INTER + INTRA:          -5.954
REMARK INTER:                  -5.661
REMARK INTRA:                  -0.292
REMARK UNBOUND:                -0.553
REMARK SMILES C=CC(=O)CCCCC
REMARK SMILES IDX 6 1 7 2 8 3 9 4 5 5 3 6 4 7 2 8 1 9
REMARK H PARENT
REMARK Flexibility Score: inf
ROOT
ATOM      1  C   UNL     1     -10.486  74.787  31.240  1.00  0.00     0.008 C 
ENDROOT
BRANCH   1   2
ATOM      2  C   UNL     1     -11.218  74.343  32.515  1.00  0.00     0.000 C 
BRANCH   2   3
ATOM      3  C   UNL     1     -11.636  72.871  32.423  1.00  0.00    -0.003 C 
ATOM      4  C   UNL     1     -10.746  71.990  33.294  1.00  0.00     0.004 C 
ENDBRANCH   2   3
ENDBRANCH   1   2
BRANCH   1   5
ATOM      5  C   UNL     1     -11.014  74.067  29.987  1.00  0.00     0.080 C 
BRANCH   5   6
ATOM      6  C   UNL     1      -9.934  73.372  29.186  1.00  0.00     0.155 C 
ATOM      7  O   UNL     1      -9.343  72.369  29.669  1.00  0.00    -0.295 OA
BRANCH   6   8
ATOM      8  C   UNL     1      -9.497  73.865  27.864  1.00  0.00     0.039 C 
ATOM      9  C   UNL     1     -10.009  74.941  27.269  1.00  0.00     0.012 C 
ENDBRANCH   6   8
ENDBRANCH   5   6
ENDBRANCH   1   5
TORSDOF 5
ENDMDL
MODEL 5
REMARK VINA RESULT:    -4.124      1.669      2.279
REMARK INTER + INTRA:          -5.882
REMARK INTER:                  -5.680
REMARK INTRA:                  -0.203
REMARK UNBOUND:                -0.553
REMARK SMILES C=CC(=O)CCCCC
REMARK SMILES IDX 6 1 7 2 8 3 9 4 5 5 3 6 4 7 2 8 1 9
REMARK H PARENT
REMARK Flexibility Score: inf
ROOT
ATOM      1  C   UNL     1      -9.783  74.288  29.530  1.00  0.00     0.008 C 
ENDROOT
BRANCH   1   2
ATOM      2  C   UNL     1      -9.653  73.440  28.256  1.00  0.00     0.000 C 
BRANCH   2   3
ATOM      3  C   UNL     1      -9.303  74.316  27.048  1.00  0.00    -0.003 C 
ATOM      4  C   UNL     1     -10.546  74.990  26.476  1.00  0.00     0.004 C 
ENDBRANCH   2   3
ENDBRANCH   1   2
BRANCH   1   5
ATOM      5  C   UNL     1     -11.214  74.274  30.093  1.00  0.00     0.080 C 
BRANCH   5   6
ATOM      6  C   UNL     1     -11.280  73.992  31.578  1.00  0.00     0.155 C 
ATOM      7  O   UNL     1     -10.996  74.902  32.403  1.00  0.00    -0.295 OA
BRANCH   6   8
ATOM      8  C   UNL     1     -11.612  72.653  32.110  1.00  0.00     0.039 C 
ATOM      9  C   UNL     1     -10.884  72.021  33.029  1.00  0.00     0.012 C 
ENDBRANCH   6   8
ENDBRANCH   5   6
ENDBRANCH   1   5
TORSDOF 5
ENDMDL
MODEL 6
REMARK VINA RESULT:    -4.113      1.509      1.886
REMARK INTER + INTRA:          -5.868
REMARK INTER:                  -5.579
REMARK INTRA:                  -0.289
REMARK UNBOUND:                -0.553
REMARK SMILES C=CC(=O)CCCCC
REMARK SMILES IDX 6 1 7 2 8 3 9 4 5 5 3 6 4 7 2 8 1 9
REMARK H PARENT
REMARK Flexibility Score: inf
ROOT
ATOM      1  C   UNL     1     -11.787  73.706  28.836  1.00  0.00     0.008 C 
ENDROOT
BRANCH   1   2
ATOM      2  C   UNL     1     -10.493  74.532  28.825  1.00  0.00     0.000 C 
BRANCH   2   3
ATOM      3  C   UNL     1      -9.785  74.424  27.470  1.00  0.00    -0.003 C 
ATOM      4  C   UNL     1     -10.611  75.072  26.362  1.00  0.00     0.004 C 
ENDBRANCH   2   3
ENDBRANCH   1   2
BRANCH   1   5
ATOM      5  C   UNL     1     -11.581  72.313  29.454  1.00  0.00     0.080 C 
BRANCH   5   6
ATOM      6  C   UNL     1     -10.934  72.344  30.822  1.00  0.00     0.155 C 
ATOM      7  O   UNL     1      -9.739  71.967  30.960  1.00  0.00    -0.295 OA
BRANCH   6   8
ATOM      8  C   UNL     1     -11.678  72.751  32.033  1.00  0.00     0.039 C 
ATOM      9  C   UNL     1     -11.177  73.551  32.974  1.00  0.00     0.012 C 
ENDBRANCH   6   8
ENDBRANCH   5   6
ENDBRANCH   1   5
TORSDOF 5
ENDMDL
MODEL 7
REMARK VINA RESULT:    -4.006      2.682      4.378
REMARK INTER + INTRA:          -5.729
REMARK INTER:                  -5.290
REMARK INTRA:                  -0.439
REMARK UNBOUND:                -0.553
REMARK SMILES C=CC(=O)CCCCC
REMARK SMILES IDX 6 1 7 2 8 3 9 4 5 5 3 6 4 7 2 8 1 9
REMARK H PARENT
REMARK Flexibility Score: inf
ROOT
ATOM      1  C   UNL     1     -11.651  73.214  29.019  1.00  0.00     0.008 C 
ENDROOT
BRANCH   1   2
ATOM      2  C   UNL     1     -11.166  74.240  30.054  1.00  0.00     0.000 C 
BRANCH   2   3
ATOM      3  C   UNL     1      -9.777  73.868  30.585  1.00  0.00    -0.003 C 
ATOM      4  C   UNL     1      -9.458  72.401  30.318  1.00  0.00     0.004 C 
ENDBRANCH   2   3
ENDBRANCH   1   2
BRANCH   1   5
ATOM      5  C   UNL     1     -11.988  73.868  27.668  1.00  0.00     0.080 C 
BRANCH   5   6
ATOM      6  C   UNL     1     -10.770  74.321  26.892  1.00  0.00     0.155 C 
ATOM      7  O   UNL     1     -10.809  75.398  26.237  1.00  0.00    -0.295 OA
BRANCH   6   8
ATOM      8  C   UNL     1      -9.536  73.511  26.823  1.00  0.00     0.039 C 
ATOM      9  C   UNL     1      -9.030  73.031  25.687  1.00  0.00     0.012 C 
ENDBRANCH   6   8
ENDBRANCH   5   6
ENDBRANCH   1   5
TORSDOF 5
ENDMDL
MODEL 8
REMARK VINA RESULT:    -3.929      2.698      3.524
REMARK INTER + INTRA:          -5.630
REMARK INTER:                  -5.466
REMARK INTRA:                  -0.164
REMARK UNBOUND:                -0.553
REMARK SMILES C=CC(=O)CCCCC
REMARK SMILES IDX 6 1 7 2 8 3 9 4 5 5 3 6 4 7 2 8 1 9
REMARK H PARENT
REMARK Flexibility Score: inf
ROOT
ATOM      1  C   UNL     1     -11.256  74.492  32.547  1.00  0.00     0.008 C 
ENDROOT
BRANCH   1   2
ATOM      2  C   UNL     1     -10.359  74.377  31.306  1.00  0.00     0.000 C 
BRANCH   2   3
ATOM      3  C   UNL     1     -11.195  74.398  30.021  1.00  0.00    -0.003 C 
ATOM      4  C   UNL     1     -10.305  74.488  28.786  1.00  0.00     0.004 C 
ENDBRANCH   2   3
ENDBRANCH   1   2
BRANCH   1   5
ATOM      5  C   UNL     1     -11.774  73.122  33.018  1.00  0.00     0.080 C 
BRANCH   5   6
ATOM      6  C   UNL     1     -11.117  72.627  34.287  1.00  0.00     0.155 C 
ATOM      7  O   UNL     1     -10.185  71.780  34.223  1.00  0.00    -0.295 OA
BRANCH   6   8
ATOM      8  C   UNL     1     -11.570  73.059  35.626  1.00  0.00     0.039 C 
ATOM      9  C   UNL     1     -10.741  73.382  36.619  1.00  0.00     0.012 C 
ENDBRANCH   6   8
ENDBRANCH   5   6
ENDBRANCH   1   5
TORSDOF 5
ENDMDL
MODEL 9
REMARK VINA RESULT:    -3.862      3.017      5.411
REMARK INTER + INTRA:          -5.544
REMARK INTER:                  -5.340
REMARK INTRA:                  -0.204
REMARK UNBOUND:                -0.553
REMARK SMILES C=CC(=O)CCCCC
REMARK SMILES IDX 6 1 7 2 8 3 9 4 5 5 3 6 4 7 2 8 1 9
REMARK H PARENT
REMARK Flexibility Score: inf
ROOT
ATOM      1  C   UNL     1     -11.567  73.091  33.881  1.00  0.00     0.008 C 
ENDROOT
BRANCH   1   2
ATOM      2  C   UNL     1     -10.656  72.629  35.029  1.00  0.00     0.000 C 
BRANCH   2   3
ATOM      3  C   UNL     1     -11.245  73.021  36.388  1.00  0.00    -0.003 C 
ATOM      4  C   UNL     1     -11.493  71.792  37.257  1.00  0.00     0.004 C 
ENDBRANCH   2   3
ENDBRANCH   1   2
BRANCH   1   5
ATOM      5  C   UNL     1     -11.286  72.330  32.575  1.00  0.00     0.080 C 
BRANCH   5   6
ATOM      6  C   UNL     1     -11.196  73.224  31.358  1.00  0.00     0.155 C 
ATOM      7  O   UNL     1     -11.493  72.769  30.221  1.00  0.00    -0.295 OA
BRANCH   6   8
ATOM      8  C   UNL     1     -10.709  74.617  31.441  1.00  0.00     0.039 C 
ATOM      9  C   UNL     1      -9.542  75.023  30.943  1.00  0.00     0.012 C 
ENDBRANCH   6   8
ENDBRANCH   5   6
ENDBRANCH   1   5
TORSDOF 5
ENDMDL
