MODEL 1
REMARK VINA RESULT:    -7.090      0.000      0.000
REMARK INTER + INTRA:         -20.729
REMARK INTER:                 -18.694
REMARK INTRA:                  -2.034
REMARK UNBOUND:                -2.034
REMARK SMILES CCCCCCCCCCCCCCCCCCCCCCCCCCCCCC(=O)[O-]
REMARK SMILES IDX 16 1 17 2 18 3 19 4 20 5 21 6 22 7 23 8 24 9 25 10 26 11
REMARK SMILES IDX 27 12 28 13 29 14 30 15 31 16 32 17 15 18 14 19 13 20 12 21
REMARK SMILES IDX 11 22 10 23 9 24 8 25 7 26 6 27 5 28 4 29 3 30 2 31 1 32
REMARK H PARENT
REMARK Flexibility Score: inf
ROOT
ATOM      1  C   UNL     1      24.177  -7.334  20.085  1.00  0.00     0.000 C 
ENDROOT
BRANCH   1   2
ATOM      2  C   UNL     1      25.118  -6.129  20.250  1.00  0.00     0.000 C 
BRANCH   2   3
ATOM      3  C   UNL     1      24.703  -4.932  19.366  1.00  0.00     0.000 C 
BRANCH   3   4
ATOM      4  C   UNL     1      25.878  -4.003  19.018  1.00  0.00     0.000 C 
BRANCH   4   5
ATOM      5  C   UNL     1      27.226  -4.433  19.632  1.00  0.00     0.000 C 
BRANCH   5   6
ATOM      6  C   UNL     1      28.282  -4.779  18.569  1.00  0.00     0.000 C 
BRANCH   6   7
ATOM      7  C   UNL     1      29.533  -3.887  18.665  1.00  0.00     0.000 C 
BRANCH   7   8
ATOM      8  C   UNL     1      29.470  -2.793  19.746  1.00  0.00     0.000 C 
BRANCH   8   9
ATOM      9  C   UNL     1      28.956  -1.450  19.206  1.00  0.00     0.000 C 
BRANCH   9  10
ATOM     10  C   UNL     1      28.559  -0.507  20.348  1.00  0.00     0.000 C 
BRANCH  10  11
ATOM     11  C   UNL     1      27.402   0.408  19.918  1.00  0.00     0.000 C 
BRANCH  11  12
ATOM     12  C   UNL     1      26.063  -0.337  19.777  1.00  0.00     0.000 C 
BRANCH  12  13
ATOM     13  C   UNL     1      24.808   0.517  20.038  1.00  0.00     0.006 C 
BRANCH  13  14
ATOM     14  C   UNL     1      23.874   0.601  18.824  1.00  0.00     0.053 C 
BRANCH  14  15
ATOM     15  C   UNL     1      24.068   1.896  18.098  1.00  0.00     0.041 C 
ATOM     16  O   UNL     1      24.977   2.691  18.455  1.00  0.00    -0.550 OA
ATOM     17  O   UNL     1      23.233   2.233  17.040  1.00  0.00    -0.550 OA
ENDBRANCH  14  15
ENDBRANCH  13  14
ENDBRANCH  12  13
ENDBRANCH  11  12
ENDBRANCH  10  11
ENDBRANCH   9  10
ENDBRANCH   8   9
ENDBRANCH   7   8
ENDBRANCH   6   7
ENDBRANCH   5   6
ENDBRANCH   4   5
ENDBRANCH   3   4
ENDBRANCH   2   3
ENDBRANCH   1   2
BRANCH   1  18
ATOM     18  C   UNL     1      24.646  -8.540  20.917  1.00  0.00     0.000 C 
BRANCH  18  19
ATOM     19  C   UNL     1      23.483  -9.336  21.536  1.00  0.00     0.000 C 
BRANCH  19  20
ATOM     20  C   UNL     1      23.017  -8.842  22.919  1.00  0.00     0.000 C 
BRANCH  20  21
ATOM     21  C   UNL     1      22.504  -9.941  23.865  1.00  0.00     0.000 C 
BRANCH  21  22
ATOM     22  C   UNL     1      21.770  -9.381  25.097  1.00  0.00     0.000 C 
BRANCH  22  23
ATOM     23  C   UNL     1      20.446  -8.679  24.732  1.00  0.00     0.000 C 
BRANCH  23  24
ATOM     24  C   UNL     1      19.413  -8.639  25.877  1.00  0.00    -0.000 C 
BRANCH  24  25
ATOM     25  C   UNL     1      18.118  -7.861  25.575  1.00  0.00    -0.000 C 
BRANCH  25  26
ATOM     26  C   UNL     1      17.884  -7.526  24.088  1.00  0.00    -0.000 C 
BRANCH  26  27
ATOM     27  C   UNL     1      16.394  -7.405  23.701  1.00  0.00    -0.000 C 
BRANCH  27  28
ATOM     28  C   UNL     1      15.491  -7.146  24.917  1.00  0.00    -0.000 C 
BRANCH  28  29
ATOM     29  C   UNL     1      14.861  -5.748  24.855  1.00  0.00    -0.000 C 
BRANCH  29  30
ATOM     30  C   UNL     1      15.410  -4.813  25.945  1.00  0.00    -0.000 C 
BRANCH  30  31
ATOM     31  C   UNL     1      16.891  -4.468  25.727  1.00  0.00    -0.003 C 
ATOM     32  C   UNL     1      17.049  -3.395  24.655  1.00  0.00     0.004 C 
ENDBRANCH  30  31
ENDBRANCH  29  30
ENDBRANCH  28  29
ENDBRANCH  27  28
ENDBRANCH  26  27
ENDBRANCH  25  26
ENDBRANCH  24  25
ENDBRANCH  23  24
ENDBRANCH  22  23
ENDBRANCH  21  22
ENDBRANCH  20  21
ENDBRANCH  19  20
ENDBRANCH  18  19
ENDBRANCH   1  18
TORSDOF 28
ENDMDL
MODEL 2
REMARK VINA RESULT:    -6.933      1.724      3.633
REMARK INTER + INTRA:         -20.317
REMARK INTER:                 -17.959
REMARK INTRA:                  -2.358
REMARK UNBOUND:                -2.034
REMARK SMILES CCCCCCCCCCCCCCCCCCCCCCCCCCCCCC(=O)[O-]
REMARK SMILES IDX 16 1 17 2 18 3 19 4 20 5 21 6 22 7 23 8 24 9 25 10 26 11
REMARK SMILES IDX 27 12 28 13 29 14 30 15 31 16 32 17 15 18 14 19 13 20 12 21
REMARK SMILES IDX 11 22 10 23 9 24 8 25 7 26 6 27 5 28 4 29 3 30 2 31 1 32
REMARK H PARENT
REMARK Flexibility Score: inf
ROOT
ATOM      1  C   UNL     1      22.884 -10.418  23.686  1.00  0.00     0.000 C 
ENDROOT
BRANCH   1   2
ATOM      2  C   UNL     1      22.911  -9.000  23.093  1.00  0.00     0.000 C 
BRANCH   2   3
ATOM      3  C   UNL     1      23.484  -8.972  21.659  1.00  0.00     0.000 C 
BRANCH   3   4
ATOM      4  C   UNL     1      24.305  -7.705  21.362  1.00  0.00     0.000 C 
BRANCH   4   5
ATOM      5  C   UNL     1      25.582  -7.961  20.534  1.00  0.00     0.000 C 
BRANCH   5   6
ATOM      6  C   UNL     1      26.398  -6.681  20.288  1.00  0.00     0.000 C 
BRANCH   6   7
ATOM      7  C   UNL     1      25.628  -5.637  19.462  1.00  0.00     0.000 C 
BRANCH   7   8
ATOM      8  C   UNL     1      26.491  -4.805  18.496  1.00  0.00     0.000 C 
BRANCH   8   9
ATOM      9  C   UNL     1      27.927  -5.337  18.370  1.00  0.00     0.000 C 
BRANCH   9  10
ATOM     10  C   UNL     1      28.951  -4.200  18.467  1.00  0.00     0.000 C 
BRANCH  10  11
ATOM     11  C   UNL     1      28.816  -3.462  19.808  1.00  0.00     0.000 C 
BRANCH  11  12
ATOM     12  C   UNL     1      29.298  -2.003  19.745  1.00  0.00     0.000 C 
BRANCH  12  13
ATOM     13  C   UNL     1      28.204  -0.964  19.434  1.00  0.00     0.006 C 
BRANCH  13  14
ATOM     14  C   UNL     1      26.821  -1.370  19.961  1.00  0.00     0.053 C 
BRANCH  14  15
ATOM     15  C   UNL     1      25.843  -0.250  19.793  1.00  0.00     0.041 C 
ATOM     16  O   UNL     1      26.249   0.940  19.719  1.00  0.00    -0.550 OA
ATOM     17  O   UNL     1      24.480  -0.518  19.738  1.00  0.00    -0.550 OA
ENDBRANCH  14  15
ENDBRANCH  13  14
ENDBRANCH  12  13
ENDBRANCH  11  12
ENDBRANCH  10  11
ENDBRANCH   9  10
ENDBRANCH   8   9
ENDBRANCH   7   8
ENDBRANCH   6   7
ENDBRANCH   5   6
ENDBRANCH   4   5
ENDBRANCH   3   4
ENDBRANCH   2   3
ENDBRANCH   1   2
BRANCH   1  18
ATOM     18  C   UNL     1      22.788 -10.391  25.222  1.00  0.00     0.000 C 
BRANCH  18  19
ATOM     19  C   UNL     1      23.184 -11.726  25.876  1.00  0.00     0.000 C 
BRANCH  19  20
ATOM     20  C   UNL     1      23.127 -11.743  27.416  1.00  0.00     0.000 C 
BRANCH  20  21
ATOM     21  C   UNL     1      22.113 -10.770  28.041  1.00  0.00     0.000 C 
BRANCH  21  22
ATOM     22  C   UNL     1      20.736 -11.413  28.289  1.00  0.00     0.000 C 
BRANCH  22  23
ATOM     23  C   UNL     1      19.574 -10.559  27.742  1.00  0.00     0.000 C 
BRANCH  23  24
ATOM     24  C   UNL     1      20.020  -9.355  26.885  1.00  0.00    -0.000 C 
BRANCH  24  25
ATOM     25  C   UNL     1      18.973  -8.831  25.883  1.00  0.00    -0.000 C 
BRANCH  25  26
ATOM     26  C   UNL     1      19.519  -7.873  24.805  1.00  0.00    -0.000 C 
BRANCH  26  27
ATOM     27  C   UNL     1      18.447  -6.943  24.195  1.00  0.00    -0.000 C 
BRANCH  27  28
ATOM     28  C   UNL     1      17.106  -7.659  23.973  1.00  0.00    -0.000 C 
BRANCH  28  29
ATOM     29  C   UNL     1      15.949  -6.892  24.629  1.00  0.00    -0.000 C 
BRANCH  29  30
ATOM     30  C   UNL     1      16.447  -5.768  25.554  1.00  0.00    -0.000 C 
BRANCH  30  31
ATOM     31  C   UNL     1      16.029  -4.376  25.056  1.00  0.00    -0.003 C 
ATOM     32  C   UNL     1      17.241  -3.464  24.902  1.00  0.00     0.004 C 
ENDBRANCH  30  31
ENDBRANCH  29  30
ENDBRANCH  28  29
ENDBRANCH  27  28
ENDBRANCH  26  27
ENDBRANCH  25  26
ENDBRANCH  24  25
ENDBRANCH  23  24
ENDBRANCH  22  23
ENDBRANCH  21  22
ENDBRANCH  20  21
ENDBRANCH  19  20
ENDBRANCH  18  19
ENDBRANCH   1  18
TORSDOF 28
ENDMDL
MODEL 3
REMARK VINA RESULT:    -6.919      1.116      1.660
REMARK INTER + INTRA:         -20.279
REMARK INTER:                 -18.122
REMARK INTRA:                  -2.157
REMARK UNBOUND:                -2.034
REMARK SMILES CCCCCCCCCCCCCCCCCCCCCCCCCCCCCC(=O)[O-]
REMARK SMILES IDX 16 1 17 2 18 3 19 4 20 5 21 6 22 7 23 8 24 9 25 10 26 11
REMARK SMILES IDX 27 12 28 13 29 14 30 15 31 16 32 17 15 18 14 19 13 20 12 21
REMARK SMILES IDX 11 22 10 23 9 24 8 25 7 26 6 27 5 28 4 29 3 30 2 31 1 32
REMARK H PARENT
REMARK Flexibility Score: inf
ROOT
ATOM      1  C   UNL     1      23.350  -8.133  21.233  1.00  0.00     0.000 C 
ENDROOT
BRANCH   1   2
ATOM      2  C   UNL     1      24.686  -7.897  20.509  1.00  0.00     0.000 C 
BRANCH   2   3
ATOM      3  C   UNL     1      24.575  -6.827  19.400  1.00  0.00     0.000 C 
BRANCH   3   4
ATOM      4  C   UNL     1      25.264  -5.502  19.769  1.00  0.00     0.000 C 
BRANCH   4   5
ATOM      5  C   UNL     1      26.804  -5.548  19.687  1.00  0.00     0.000 C 
BRANCH   5   6
ATOM      6  C   UNL     1      27.363  -4.717  18.519  1.00  0.00     0.000 C 
BRANCH   6   7
ATOM      7  C   UNL     1      28.895  -4.577  18.573  1.00  0.00     0.000 C 
BRANCH   7   8
ATOM      8  C   UNL     1      29.412  -3.437  19.468  1.00  0.00     0.000 C 
BRANCH   8   9
ATOM      9  C   UNL     1      29.026  -2.045  18.945  1.00  0.00     0.000 C 
BRANCH   9  10
ATOM     10  C   UNL     1      28.888  -1.039  20.093  1.00  0.00     0.000 C 
BRANCH  10  11
ATOM     11  C   UNL     1      27.683  -1.391  20.981  1.00  0.00     0.000 C 
BRANCH  11  12
ATOM     12  C   UNL     1      26.360  -1.470  20.200  1.00  0.00     0.000 C 
BRANCH  12  13
ATOM     13  C   UNL     1      25.884  -0.143  19.582  1.00  0.00     0.006 C 
BRANCH  13  14
ATOM     14  C   UNL     1      24.359  -0.064  19.426  1.00  0.00     0.053 C 
BRANCH  14  15
ATOM     15  C   UNL     1      23.948   1.290  18.939  1.00  0.00     0.041 C 
ATOM     16  O   UNL     1      22.729   1.603  18.896  1.00  0.00    -0.550 OA
ATOM     17  O   UNL     1      24.909   2.199  18.512  1.00  0.00    -0.550 OA
ENDBRANCH  14  15
ENDBRANCH  13  14
ENDBRANCH  12  13
ENDBRANCH  11  12
ENDBRANCH  10  11
ENDBRANCH   9  10
ENDBRANCH   8   9
ENDBRANCH   7   8
ENDBRANCH   6   7
ENDBRANCH   5   6
ENDBRANCH   4   5
ENDBRANCH   3   4
ENDBRANCH   2   3
ENDBRANCH   1   2
BRANCH   1  18
ATOM     18  C   UNL     1      23.558  -8.418  22.731  1.00  0.00     0.000 C 
BRANCH  18  19
ATOM     19  C   UNL     1      23.001  -9.784  23.168  1.00  0.00     0.000 C 
BRANCH  19  20
ATOM     20  C   UNL     1      22.232  -9.780  24.504  1.00  0.00     0.000 C 
BRANCH  20  21
ATOM     21  C   UNL     1      22.707 -10.821  25.533  1.00  0.00     0.000 C 
BRANCH  21  22
ATOM     22  C   UNL     1      22.171 -10.554  26.951  1.00  0.00     0.000 C 
BRANCH  22  23
ATOM     23  C   UNL     1      21.176  -9.377  26.998  1.00  0.00     0.000 C 
BRANCH  23  24
ATOM     24  C   UNL     1      19.694  -9.794  26.894  1.00  0.00    -0.000 C 
BRANCH  24  25
ATOM     25  C   UNL     1      18.794  -8.846  26.079  1.00  0.00    -0.000 C 
BRANCH  25  26
ATOM     26  C   UNL     1      19.541  -7.817  25.208  1.00  0.00    -0.000 C 
BRANCH  26  27
ATOM     27  C   UNL     1      18.662  -7.162  24.121  1.00  0.00    -0.000 C 
BRANCH  27  28
ATOM     28  C   UNL     1      17.219  -7.691  24.135  1.00  0.00    -0.000 C 
BRANCH  28  29
ATOM     29  C   UNL     1      16.218  -6.568  24.440  1.00  0.00    -0.000 C 
BRANCH  29  30
ATOM     30  C   UNL     1      16.561  -5.818  25.737  1.00  0.00    -0.000 C 
BRANCH  30  31
ATOM     31  C   UNL     1      16.194  -4.328  25.664  1.00  0.00    -0.003 C 
ATOM     32  C   UNL     1      17.247  -3.542  24.891  1.00  0.00     0.004 C 
ENDBRANCH  30  31
ENDBRANCH  29  30
ENDBRANCH  28  29
ENDBRANCH  27  28
ENDBRANCH  26  27
ENDBRANCH  25  26
ENDBRANCH  24  25
ENDBRANCH  23  24
ENDBRANCH  22  23
ENDBRANCH  21  22
ENDBRANCH  20  21
ENDBRANCH  19  20
ENDBRANCH  18  19
ENDBRANCH   1  18
TORSDOF 28
ENDMDL
MODEL 4
REMARK VINA RESULT:    -6.775      3.790     11.221
REMARK INTER + INTRA:         -19.899
REMARK INTER:                 -17.768
REMARK INTRA:                  -2.131
REMARK UNBOUND:                -2.034
REMARK SMILES CCCCCCCCCCCCCCCCCCCCCCCCCCCCCC(=O)[O-]
REMARK SMILES IDX 16 1 17 2 18 3 19 4 20 5 21 6 22 7 23 8 24 9 25 10 26 11
REMARK SMILES IDX 27 12 28 13 29 14 30 15 31 16 32 17 15 18 14 19 13 20 12 21
REMARK SMILES IDX 11 22 10 23 9 24 8 25 7 26 6 27 5 28 4 29 3 30 2 31 1 32
REMARK H PARENT
REMARK Flexibility Score: inf
ROOT
ATOM      1  C   UNL     1      24.368  -7.723  21.043  1.00  0.00     0.000 C 
ENDROOT
BRANCH   1   2
ATOM      2  C   UNL     1      23.523  -8.928  21.489  1.00  0.00     0.000 C 
BRANCH   2   3
ATOM      3  C   UNL     1      23.267  -8.935  23.012  1.00  0.00     0.000 C 
BRANCH   3   4
ATOM      4  C   UNL     1      22.903 -10.327  23.557  1.00  0.00     0.000 C 
BRANCH   4   5
ATOM      5  C   UNL     1      22.541 -10.343  25.056  1.00  0.00     0.000 C 
BRANCH   5   6
ATOM      6  C   UNL     1      23.193 -11.512  25.814  1.00  0.00     0.000 C 
BRANCH   6   7
ATOM      7  C   UNL     1      22.846 -11.512  27.313  1.00  0.00     0.000 C 
BRANCH   7   8
ATOM      8  C   UNL     1      22.288 -10.183  27.852  1.00  0.00     0.000 C 
BRANCH   8   9
ATOM      9  C   UNL     1      20.890 -10.330  28.472  1.00  0.00     0.000 C 
BRANCH   9  10
ATOM     10  C   UNL     1      19.793 -10.160  27.415  1.00  0.00     0.000 C 
BRANCH  10  11
ATOM     11  C   UNL     1      20.002  -8.861  26.621  1.00  0.00     0.000 C 
BRANCH  11  12
ATOM     12  C   UNL     1      19.144  -8.786  25.346  1.00  0.00     0.000 C 
BRANCH  12  13
ATOM     13  C   UNL     1      18.911  -7.367  24.795  1.00  0.00     0.006 C 
BRANCH  13  14
ATOM     14  C   UNL     1      17.448  -7.100  24.418  1.00  0.00     0.053 C 
BRANCH  14  15
ATOM     15  C   UNL     1      16.749  -6.356  25.512  1.00  0.00     0.041 C 
ATOM     16  O   UNL     1      16.787  -5.098  25.546  1.00  0.00    -0.550 OA
ATOM     17  O   UNL     1      16.070  -7.053  26.505  1.00  0.00    -0.550 OA
ENDBRANCH  14  15
ENDBRANCH  13  14
ENDBRANCH  12  13
ENDBRANCH  11  12
ENDBRANCH  10  11
ENDBRANCH   9  10
ENDBRANCH   8   9
ENDBRANCH   7   8
ENDBRANCH   6   7
ENDBRANCH   5   6
ENDBRANCH   4   5
ENDBRANCH   3   4
ENDBRANCH   2   3
ENDBRANCH   1   2
BRANCH   1  18
ATOM     18  C   UNL     1      23.815  -7.086  19.755  1.00  0.00     0.000 C 
BRANCH  18  19
ATOM     19  C   UNL     1      24.831  -6.170  19.050  1.00  0.00     0.000 C 
BRANCH  19  20
ATOM     20  C   UNL     1      25.742  -5.358  19.990  1.00  0.00     0.000 C 
BRANCH  20  21
ATOM     21  C   UNL     1      27.251  -5.536  19.749  1.00  0.00     0.000 C 
BRANCH  21  22
ATOM     22  C   UNL     1      27.739  -4.853  18.459  1.00  0.00     0.000 C 
BRANCH  22  23
ATOM     23  C   UNL     1      29.039  -4.049  18.666  1.00  0.00     0.000 C 
BRANCH  23  24
ATOM     24  C   UNL     1      29.033  -3.144  19.916  1.00  0.00    -0.000 C 
BRANCH  24  25
ATOM     25  C   UNL     1      29.016  -1.629  19.638  1.00  0.00    -0.000 C 
BRANCH  25  26
ATOM     26  C   UNL     1      27.617  -1.013  19.438  1.00  0.00    -0.000 C 
BRANCH  26  27
ATOM     27  C   UNL     1      26.489  -1.775  20.166  1.00  0.00    -0.000 C 
BRANCH  27  28
ATOM     28  C   UNL     1      25.092  -1.256  19.791  1.00  0.00    -0.000 C 
BRANCH  28  29
ATOM     29  C   UNL     1      25.072   0.277  19.706  1.00  0.00    -0.000 C 
BRANCH  29  30
ATOM     30  C   UNL     1      23.709   0.816  19.242  1.00  0.00    -0.000 C 
BRANCH  30  31
ATOM     31  C   UNL     1      23.834   2.152  18.493  1.00  0.00    -0.003 C 
ATOM     32  C   UNL     1      23.540   1.974  17.008  1.00  0.00     0.004 C 
ENDBRANCH  30  31
ENDBRANCH  29  30
ENDBRANCH  28  29
ENDBRANCH  27  28
ENDBRANCH  26  27
ENDBRANCH  25  26
ENDBRANCH  24  25
ENDBRANCH  23  24
ENDBRANCH  22  23
ENDBRANCH  21  22
ENDBRANCH  20  21
ENDBRANCH  19  20
ENDBRANCH  18  19
ENDBRANCH   1  18
TORSDOF 28
ENDMDL
MODEL 5
REMARK VINA RESULT:    -6.729      1.051      2.028
REMARK INTER + INTRA:         -19.778
REMARK INTER:                 -18.273
REMARK INTRA:                  -1.506
REMARK UNBOUND:                -2.034
REMARK SMILES CCCCCCCCCCCCCCCCCCCCCCCCCCCCCC(=O)[O-]
REMARK SMILES IDX 16 1 17 2 18 3 19 4 20 5 21 6 22 7 23 8 24 9 25 10 26 11
REMARK SMILES IDX 27 12 28 13 29 14 30 15 31 16 32 17 15 18 14 19 13 20 12 21
REMARK SMILES IDX 11 22 10 23 9 24 8 25 7 26 6 27 5 28 4 29 3 30 2 31 1 32
REMARK H PARENT
REMARK Flexibility Score: inf
ROOT
ATOM      1  C   UNL     1      26.673  -7.376  19.274  1.00  0.00     0.000 C 
ENDROOT
BRANCH   1   2
ATOM      2  C   UNL     1      26.745  -6.086  20.107  1.00  0.00     0.000 C 
BRANCH   2   3
ATOM      3  C   UNL     1      26.312  -4.840  19.301  1.00  0.00     0.000 C 
BRANCH   3   4
ATOM      4  C   UNL     1      27.294  -4.480  18.173  1.00  0.00     0.000 C 
BRANCH   4   5
ATOM      5  C   UNL     1      28.780  -4.605  18.567  1.00  0.00     0.000 C 
BRANCH   5   6
ATOM      6  C   UNL     1      29.258  -3.450  19.463  1.00  0.00     0.000 C 
BRANCH   6   7
ATOM      7  C   UNL     1      28.765  -2.077  18.972  1.00  0.00     0.000 C 
BRANCH   7   8
ATOM      8  C   UNL     1      28.885  -0.937  20.000  1.00  0.00     0.000 C 
BRANCH   8   9
ATOM      9  C   UNL     1      27.571  -0.671  20.750  1.00  0.00     0.000 C 
BRANCH   9  10
ATOM     10  C   UNL     1      26.553  -1.791  20.503  1.00  0.00     0.000 C 
BRANCH  10  11
ATOM     11  C   UNL     1      25.270  -1.227  19.873  1.00  0.00     0.000 C 
BRANCH  11  12
ATOM     12  C   UNL     1      25.303   0.301  19.698  1.00  0.00     0.000 C 
BRANCH  12  13
ATOM     13  C   UNL     1      23.944   0.955  19.387  1.00  0.00     0.006 C 
BRANCH  13  14
ATOM     14  C   UNL     1      23.676   1.097  17.883  1.00  0.00     0.053 C 
BRANCH  14  15
ATOM     15  C   UNL     1      23.807   2.526  17.456  1.00  0.00     0.041 C 
ATOM     16  O   UNL     1      23.145   2.957  16.475  1.00  0.00    -0.550 OA
ATOM     17  O   UNL     1      24.675   3.377  18.130  1.00  0.00    -0.550 OA
ENDBRANCH  14  15
ENDBRANCH  13  14
ENDBRANCH  12  13
ENDBRANCH  11  12
ENDBRANCH  10  11
ENDBRANCH   9  10
ENDBRANCH   8   9
ENDBRANCH   7   8
ENDBRANCH   6   7
ENDBRANCH   5   6
ENDBRANCH   4   5
ENDBRANCH   3   4
ENDBRANCH   2   3
ENDBRANCH   1   2
BRANCH   1  18
ATOM     18  C   UNL     1      26.974  -8.621  20.128  1.00  0.00     0.000 C 
BRANCH  18  19
ATOM     19  C   UNL     1      25.705  -9.301  20.672  1.00  0.00     0.000 C 
BRANCH  19  20
ATOM     20  C   UNL     1      24.477  -8.380  20.809  1.00  0.00     0.000 C 
BRANCH  20  21
ATOM     21  C   UNL     1      23.298  -8.978  21.595  1.00  0.00     0.000 C 
BRANCH  21  22
ATOM     22  C   UNL     1      23.387  -8.714  23.109  1.00  0.00     0.000 C 
BRANCH  22  23
ATOM     23  C   UNL     1      22.306  -9.468  23.909  1.00  0.00     0.000 C 
BRANCH  23  24
ATOM     24  C   UNL     1      21.055  -8.625  24.236  1.00  0.00    -0.000 C 
BRANCH  24  25
ATOM     25  C   UNL     1      20.259  -9.073  25.477  1.00  0.00    -0.000 C 
BRANCH  25  26
ATOM     26  C   UNL     1      18.938  -8.315  25.718  1.00  0.00    -0.000 C 
BRANCH  26  27
ATOM     27  C   UNL     1      18.553  -7.350  24.576  1.00  0.00    -0.000 C 
BRANCH  27  28
ATOM     28  C   UNL     1      17.039  -7.320  24.318  1.00  0.00    -0.000 C 
BRANCH  28  29
ATOM     29  C   UNL     1      16.289  -6.653  25.480  1.00  0.00    -0.000 C 
BRANCH  29  30
ATOM     30  C   UNL     1      15.314  -5.566  24.997  1.00  0.00    -0.000 C 
BRANCH  30  31
ATOM     31  C   UNL     1      15.762  -4.156  25.410  1.00  0.00    -0.003 C 
ATOM     32  C   UNL     1      17.139  -3.831  24.841  1.00  0.00     0.004 C 
ENDBRANCH  30  31
ENDBRANCH  29  30
ENDBRANCH  28  29
ENDBRANCH  27  28
ENDBRANCH  26  27
ENDBRANCH  25  26
ENDBRANCH  24  25
ENDBRANCH  23  24
ENDBRANCH  22  23
ENDBRANCH  21  22
ENDBRANCH  20  21
ENDBRANCH  19  20
ENDBRANCH  18  19
ENDBRANCH   1  18
TORSDOF 28
ENDMDL
MODEL 6
REMARK VINA RESULT:    -6.698      3.210     11.058
REMARK INTER + INTRA:         -19.696
REMARK INTER:                 -17.936
REMARK INTRA:                  -1.759
REMARK UNBOUND:                -2.034
REMARK SMILES CCCCCCCCCCCCCCCCCCCCCCCCCCCCCC(=O)[O-]
REMARK SMILES IDX 16 1 17 2 18 3 19 4 20 5 21 6 22 7 23 8 24 9 25 10 26 11
REMARK SMILES IDX 27 12 28 13 29 14 30 15 31 16 32 17 15 18 14 19 13 20 12 21
REMARK SMILES IDX 11 22 10 23 9 24 8 25 7 26 6 27 5 28 4 29 3 30 2 31 1 32
REMARK H PARENT
REMARK Flexibility Score: inf
ROOT
ATOM      1  C   UNL     1      25.670  -7.501  20.456  1.00  0.00     0.000 C 
ENDROOT
BRANCH   1   2
ATOM      2  C   UNL     1      24.199  -7.072  20.337  1.00  0.00     0.000 C 
BRANCH   2   3
ATOM      3  C   UNL     1      23.222  -8.246  20.573  1.00  0.00     0.000 C 
BRANCH   3   4
ATOM      4  C   UNL     1      23.657  -9.170  21.724  1.00  0.00     0.000 C 
BRANCH   4   5
ATOM      5  C   UNL     1      23.311  -8.634  23.128  1.00  0.00     0.000 C 
BRANCH   5   6
ATOM      6  C   UNL     1      22.255  -9.489  23.849  1.00  0.00     0.000 C 
BRANCH   6   7
ATOM      7  C   UNL     1      21.127  -8.643  24.464  1.00  0.00     0.000 C 
BRANCH   7   8
ATOM      8  C   UNL     1      20.693  -9.065  25.879  1.00  0.00     0.000 C 
BRANCH   8   9
ATOM      9  C   UNL     1      19.186  -8.883  26.120  1.00  0.00     0.000 C 
BRANCH   9  10
ATOM     10  C   UNL     1      18.618  -7.755  25.252  1.00  0.00     0.000 C 
BRANCH  10  11
ATOM     11  C   UNL     1      17.118  -7.564  25.526  1.00  0.00     0.000 C 
BRANCH  11  12
ATOM     12  C   UNL     1      16.353  -6.981  24.326  1.00  0.00     0.000 C 
BRANCH  12  13
ATOM     13  C   UNL     1      14.969  -6.391  24.654  1.00  0.00     0.006 C 
BRANCH  13  14
ATOM     14  C   UNL     1      15.026  -5.261  25.690  1.00  0.00     0.053 C 
BRANCH  14  15
ATOM     15  C   UNL     1      16.059  -4.248  25.310  1.00  0.00     0.041 C 
ATOM     16  O   UNL     1      15.861  -3.480  24.332  1.00  0.00    -0.550 OA
ATOM     17  O   UNL     1      17.249  -4.164  26.023  1.00  0.00    -0.550 OA
ENDBRANCH  14  15
ENDBRANCH  13  14
ENDBRANCH  12  13
ENDBRANCH  11  12
ENDBRANCH  10  11
ENDBRANCH   9  10
ENDBRANCH   8   9
ENDBRANCH   7   8
ENDBRANCH   6   7
ENDBRANCH   5   6
ENDBRANCH   4   5
ENDBRANCH   3   4
ENDBRANCH   2   3
ENDBRANCH   1   2
BRANCH   1  18
ATOM     18  C   UNL     1      26.563  -6.757  19.446  1.00  0.00     0.000 C 
BRANCH  18  19
ATOM     19  C   UNL     1      26.111  -5.308  19.194  1.00  0.00     0.000 C 
BRANCH  19  20
ATOM     20  C   UNL     1      27.047  -4.478  18.295  1.00  0.00     0.000 C 
BRANCH  20  21
ATOM     21  C   UNL     1      28.550  -4.699  18.538  1.00  0.00     0.000 C 
BRANCH  21  22
ATOM     22  C   UNL     1      29.117  -3.808  19.657  1.00  0.00     0.000 C 
BRANCH  22  23
ATOM     23  C   UNL     1      29.484  -2.394  19.163  1.00  0.00     0.000 C 
BRANCH  23  24
ATOM     24  C   UNL     1      28.921  -1.251  20.034  1.00  0.00    -0.000 C 
BRANCH  24  25
ATOM     25  C   UNL     1      27.516  -1.493  20.618  1.00  0.00    -0.000 C 
BRANCH  25  26
ATOM     26  C   UNL     1      26.345  -1.161  19.671  1.00  0.00    -0.000 C 
BRANCH  26  27
ATOM     27  C   UNL     1      25.882   0.310  19.742  1.00  0.00    -0.000 C 
BRANCH  27  28
ATOM     28  C   UNL     1      24.352   0.442  19.799  1.00  0.00    -0.000 C 
BRANCH  28  29
ATOM     29  C   UNL     1      23.801   1.087  18.519  1.00  0.00    -0.000 C 
BRANCH  29  30
ATOM     30  C   UNL     1      24.250   2.549  18.363  1.00  0.00    -0.000 C 
BRANCH  30  31
ATOM     31  C   UNL     1      23.646   3.216  17.118  1.00  0.00    -0.003 C 
ATOM     32  C   UNL     1      22.897   2.199  16.263  1.00  0.00     0.004 C 
ENDBRANCH  30  31
ENDBRANCH  29  30
ENDBRANCH  28  29
ENDBRANCH  27  28
ENDBRANCH  26  27
ENDBRANCH  25  26
ENDBRANCH  24  25
ENDBRANCH  23  24
ENDBRANCH  22  23
ENDBRANCH  21  22
ENDBRANCH  20  21
ENDBRANCH  19  20
ENDBRANCH  18  19
ENDBRANCH   1  18
TORSDOF 28
ENDMDL
MODEL 7
REMARK VINA RESULT:    -6.629      1.481      2.043
REMARK INTER + INTRA:         -19.515
REMARK INTER:                 -17.433
REMARK INTRA:                  -2.082
REMARK UNBOUND:                -2.034
REMARK SMILES CCCCCCCCCCCCCCCCCCCCCCCCCCCCCC(=O)[O-]
REMARK SMILES IDX 16 1 17 2 18 3 19 4 20 5 21 6 22 7 23 8 24 9 25 10 26 11
REMARK SMILES IDX 27 12 28 13 29 14 30 15 31 16 32 17 15 18 14 19 13 20 12 21
REMARK SMILES IDX 11 22 10 23 9 24 8 25 7 26 6 27 5 28 4 29 3 30 2 31 1 32
REMARK H PARENT
REMARK Flexibility Score: inf
ROOT
ATOM      1  C   UNL     1      25.252  -8.469  21.232  1.00  0.00     0.000 C 
ENDROOT
BRANCH   1   2
ATOM      2  C   UNL     1      25.833  -7.643  20.073  1.00  0.00     0.000 C 
BRANCH   2   3
ATOM      3  C   UNL     1      24.776  -6.729  19.414  1.00  0.00     0.000 C 
BRANCH   3   4
ATOM      4  C   UNL     1      25.160  -5.240  19.448  1.00  0.00     0.000 C 
BRANCH   4   5
ATOM      5  C   UNL     1      26.657  -4.980  19.715  1.00  0.00     0.000 C 
BRANCH   5   6
ATOM      6  C   UNL     1      27.513  -5.066  18.440  1.00  0.00     0.000 C 
BRANCH   6   7
ATOM      7  C   UNL     1      28.743  -4.142  18.489  1.00  0.00     0.000 C 
BRANCH   7   8
ATOM      8  C   UNL     1      28.967  -3.429  19.835  1.00  0.00     0.000 C 
BRANCH   8   9
ATOM      9  C   UNL     1      29.345  -1.949  19.670  1.00  0.00     0.000 C 
BRANCH   9  10
ATOM     10  C   UNL     1      28.135  -1.112  19.240  1.00  0.00     0.000 C 
BRANCH  10  11
ATOM     11  C   UNL     1      27.085  -1.061  20.361  1.00  0.00     0.000 C 
BRANCH  11  12
ATOM     12  C   UNL     1      25.749  -1.714  19.967  1.00  0.00     0.000 C 
BRANCH  12  13
ATOM     13  C   UNL     1      24.569  -0.739  19.796  1.00  0.00     0.006 C 
BRANCH  13  14
ATOM     14  C   UNL     1      25.013   0.718  19.612  1.00  0.00     0.053 C 
BRANCH  14  15
ATOM     15  C   UNL     1      23.956   1.507  18.906  1.00  0.00     0.041 C 
ATOM     16  O   UNL     1      22.739   1.240  19.088  1.00  0.00    -0.550 OA
ATOM     17  O   UNL     1      24.315   2.526  18.030  1.00  0.00    -0.550 OA
ENDBRANCH  14  15
ENDBRANCH  13  14
ENDBRANCH  12  13
ENDBRANCH  11  12
ENDBRANCH  10  11
ENDBRANCH   9  10
ENDBRANCH   8   9
ENDBRANCH   7   8
ENDBRANCH   6   7
ENDBRANCH   5   6
ENDBRANCH   4   5
ENDBRANCH   3   4
ENDBRANCH   2   3
ENDBRANCH   1   2
BRANCH   1  18
ATOM     18  C   UNL     1      23.737  -8.248  21.384  1.00  0.00     0.000 C 
BRANCH  18  19
ATOM     19  C   UNL     1      23.024  -9.414  22.092  1.00  0.00     0.000 C 
BRANCH  19  20
ATOM     20  C   UNL     1      22.749  -9.198  23.593  1.00  0.00     0.000 C 
BRANCH  20  21
ATOM     21  C   UNL     1      21.331  -8.706  23.932  1.00  0.00     0.000 C 
BRANCH  21  22
ATOM     22  C   UNL     1      20.909  -9.035  25.375  1.00  0.00     0.000 C 
BRANCH  22  23
ATOM     23  C   UNL     1      19.475  -8.568  25.697  1.00  0.00     0.000 C 
BRANCH  23  24
ATOM     24  C   UNL     1      18.702  -8.010  24.483  1.00  0.00    -0.000 C 
BRANCH  24  25
ATOM     25  C   UNL     1      18.402  -6.500  24.525  1.00  0.00    -0.000 C 
BRANCH  25  26
ATOM     26  C   UNL     1      16.961  -6.128  24.927  1.00  0.00    -0.000 C 
BRANCH  26  27
ATOM     27  C   UNL     1      15.896  -7.134  24.438  1.00  0.00    -0.000 C 
BRANCH  27  28
ATOM     28  C   UNL     1      14.520  -6.889  25.076  1.00  0.00    -0.000 C 
BRANCH  28  29
ATOM     29  C   UNL     1      14.600  -5.830  26.185  1.00  0.00    -0.000 C 
BRANCH  29  30
ATOM     30  C   UNL     1      14.000  -6.329  27.510  1.00  0.00    -0.000 C 
BRANCH  30  31
ATOM     31  C   UNL     1      14.885  -7.383  28.191  1.00  0.00    -0.003 C 
ATOM     32  C   UNL     1      14.083  -8.636  28.528  1.00  0.00     0.004 C 
ENDBRANCH  30  31
ENDBRANCH  29  30
ENDBRANCH  28  29
ENDBRANCH  27  28
ENDBRANCH  26  27
ENDBRANCH  25  26
ENDBRANCH  24  25
ENDBRANCH  23  24
ENDBRANCH  22  23
ENDBRANCH  21  22
ENDBRANCH  20  21
ENDBRANCH  19  20
ENDBRANCH  18  19
ENDBRANCH   1  18
TORSDOF 28
ENDMDL
MODEL 8
REMARK VINA RESULT:    -6.589      5.770     13.301
REMARK INTER + INTRA:         -19.408
REMARK INTER:                 -16.574
REMARK INTRA:                  -2.835
REMARK UNBOUND:                -2.034
REMARK SMILES CCCCCCCCCCCCCCCCCCCCCCCCCCCCCC(=O)[O-]
REMARK SMILES IDX 16 1 17 2 18 3 19 4 20 5 21 6 22 7 23 8 24 9 25 10 26 11
REMARK SMILES IDX 27 12 28 13 29 14 30 15 31 16 32 17 15 18 14 19 13 20 12 21
REMARK SMILES IDX 11 22 10 23 9 24 8 25 7 26 6 27 5 28 4 29 3 30 2 31 1 32
REMARK H PARENT
REMARK Flexibility Score: inf
ROOT
ATOM      1  C   UNL     1      23.620   1.345  18.796  1.00  0.00     0.000 C 
ENDROOT
BRANCH   1   2
ATOM      2  C   UNL     1      24.870   0.754  19.468  1.00  0.00     0.000 C 
BRANCH   2   3
ATOM      3  C   UNL     1      24.710  -0.749  19.790  1.00  0.00     0.000 C 
BRANCH   3   4
ATOM      4  C   UNL     1      26.026  -1.416  20.224  1.00  0.00     0.000 C 
BRANCH   4   5
ATOM      5  C   UNL     1      27.243  -1.037  19.354  1.00  0.00     0.000 C 
BRANCH   5   6
ATOM      6  C   UNL     1      28.551  -0.967  20.159  1.00  0.00     0.000 C 
BRANCH   6   7
ATOM      7  C   UNL     1      29.609  -1.966  19.658  1.00  0.00     0.000 C 
BRANCH   7   8
ATOM      8  C   UNL     1      29.239  -3.449  19.839  1.00  0.00     0.000 C 
BRANCH   8   9
ATOM      9  C   UNL     1      29.133  -4.204  18.505  1.00  0.00     0.000 C 
BRANCH   9  10
ATOM     10  C   UNL     1      27.779  -4.911  18.374  1.00  0.00     0.000 C 
BRANCH  10  11
ATOM     11  C   UNL     1      27.035  -4.911  19.718  1.00  0.00     0.000 C 
BRANCH  11  12
ATOM     12  C   UNL     1      25.510  -5.046  19.565  1.00  0.00     0.000 C 
BRANCH  12  13
ATOM     13  C   UNL     1      25.019  -6.429  19.096  1.00  0.00     0.006 C 
BRANCH  13  14
ATOM     14  C   UNL     1      23.871  -6.981  19.951  1.00  0.00     0.053 C 
BRANCH  14  15
ATOM     15  C   UNL     1      24.399  -7.872  21.032  1.00  0.00     0.041 C 
ATOM     16  O   UNL     1      23.820  -7.924  22.148  1.00  0.00    -0.550 OA
ATOM     17  O   UNL     1      25.543  -8.631  20.812  1.00  0.00    -0.550 OA
ENDBRANCH  14  15
ENDBRANCH  13  14
ENDBRANCH  12  13
ENDBRANCH  11  12
ENDBRANCH  10  11
ENDBRANCH   9  10
ENDBRANCH   8   9
ENDBRANCH   7   8
ENDBRANCH   6   7
ENDBRANCH   5   6
ENDBRANCH   4   5
ENDBRANCH   3   4
ENDBRANCH   2   3
ENDBRANCH   1   2
BRANCH   1  18
ATOM     18  C   UNL     1      23.984   2.463  17.801  1.00  0.00     0.000 C 
BRANCH  18  19
ATOM     19  C   UNL     1      23.216   2.361  16.472  1.00  0.00     0.000 C 
BRANCH  19  20
ATOM     20  C   UNL     1      22.818   3.710  15.842  1.00  0.00     0.000 C 
BRANCH  20  21
ATOM     21  C   UNL     1      22.312   3.629  14.392  1.00  0.00     0.000 C 
BRANCH  21  22
ATOM     22  C   UNL     1      22.740   4.835  13.536  1.00  0.00     0.000 C 
BRANCH  22  23
ATOM     23  C   UNL     1      21.930   4.954  12.229  1.00  0.00     0.000 C 
BRANCH  23  24
ATOM     24  C   UNL     1      21.037   3.733  11.922  1.00  0.00    -0.000 C 
BRANCH  24  25
ATOM     25  C   UNL     1      21.002   3.291  10.447  1.00  0.00    -0.000 C 
BRANCH  25  26
ATOM     26  C   UNL     1      22.132   2.331  10.023  1.00  0.00    -0.000 C 
BRANCH  26  27
ATOM     27  C   UNL     1      23.326   3.033   9.340  1.00  0.00    -0.000 C 
BRANCH  27  28
ATOM     28  C   UNL     1      24.566   3.094  10.245  1.00  0.00    -0.000 C 
BRANCH  28  29
ATOM     29  C   UNL     1      25.421   4.331   9.937  1.00  0.00    -0.000 C 
BRANCH  29  30
ATOM     30  C   UNL     1      25.357   5.377  11.062  1.00  0.00    -0.000 C 
BRANCH  30  31
ATOM     31  C   UNL     1      24.768   6.713  10.584  1.00  0.00    -0.003 C 
ATOM     32  C   UNL     1      24.260   6.604   9.150  1.00  0.00     0.004 C 
ENDBRANCH  30  31
ENDBRANCH  29  30
ENDBRANCH  28  29
ENDBRANCH  27  28
ENDBRANCH  26  27
ENDBRANCH  25  26
ENDBRANCH  24  25
ENDBRANCH  23  24
ENDBRANCH  22  23
ENDBRANCH  21  22
ENDBRANCH  20  21
ENDBRANCH  19  20
ENDBRANCH  18  19
ENDBRANCH   1  18
TORSDOF 28
ENDMDL
MODEL 9
REMARK VINA RESULT:    -6.577      5.849     11.623
REMARK INTER + INTRA:         -19.376
REMARK INTER:                 -17.470
REMARK INTRA:                  -1.907
REMARK UNBOUND:                -2.034
REMARK SMILES CCCCCCCCCCCCCCCCCCCCCCCCCCCCCC(=O)[O-]
REMARK SMILES IDX 16 1 17 2 18 3 19 4 20 5 21 6 22 7 23 8 24 9 25 10 26 11
REMARK SMILES IDX 27 12 28 13 29 14 30 15 31 16 32 17 15 18 14 19 13 20 12 21
REMARK SMILES IDX 11 22 10 23 9 24 8 25 7 26 6 27 5 28 4 29 3 30 2 31 1 32
REMARK H PARENT
REMARK Flexibility Score: inf
ROOT
ATOM      1  C   UNL     1      23.440   2.721  17.610  1.00  0.00     0.000 C 
ENDROOT
BRANCH   1   2
ATOM      2  C   UNL     1      24.462   1.848  18.355  1.00  0.00     0.000 C 
BRANCH   2   3
ATOM      3  C   UNL     1      23.788   0.758  19.218  1.00  0.00     0.000 C 
BRANCH   3   4
ATOM      4  C   UNL     1      24.794  -0.083  20.023  1.00  0.00     0.000 C 
BRANCH   4   5
ATOM      5  C   UNL     1      26.192  -0.181  19.378  1.00  0.00     0.000 C 
BRANCH   5   6
ATOM      6  C   UNL     1      27.312   0.320  20.306  1.00  0.00     0.000 C 
BRANCH   6   7
ATOM      7  C   UNL     1      28.357  -0.767  20.612  1.00  0.00     0.000 C 
BRANCH   7   8
ATOM      8  C   UNL     1      28.773  -1.629  19.406  1.00  0.00     0.000 C 
BRANCH   8   9
ATOM      9  C   UNL     1      29.121  -3.074  19.797  1.00  0.00     0.000 C 
BRANCH   9  10
ATOM     10  C   UNL     1      28.699  -4.061  18.703  1.00  0.00     0.000 C 
BRANCH  10  11
ATOM     11  C   UNL     1      27.169  -4.209  18.666  1.00  0.00     0.000 C 
BRANCH  11  12
ATOM     12  C   UNL     1      26.677  -5.544  19.248  1.00  0.00     0.000 C 
BRANCH  12  13
ATOM     13  C   UNL     1      25.257  -5.515  19.845  1.00  0.00     0.006 C 
BRANCH  13  14
ATOM     14  C   UNL     1      24.397  -6.709  19.411  1.00  0.00     0.053 C 
BRANCH  14  15
ATOM     15  C   UNL     1      24.305  -7.720  20.510  1.00  0.00     0.041 C 
ATOM     16  O   UNL     1      23.209  -7.918  21.098  1.00  0.00    -0.550 OA
ATOM     17  O   UNL     1      25.434  -8.431  20.899  1.00  0.00    -0.550 OA
ENDBRANCH  14  15
ENDBRANCH  13  14
ENDBRANCH  12  13
ENDBRANCH  11  12
ENDBRANCH  10  11
ENDBRANCH   9  10
ENDBRANCH   8   9
ENDBRANCH   7   8
ENDBRANCH   6   7
ENDBRANCH   5   6
ENDBRANCH   4   5
ENDBRANCH   3   4
ENDBRANCH   2   3
ENDBRANCH   1   2
BRANCH   1  18
ATOM     18  C   UNL     1      23.309   2.308  16.133  1.00  0.00     0.000 C 
BRANCH  18  19
ATOM     19  C   UNL     1      22.143   3.007  15.411  1.00  0.00     0.000 C 
BRANCH  19  20
ATOM     20  C   UNL     1      22.517   4.304  14.668  1.00  0.00     0.000 C 
BRANCH  20  21
ATOM     21  C   UNL     1      22.705   4.154  13.149  1.00  0.00     0.000 C 
BRANCH  21  22
ATOM     22  C   UNL     1      22.141   5.344  12.352  1.00  0.00     0.000 C 
BRANCH  22  23
ATOM     23  C   UNL     1      21.129   4.910  11.271  1.00  0.00     0.000 C 
BRANCH  23  24
ATOM     24  C   UNL     1      19.677   5.350  11.549  1.00  0.00    -0.000 C 
BRANCH  24  25
ATOM     25  C   UNL     1      18.673   4.207  11.792  1.00  0.00    -0.000 C 
BRANCH  25  26
ATOM     26  C   UNL     1      19.241   2.978  12.529  1.00  0.00    -0.000 C 
BRANCH  26  27
ATOM     27  C   UNL     1      18.202   2.232  13.394  1.00  0.00    -0.000 C 
BRANCH  27  28
ATOM     28  C   UNL     1      18.808   1.683  14.695  1.00  0.00    -0.000 C 
BRANCH  28  29
ATOM     29  C   UNL     1      17.725   1.084  15.604  1.00  0.00    -0.000 C 
BRANCH  29  30
ATOM     30  C   UNL     1      16.685   0.271  14.814  1.00  0.00    -0.000 C 
BRANCH  30  31
ATOM     31  C   UNL     1      16.482  -1.137  15.393  1.00  0.00    -0.003 C 
ATOM     32  C   UNL     1      15.007  -1.521  15.391  1.00  0.00     0.004 C 
ENDBRANCH  30  31
ENDBRANCH  29  30
ENDBRANCH  28  29
ENDBRANCH  27  28
ENDBRANCH  26  27
ENDBRANCH  25  26
ENDBRANCH  24  25
ENDBRANCH  23  24
ENDBRANCH  22  23
ENDBRANCH  21  22
ENDBRANCH  20  21
ENDBRANCH  19  20
ENDBRANCH  18  19
ENDBRANCH   1  18
TORSDOF 28
ENDMDL
