MODEL 1
REMARK VINA RESULT:    -4.321      0.000      0.000
REMARK INTER + INTRA:          -4.321
REMARK INTER:                  -4.321
REMARK INTRA:                   0.000
REMARK UNBOUND:                 0.000
REMARK SMILES CC(C)=C1CC[C@@H](C)CC1=O
REMARK SMILES IDX 8 1 7 2 6 3 5 4 4 5 2 6 1 7 3 8 10 9 11 10 9 11
REMARK H PARENT
REMARK Flexibility Score: inf
ROOT
ATOM      1  C   UNL     1     154.613 159.441 199.677  1.00  0.00     0.008 C 
ATOM      2  C   UNL     1     153.306 160.134 200.082  1.00  0.00    -0.006 C 
ATOM      3  C   UNL     1     152.916 159.754 201.519  1.00  0.00     0.008 C 
ATOM      4  C   UNL     1     151.666 160.517 201.978  1.00  0.00     0.039 C 
ATOM      5  C   UNL     1     150.506 160.379 201.000  1.00  0.00    -0.006 C 
ATOM      6  C   UNL     1     149.211 160.387 201.432  1.00  0.00    -0.070 C 
ATOM      7  C   UNL     1     148.872 160.551 202.895  1.00  0.00     0.039 C 
ATOM      8  C   UNL     1     148.054 160.194 200.479  1.00  0.00     0.039 C 
ATOM      9  C   UNL     1     150.869 160.354 199.552  1.00  0.00     0.159 C 
ATOM     10  O   UNL     1     150.100 160.831 198.676  1.00  0.00    -0.295 OA
ATOM     11  C   UNL     1     152.175 159.757 199.114  1.00  0.00     0.084 C 
ENDROOT
TORSDOF 0
ENDMDL
MODEL 2
REMARK VINA RESULT:    -4.106      6.431      7.885
REMARK INTER + INTRA:          -4.106
REMARK INTER:                  -4.106
REMARK INTRA:                   0.000
REMARK UNBOUND:                 0.000
REMARK SMILES CC(C)=C1CC[C@@H](C)CC1=O
REMARK SMILES IDX 8 1 7 2 6 3 5 4 4 5 2 6 1 7 3 8 10 9 11 10 9 11
REMARK H PARENT
REMARK Flexibility Score: inf
ROOT
ATOM      1  C   UNL     1     159.296 166.474 200.071  1.00  0.00     0.008 C 
ATOM      2  C   UNL     1     158.183 165.480 199.716  1.00  0.00    -0.006 C 
ATOM      3  C   UNL     1     158.700 164.035 199.812  1.00  0.00     0.008 C 
ATOM      4  C   UNL     1     157.574 163.023 199.560  1.00  0.00     0.039 C 
ATOM      5  C   UNL     1     156.826 163.293 198.261  1.00  0.00    -0.006 C 
ATOM      6  C   UNL     1     156.286 162.275 197.529  1.00  0.00    -0.070 C 
ATOM      7  C   UNL     1     156.392 160.838 197.986  1.00  0.00     0.039 C 
ATOM      8  C   UNL     1     155.591 162.524 196.210  1.00  0.00     0.039 C 
ATOM      9  C   UNL     1     156.624 164.729 197.907  1.00  0.00     0.159 C 
ATOM     10  O   UNL     1     155.600 165.112 197.281  1.00  0.00    -0.295 OA
ATOM     11  C   UNL     1     157.648 165.753 198.304  1.00  0.00     0.084 C 
ENDROOT
TORSDOF 0
ENDMDL
MODEL 3
REMARK VINA RESULT:    -3.978      7.313      9.518
REMARK INTER + INTRA:          -3.978
REMARK INTER:                  -3.978
REMARK INTRA:                   0.000
REMARK UNBOUND:                 0.000
REMARK SMILES CC(C)=C1CC[C@@H](C)CC1=O
REMARK SMILES IDX 8 1 7 2 6 3 5 4 4 5 2 6 1 7 3 8 10 9 11 10 9 11
REMARK H PARENT
REMARK Flexibility Score: inf
ROOT
ATOM      1  C   UNL     1     158.876 167.977 197.677  1.00  0.00     0.008 C 
ATOM      2  C   UNL     1     158.603 166.472 197.567  1.00  0.00    -0.006 C 
ATOM      3  C   UNL     1     157.548 166.038 198.598  1.00  0.00     0.008 C 
ATOM      4  C   UNL     1     157.187 164.556 198.436  1.00  0.00     0.039 C 
ATOM      5  C   UNL     1     158.412 163.652 198.437  1.00  0.00    -0.006 C 
ATOM      6  C   UNL     1     158.357 162.381 198.933  1.00  0.00    -0.070 C 
ATOM      7  C   UNL     1     157.071 161.812 199.487  1.00  0.00     0.039 C 
ATOM      8  C   UNL     1     159.580 161.495 198.992  1.00  0.00     0.039 C 
ATOM      9  C   UNL     1     159.629 164.196 197.762  1.00  0.00     0.159 C 
ATOM     10  O   UNL     1     160.443 163.439 197.170  1.00  0.00    -0.295 OA
ATOM     11  C   UNL     1     159.898 165.673 197.774  1.00  0.00     0.084 C 
ENDROOT
TORSDOF 0
ENDMDL
MODEL 4
REMARK VINA RESULT:    -3.975      7.275      9.191
REMARK INTER + INTRA:          -3.975
REMARK INTER:                  -3.975
REMARK INTRA:                   0.000
REMARK UNBOUND:                 0.000
REMARK SMILES CC(C)=C1CC[C@@H](C)CC1=O
REMARK SMILES IDX 8 1 7 2 6 3 5 4 4 5 2 6 1 7 3 8 10 9 11 10 9 11
REMARK H PARENT
REMARK Flexibility Score: inf
ROOT
ATOM      1  C   UNL     1     157.203 160.774 198.316  1.00  0.00     0.008 C 
ATOM      2  C   UNL     1     158.089 162.014 198.483  1.00  0.00    -0.006 C 
ATOM      3  C   UNL     1     157.726 162.768 199.772  1.00  0.00     0.008 C 
ATOM      4  C   UNL     1     158.670 163.954 200.009  1.00  0.00     0.039 C 
ATOM      5  C   UNL     1     158.766 164.875 198.799  1.00  0.00    -0.006 C 
ATOM      6  C   UNL     1     158.975 166.216 198.944  1.00  0.00    -0.070 C 
ATOM      7  C   UNL     1     159.138 166.842 200.310  1.00  0.00     0.039 C 
ATOM      8  C   UNL     1     159.015 167.148 197.755  1.00  0.00     0.039 C 
ATOM      9  C   UNL     1     158.735 164.208 197.464  1.00  0.00     0.159 C 
ATOM     10  O   UNL     1     159.368 164.679 196.481  1.00  0.00    -0.295 OA
ATOM     11  C   UNL     1     157.944 162.946 197.271  1.00  0.00     0.084 C 
ENDROOT
TORSDOF 0
ENDMDL
MODEL 5
REMARK VINA RESULT:    -3.934      6.477      8.547
REMARK INTER + INTRA:          -3.934
REMARK INTER:                  -3.934
REMARK INTRA:                   0.000
REMARK UNBOUND:                 0.000
REMARK SMILES CC(C)=C1CC[C@@H](C)CC1=O
REMARK SMILES IDX 8 1 7 2 6 3 5 4 4 5 2 6 1 7 3 8 10 9 11 10 9 11
REMARK H PARENT
REMARK Flexibility Score: inf
ROOT
ATOM      1  C   UNL     1     158.840 167.551 198.763  1.00  0.00     0.008 C 
ATOM      2  C   UNL     1     158.666 166.060 198.450  1.00  0.00    -0.006 C 
ATOM      3  C   UNL     1     157.448 165.839 197.538  1.00  0.00     0.008 C 
ATOM      4  C   UNL     1     157.318 164.366 197.130  1.00  0.00     0.039 C 
ATOM      5  C   UNL     1     157.330 163.425 198.328  1.00  0.00    -0.006 C 
ATOM      6  C   UNL     1     156.630 162.253 198.317  1.00  0.00    -0.070 C 
ATOM      7  C   UNL     1     155.826 161.831 197.109  1.00  0.00     0.039 C 
ATOM      8  C   UNL     1     156.588 161.339 199.521  1.00  0.00     0.039 C 
ATOM      9  C   UNL     1     158.238 163.805 199.451  1.00  0.00     0.159 C 
ATOM     10  O   UNL     1     158.801 162.932 200.164  1.00  0.00    -0.295 OA
ATOM     11  C   UNL     1     158.504 165.253 199.746  1.00  0.00     0.084 C 
ENDROOT
TORSDOF 0
ENDMDL
MODEL 6
REMARK VINA RESULT:    -3.922      1.295      4.162
REMARK INTER + INTRA:          -3.922
REMARK INTER:                  -3.922
REMARK INTRA:                   0.000
REMARK UNBOUND:                 0.000
REMARK SMILES CC(C)=C1CC[C@@H](C)CC1=O
REMARK SMILES IDX 8 1 7 2 6 3 5 4 4 5 2 6 1 7 3 8 10 9 11 10 9 11
REMARK H PARENT
REMARK Flexibility Score: inf
ROOT
ATOM      1  C   UNL     1     148.272 160.520 200.485  1.00  0.00     0.008 C 
ATOM      2  C   UNL     1     149.658 159.894 200.290  1.00  0.00    -0.006 C 
ATOM      3  C   UNL     1     150.503 160.045 201.566  1.00  0.00     0.008 C 
ATOM      4  C   UNL     1     151.856 159.335 201.426  1.00  0.00     0.039 C 
ATOM      5  C   UNL     1     152.610 159.758 200.171  1.00  0.00    -0.006 C 
ATOM      6  C   UNL     1     153.974 159.796 200.143  1.00  0.00    -0.070 C 
ATOM      7  C   UNL     1     154.795 159.404 201.350  1.00  0.00     0.039 C 
ATOM      8  C   UNL     1     154.732 160.268 198.924  1.00  0.00     0.039 C 
ATOM      9  C   UNL     1     151.776 160.009 198.959  1.00  0.00     0.159 C 
ATOM     10  O   UNL     1     152.214 159.773 197.801  1.00  0.00    -0.295 OA
ATOM     11  C   UNL     1     150.381 160.546 199.103  1.00  0.00     0.084 C 
ENDROOT
TORSDOF 0
ENDMDL
MODEL 7
REMARK VINA RESULT:    -3.884      1.736      4.416
REMARK INTER + INTRA:          -3.884
REMARK INTER:                  -3.884
REMARK INTRA:                   0.000
REMARK UNBOUND:                 0.000
REMARK SMILES CC(C)=C1CC[C@@H](C)CC1=O
REMARK SMILES IDX 8 1 7 2 6 3 5 4 4 5 2 6 1 7 3 8 10 9 11 10 9 11
REMARK H PARENT
REMARK Flexibility Score: inf
ROOT
ATOM      1  C   UNL     1     149.893 160.504 203.123  1.00  0.00     0.008 C 
ATOM      2  C   UNL     1     150.700 160.688 201.832  1.00  0.00    -0.006 C 
ATOM      3  C   UNL     1     149.879 160.237 200.613  1.00  0.00     0.008 C 
ATOM      4  C   UNL     1     150.631 160.509 199.303  1.00  0.00     0.039 C 
ATOM      5  C   UNL     1     152.039 159.929 199.307  1.00  0.00    -0.006 C 
ATOM      6  C   UNL     1     152.624 159.479 198.158  1.00  0.00    -0.070 C 
ATOM      7  C   UNL     1     151.905 159.556 196.830  1.00  0.00     0.039 C 
ATOM      8  C   UNL     1     153.998 158.849 198.158  1.00  0.00     0.039 C 
ATOM      9  C   UNL     1     152.770 159.991 200.607  1.00  0.00     0.159 C 
ATOM     10  O   UNL     1     154.022 160.129 200.649  1.00  0.00    -0.295 OA
ATOM     11  C   UNL     1     152.014 159.896 201.901  1.00  0.00     0.084 C 
ENDROOT
TORSDOF 0
ENDMDL
MODEL 8
REMARK VINA RESULT:    -3.875      1.998      3.724
REMARK INTER + INTRA:          -3.875
REMARK INTER:                  -3.875
REMARK INTRA:                   0.000
REMARK UNBOUND:                 0.000
REMARK SMILES CC(C)=C1CC[C@@H](C)CC1=O
REMARK SMILES IDX 8 1 7 2 6 3 5 4 4 5 2 6 1 7 3 8 10 9 11 10 9 11
REMARK H PARENT
REMARK Flexibility Score: inf
ROOT
ATOM      1  C   UNL     1     148.688 159.890 196.373  1.00  0.00     0.008 C 
ATOM      2  C   UNL     1     149.270 159.556 197.752  1.00  0.00    -0.006 C 
ATOM      3  C   UNL     1     148.730 160.527 198.815  1.00  0.00     0.008 C 
ATOM      4  C   UNL     1     149.221 160.146 200.218  1.00  0.00     0.039 C 
ATOM      5  C   UNL     1     150.735 159.987 200.284  1.00  0.00    -0.006 C 
ATOM      6  C   UNL     1     151.430 160.284 201.421  1.00  0.00    -0.070 C 
ATOM      7  C   UNL     1     150.725 160.766 202.668  1.00  0.00     0.039 C 
ATOM      8  C   UNL     1     152.937 160.185 201.481  1.00  0.00     0.039 C 
ATOM      9  C   UNL     1     151.384 159.383 199.083  1.00  0.00     0.159 C 
ATOM     10  O   UNL     1     152.416 158.668 199.186  1.00  0.00    -0.295 OA
ATOM     11  C   UNL     1     150.804 159.616 197.717  1.00  0.00     0.084 C 
ENDROOT
TORSDOF 0
ENDMDL
MODEL 9
REMARK VINA RESULT:    -3.865      1.578      2.505
REMARK INTER + INTRA:          -3.865
REMARK INTER:                  -3.865
REMARK INTRA:                   0.000
REMARK UNBOUND:                 0.000
REMARK SMILES CC(C)=C1CC[C@@H](C)CC1=O
REMARK SMILES IDX 8 1 7 2 6 3 5 4 4 5 2 6 1 7 3 8 10 9 11 10 9 11
REMARK H PARENT
REMARK Flexibility Score: inf
ROOT
ATOM      1  C   UNL     1     155.285 159.869 200.125  1.00  0.00     0.008 C 
ATOM      2  C   UNL     1     153.807 159.463 200.182  1.00  0.00    -0.006 C 
ATOM      3  C   UNL     1     153.088 159.857 198.882  1.00  0.00     0.008 C 
ATOM      4  C   UNL     1     151.633 159.369 198.880  1.00  0.00     0.039 C 
ATOM      5  C   UNL     1     150.870 159.800 200.125  1.00  0.00    -0.006 C 
ATOM      6  C   UNL     1     149.530 160.059 200.081  1.00  0.00    -0.070 C 
ATOM      7  C   UNL     1     148.744 159.910 198.799  1.00  0.00     0.039 C 
ATOM      8  C   UNL     1     148.773 160.543 201.296  1.00  0.00     0.039 C 
ATOM      9  C   UNL     1     151.646 159.808 201.400  1.00  0.00     0.159 C 
ATOM     10  O   UNL     1     151.096 159.550 202.504  1.00  0.00    -0.295 OA
ATOM     11  C   UNL     1     153.115 160.121 201.384  1.00  0.00     0.084 C 
ENDROOT
TORSDOF 0
ENDMDL
