MODEL 1
REMARK VINA RESULT:    -3.709      0.000      0.000
REMARK INTER + INTRA:          -4.447
REMARK INTER:                  -4.359
REMARK INTRA:                  -0.088
REMARK UNBOUND:                -0.088
REMARK SMILES CCCCC(=O)[O-]
REMARK SMILES IDX 4 1 5 2 6 3 7 4 3 5 2 6 1 7
REMARK H PARENT
REMARK Flexibility Score: inf
ROOT
ATOM      1  C   UNL     1       8.366 -12.623  -0.525  1.00  0.00     0.053 C 
ENDROOT
BRANCH   1   2
ATOM      2  C   UNL     1       8.579 -11.143  -0.440  1.00  0.00     0.041 C 
ATOM      3  O   UNL     1       9.412 -10.668   0.377  1.00  0.00    -0.550 OA
ATOM      4  O   UNL     1       7.833 -10.285  -1.239  1.00  0.00    -0.550 OA
ENDBRANCH   1   2
BRANCH   1   5
ATOM      5  C   UNL     1       7.174 -12.978  -1.421  1.00  0.00     0.006 C 
BRANCH   5   6
ATOM      6  C   UNL     1       7.605 -13.709  -2.700  1.00  0.00    -0.003 C 
ATOM      7  C   UNL     1       7.154 -12.952  -3.946  1.00  0.00     0.004 C 
ENDBRANCH   5   6
ENDBRANCH   1   5
TORSDOF 3
ENDMDL
MODEL 2
REMARK VINA RESULT:    -3.697      2.717      3.875
REMARK INTER + INTRA:          -4.433
REMARK INTER:                  -4.418
REMARK INTRA:                  -0.015
REMARK UNBOUND:                -0.088
REMARK SMILES CCCCC(=O)[O-]
REMARK SMILES IDX 4 1 5 2 6 3 7 4 3 5 2 6 1 7
REMARK H PARENT
REMARK Flexibility Score: inf
ROOT
ATOM      1  C   UNL     1       7.695 -13.657  -1.954  1.00  0.00     0.053 C 
ENDROOT
BRANCH   1   2
ATOM      2  C   UNL     1       6.858 -13.374  -3.164  1.00  0.00     0.041 C 
ATOM      3  O   UNL     1       7.371 -13.420  -4.314  1.00  0.00    -0.550 OA
ATOM      4  O   UNL     1       5.522 -13.024  -3.019  1.00  0.00    -0.550 OA
ENDBRANCH   1   2
BRANCH   1   5
ATOM      5  C   UNL     1       7.604 -12.529  -0.920  1.00  0.00     0.006 C 
BRANCH   5   6
ATOM      6  C   UNL     1       8.902 -12.370  -0.117  1.00  0.00    -0.003 C 
ATOM      7  C   UNL     1       9.159 -10.906   0.232  1.00  0.00     0.004 C 
ENDBRANCH   5   6
ENDBRANCH   1   5
TORSDOF 3
ENDMDL
MODEL 3
REMARK VINA RESULT:    -3.674      1.004      1.801
REMARK INTER + INTRA:          -4.406
REMARK INTER:                  -4.348
REMARK INTRA:                  -0.057
REMARK UNBOUND:                -0.088
REMARK SMILES CCCCC(=O)[O-]
REMARK SMILES IDX 4 1 5 2 6 3 7 4 3 5 2 6 1 7
REMARK H PARENT
REMARK Flexibility Score: inf
ROOT
ATOM      1  C   UNL     1       6.955 -12.925  -1.494  1.00  0.00     0.053 C 
ENDROOT
BRANCH   1   2
ATOM      2  C   UNL     1       7.930 -12.005  -0.825  1.00  0.00     0.041 C 
ATOM      3  O   UNL     1       7.838 -10.759  -0.987  1.00  0.00    -0.550 OA
ATOM      4  O   UNL     1       8.960 -12.525  -0.052  1.00  0.00    -0.550 OA
ENDBRANCH   1   2
BRANCH   1   5
ATOM      5  C   UNL     1       7.619 -13.751  -2.603  1.00  0.00     0.006 C 
BRANCH   5   6
ATOM      6  C   UNL     1       7.239 -13.255  -4.004  1.00  0.00    -0.003 C 
ATOM      7  C   UNL     1       5.727 -13.099  -4.143  1.00  0.00     0.004 C 
ENDBRANCH   5   6
ENDBRANCH   1   5
TORSDOF 3
ENDMDL
MODEL 4
REMARK VINA RESULT:    -3.658      1.056      1.521
REMARK INTER + INTRA:          -4.387
REMARK INTER:                  -4.345
REMARK INTRA:                  -0.042
REMARK UNBOUND:                -0.088
REMARK SMILES CCCCC(=O)[O-]
REMARK SMILES IDX 4 1 5 2 6 3 7 4 3 5 2 6 1 7
REMARK H PARENT
REMARK Flexibility Score: inf
ROOT
ATOM      1  C   UNL     1       6.939 -12.846  -1.598  1.00  0.00     0.053 C 
ENDROOT
BRANCH   1   2
ATOM      2  C   UNL     1       7.946 -12.035  -0.843  1.00  0.00     0.041 C 
ATOM      3  O   UNL     1       8.780 -12.603  -0.089  1.00  0.00    -0.550 OA
ATOM      4  O   UNL     1       7.942 -10.650  -0.945  1.00  0.00    -0.550 OA
ENDBRANCH   1   2
BRANCH   1   5
ATOM      5  C   UNL     1       7.596 -13.702  -2.688  1.00  0.00     0.006 C 
BRANCH   5   6
ATOM      6  C   UNL     1       7.148 -13.292  -4.098  1.00  0.00    -0.003 C 
ATOM      7  C   UNL     1       5.640 -13.063  -4.152  1.00  0.00     0.004 C 
ENDBRANCH   5   6
ENDBRANCH   1   5
TORSDOF 3
ENDMDL
MODEL 5
REMARK VINA RESULT:    -3.416      3.004      4.053
REMARK INTER + INTRA:          -4.103
REMARK INTER:                  -4.035
REMARK INTRA:                  -0.067
REMARK UNBOUND:                -0.088
REMARK SMILES CCCCC(=O)[O-]
REMARK SMILES IDX 4 1 5 2 6 3 7 4 3 5 2 6 1 7
REMARK H PARENT
REMARK Flexibility Score: inf
ROOT
ATOM      1  C   UNL     1       7.276 -13.441  -3.403  1.00  0.00     0.053 C 
ENDROOT
BRANCH   1   2
ATOM      2  C   UNL     1       5.867 -13.030  -3.704  1.00  0.00     0.041 C 
ATOM      3  O   UNL     1       4.901 -13.660  -3.197  1.00  0.00    -0.550 OA
ATOM      4  O   UNL     1       5.620 -11.974  -4.572  1.00  0.00    -0.550 OA
ENDBRANCH   1   2
BRANCH   1   5
ATOM      5  C   UNL     1       7.498 -13.657  -1.901  1.00  0.00     0.006 C 
BRANCH   5   6
ATOM      6  C   UNL     1       7.582 -12.333  -1.129  1.00  0.00    -0.003 C 
ATOM      7  C   UNL     1       8.777 -12.324  -0.179  1.00  0.00     0.004 C 
ENDBRANCH   5   6
ENDBRANCH   1   5
TORSDOF 3
ENDMDL
MODEL 6
REMARK VINA RESULT:    -3.383      1.275      1.404
REMARK INTER + INTRA:          -4.064
REMARK INTER:                  -4.073
REMARK INTRA:                   0.009
REMARK UNBOUND:                -0.088
REMARK SMILES CCCCC(=O)[O-]
REMARK SMILES IDX 4 1 5 2 6 3 7 4 3 5 2 6 1 7
REMARK H PARENT
REMARK Flexibility Score: inf
ROOT
ATOM      1  C   UNL     1       8.082 -12.425  -0.560  1.00  0.00     0.053 C 
ENDROOT
BRANCH   1   2
ATOM      2  C   UNL     1       7.500 -11.124  -1.021  1.00  0.00     0.041 C 
ATOM      3  O   UNL     1       8.069 -10.463  -1.930  1.00  0.00    -0.550 OA
ATOM      4  O   UNL     1       6.351 -10.625  -0.422  1.00  0.00    -0.550 OA
ENDBRANCH   1   2
BRANCH   1   5
ATOM      5  C   UNL     1       7.993 -13.506  -1.643  1.00  0.00     0.006 C 
BRANCH   5   6
ATOM      6  C   UNL     1       6.740 -13.352  -2.516  1.00  0.00    -0.003 C 
ATOM      7  C   UNL     1       7.104 -13.288  -3.997  1.00  0.00     0.004 C 
ENDBRANCH   5   6
ENDBRANCH   1   5
TORSDOF 3
ENDMDL
MODEL 7
REMARK VINA RESULT:    -3.343      2.221      3.203
REMARK INTER + INTRA:          -4.017
REMARK INTER:                  -3.913
REMARK INTRA:                  -0.103
REMARK UNBOUND:                -0.088
REMARK SMILES CCCCC(=O)[O-]
REMARK SMILES IDX 4 1 5 2 6 3 7 4 3 5 2 6 1 7
REMARK H PARENT
REMARK Flexibility Score: inf
ROOT
ATOM      1  C   UNL     1       7.159 -12.297  -3.067  1.00  0.00     0.053 C 
ENDROOT
BRANCH   1   2
ATOM      2  C   UNL     1       6.970 -12.858  -1.691  1.00  0.00     0.041 C 
ATOM      3  O   UNL     1       5.810 -13.085  -1.254  1.00  0.00    -0.550 OA
ATOM      4  O   UNL     1       8.070 -13.099  -0.879  1.00  0.00    -0.550 OA
ENDBRANCH   1   2
BRANCH   1   5
ATOM      5  C   UNL     1       6.717 -13.285  -4.152  1.00  0.00     0.006 C 
BRANCH   5   6
ATOM      6  C   UNL     1       5.489 -12.786  -4.927  1.00  0.00    -0.003 C 
ATOM      7  C   UNL     1       4.201 -13.374  -4.356  1.00  0.00     0.004 C 
ENDBRANCH   5   6
ENDBRANCH   1   5
TORSDOF 3
ENDMDL
MODEL 8
REMARK VINA RESULT:    -3.289      2.648      3.950
REMARK INTER + INTRA:          -3.953
REMARK INTER:                  -3.907
REMARK INTRA:                  -0.046
REMARK UNBOUND:                -0.088
REMARK SMILES CCCCC(=O)[O-]
REMARK SMILES IDX 4 1 5 2 6 3 7 4 3 5 2 6 1 7
REMARK H PARENT
REMARK Flexibility Score: inf
ROOT
ATOM      1  C   UNL     1       7.023 -13.126  -2.432  1.00  0.00     0.053 C 
ENDROOT
BRANCH   1   2
ATOM      2  C   UNL     1       5.540 -13.275  -2.278  1.00  0.00     0.041 C 
ATOM      3  O   UNL     1       5.007 -13.161  -1.143  1.00  0.00    -0.550 OA
ATOM      4  O   UNL     1       4.752 -13.575  -3.382  1.00  0.00    -0.550 OA
ENDBRANCH   1   2
BRANCH   1   5
ATOM      5  C   UNL     1       7.708 -12.824  -1.094  1.00  0.00     0.006 C 
BRANCH   5   6
ATOM      6  C   UNL     1       8.046 -11.335  -0.938  1.00  0.00    -0.003 C 
ATOM      7  C   UNL     1       9.029 -11.111   0.209  1.00  0.00     0.004 C 
ENDBRANCH   5   6
ENDBRANCH   1   5
TORSDOF 3
ENDMDL
MODEL 9
REMARK VINA RESULT:    -3.217      1.965      3.566
REMARK INTER + INTRA:          -3.869
REMARK INTER:                  -3.756
REMARK INTRA:                  -0.113
REMARK UNBOUND:                -0.088
REMARK SMILES CCCCC(=O)[O-]
REMARK SMILES IDX 4 1 5 2 6 3 7 4 3 5 2 6 1 7
REMARK H PARENT
REMARK Flexibility Score: inf
ROOT
ATOM      1  C   UNL     1       8.453 -12.586  -0.529  1.00  0.00     0.053 C 
ENDROOT
BRANCH   1   2
ATOM      2  C   UNL     1       7.374 -12.573  -1.569  1.00  0.00     0.041 C 
ATOM      3  O   UNL     1       7.477 -11.828  -2.579  1.00  0.00    -0.550 OA
ATOM      4  O   UNL     1       6.238 -13.356  -1.404  1.00  0.00    -0.550 OA
ENDBRANCH   1   2
BRANCH   1   5
ATOM      5  C   UNL     1       8.924 -11.170  -0.179  1.00  0.00     0.006 C 
BRANCH   5   6
ATOM      6  C   UNL     1       7.853 -10.372   0.578  1.00  0.00    -0.003 C 
ATOM      7  C   UNL     1       7.425  -9.137  -0.211  1.00  0.00     0.004 C 
ENDBRANCH   5   6
ENDBRANCH   1   5
TORSDOF 3
ENDMDL
