MODEL 1
REMARK VINA RESULT:    -5.497      0.000      0.000
REMARK INTER + INTRA:         -15.356
REMARK INTER:                 -11.925
REMARK INTRA:                  -3.431
REMARK UNBOUND:                -3.431
REMARK SMILES CCCCCCCCCCCCCCCCCCCCCC(=O)[O-]
REMARK SMILES IDX 12 1 11 2 10 3 9 4 8 5 7 6 6 7 5 8 4 9 3 10 2 11 1 12 13 13
REMARK SMILES IDX 14 14 15 15 16 16 17 17 18 18 19 19 20 20 21 21 22 22 23 23
REMARK SMILES IDX 24 24
REMARK H PARENT
REMARK Flexibility Score: inf
ROOT
ATOM      1  C   UNL     1      11.577  18.166  35.953  1.00  0.00     0.000 C 
ENDROOT
BRANCH   1   2
ATOM      2  C   UNL     1      10.638  17.018  36.357  1.00  0.00     0.000 C 
BRANCH   2   3
ATOM      3  C   UNL     1       9.424  16.888  35.418  1.00  0.00     0.000 C 
BRANCH   3   4
ATOM      4  C   UNL     1       9.697  17.461  34.019  1.00  0.00    -0.000 C 
BRANCH   4   5
ATOM      5  C   UNL     1       8.710  18.574  33.624  1.00  0.00    -0.000 C 
BRANCH   5   6
ATOM      6  C   UNL     1       8.126  19.301  34.856  1.00  0.00    -0.000 C 
BRANCH   6   7
ATOM      7  C   UNL     1       8.961  20.515  35.314  1.00  0.00    -0.000 C 
BRANCH   7   8
ATOM      8  C   UNL     1       9.002  20.737  36.836  1.00  0.00    -0.000 C 
BRANCH   8   9
ATOM      9  C   UNL     1       8.269  19.664  37.664  1.00  0.00    -0.000 C 
BRANCH   9  10
ATOM     10  C   UNL     1       9.023  19.252  38.948  1.00  0.00    -0.000 C 
BRANCH  10  11
ATOM     11  C   UNL     1      10.422  19.878  39.068  1.00  0.00    -0.003 C 
ATOM     12  C   UNL     1      11.471  18.876  39.550  1.00  0.00     0.004 C 
ENDBRANCH  10  11
ENDBRANCH   9  10
ENDBRANCH   8   9
ENDBRANCH   7   8
ENDBRANCH   6   7
ENDBRANCH   5   6
ENDBRANCH   4   5
ENDBRANCH   3   4
ENDBRANCH   2   3
ENDBRANCH   1   2
BRANCH   1  13
ATOM     13  C   UNL     1      13.048  17.726  35.883  1.00  0.00     0.000 C 
BRANCH  13  14
ATOM     14  C   UNL     1      13.208  16.217  35.631  1.00  0.00     0.000 C 
BRANCH  14  15
ATOM     15  C   UNL     1      13.889  15.467  36.794  1.00  0.00     0.000 C 
BRANCH  15  16
ATOM     16  C   UNL     1      13.985  16.329  38.065  1.00  0.00     0.000 C 
BRANCH  16  17
ATOM     17  C   UNL     1      15.440  16.593  38.485  1.00  0.00     0.000 C 
BRANCH  17  18
ATOM     18  C   UNL     1      15.907  18.015  38.131  1.00  0.00     0.000 C 
BRANCH  18  19
ATOM     19  C   UNL     1      16.714  18.057  36.823  1.00  0.00     0.000 C 
BRANCH  19  20
ATOM     20  C   UNL     1      17.265  16.675  36.429  1.00  0.00     0.006 C 
BRANCH  20  21
ATOM     21  C   UNL     1      17.393  16.513  34.908  1.00  0.00     0.053 C 
BRANCH  21  22
ATOM     22  C   UNL     1      18.827  16.478  34.474  1.00  0.00     0.041 C 
ATOM     23  O   UNL     1      19.422  15.377  34.336  1.00  0.00    -0.550 OA
ATOM     24  O   UNL     1      19.512  17.665  34.244  1.00  0.00    -0.550 OA
ENDBRANCH  21  22
ENDBRANCH  20  21
ENDBRANCH  19  20
ENDBRANCH  18  19
ENDBRANCH  17  18
ENDBRANCH  16  17
ENDBRANCH  15  16
ENDBRANCH  14  15
ENDBRANCH  13  14
ENDBRANCH   1  13
TORSDOF 20
ENDMDL
MODEL 2
REMARK VINA RESULT:    -5.242      1.534      3.548
REMARK INTER + INTRA:         -14.802
REMARK INTER:                 -12.307
REMARK INTRA:                  -2.495
REMARK UNBOUND:                -3.431
REMARK SMILES CCCCCCCCCCCCCCCCCCCCCC(=O)[O-]
REMARK SMILES IDX 12 1 11 2 10 3 9 4 8 5 7 6 6 7 5 8 4 9 3 10 2 11 1 12 13 13
REMARK SMILES IDX 14 14 15 15 16 16 17 17 18 18 19 19 20 20 21 21 22 22 23 23
REMARK SMILES IDX 24 24
REMARK H PARENT
REMARK Flexibility Score: inf
ROOT
ATOM      1  C   UNL     1      10.215  16.985  34.871  1.00  0.00     0.000 C 
ENDROOT
BRANCH   1   2
ATOM      2  C   UNL     1       9.302  16.731  36.081  1.00  0.00     0.000 C 
BRANCH   2   3
ATOM      3  C   UNL     1       7.890  17.315  35.889  1.00  0.00     0.000 C 
BRANCH   3   4
ATOM      4  C   UNL     1       7.910  18.820  35.583  1.00  0.00    -0.000 C 
BRANCH   4   5
ATOM      5  C   UNL     1       8.639  19.640  36.661  1.00  0.00    -0.000 C 
BRANCH   5   6
ATOM      6  C   UNL     1       9.750  20.532  36.066  1.00  0.00    -0.000 C 
BRANCH   6   7
ATOM      7  C   UNL     1       9.409  21.101  34.673  1.00  0.00    -0.000 C 
BRANCH   7   8
ATOM      8  C   UNL     1      10.528  20.966  33.624  1.00  0.00    -0.000 C 
BRANCH   8   9
ATOM      9  C   UNL     1      10.332  19.814  32.619  1.00  0.00    -0.000 C 
BRANCH   9  10
ATOM     10  C   UNL     1       8.906  19.742  32.029  1.00  0.00    -0.000 C 
BRANCH  10  11
ATOM     11  C   UNL     1       8.829  18.976  30.698  1.00  0.00    -0.003 C 
ATOM     12  C   UNL     1       9.782  17.783  30.655  1.00  0.00     0.004 C 
ENDBRANCH  10  11
ENDBRANCH   9  10
ENDBRANCH   8   9
ENDBRANCH   7   8
ENDBRANCH   6   7
ENDBRANCH   5   6
ENDBRANCH   4   5
ENDBRANCH   3   4
ENDBRANCH   2   3
ENDBRANCH   1   2
BRANCH   1  13
ATOM     13  C   UNL     1      11.636  17.402  35.284  1.00  0.00     0.000 C 
BRANCH  13  14
ATOM     14  C   UNL     1      11.931  17.127  36.769  1.00  0.00     0.000 C 
BRANCH  14  15
ATOM     15  C   UNL     1      13.183  16.256  36.998  1.00  0.00     0.000 C 
BRANCH  15  16
ATOM     16  C   UNL     1      13.850  16.541  38.355  1.00  0.00     0.000 C 
BRANCH  16  17
ATOM     17  C   UNL     1      15.321  16.098  38.391  1.00  0.00     0.000 C 
BRANCH  17  18
ATOM     18  C   UNL     1      16.107  16.566  37.154  1.00  0.00     0.000 C 
BRANCH  18  19
ATOM     19  C   UNL     1      16.282  18.093  37.115  1.00  0.00     0.000 C 
BRANCH  19  20
ATOM     20  C   UNL     1      17.060  18.563  35.873  1.00  0.00     0.006 C 
BRANCH  20  21
ATOM     21  C   UNL     1      16.939  17.576  34.704  1.00  0.00     0.053 C 
BRANCH  21  22
ATOM     22  C   UNL     1      18.274  17.270  34.098  1.00  0.00     0.041 C 
ATOM     23  O   UNL     1      19.051  16.449  34.654  1.00  0.00    -0.550 OA
ATOM     24  O   UNL     1      18.671  17.910  32.930  1.00  0.00    -0.550 OA
ENDBRANCH  21  22
ENDBRANCH  20  21
ENDBRANCH  19  20
ENDBRANCH  18  19
ENDBRANCH  17  18
ENDBRANCH  16  17
ENDBRANCH  15  16
ENDBRANCH  14  15
ENDBRANCH  13  14
ENDBRANCH   1  13
TORSDOF 20
ENDMDL
MODEL 3
REMARK VINA RESULT:    -5.205      2.126      4.310
REMARK INTER + INTRA:         -14.722
REMARK INTER:                 -12.713
REMARK INTRA:                  -2.010
REMARK UNBOUND:                -3.431
REMARK SMILES CCCCCCCCCCCCCCCCCCCCCC(=O)[O-]
REMARK SMILES IDX 12 1 11 2 10 3 9 4 8 5 7 6 6 7 5 8 4 9 3 10 2 11 1 12 13 13
REMARK SMILES IDX 14 14 15 15 16 16 17 17 18 18 19 19 20 20 21 21 22 22 23 23
REMARK SMILES IDX 24 24
REMARK H PARENT
REMARK Flexibility Score: inf
ROOT
ATOM      1  C   UNL     1      14.476  15.098  37.093  1.00  0.00     0.000 C 
ENDROOT
BRANCH   1   2
ATOM      2  C   UNL     1      13.241  15.947  36.748  1.00  0.00     0.000 C 
BRANCH   2   3
ATOM      3  C   UNL     1      13.349  16.610  35.362  1.00  0.00     0.000 C 
BRANCH   3   4
ATOM      4  C   UNL     1      12.628  17.965  35.299  1.00  0.00    -0.000 C 
BRANCH   4   5
ATOM      5  C   UNL     1      11.217  17.922  35.911  1.00  0.00    -0.000 C 
BRANCH   5   6
ATOM      6  C   UNL     1      10.220  17.143  35.026  1.00  0.00    -0.000 C 
BRANCH   6   7
ATOM      7  C   UNL     1       8.744  17.516  35.278  1.00  0.00    -0.000 C 
BRANCH   7   8
ATOM      8  C   UNL     1       8.059  18.273  34.126  1.00  0.00    -0.000 C 
BRANCH   8   9
ATOM      9  C   UNL     1       8.661  19.658  33.819  1.00  0.00    -0.000 C 
BRANCH   9  10
ATOM     10  C   UNL     1       9.009  19.864  32.328  1.00  0.00    -0.000 C 
BRANCH  10  11
ATOM     11  C   UNL     1      10.107  18.917  31.816  1.00  0.00    -0.003 C 
ATOM     12  C   UNL     1       9.573  17.886  30.823  1.00  0.00     0.004 C 
ENDBRANCH  10  11
ENDBRANCH   9  10
ENDBRANCH   8   9
ENDBRANCH   7   8
ENDBRANCH   6   7
ENDBRANCH   5   6
ENDBRANCH   4   5
ENDBRANCH   3   4
ENDBRANCH   2   3
ENDBRANCH   1   2
BRANCH   1  13
ATOM     13  C   UNL     1      15.250  15.651  38.301  1.00  0.00     0.000 C 
BRANCH  13  14
ATOM     14  C   UNL     1      14.912  17.121  38.604  1.00  0.00     0.000 C 
BRANCH  14  15
ATOM     15  C   UNL     1      16.062  18.098  38.283  1.00  0.00     0.000 C 
BRANCH  15  16
ATOM     16  C   UNL     1      16.242  18.307  36.770  1.00  0.00     0.000 C 
BRANCH  16  17
ATOM     17  C   UNL     1      17.488  17.594  36.222  1.00  0.00     0.000 C 
BRANCH  17  18
ATOM     18  C   UNL     1      17.619  17.727  34.695  1.00  0.00     0.000 C 
BRANCH  18  19
ATOM     19  C   UNL     1      18.972  18.324  34.273  1.00  0.00     0.000 C 
BRANCH  19  20
ATOM     20  C   UNL     1      20.153  17.699  35.037  1.00  0.00     0.006 C 
BRANCH  20  21
ATOM     21  C   UNL     1      20.992  16.770  34.149  1.00  0.00     0.053 C 
BRANCH  21  22
ATOM     22  C   UNL     1      21.798  17.540  33.148  1.00  0.00     0.041 C 
ATOM     23  O   UNL     1      22.868  18.106  33.496  1.00  0.00    -0.550 OA
ATOM     24  O   UNL     1      21.355  17.651  31.836  1.00  0.00    -0.550 OA
ENDBRANCH  21  22
ENDBRANCH  20  21
ENDBRANCH  19  20
ENDBRANCH  18  19
ENDBRANCH  17  18
ENDBRANCH  16  17
ENDBRANCH  15  16
ENDBRANCH  14  15
ENDBRANCH  13  14
ENDBRANCH   1  13
TORSDOF 20
ENDMDL
MODEL 4
REMARK VINA RESULT:    -5.174      3.189      5.328
REMARK INTER + INTRA:         -14.655
REMARK INTER:                 -11.836
REMARK INTRA:                  -2.819
REMARK UNBOUND:                -3.431
REMARK SMILES CCCCCCCCCCCCCCCCCCCCCC(=O)[O-]
REMARK SMILES IDX 12 1 11 2 10 3 9 4 8 5 7 6 6 7 5 8 4 9 3 10 2 11 1 12 13 13
REMARK SMILES IDX 14 14 15 15 16 16 17 17 18 18 19 19 20 20 21 21 22 22 23 23
REMARK SMILES IDX 24 24
REMARK H PARENT
REMARK Flexibility Score: inf
ROOT
ATOM      1  C   UNL     1       9.381  19.224  32.693  1.00  0.00     0.000 C 
ENDROOT
BRANCH   1   2
ATOM      2  C   UNL     1       9.033  19.372  31.203  1.00  0.00     0.000 C 
BRANCH   2   3
ATOM      3  C   UNL     1       8.150  20.602  30.922  1.00  0.00     0.000 C 
BRANCH   3   4
ATOM      4  C   UNL     1       8.258  21.670  32.021  1.00  0.00    -0.000 C 
BRANCH   4   5
ATOM      5  C   UNL     1       8.911  22.973  31.529  1.00  0.00    -0.000 C 
BRANCH   5   6
ATOM      6  C   UNL     1      10.368  23.118  32.019  1.00  0.00    -0.000 C 
BRANCH   6   7
ATOM      7  C   UNL     1      10.729  24.546  32.479  1.00  0.00    -0.000 C 
BRANCH   7   8
ATOM      8  C   UNL     1       9.752  25.170  33.491  1.00  0.00    -0.000 C 
BRANCH   8   9
ATOM      9  C   UNL     1       9.857  24.603  34.920  1.00  0.00    -0.000 C 
BRANCH   9  10
ATOM     10  C   UNL     1       8.831  23.488  35.221  1.00  0.00    -0.000 C 
BRANCH  10  11
ATOM     11  C   UNL     1       9.380  22.378  36.134  1.00  0.00    -0.003 C 
ATOM     12  C   UNL     1      10.265  21.386  35.380  1.00  0.00     0.004 C 
ENDBRANCH  10  11
ENDBRANCH   9  10
ENDBRANCH   8   9
ENDBRANCH   7   8
ENDBRANCH   6   7
ENDBRANCH   5   6
ENDBRANCH   4   5
ENDBRANCH   3   4
ENDBRANCH   2   3
ENDBRANCH   1   2
BRANCH   1  13
ATOM     13  C   UNL     1       8.548  18.134  33.386  1.00  0.00     0.000 C 
BRANCH  13  14
ATOM     14  C   UNL     1       7.875  18.628  34.678  1.00  0.00     0.000 C 
BRANCH  14  15
ATOM     15  C   UNL     1       8.073  17.679  35.878  1.00  0.00     0.000 C 
BRANCH  15  16
ATOM     16  C   UNL     1       9.374  16.865  35.767  1.00  0.00     0.000 C 
BRANCH  16  17
ATOM     17  C   UNL     1      10.277  17.030  37.000  1.00  0.00     0.000 C 
BRANCH  17  18
ATOM     18  C   UNL     1      11.384  18.076  36.782  1.00  0.00     0.000 C 
BRANCH  18  19
ATOM     19  C   UNL     1      12.170  17.834  35.483  1.00  0.00     0.000 C 
BRANCH  19  20
ATOM     20  C   UNL     1      13.565  17.238  35.744  1.00  0.00     0.006 C 
BRANCH  20  21
ATOM     21  C   UNL     1      13.493  15.875  36.445  1.00  0.00     0.053 C 
BRANCH  21  22
ATOM     22  C   UNL     1      14.268  15.871  37.728  1.00  0.00     0.041 C 
ATOM     23  O   UNL     1      13.838  16.497  38.732  1.00  0.00    -0.550 OA
ATOM     24  O   UNL     1      15.478  15.192  37.806  1.00  0.00    -0.550 OA
ENDBRANCH  21  22
ENDBRANCH  20  21
ENDBRANCH  19  20
ENDBRANCH  18  19
ENDBRANCH  17  18
ENDBRANCH  16  17
ENDBRANCH  15  16
ENDBRANCH  14  15
ENDBRANCH  13  14
ENDBRANCH   1  13
TORSDOF 20
ENDMDL
MODEL 5
REMARK VINA RESULT:    -5.166      3.794      5.966
REMARK INTER + INTRA:         -14.637
REMARK INTER:                 -11.683
REMARK INTRA:                  -2.954
REMARK UNBOUND:                -3.431
REMARK SMILES CCCCCCCCCCCCCCCCCCCCCC(=O)[O-]
REMARK SMILES IDX 12 1 11 2 10 3 9 4 8 5 7 6 6 7 5 8 4 9 3 10 2 11 1 12 13 13
REMARK SMILES IDX 14 14 15 15 16 16 17 17 18 18 19 19 20 20 21 21 22 22 23 23
REMARK SMILES IDX 24 24
REMARK H PARENT
REMARK Flexibility Score: inf
ROOT
ATOM      1  C   UNL     1       9.710  18.936  32.104  1.00  0.00     0.000 C 
ENDROOT
BRANCH   1   2
ATOM      2  C   UNL     1       9.026  18.758  30.739  1.00  0.00     0.000 C 
BRANCH   2   3
ATOM      3  C   UNL     1       8.297  20.032  30.273  1.00  0.00     0.000 C 
BRANCH   3   4
ATOM      4  C   UNL     1       8.164  21.078  31.390  1.00  0.00    -0.000 C 
BRANCH   4   5
ATOM      5  C   UNL     1       8.456  22.509  30.908  1.00  0.00    -0.000 C 
BRANCH   5   6
ATOM      6  C   UNL     1       9.632  23.156  31.672  1.00  0.00    -0.000 C 
BRANCH   6   7
ATOM      7  C   UNL     1       9.950  22.469  33.017  1.00  0.00    -0.000 C 
BRANCH   7   8
ATOM      8  C   UNL     1      11.400  21.977  33.167  1.00  0.00    -0.000 C 
BRANCH   8   9
ATOM      9  C   UNL     1      12.119  22.470  34.439  1.00  0.00    -0.000 C 
BRANCH   9  10
ATOM     10  C   UNL     1      13.221  23.516  34.160  1.00  0.00    -0.000 C 
BRANCH  10  11
ATOM     11  C   UNL     1      13.252  24.003  32.701  1.00  0.00    -0.003 C 
ATOM     12  C   UNL     1      14.674  24.229  32.190  1.00  0.00     0.004 C 
ENDBRANCH  10  11
ENDBRANCH   9  10
ENDBRANCH   8   9
ENDBRANCH   7   8
ENDBRANCH   6   7
ENDBRANCH   5   6
ENDBRANCH   4   5
ENDBRANCH   3   4
ENDBRANCH   2   3
ENDBRANCH   1   2
BRANCH   1  13
ATOM     13  C   UNL     1       9.375  17.798  33.082  1.00  0.00     0.000 C 
BRANCH  13  14
ATOM     14  C   UNL     1       8.221  18.151  34.036  1.00  0.00     0.000 C 
BRANCH  14  15
ATOM     15  C   UNL     1       8.358  19.547  34.679  1.00  0.00     0.000 C 
BRANCH  15  16
ATOM     16  C   UNL     1       8.861  19.472  36.131  1.00  0.00     0.000 C 
BRANCH  16  17
ATOM     17  C   UNL     1      10.365  19.767  36.246  1.00  0.00     0.000 C 
BRANCH  17  18
ATOM     18  C   UNL     1      11.201  18.494  36.461  1.00  0.00     0.000 C 
BRANCH  18  19
ATOM     19  C   UNL     1      12.264  18.300  35.366  1.00  0.00     0.000 C 
BRANCH  19  20
ATOM     20  C   UNL     1      13.579  17.726  35.921  1.00  0.00     0.006 C 
BRANCH  20  21
ATOM     21  C   UNL     1      13.417  16.285  36.424  1.00  0.00     0.053 C 
BRANCH  21  22
ATOM     22  C   UNL     1      13.804  16.156  37.866  1.00  0.00     0.041 C 
ATOM     23  O   UNL     1      13.435  17.022  38.702  1.00  0.00    -0.550 OA
ATOM     24  O   UNL     1      14.592  15.089  38.281  1.00  0.00    -0.550 OA
ENDBRANCH  21  22
ENDBRANCH  20  21
ENDBRANCH  19  20
ENDBRANCH  18  19
ENDBRANCH  17  18
ENDBRANCH  16  17
ENDBRANCH  15  16
ENDBRANCH  14  15
ENDBRANCH  13  14
ENDBRANCH   1  13
TORSDOF 20
ENDMDL
MODEL 6
REMARK VINA RESULT:    -5.146      3.687      7.754
REMARK INTER + INTRA:         -14.593
REMARK INTER:                 -11.952
REMARK INTRA:                  -2.642
REMARK UNBOUND:                -3.431
REMARK SMILES CCCCCCCCCCCCCCCCCCCCCC(=O)[O-]
REMARK SMILES IDX 12 1 11 2 10 3 9 4 8 5 7 6 6 7 5 8 4 9 3 10 2 11 1 12 13 13
REMARK SMILES IDX 14 14 15 15 16 16 17 17 18 18 19 19 20 20 21 21 22 22 23 23
REMARK SMILES IDX 24 24
REMARK H PARENT
REMARK Flexibility Score: inf
ROOT
ATOM      1  C   UNL     1       9.108  20.120  35.219  1.00  0.00     0.000 C 
ENDROOT
BRANCH   1   2
ATOM      2  C   UNL     1       9.517  20.207  36.698  1.00  0.00     0.000 C 
BRANCH   2   3
ATOM      3  C   UNL     1       8.781  19.179  37.578  1.00  0.00     0.000 C 
BRANCH   3   4
ATOM      4  C   UNL     1       9.727  18.118  38.162  1.00  0.00    -0.000 C 
BRANCH   4   5
ATOM      5  C   UNL     1      10.262  17.143  37.099  1.00  0.00    -0.000 C 
BRANCH   5   6
ATOM      6  C   UNL     1      11.806  17.106  37.063  1.00  0.00    -0.000 C 
BRANCH   6   7
ATOM      7  C   UNL     1      12.419  17.906  35.895  1.00  0.00    -0.000 C 
BRANCH   7   8
ATOM      8  C   UNL     1      13.749  17.352  35.356  1.00  0.00    -0.000 C 
BRANCH   8   9
ATOM      9  C   UNL     1      14.978  17.661  36.233  1.00  0.00    -0.000 C 
BRANCH   9  10
ATOM     10  C   UNL     1      15.980  16.489  36.329  1.00  0.00    -0.000 C 
BRANCH  10  11
ATOM     11  C   UNL     1      16.037  15.841  37.723  1.00  0.00    -0.003 C 
ATOM     12  C   UNL     1      14.772  15.049  38.052  1.00  0.00     0.004 C 
ENDBRANCH  10  11
ENDBRANCH   9  10
ENDBRANCH   8   9
ENDBRANCH   7   8
ENDBRANCH   6   7
ENDBRANCH   5   6
ENDBRANCH   4   5
ENDBRANCH   3   4
ENDBRANCH   2   3
ENDBRANCH   1   2
BRANCH   1  13
ATOM     13  C   UNL     1       7.999  19.082  34.976  1.00  0.00     0.000 C 
BRANCH  13  14
ATOM     14  C   UNL     1       8.280  18.184  33.759  1.00  0.00     0.000 C 
BRANCH  14  15
ATOM     15  C   UNL     1       9.775  18.096  33.389  1.00  0.00     0.000 C 
BRANCH  15  16
ATOM     16  C   UNL     1      10.099  18.856  32.091  1.00  0.00     0.000 C 
BRANCH  16  17
ATOM     17  C   UNL     1       9.020  18.661  31.013  1.00  0.00     0.000 C 
BRANCH  17  18
ATOM     18  C   UNL     1       8.478  19.997  30.476  1.00  0.00     0.000 C 
BRANCH  18  19
ATOM     19  C   UNL     1       8.138  20.986  31.603  1.00  0.00     0.000 C 
BRANCH  19  20
ATOM     20  C   UNL     1       8.394  22.448  31.198  1.00  0.00     0.006 C 
BRANCH  20  21
ATOM     21  C   UNL     1       9.033  23.261  32.331  1.00  0.00     0.053 C 
BRANCH  21  22
ATOM     22  C   UNL     1      10.522  23.340  32.183  1.00  0.00     0.041 C 
ATOM     23  O   UNL     1      11.254  22.413  32.622  1.00  0.00    -0.550 OA
ATOM     24  O   UNL     1      11.103  24.448  31.579  1.00  0.00    -0.550 OA
ENDBRANCH  21  22
ENDBRANCH  20  21
ENDBRANCH  19  20
ENDBRANCH  18  19
ENDBRANCH  17  18
ENDBRANCH  16  17
ENDBRANCH  15  16
ENDBRANCH  14  15
ENDBRANCH  13  14
ENDBRANCH   1  13
TORSDOF 20
ENDMDL
MODEL 7
REMARK VINA RESULT:    -5.118      1.062      2.218
REMARK INTER + INTRA:         -14.533
REMARK INTER:                 -11.736
REMARK INTRA:                  -2.797
REMARK UNBOUND:                -3.431
REMARK SMILES CCCCCCCCCCCCCCCCCCCCCC(=O)[O-]
REMARK SMILES IDX 12 1 11 2 10 3 9 4 8 5 7 6 6 7 5 8 4 9 3 10 2 11 1 12 13 13
REMARK SMILES IDX 14 14 15 15 16 16 17 17 18 18 19 19 20 20 21 21 22 22 23 23
REMARK SMILES IDX 24 24
REMARK H PARENT
REMARK Flexibility Score: inf
ROOT
ATOM      1  C   UNL     1       8.787  17.330  35.196  1.00  0.00     0.000 C 
ENDROOT
BRANCH   1   2
ATOM      2  C   UNL     1       7.932  18.445  34.572  1.00  0.00     0.000 C 
BRANCH   2   3
ATOM      3  C   UNL     1       8.581  19.054  33.315  1.00  0.00     0.000 C 
BRANCH   3   4
ATOM      4  C   UNL     1       8.690  20.585  33.391  1.00  0.00    -0.000 C 
BRANCH   4   5
ATOM      5  C   UNL     1       9.972  21.060  34.096  1.00  0.00    -0.000 C 
BRANCH   5   6
ATOM      6  C   UNL     1       9.675  21.755  35.443  1.00  0.00    -0.000 C 
BRANCH   6   7
ATOM      7  C   UNL     1       9.900  20.850  36.672  1.00  0.00    -0.000 C 
BRANCH   7   8
ATOM      8  C   UNL     1       8.708  20.759  37.640  1.00  0.00    -0.000 C 
BRANCH   8   9
ATOM      9  C   UNL     1       8.416  19.342  38.172  1.00  0.00    -0.000 C 
BRANCH   9  10
ATOM     10  C   UNL     1       9.441  18.851  39.219  1.00  0.00    -0.000 C 
BRANCH  10  11
ATOM     11  C   UNL     1      10.040  19.983  40.070  1.00  0.00    -0.003 C 
ATOM     12  C   UNL     1      11.561  19.885  40.187  1.00  0.00     0.004 C 
ENDBRANCH  10  11
ENDBRANCH   9  10
ENDBRANCH   8   9
ENDBRANCH   7   8
ENDBRANCH   6   7
ENDBRANCH   5   6
ENDBRANCH   4   5
ENDBRANCH   3   4
ENDBRANCH   2   3
ENDBRANCH   1   2
BRANCH   1  13
ATOM     13  C   UNL     1      10.212  17.291  34.622  1.00  0.00     0.000 C 
BRANCH  13  14
ATOM     14  C   UNL     1      11.262  17.859  35.593  1.00  0.00     0.000 C 
BRANCH  14  15
ATOM     15  C   UNL     1      11.527  16.953  36.813  1.00  0.00     0.000 C 
BRANCH  15  16
ATOM     16  C   UNL     1      13.015  16.585  36.953  1.00  0.00     0.000 C 
BRANCH  16  17
ATOM     17  C   UNL     1      13.542  16.806  38.379  1.00  0.00     0.000 C 
BRANCH  17  18
ATOM     18  C   UNL     1      15.079  16.846  38.439  1.00  0.00     0.000 C 
BRANCH  18  19
ATOM     19  C   UNL     1      15.661  18.075  37.721  1.00  0.00     0.000 C 
BRANCH  19  20
ATOM     20  C   UNL     1      16.862  17.719  36.828  1.00  0.00     0.006 C 
BRANCH  20  21
ATOM     21  C   UNL     1      16.428  17.216  35.445  1.00  0.00     0.053 C 
BRANCH  21  22
ATOM     22  C   UNL     1      17.606  16.832  34.601  1.00  0.00     0.041 C 
ATOM     23  O   UNL     1      17.895  17.501  33.574  1.00  0.00    -0.550 OA
ATOM     24  O   UNL     1      18.370  15.722  34.938  1.00  0.00    -0.550 OA
ENDBRANCH  21  22
ENDBRANCH  20  21
ENDBRANCH  19  20
ENDBRANCH  18  19
ENDBRANCH  17  18
ENDBRANCH  16  17
ENDBRANCH  15  16
ENDBRANCH  14  15
ENDBRANCH  13  14
ENDBRANCH   1  13
TORSDOF 20
ENDMDL
MODEL 8
REMARK VINA RESULT:    -5.117      3.086      5.306
REMARK INTER + INTRA:         -14.532
REMARK INTER:                 -11.858
REMARK INTRA:                  -2.674
REMARK UNBOUND:                -3.431
REMARK SMILES CCCCCCCCCCCCCCCCCCCCCC(=O)[O-]
REMARK SMILES IDX 12 1 11 2 10 3 9 4 8 5 7 6 6 7 5 8 4 9 3 10 2 11 1 12 13 13
REMARK SMILES IDX 14 14 15 15 16 16 17 17 18 18 19 19 20 20 21 21 22 22 23 23
REMARK SMILES IDX 24 24
REMARK H PARENT
REMARK Flexibility Score: inf
ROOT
ATOM      1  C   UNL     1       8.127  18.627  35.080  1.00  0.00     0.000 C 
ENDROOT
BRANCH   1   2
ATOM      2  C   UNL     1       8.261  18.150  33.624  1.00  0.00     0.000 C 
BRANCH   2   3
ATOM      3  C   UNL     1       9.728  18.052  33.166  1.00  0.00     0.000 C 
BRANCH   3   4
ATOM      4  C   UNL     1      10.042  18.987  31.988  1.00  0.00    -0.000 C 
BRANCH   4   5
ATOM      5  C   UNL     1       9.067  18.815  30.811  1.00  0.00    -0.000 C 
BRANCH   5   6
ATOM      6  C   UNL     1       8.379  20.142  30.424  1.00  0.00    -0.000 C 
BRANCH   6   7
ATOM      7  C   UNL     1       8.137  21.088  31.619  1.00  0.00    -0.000 C 
BRANCH   7   8
ATOM      8  C   UNL     1       8.865  22.441  31.534  1.00  0.00    -0.000 C 
BRANCH   8   9
ATOM      9  C   UNL     1       9.746  22.775  32.754  1.00  0.00    -0.000 C 
BRANCH   9  10
ATOM     10  C   UNL     1       8.980  23.481  33.895  1.00  0.00    -0.000 C 
BRANCH  10  11
ATOM     11  C   UNL     1       9.455  24.921  34.156  1.00  0.00    -0.003 C 
ATOM     12  C   UNL     1      10.402  25.429  33.070  1.00  0.00     0.004 C 
ENDBRANCH  10  11
ENDBRANCH   9  10
ENDBRANCH   8   9
ENDBRANCH   7   8
ENDBRANCH   6   7
ENDBRANCH   5   6
ENDBRANCH   4   5
ENDBRANCH   3   4
ENDBRANCH   2   3
ENDBRANCH   1   2
BRANCH   1  13
ATOM     13  C   UNL     1       8.685  20.045  35.287  1.00  0.00     0.000 C 
BRANCH  13  14
ATOM     14  C   UNL     1       9.404  20.211  36.637  1.00  0.00     0.000 C 
BRANCH  14  15
ATOM     15  C   UNL     1       8.772  19.388  37.778  1.00  0.00     0.000 C 
BRANCH  15  16
ATOM     16  C   UNL     1       9.723  18.301  38.307  1.00  0.00     0.000 C 
BRANCH  16  17
ATOM     17  C   UNL     1      11.040  18.239  37.518  1.00  0.00     0.000 C 
BRANCH  17  18
ATOM     18  C   UNL     1      11.137  16.986  36.632  1.00  0.00     0.000 C 
BRANCH  18  19
ATOM     19  C   UNL     1      12.190  17.134  35.521  1.00  0.00     0.000 C 
BRANCH  19  20
ATOM     20  C   UNL     1      13.627  16.975  36.048  1.00  0.00     0.006 C 
BRANCH  20  21
ATOM     21  C   UNL     1      13.923  15.539  36.501  1.00  0.00     0.053 C 
BRANCH  21  22
ATOM     22  C   UNL     1      14.327  15.486  37.943  1.00  0.00     0.041 C 
ATOM     23  O   UNL     1      15.024  14.529  38.372  1.00  0.00    -0.550 OA
ATOM     24  O   UNL     1      13.913  16.483  38.818  1.00  0.00    -0.550 OA
ENDBRANCH  21  22
ENDBRANCH  20  21
ENDBRANCH  19  20
ENDBRANCH  18  19
ENDBRANCH  17  18
ENDBRANCH  16  17
ENDBRANCH  15  16
ENDBRANCH  14  15
ENDBRANCH  13  14
ENDBRANCH   1  13
TORSDOF 20
ENDMDL
MODEL 9
REMARK VINA RESULT:    -5.092      2.589      4.346
REMARK INTER + INTRA:         -14.477
REMARK INTER:                 -11.964
REMARK INTRA:                  -2.513
REMARK UNBOUND:                -3.431
REMARK SMILES CCCCCCCCCCCCCCCCCCCCCC(=O)[O-]
REMARK SMILES IDX 12 1 11 2 10 3 9 4 8 5 7 6 6 7 5 8 4 9 3 10 2 11 1 12 13 13
REMARK SMILES IDX 14 14 15 15 16 16 17 17 18 18 19 19 20 20 21 21 22 22 23 23
REMARK SMILES IDX 24 24
REMARK H PARENT
REMARK Flexibility Score: inf
ROOT
ATOM      1  C   UNL     1       9.669  19.672  35.954  1.00  0.00     0.000 C 
ENDROOT
BRANCH   1   2
ATOM      2  C   UNL     1       8.662  19.800  34.800  1.00  0.00     0.000 C 
BRANCH   2   3
ATOM      3  C   UNL     1       8.260  18.435  34.210  1.00  0.00     0.000 C 
BRANCH   3   4
ATOM      4  C   UNL     1       9.297  17.895  33.213  1.00  0.00    -0.000 C 
BRANCH   4   5
ATOM      5  C   UNL     1       9.749  18.951  32.189  1.00  0.00    -0.000 C 
BRANCH   5   6
ATOM      6  C   UNL     1       8.974  18.843  30.858  1.00  0.00    -0.000 C 
BRANCH   6   7
ATOM      7  C   UNL     1       8.202  20.124  30.483  1.00  0.00    -0.000 C 
BRANCH   7   8
ATOM      8  C   UNL     1       8.162  21.203  31.580  1.00  0.00    -0.000 C 
BRANCH   8   9
ATOM      9  C   UNL     1       8.864  22.524  31.209  1.00  0.00    -0.000 C 
BRANCH   9  10
ATOM     10  C   UNL     1       9.689  23.133  32.366  1.00  0.00    -0.000 C 
BRANCH  10  11
ATOM     11  C   UNL     1      10.945  22.319  32.720  1.00  0.00    -0.003 C 
ATOM     12  C   UNL     1      12.186  23.198  32.875  1.00  0.00     0.004 C 
ENDBRANCH  10  11
ENDBRANCH   9  10
ENDBRANCH   8   9
ENDBRANCH   7   8
ENDBRANCH   6   7
ENDBRANCH   5   6
ENDBRANCH   4   5
ENDBRANCH   3   4
ENDBRANCH   2   3
ENDBRANCH   1   2
BRANCH   1  13
ATOM     13  C   UNL     1       9.073  18.956  37.177  1.00  0.00     0.000 C 
BRANCH  13  14
ATOM     14  C   UNL     1      10.018  17.896  37.767  1.00  0.00     0.000 C 
BRANCH  14  15
ATOM     15  C   UNL     1      10.503  16.858  36.733  1.00  0.00     0.000 C 
BRANCH  15  16
ATOM     16  C   UNL     1      12.035  16.727  36.715  1.00  0.00     0.000 C 
BRANCH  16  17
ATOM     17  C   UNL     1      12.724  17.766  37.616  1.00  0.00     0.000 C 
BRANCH  17  18
ATOM     18  C   UNL     1      13.510  17.117  38.767  1.00  0.00     0.000 C 
BRANCH  18  19
ATOM     19  C   UNL     1      15.026  17.339  38.639  1.00  0.00     0.000 C 
BRANCH  19  20
ATOM     20  C   UNL     1      15.739  16.151  37.970  1.00  0.00     0.006 C 
BRANCH  20  21
ATOM     21  C   UNL     1      16.714  16.601  36.873  1.00  0.00     0.053 C 
BRANCH  21  22
ATOM     22  C   UNL     1      16.092  17.617  35.964  1.00  0.00     0.041 C 
ATOM     23  O   UNL     1      15.210  17.270  35.134  1.00  0.00    -0.550 OA
ATOM     24  O   UNL     1      16.504  18.943  36.018  1.00  0.00    -0.550 OA
ENDBRANCH  21  22
ENDBRANCH  20  21
ENDBRANCH  19  20
ENDBRANCH  18  19
ENDBRANCH  17  18
ENDBRANCH  16  17
ENDBRANCH  15  16
ENDBRANCH  14  15
ENDBRANCH  13  14
ENDBRANCH   1  13
TORSDOF 20
ENDMDL
