MODEL 1
REMARK VINA RESULT:    -6.113      0.000      0.000
REMARK INTER + INTRA:         -10.245
REMARK INTER:                  -9.508
REMARK INTRA:                  -0.737
REMARK UNBOUND:                -0.737
REMARK SMILES COc1cc(CNC(=O)CCCCC=CC(C)C)ccc1O
REMARK SMILES IDX 11 1 12 2 13 3 14 4 15 5 16 6 17 7 18 8 10 9 8 10 9 11 7 12
REMARK SMILES IDX 6 14 5 15 4 16 19 17 3 18 20 19 21 20 2 21 1 22 22 23
REMARK H PARENT 7 13 22 24
REMARK Flexibility Score: inf
ROOT
ATOM      1  C   UNL     1      -1.810  27.258 -16.723  1.00  0.00     0.010 C 
ENDROOT
BRANCH   1   2
ATOM      2  C   UNL     1      -1.183  25.853 -16.794  1.00  0.00     0.005 C 
BRANCH   2   3
ATOM      3  C   UNL     1       0.324  25.877 -16.511  1.00  0.00     0.027 C 
BRANCH   3   4
ATOM      4  C   UNL     1       0.837  24.510 -16.143  1.00  0.00    -0.031 C 
ATOM      5  C   UNL     1       0.032  23.437 -16.119  1.00  0.00    -0.028 C 
BRANCH   5   6
ATOM      6  C   UNL     1       0.548  22.079 -15.706  1.00  0.00     0.005 C 
ATOM      7  C   UNL     1       1.391  21.462 -16.826  1.00  0.00     0.012 C 
ATOM      8  C   UNL     1      -0.617  21.149 -15.342  1.00  0.00     0.012 C 
ENDBRANCH   5   6
ENDBRANCH   3   4
ENDBRANCH   2   3
ENDBRANCH   1   2
BRANCH   1   9
ATOM      9  C   UNL     1      -1.039  28.191 -15.780  1.00  0.00     0.100 C 
BRANCH   9  10
ATOM     10  C   UNL     1      -1.647  29.563 -15.734  1.00  0.00     0.220 C 
ATOM     11  O   UNL     1      -2.234  29.945 -14.685  1.00  0.00    -0.275 OA
ATOM     12  N   UNL     1      -1.596  30.414 -16.889  1.00  0.00    -0.352 N 
ATOM     13  H   UNL     1      -1.106  30.071 -17.747  1.00  0.00     0.163 HD
BRANCH  12  14
ATOM     14  C   UNL     1      -2.051  31.801 -16.869  1.00  0.00     0.151 C 
BRANCH  14  15
ATOM     15  C   UNL     1      -3.489  31.870 -17.304  1.00  0.00    -0.025 A 
ATOM     16  C   UNL     1      -4.326  32.885 -16.815  1.00  0.00     0.056 A 
ATOM     17  C   UNL     1      -4.019  30.886 -18.151  1.00  0.00     0.009 A 
ATOM     18  C   UNL     1      -5.684  32.937 -17.190  1.00  0.00     0.160 A 
ATOM     19  C   UNL     1      -5.364  30.929 -18.523  1.00  0.00     0.050 A 
ATOM     20  C   UNL     1      -6.198  31.947 -18.050  1.00  0.00     0.157 A 
BRANCH  18  21
ATOM     21  O   UNL     1      -6.545  33.948 -16.729  1.00  0.00    -0.493 OA
ATOM     22  C   UNL     1      -6.947  34.110 -15.372  1.00  0.00     0.278 C 
ENDBRANCH  18  21
BRANCH  20  23
ATOM     23  O   UNL     1      -7.536  31.959 -18.444  1.00  0.00    -0.504 OA
ATOM     24  H   UNL     1      -7.925  32.701 -19.013  1.00  0.00     0.293 HD
ENDBRANCH  20  23
ENDBRANCH  14  15
ENDBRANCH  12  14
ENDBRANCH   9  10
ENDBRANCH   1   9
TORSDOF 10
ENDMDL
MODEL 2
REMARK VINA RESULT:    -6.085      1.838      2.635
REMARK INTER + INTRA:         -10.202
REMARK INTER:                  -9.345
REMARK INTRA:                  -0.857
REMARK UNBOUND:                -0.737
REMARK SMILES COc1cc(CNC(=O)CCCCC=CC(C)C)ccc1O
REMARK SMILES IDX 11 1 12 2 13 3 14 4 15 5 16 6 17 7 18 8 10 9 8 10 9 11 7 12
REMARK SMILES IDX 6 14 5 15 4 16 19 17 3 18 20 19 21 20 2 21 1 22 22 23
REMARK H PARENT 7 13 22 24
REMARK Flexibility Score: inf
ROOT
ATOM      1  C   UNL     1      -1.084  25.658 -14.789  1.00  0.00     0.010 C 
ENDROOT
BRANCH   1   2
ATOM      2  C   UNL     1       0.321  25.047 -14.938  1.00  0.00     0.005 C 
BRANCH   2   3
ATOM      3  C   UNL     1       0.821  25.090 -16.386  1.00  0.00     0.027 C 
BRANCH   3   4
ATOM      4  C   UNL     1       0.014  24.183 -17.275  1.00  0.00    -0.031 C 
ATOM      5  C   UNL     1       0.135  22.848 -17.219  1.00  0.00    -0.028 C 
BRANCH   5   6
ATOM      6  C   UNL     1      -0.649  21.949 -18.145  1.00  0.00     0.005 C 
ATOM      7  C   UNL     1      -0.255  22.207 -19.603  1.00  0.00     0.012 C 
ATOM      8  C   UNL     1      -2.155  22.161 -17.954  1.00  0.00     0.012 C 
ENDBRANCH   5   6
ENDBRANCH   3   4
ENDBRANCH   2   3
ENDBRANCH   1   2
BRANCH   1   9
ATOM      9  C   UNL     1      -1.045  27.189 -14.700  1.00  0.00     0.100 C 
BRANCH   9  10
ATOM     10  C   UNL     1      -1.460  27.833 -15.993  1.00  0.00     0.220 C 
ATOM     11  O   UNL     1      -2.376  27.306 -16.680  1.00  0.00    -0.275 OA
ATOM     12  N   UNL     1      -0.789  29.014 -16.458  1.00  0.00    -0.352 N 
ATOM     13  H   UNL     1      -0.030  29.428 -15.870  1.00  0.00     0.163 HD
BRANCH  12  14
ATOM     14  C   UNL     1      -1.228  29.758 -17.635  1.00  0.00     0.151 C 
BRANCH  14  15
ATOM     15  C   UNL     1      -2.329  30.708 -17.254  1.00  0.00    -0.025 A 
ATOM     16  C   UNL     1      -3.389  30.952 -18.141  1.00  0.00     0.056 A 
ATOM     17  C   UNL     1      -2.271  31.406 -16.039  1.00  0.00     0.009 A 
ATOM     18  C   UNL     1      -4.407  31.869 -17.808  1.00  0.00     0.160 A 
ATOM     19  C   UNL     1      -3.274  32.318 -15.704  1.00  0.00     0.050 A 
ATOM     20  C   UNL     1      -4.340  32.553 -16.578  1.00  0.00     0.157 A 
BRANCH  18  21
ATOM     21  O   UNL     1      -5.489  32.125 -18.667  1.00  0.00    -0.493 OA
ATOM     22  C   UNL     1      -5.505  33.142 -19.664  1.00  0.00     0.278 C 
ENDBRANCH  18  21
BRANCH  20  23
ATOM     23  O   UNL     1      -5.324  33.470 -16.209  1.00  0.00    -0.504 OA
ATOM     24  H   UNL     1      -5.116  34.290 -15.652  1.00  0.00     0.293 HD
ENDBRANCH  20  23
ENDBRANCH  14  15
ENDBRANCH  12  14
ENDBRANCH   9  10
ENDBRANCH   1   9
TORSDOF 10
ENDMDL
MODEL 3
REMARK VINA RESULT:    -6.057      1.456      1.834
REMARK INTER + INTRA:         -10.158
REMARK INTER:                  -9.146
REMARK INTRA:                  -1.012
REMARK UNBOUND:                -0.737
REMARK SMILES COc1cc(CNC(=O)CCCCC=CC(C)C)ccc1O
REMARK SMILES IDX 11 1 12 2 13 3 14 4 15 5 16 6 17 7 18 8 10 9 8 10 9 11 7 12
REMARK SMILES IDX 6 14 5 15 4 16 19 17 3 18 20 19 21 20 2 21 1 22 22 23
REMARK H PARENT 7 13 22 24
REMARK Flexibility Score: inf
ROOT
ATOM      1  C   UNL     1      -1.042  27.225 -16.370  1.00  0.00     0.010 C 
ENDROOT
BRANCH   1   2
ATOM      2  C   UNL     1      -2.492  27.010 -16.842  1.00  0.00     0.005 C 
BRANCH   2   3
ATOM      3  C   UNL     1      -3.020  25.618 -16.477  1.00  0.00     0.027 C 
BRANCH   3   4
ATOM      4  C   UNL     1      -1.919  24.592 -16.484  1.00  0.00    -0.031 C 
ATOM      5  C   UNL     1      -1.821  23.667 -17.451  1.00  0.00    -0.028 C 
BRANCH   5   6
ATOM      6  C   UNL     1      -0.738  22.615 -17.424  1.00  0.00     0.005 C 
ATOM      7  C   UNL     1       0.455  23.095 -16.591  1.00  0.00     0.012 C 
ATOM      8  C   UNL     1      -0.288  22.271 -18.849  1.00  0.00     0.012 C 
ENDBRANCH   5   6
ENDBRANCH   3   4
ENDBRANCH   2   3
ENDBRANCH   1   2
BRANCH   1   9
ATOM      9  C   UNL     1      -0.973  27.777 -14.940  1.00  0.00     0.100 C 
BRANCH   9  10
ATOM     10  C   UNL     1      -1.818  29.008 -14.778  1.00  0.00     0.220 C 
ATOM     11  O   UNL     1      -2.814  28.977 -14.005  1.00  0.00    -0.275 OA
ATOM     12  N   UNL     1      -1.515  30.195 -15.527  1.00  0.00    -0.352 N 
ATOM     13  H   UNL     1      -0.685  30.193 -16.162  1.00  0.00     0.163 HD
BRANCH  12  14
ATOM     14  C   UNL     1      -2.215  31.459 -15.319  1.00  0.00     0.151 C 
BRANCH  14  15
ATOM     15  C   UNL     1      -3.473  31.486 -16.142  1.00  0.00    -0.025 A 
ATOM     16  C   UNL     1      -4.709  31.758 -15.535  1.00  0.00     0.056 A 
ATOM     17  C   UNL     1      -3.429  31.175 -17.509  1.00  0.00     0.009 A 
ATOM     18  C   UNL     1      -5.897  31.749 -16.292  1.00  0.00     0.160 A 
ATOM     19  C   UNL     1      -4.603  31.161 -18.264  1.00  0.00     0.050 A 
ATOM     20  C   UNL     1      -5.835  31.447 -17.666  1.00  0.00     0.157 A 
BRANCH  18  21
ATOM     21  O   UNL     1      -7.148  32.032 -15.716  1.00  0.00    -0.493 OA
ATOM     22  C   UNL     1      -7.562  33.322 -15.279  1.00  0.00     0.278 C 
ENDBRANCH  18  21
BRANCH  20  23
ATOM     23  O   UNL     1      -6.986  31.425 -18.452  1.00  0.00    -0.504 OA
ATOM     24  H   UNL     1      -7.217  32.175 -19.092  1.00  0.00     0.293 HD
ENDBRANCH  20  23
ENDBRANCH  14  15
ENDBRANCH  12  14
ENDBRANCH   9  10
ENDBRANCH   1   9
TORSDOF 10
ENDMDL
MODEL 4
REMARK VINA RESULT:    -6.036      2.927      8.881
REMARK INTER + INTRA:         -10.125
REMARK INTER:                  -9.297
REMARK INTRA:                  -0.827
REMARK UNBOUND:                -0.737
REMARK SMILES COc1cc(CNC(=O)CCCCC=CC(C)C)ccc1O
REMARK SMILES IDX 11 1 12 2 13 3 14 4 15 5 16 6 17 7 18 8 10 9 8 10 9 11 7 12
REMARK SMILES IDX 6 14 5 15 4 16 19 17 3 18 20 19 21 20 2 21 1 22 22 23
REMARK H PARENT 7 13 22 24
REMARK Flexibility Score: inf
ROOT
ATOM      1  C   UNL     1      -1.718  30.295 -14.256  1.00  0.00     0.010 C 
ENDROOT
BRANCH   1   2
ATOM      2  C   UNL     1      -2.199  31.630 -14.853  1.00  0.00     0.005 C 
BRANCH   2   3
ATOM      3  C   UNL     1      -2.335  31.567 -16.379  1.00  0.00     0.027 C 
BRANCH   3   4
ATOM      4  C   UNL     1      -3.778  31.487 -16.802  1.00  0.00    -0.031 C 
ATOM      5  C   UNL     1      -4.128  31.258 -18.076  1.00  0.00    -0.028 C 
BRANCH   5   6
ATOM      6  C   UNL     1      -5.578  31.222 -18.497  1.00  0.00     0.005 C 
ATOM      7  C   UNL     1      -5.967  32.531 -19.191  1.00  0.00     0.012 C 
ATOM      8  C   UNL     1      -6.484  30.971 -17.285  1.00  0.00     0.012 C 
ENDBRANCH   5   6
ENDBRANCH   3   4
ENDBRANCH   2   3
ENDBRANCH   1   2
BRANCH   1   9
ATOM      9  C   UNL     1      -2.886  29.374 -13.877  1.00  0.00     0.100 C 
BRANCH   9  10
ATOM     10  C   UNL     1      -3.124  28.319 -14.918  1.00  0.00     0.220 C 
ATOM     11  O   UNL     1      -4.264  27.787 -15.009  1.00  0.00    -0.275 OA
ATOM     12  N   UNL     1      -2.051  27.893 -15.772  1.00  0.00    -0.352 N 
ATOM     13  H   UNL     1      -1.116  28.349 -15.673  1.00  0.00     0.163 HD
BRANCH  12  14
ATOM     14  C   UNL     1      -2.249  26.969 -16.885  1.00  0.00     0.151 C 
BRANCH  14  15
ATOM     15  C   UNL     1      -1.319  25.796 -16.744  1.00  0.00    -0.025 A 
ATOM     16  C   UNL     1      -1.805  24.488 -16.894  1.00  0.00     0.056 A 
ATOM     17  C   UNL     1       0.025  25.998 -16.397  1.00  0.00     0.009 A 
ATOM     18  C   UNL     1      -0.948  23.381 -16.727  1.00  0.00     0.160 A 
ATOM     19  C   UNL     1       0.879  24.906 -16.227  1.00  0.00     0.050 A 
ATOM     20  C   UNL     1       0.402  23.601 -16.391  1.00  0.00     0.157 A 
BRANCH  18  21
ATOM     21  O   UNL     1      -1.400  22.060 -16.885  1.00  0.00    -0.493 OA
ATOM     22  C   UNL     1      -2.545  21.683 -17.643  1.00  0.00     0.278 C 
ENDBRANCH  18  21
BRANCH  20  23
ATOM     23  O   UNL     1       1.284  22.535 -16.214  1.00  0.00    -0.504 OA
ATOM     24  H   UNL     1       2.000  22.540 -15.498  1.00  0.00     0.293 HD
ENDBRANCH  20  23
ENDBRANCH  14  15
ENDBRANCH  12  14
ENDBRANCH   9  10
ENDBRANCH   1   9
TORSDOF 10
ENDMDL
MODEL 5
REMARK VINA RESULT:    -6.031     14.458     16.510
REMARK INTER + INTRA:         -10.118
REMARK INTER:                  -9.387
REMARK INTRA:                  -0.730
REMARK UNBOUND:                -0.737
REMARK SMILES COc1cc(CNC(=O)CCCCC=CC(C)C)ccc1O
REMARK SMILES IDX 11 1 12 2 13 3 14 4 15 5 16 6 17 7 18 8 10 9 8 10 9 11 7 12
REMARK SMILES IDX 6 14 5 15 4 16 19 17 3 18 20 19 21 20 2 21 1 22 22 23
REMARK H PARENT 7 13 22 24
REMARK Flexibility Score: inf
ROOT
ATOM      1  C   UNL     1       5.033  33.506 -28.873  1.00  0.00     0.010 C 
ENDROOT
BRANCH   1   2
ATOM      2  C   UNL     1       5.416  32.586 -30.048  1.00  0.00     0.005 C 
BRANCH   2   3
ATOM      3  C   UNL     1       4.709  31.228 -29.973  1.00  0.00     0.027 C 
BRANCH   3   4
ATOM      4  C   UNL     1       4.399  30.692 -31.346  1.00  0.00    -0.031 C 
ATOM      5  C   UNL     1       5.204  29.809 -31.957  1.00  0.00    -0.028 C 
BRANCH   5   6
ATOM      6  C   UNL     1       4.907  29.311 -33.351  1.00  0.00     0.005 C 
ATOM      7  C   UNL     1       3.740  28.319 -33.328  1.00  0.00     0.012 C 
ATOM      8  C   UNL     1       6.151  28.656 -33.965  1.00  0.00     0.012 C 
ENDBRANCH   5   6
ENDBRANCH   3   4
ENDBRANCH   2   3
ENDBRANCH   1   2
BRANCH   1   9
ATOM      9  C   UNL     1       5.423  32.906 -27.515  1.00  0.00     0.100 C 
BRANCH   9  10
ATOM     10  C   UNL     1       6.912  32.776 -27.371  1.00  0.00     0.220 C 
ATOM     11  O   UNL     1       7.624  33.816 -27.345  1.00  0.00    -0.275 OA
ATOM     12  N   UNL     1       7.519  31.476 -27.305  1.00  0.00    -0.352 N 
ATOM     13  H   UNL     1       6.905  30.630 -27.332  1.00  0.00     0.163 HD
BRANCH  12  14
ATOM     14  C   UNL     1       8.941  31.282 -27.036  1.00  0.00     0.151 C 
BRANCH  14  15
ATOM     15  C   UNL     1       9.115  30.370 -25.853  1.00  0.00    -0.025 A 
ATOM     16  C   UNL     1       8.012  29.681 -25.324  1.00  0.00     0.056 A 
ATOM     17  C   UNL     1      10.366  30.252 -25.231  1.00  0.00     0.009 A 
ATOM     18  C   UNL     1       8.160  28.852 -24.194  1.00  0.00     0.160 A 
ATOM     19  C   UNL     1      10.519  29.436 -24.109  1.00  0.00     0.050 A 
ATOM     20  C   UNL     1       9.425  28.735 -23.588  1.00  0.00     0.157 A 
BRANCH  18  21
ATOM     21  O   UNL     1       7.079  28.138 -23.649  1.00  0.00    -0.493 OA
ATOM     22  C   UNL     1       5.870  28.732 -23.187  1.00  0.00     0.278 C 
ENDBRANCH  18  21
BRANCH  20  23
ATOM     23  O   UNL     1       9.616  27.928 -22.466  1.00  0.00    -0.504 OA
ATOM     24  H   UNL     1       8.853  27.664 -21.855  1.00  0.00     0.293 HD
ENDBRANCH  20  23
ENDBRANCH  14  15
ENDBRANCH  12  14
ENDBRANCH   9  10
ENDBRANCH   1   9
TORSDOF 10
ENDMDL
MODEL 6
REMARK VINA RESULT:    -5.975      2.655      9.005
REMARK INTER + INTRA:         -10.030
REMARK INTER:                  -9.125
REMARK INTRA:                  -0.905
REMARK UNBOUND:                -0.737
REMARK SMILES COc1cc(CNC(=O)CCCCC=CC(C)C)ccc1O
REMARK SMILES IDX 11 1 12 2 13 3 14 4 15 5 16 6 17 7 18 8 10 9 8 10 9 11 7 12
REMARK SMILES IDX 6 14 5 15 4 16 19 17 3 18 20 19 21 20 2 21 1 22 22 23
REMARK H PARENT 7 13 22 24
REMARK Flexibility Score: inf
ROOT
ATOM      1  C   UNL     1      -3.605  31.628 -18.147  1.00  0.00     0.010 C 
ENDROOT
BRANCH   1   2
ATOM      2  C   UNL     1      -4.940  30.869 -18.032  1.00  0.00     0.005 C 
BRANCH   2   3
ATOM      3  C   UNL     1      -6.143  31.761 -18.359  1.00  0.00     0.027 C 
BRANCH   3   4
ATOM      4  C   UNL     1      -5.766  32.871 -19.302  1.00  0.00    -0.031 C 
ATOM      5  C   UNL     1      -6.664  33.435 -20.124  1.00  0.00    -0.028 C 
BRANCH   5   6
ATOM      6  C   UNL     1      -6.266  34.519 -21.097  1.00  0.00     0.005 C 
ATOM      7  C   UNL     1      -5.862  33.909 -22.443  1.00  0.00     0.012 C 
ATOM      8  C   UNL     1      -5.117  35.359 -20.526  1.00  0.00     0.012 C 
ENDBRANCH   5   6
ENDBRANCH   3   4
ENDBRANCH   2   3
ENDBRANCH   1   2
BRANCH   1   9
ATOM      9  C   UNL     1      -3.252  32.379 -16.856  1.00  0.00     0.100 C 
BRANCH   9  10
ATOM     10  C   UNL     1      -2.846  31.439 -15.758  1.00  0.00     0.220 C 
ATOM     11  O   UNL     1      -3.442  31.490 -14.648  1.00  0.00    -0.275 OA
ATOM     12  N   UNL     1      -1.761  30.520 -15.960  1.00  0.00    -0.352 N 
ATOM     13  H   UNL     1      -1.282  30.500 -16.889  1.00  0.00     0.163 HD
BRANCH  12  14
ATOM     14  C   UNL     1      -1.404  29.495 -14.983  1.00  0.00     0.151 C 
BRANCH  14  15
ATOM     15  C   UNL     1      -1.748  28.135 -15.523  1.00  0.00    -0.025 A 
ATOM     16  C   UNL     1      -0.735  27.281 -15.987  1.00  0.00     0.056 A 
ATOM     17  C   UNL     1      -3.089  27.735 -15.628  1.00  0.00     0.009 A 
ATOM     18  C   UNL     1      -1.052  26.019 -16.528  1.00  0.00     0.160 A 
ATOM     19  C   UNL     1      -3.410  26.488 -16.166  1.00  0.00     0.050 A 
ATOM     20  C   UNL     1      -2.402  25.628 -16.615  1.00  0.00     0.157 A 
BRANCH  18  21
ATOM     21  O   UNL     1      -0.060  25.136 -16.987  1.00  0.00    -0.493 OA
ATOM     22  C   UNL     1       0.930  24.533 -16.160  1.00  0.00     0.278 C 
ENDBRANCH  18  21
BRANCH  20  23
ATOM     23  O   UNL     1      -2.761  24.389 -17.146  1.00  0.00    -0.504 OA
ATOM     24  H   UNL     1      -2.203  23.557 -17.000  1.00  0.00     0.293 HD
ENDBRANCH  20  23
ENDBRANCH  14  15
ENDBRANCH  12  14
ENDBRANCH   9  10
ENDBRANCH   1   9
TORSDOF 10
ENDMDL
MODEL 7
REMARK VINA RESULT:    -5.945      4.704      9.068
REMARK INTER + INTRA:          -9.984
REMARK INTER:                  -8.234
REMARK INTRA:                  -1.750
REMARK UNBOUND:                -0.737
REMARK SMILES COc1cc(CNC(=O)CCCCC=CC(C)C)ccc1O
REMARK SMILES IDX 11 1 12 2 13 3 14 4 15 5 16 6 17 7 18 8 10 9 8 10 9 11 7 12
REMARK SMILES IDX 6 14 5 15 4 16 19 17 3 18 20 19 21 20 2 21 1 22 22 23
REMARK H PARENT 7 13 22 24
REMARK Flexibility Score: inf
ROOT
ATOM      1  C   UNL     1      -4.345  26.907 -15.018  1.00  0.00     0.010 C 
ENDROOT
BRANCH   1   2
ATOM      2  C   UNL     1      -3.689  28.245 -15.407  1.00  0.00     0.005 C 
BRANCH   2   3
ATOM      3  C   UNL     1      -2.452  28.552 -14.555  1.00  0.00     0.027 C 
BRANCH   3   4
ATOM      4  C   UNL     1      -1.409  27.475 -14.690  1.00  0.00    -0.031 C 
ATOM      5  C   UNL     1      -0.804  27.221 -15.860  1.00  0.00    -0.028 C 
BRANCH   5   6
ATOM      6  C   UNL     1       0.210  26.110 -15.994  1.00  0.00     0.005 C 
ATOM      7  C   UNL     1      -0.005  25.343 -17.302  1.00  0.00     0.012 C 
ATOM      8  C   UNL     1       0.124  25.155 -14.797  1.00  0.00     0.012 C 
ENDBRANCH   5   6
ENDBRANCH   3   4
ENDBRANCH   2   3
ENDBRANCH   1   2
BRANCH   1   9
ATOM      9  C   UNL     1      -4.205  25.849 -16.121  1.00  0.00     0.100 C 
BRANCH   9  10
ATOM     10  C   UNL     1      -3.685  24.548 -15.581  1.00  0.00     0.220 C 
ATOM     11  O   UNL     1      -3.617  24.379 -14.333  1.00  0.00    -0.275 OA
ATOM     12  N   UNL     1      -3.231  23.524 -16.480  1.00  0.00    -0.352 N 
ATOM     13  H   UNL     1      -3.296  23.691 -17.509  1.00  0.00     0.163 HD
BRANCH  12  14
ATOM     14  C   UNL     1      -2.838  22.194 -16.025  1.00  0.00     0.151 C 
BRANCH  14  15
ATOM     15  C   UNL     1      -1.394  21.947 -16.365  1.00  0.00    -0.025 A 
ATOM     16  C   UNL     1      -0.978  21.918 -17.705  1.00  0.00     0.056 A 
ATOM     17  C   UNL     1      -0.465  21.679 -15.348  1.00  0.00     0.009 A 
ATOM     18  C   UNL     1       0.366  21.651 -18.033  1.00  0.00     0.160 A 
ATOM     19  C   UNL     1       0.867  21.410 -15.666  1.00  0.00     0.050 A 
ATOM     20  C   UNL     1       1.288  21.396 -17.000  1.00  0.00     0.157 A 
BRANCH  18  21
ATOM     21  O   UNL     1       0.817  21.629 -19.365  1.00  0.00    -0.493 OA
ATOM     22  C   UNL     1       0.148  22.258 -20.453  1.00  0.00     0.278 C 
ENDBRANCH  18  21
BRANCH  20  23
ATOM     23  O   UNL     1       2.628  21.125 -17.280  1.00  0.00    -0.504 OA
ATOM     24  H   UNL     1       3.252  20.721 -16.593  1.00  0.00     0.293 HD
ENDBRANCH  20  23
ENDBRANCH  14  15
ENDBRANCH  12  14
ENDBRANCH   9  10
ENDBRANCH   1   9
TORSDOF 10
ENDMDL
MODEL 8
REMARK VINA RESULT:    -5.880      1.510      2.069
REMARK INTER + INTRA:          -9.882
REMARK INTER:                  -8.928
REMARK INTRA:                  -0.954
REMARK UNBOUND:                -0.737
REMARK SMILES COc1cc(CNC(=O)CCCCC=CC(C)C)ccc1O
REMARK SMILES IDX 11 1 12 2 13 3 14 4 15 5 16 6 17 7 18 8 10 9 8 10 9 11 7 12
REMARK SMILES IDX 6 14 5 15 4 16 19 17 3 18 20 19 21 20 2 21 1 22 22 23
REMARK H PARENT 7 13 22 24
REMARK Flexibility Score: inf
ROOT
ATOM      1  C   UNL     1      -2.446  27.791 -14.460  1.00  0.00     0.010 C 
ENDROOT
BRANCH   1   2
ATOM      2  C   UNL     1      -3.274  27.441 -15.710  1.00  0.00     0.005 C 
BRANCH   2   3
ATOM      3  C   UNL     1      -2.394  26.990 -16.881  1.00  0.00     0.027 C 
BRANCH   3   4
ATOM      4  C   UNL     1      -2.124  25.510 -16.831  1.00  0.00    -0.031 C 
ATOM      5  C   UNL     1      -1.037  25.011 -16.222  1.00  0.00    -0.028 C 
BRANCH   5   6
ATOM      6  C   UNL     1      -0.754  23.527 -16.215  1.00  0.00     0.005 C 
ATOM      7  C   UNL     1       0.756  23.270 -16.237  1.00  0.00     0.012 C 
ATOM      8  C   UNL     1      -1.429  22.845 -17.411  1.00  0.00     0.012 C 
ENDBRANCH   5   6
ENDBRANCH   3   4
ENDBRANCH   2   3
ENDBRANCH   1   2
BRANCH   1   9
ATOM      9  C   UNL     1      -1.296  28.756 -14.778  1.00  0.00     0.100 C 
BRANCH   9  10
ATOM     10  C   UNL     1      -1.802  30.115 -15.171  1.00  0.00     0.220 C 
ATOM     11  O   UNL     1      -2.295  30.870 -14.290  1.00  0.00    -0.275 OA
ATOM     12  N   UNL     1      -1.760  30.530 -16.545  1.00  0.00    -0.352 N 
ATOM     13  H   UNL     1      -1.349  29.883 -17.256  1.00  0.00     0.163 HD
BRANCH  12  14
ATOM     14  C   UNL     1      -2.114  31.880 -16.972  1.00  0.00     0.151 C 
BRANCH  14  15
ATOM     15  C   UNL     1      -3.491  31.878 -17.578  1.00  0.00    -0.025 A 
ATOM     16  C   UNL     1      -4.002  33.041 -18.173  1.00  0.00     0.056 A 
ATOM     17  C   UNL     1      -4.297  30.733 -17.495  1.00  0.00     0.009 A 
ATOM     18  C   UNL     1      -5.305  33.059 -18.711  1.00  0.00     0.160 A 
ATOM     19  C   UNL     1      -5.590  30.744 -18.022  1.00  0.00     0.050 A 
ATOM     20  C   UNL     1      -6.097  31.897 -18.630  1.00  0.00     0.157 A 
BRANCH  18  21
ATOM     21  O   UNL     1      -5.841  34.203 -19.327  1.00  0.00    -0.493 OA
ATOM     22  C   UNL     1      -5.065  35.276 -19.851  1.00  0.00     0.278 C 
ENDBRANCH  18  21
BRANCH  20  23
ATOM     23  O   UNL     1      -7.392  31.871 -19.148  1.00  0.00    -0.504 OA
ATOM     24  H   UNL     1      -8.023  32.658 -19.064  1.00  0.00     0.293 HD
ENDBRANCH  20  23
ENDBRANCH  14  15
ENDBRANCH  12  14
ENDBRANCH   9  10
ENDBRANCH   1   9
TORSDOF 10
ENDMDL
MODEL 9
REMARK VINA RESULT:    -5.837      3.041      5.173
REMARK INTER + INTRA:          -9.816
REMARK INTER:                  -8.822
REMARK INTRA:                  -0.995
REMARK UNBOUND:                -0.737
REMARK SMILES COc1cc(CNC(=O)CCCCC=CC(C)C)ccc1O
REMARK SMILES IDX 11 1 12 2 13 3 14 4 15 5 16 6 17 7 18 8 10 9 8 10 9 11 7 12
REMARK SMILES IDX 6 14 5 15 4 16 19 17 3 18 20 19 21 20 2 21 1 22 22 23
REMARK H PARENT 7 13 22 24
REMARK Flexibility Score: inf
ROOT
ATOM      1  C   UNL     1      -1.341  22.663 -17.895  1.00  0.00     0.010 C 
ENDROOT
BRANCH   1   2
ATOM      2  C   UNL     1      -0.142  23.314 -17.180  1.00  0.00     0.005 C 
BRANCH   2   3
ATOM      3  C   UNL     1       0.742  22.280 -16.474  1.00  0.00     0.027 C 
BRANCH   3   4
ATOM      4  C   UNL     1       1.286  21.265 -17.444  1.00  0.00    -0.031 C 
ATOM      5  C   UNL     1       2.455  20.642 -17.233  1.00  0.00    -0.028 C 
BRANCH   5   6
ATOM      6  C   UNL     1       3.012  19.658 -18.234  1.00  0.00     0.005 C 
ATOM      7  C   UNL     1       2.560  20.021 -19.651  1.00  0.00     0.012 C 
ATOM      8  C   UNL     1       2.575  18.230 -17.885  1.00  0.00     0.012 C 
ENDBRANCH   5   6
ENDBRANCH   3   4
ENDBRANCH   2   3
ENDBRANCH   1   2
BRANCH   1   9
ATOM      9  C   UNL     1      -2.440  22.234 -16.914  1.00  0.00     0.100 C 
BRANCH   9  10
ATOM     10  C   UNL     1      -2.839  23.357 -16.000  1.00  0.00     0.220 C 
ATOM     11  O   UNL     1      -2.713  23.213 -14.753  1.00  0.00    -0.275 OA
ATOM     12  N   UNL     1      -3.395  24.564 -16.541  1.00  0.00    -0.352 N 
ATOM     13  H   UNL     1      -3.491  24.656 -17.578  1.00  0.00     0.163 HD
BRANCH  12  14
ATOM     14  C   UNL     1      -3.681  25.738 -15.720  1.00  0.00     0.151 C 
BRANCH  14  15
ATOM     15  C   UNL     1      -2.862  26.905 -16.198  1.00  0.00    -0.025 A 
ATOM     16  C   UNL     1      -3.354  28.213 -16.069  1.00  0.00     0.056 A 
ATOM     17  C   UNL     1      -1.631  26.690 -16.835  1.00  0.00     0.009 A 
ATOM     18  C   UNL     1      -2.610  29.310 -16.547  1.00  0.00     0.160 A 
ATOM     19  C   UNL     1      -0.890  27.772 -17.315  1.00  0.00     0.050 A 
ATOM     20  C   UNL     1      -1.370  29.078 -17.173  1.00  0.00     0.157 A 
BRANCH  18  21
ATOM     21  O   UNL     1      -3.068  30.633 -16.419  1.00  0.00    -0.493 OA
ATOM     22  C   UNL     1      -2.858  31.453 -15.274  1.00  0.00     0.278 C 
ENDBRANCH  18  21
BRANCH  20  23
ATOM     23  O   UNL     1      -0.602  30.134 -17.663  1.00  0.00    -0.504 OA
ATOM     24  H   UNL     1      -0.924  31.094 -17.638  1.00  0.00     0.293 HD
ENDBRANCH  20  23
ENDBRANCH  14  15
ENDBRANCH  12  14
ENDBRANCH   9  10
ENDBRANCH   1   9
TORSDOF 10
ENDMDL
