MODEL 1
REMARK VINA RESULT:    -4.730      0.000      0.000
REMARK INTER + INTRA:          -7.296
REMARK INTER:                  -6.942
REMARK INTRA:                  -0.354
REMARK UNBOUND:                -0.354
REMARK SMILES O=C([O-])CCCCCCCC(=O)[O-]
REMARK SMILES IDX 7 1 6 2 5 3 4 4 2 5 1 6 3 7 8 8 9 9 10 10 11 11 12 12 13 13
REMARK H PARENT
REMARK Flexibility Score: inf
ROOT
ATOM      1  C   UNL     1       1.999  43.620  10.895  1.00  0.00     0.000 C 
ENDROOT
BRANCH   1   2
ATOM      2  C   UNL     1       2.675  43.055   9.637  1.00  0.00     0.000 C 
BRANCH   2   3
ATOM      3  C   UNL     1       4.036  43.721   9.399  1.00  0.00     0.006 C 
BRANCH   3   4
ATOM      4  C   UNL     1       4.195  44.975  10.264  1.00  0.00     0.053 C 
BRANCH   4   5
ATOM      5  C   UNL     1       4.361  46.187   9.404  1.00  0.00     0.041 C 
ATOM      6  O   UNL     1       3.378  46.651   8.768  1.00  0.00    -0.550 OA
ATOM      7  O   UNL     1       5.611  46.776   9.266  1.00  0.00    -0.550 OA
ENDBRANCH   4   5
ENDBRANCH   3   4
ENDBRANCH   2   3
ENDBRANCH   1   2
BRANCH   1   8
ATOM      8  C   UNL     1       2.165  42.706  12.120  1.00  0.00     0.000 C 
BRANCH   8   9
ATOM      9  C   UNL     1       2.819  41.362  11.769  1.00  0.00     0.006 C 
BRANCH   9  10
ATOM     10  C   UNL     1       2.385  40.269  12.751  1.00  0.00     0.053 C 
BRANCH  10  11
ATOM     11  C   UNL     1       3.362  39.136  12.742  1.00  0.00     0.041 C 
ATOM     12  O   UNL     1       3.003  37.992  12.359  1.00  0.00    -0.550 OA
ATOM     13  O   UNL     1       4.684  39.356  13.110  1.00  0.00    -0.550 OA
ENDBRANCH  10  11
ENDBRANCH   9  10
ENDBRANCH   8   9
ENDBRANCH   1   8
TORSDOF 8
ENDMDL
MODEL 2
REMARK VINA RESULT:    -4.703      1.144      6.639
REMARK INTER + INTRA:          -7.257
REMARK INTER:                  -6.828
REMARK INTRA:                  -0.430
REMARK UNBOUND:                -0.354
REMARK SMILES O=C([O-])CCCCCCCC(=O)[O-]
REMARK SMILES IDX 7 1 6 2 5 3 4 4 2 5 1 6 3 7 8 8 9 9 10 10 11 11 12 12 13 13
REMARK H PARENT
REMARK Flexibility Score: inf
ROOT
ATOM      1  C   UNL     1       2.692  43.037  10.076  1.00  0.00     0.000 C 
ENDROOT
BRANCH   1   2
ATOM      2  C   UNL     1       2.534  42.824  11.588  1.00  0.00     0.000 C 
BRANCH   2   3
ATOM      3  C   UNL     1       2.688  41.342  11.954  1.00  0.00     0.006 C 
BRANCH   3   4
ATOM      4  C   UNL     1       4.135  41.016  12.332  1.00  0.00     0.053 C 
BRANCH   4   5
ATOM      5  C   UNL     1       4.225  39.647  12.929  1.00  0.00     0.041 C 
ATOM      6  O   UNL     1       5.172  39.356  13.707  1.00  0.00    -0.550 OA
ATOM      7  O   UNL     1       3.291  38.677  12.588  1.00  0.00    -0.550 OA
ENDBRANCH   4   5
ENDBRANCH   3   4
ENDBRANCH   2   3
ENDBRANCH   1   2
BRANCH   1   8
ATOM      8  C   UNL     1       4.029  43.697   9.705  1.00  0.00     0.000 C 
BRANCH   8   9
ATOM      9  C   UNL     1       4.420  44.824  10.673  1.00  0.00     0.006 C 
BRANCH   9  10
ATOM     10  C   UNL     1       4.698  46.125   9.913  1.00  0.00     0.053 C 
BRANCH  10  11
ATOM     11  C   UNL     1       3.606  47.118  10.156  1.00  0.00     0.041 C 
ATOM     12  O   UNL     1       2.434  46.881   9.758  1.00  0.00    -0.550 OA
ATOM     13  O   UNL     1       3.870  48.283  10.866  1.00  0.00    -0.550 OA
ENDBRANCH  10  11
ENDBRANCH   9  10
ENDBRANCH   8   9
ENDBRANCH   1   8
TORSDOF 8
ENDMDL
MODEL 3
REMARK VINA RESULT:    -4.608      1.880      2.883
REMARK INTER + INTRA:          -7.117
REMARK INTER:                  -6.734
REMARK INTRA:                  -0.382
REMARK UNBOUND:                -0.354
REMARK SMILES O=C([O-])CCCCCCCC(=O)[O-]
REMARK SMILES IDX 7 1 6 2 5 3 4 4 2 5 1 6 3 7 8 8 9 9 10 10 11 11 12 12 13 13
REMARK H PARENT
REMARK Flexibility Score: inf
ROOT
ATOM      1  C   UNL     1       4.220  45.036   9.387  1.00  0.00     0.000 C 
ENDROOT
BRANCH   1   2
ATOM      2  C   UNL     1       3.817  46.005  10.508  1.00  0.00     0.000 C 
BRANCH   2   3
ATOM      3  C   UNL     1       4.584  47.328  10.394  1.00  0.00     0.006 C 
BRANCH   3   4
ATOM      4  C   UNL     1       5.146  47.519   8.982  1.00  0.00     0.053 C 
BRANCH   4   5
ATOM      5  C   UNL     1       6.485  48.184   9.037  1.00  0.00     0.041 C 
ATOM      6  O   UNL     1       6.634  49.346   8.576  1.00  0.00    -0.550 OA
ATOM      7  O   UNL     1       7.580  47.501   9.552  1.00  0.00    -0.550 OA
ENDBRANCH   4   5
ENDBRANCH   3   4
ENDBRANCH   2   3
ENDBRANCH   1   2
BRANCH   1   8
ATOM      8  C   UNL     1       4.173  43.565   9.828  1.00  0.00     0.000 C 
BRANCH   8   9
ATOM      9  C   UNL     1       3.586  43.388  11.236  1.00  0.00     0.006 C 
BRANCH   9  10
ATOM     10  C   UNL     1       2.633  42.189  11.285  1.00  0.00     0.053 C 
BRANCH  10  11
ATOM     11  C   UNL     1       3.201  41.104  12.145  1.00  0.00     0.041 C 
ATOM     12  O   UNL     1       2.461  40.176  12.566  1.00  0.00    -0.550 OA
ATOM     13  O   UNL     1       4.558  41.089  12.440  1.00  0.00    -0.550 OA
ENDBRANCH  10  11
ENDBRANCH   9  10
ENDBRANCH   8   9
ENDBRANCH   1   8
TORSDOF 8
ENDMDL
MODEL 4
REMARK VINA RESULT:    -4.602      2.384      3.572
REMARK INTER + INTRA:          -7.109
REMARK INTER:                  -6.685
REMARK INTRA:                  -0.424
REMARK UNBOUND:                -0.354
REMARK SMILES O=C([O-])CCCCCCCC(=O)[O-]
REMARK SMILES IDX 7 1 6 2 5 3 4 4 2 5 1 6 3 7 8 8 9 9 10 10 11 11 12 12 13 13
REMARK H PARENT
REMARK Flexibility Score: inf
ROOT
ATOM      1  C   UNL     1       4.322  45.076  10.810  1.00  0.00     0.000 C 
ENDROOT
BRANCH   1   2
ATOM      2  C   UNL     1       4.487  46.572  10.506  1.00  0.00     0.000 C 
BRANCH   2   3
ATOM      3  C   UNL     1       5.180  46.785   9.155  1.00  0.00     0.006 C 
BRANCH   3   4
ATOM      4  C   UNL     1       6.427  47.662   9.308  1.00  0.00     0.053 C 
BRANCH   4   5
ATOM      5  C   UNL     1       6.052  49.110   9.315  1.00  0.00     0.041 C 
ATOM      6  O   UNL     1       5.593  49.650   8.274  1.00  0.00    -0.550 OA
ATOM      7  O   UNL     1       6.255  49.875  10.456  1.00  0.00    -0.550 OA
ENDBRANCH   4   5
ENDBRANCH   3   4
ENDBRANCH   2   3
ENDBRANCH   1   2
BRANCH   1   8
ATOM      8  C   UNL     1       4.111  44.232   9.542  1.00  0.00     0.000 C 
BRANCH   8   9
ATOM      9  C   UNL     1       2.981  43.204   9.698  1.00  0.00     0.006 C 
BRANCH   9  10
ATOM     10  C   UNL     1       2.066  43.570  10.871  1.00  0.00     0.053 C 
BRANCH  10  11
ATOM     11  C   UNL     1       1.964  42.429  11.833  1.00  0.00     0.041 C 
ATOM     12  O   UNL     1       1.020  42.383  12.665  1.00  0.00    -0.550 OA
ATOM     13  O   UNL     1       2.885  41.390  11.778  1.00  0.00    -0.550 OA
ENDBRANCH  10  11
ENDBRANCH   9  10
ENDBRANCH   8   9
ENDBRANCH   1   8
TORSDOF 8
ENDMDL
MODEL 5
REMARK VINA RESULT:    -4.583      1.233      6.591
REMARK INTER + INTRA:          -7.081
REMARK INTER:                  -6.694
REMARK INTRA:                  -0.387
REMARK UNBOUND:                -0.354
REMARK SMILES O=C([O-])CCCCCCCC(=O)[O-]
REMARK SMILES IDX 7 1 6 2 5 3 4 4 2 5 1 6 3 7 8 8 9 9 10 10 11 11 12 12 13 13
REMARK H PARENT
REMARK Flexibility Score: inf
ROOT
ATOM      1  C   UNL     1       1.954  43.844  10.056  1.00  0.00     0.000 C 
ENDROOT
BRANCH   1   2
ATOM      2  C   UNL     1       1.219  43.825  11.404  1.00  0.00     0.000 C 
BRANCH   2   3
ATOM      3  C   UNL     1       1.668  42.632  12.257  1.00  0.00     0.006 C 
BRANCH   3   4
ATOM      4  C   UNL     1       2.703  41.782  11.515  1.00  0.00     0.053 C 
BRANCH   4   5
ATOM      5  C   UNL     1       3.121  40.615  12.352  1.00  0.00     0.041 C 
ATOM      6  O   UNL     1       2.256  39.824  12.812  1.00  0.00    -0.550 OA
ATOM      7  O   UNL     1       4.461  40.428  12.666  1.00  0.00    -0.550 OA
ENDBRANCH   4   5
ENDBRANCH   3   4
ENDBRANCH   2   3
ENDBRANCH   1   2
BRANCH   1   8
ATOM      8  C   UNL     1       2.587  45.209   9.744  1.00  0.00     0.000 C 
BRANCH   8   9
ATOM      9  C   UNL     1       4.097  45.114   9.480  1.00  0.00     0.006 C 
BRANCH   9  10
ATOM     10  C   UNL     1       4.848  46.251  10.180  1.00  0.00     0.053 C 
BRANCH  10  11
ATOM     11  C   UNL     1       5.440  47.186   9.174  1.00  0.00     0.041 C 
ATOM     12  O   UNL     1       6.685  47.373   9.137  1.00  0.00    -0.550 OA
ATOM     13  O   UNL     1       4.622  47.815   8.244  1.00  0.00    -0.550 OA
ENDBRANCH  10  11
ENDBRANCH   9  10
ENDBRANCH   8   9
ENDBRANCH   1   8
TORSDOF 8
ENDMDL
MODEL 6
REMARK VINA RESULT:    -4.552      2.670      7.393
REMARK INTER + INTRA:          -7.035
REMARK INTER:                  -6.633
REMARK INTRA:                  -0.402
REMARK UNBOUND:                -0.354
REMARK SMILES O=C([O-])CCCCCCCC(=O)[O-]
REMARK SMILES IDX 7 1 6 2 5 3 4 4 2 5 1 6 3 7 8 8 9 9 10 10 11 11 12 12 13 13
REMARK H PARENT
REMARK Flexibility Score: inf
ROOT
ATOM      1  C   UNL     1       3.526  46.121  10.465  1.00  0.00     0.000 C 
ENDROOT
BRANCH   1   2
ATOM      2  C   UNL     1       4.061  44.872  11.179  1.00  0.00     0.000 C 
BRANCH   2   3
ATOM      3  C   UNL     1       4.141  43.680  10.217  1.00  0.00     0.006 C 
BRANCH   3   4
ATOM      4  C   UNL     1       2.764  43.040  10.017  1.00  0.00     0.053 C 
BRANCH   4   5
ATOM      5  C   UNL     1       2.293  42.404  11.287  1.00  0.00     0.041 C 
ATOM      6  O   UNL     1       2.797  41.318  11.677  1.00  0.00    -0.550 OA
ATOM      7  O   UNL     1       1.262  42.986  12.014  1.00  0.00    -0.550 OA
ENDBRANCH   4   5
ENDBRANCH   3   4
ENDBRANCH   2   3
ENDBRANCH   1   2
BRANCH   1   8
ATOM      8  C   UNL     1       4.562  47.255  10.397  1.00  0.00     0.000 C 
BRANCH   8   9
ATOM      9  C   UNL     1       5.563  47.073   9.247  1.00  0.00     0.006 C 
BRANCH   9  10
ATOM     10  C   UNL     1       6.732  48.056   9.378  1.00  0.00     0.053 C 
BRANCH  10  11
ATOM     11  C   UNL     1       6.235  49.467   9.362  1.00  0.00     0.041 C 
ATOM     12  O   UNL     1       5.638  49.917   8.349  1.00  0.00    -0.550 OA
ATOM     13  O   UNL     1       6.387  50.270  10.486  1.00  0.00    -0.550 OA
ENDBRANCH  10  11
ENDBRANCH   9  10
ENDBRANCH   8   9
ENDBRANCH   1   8
TORSDOF 8
ENDMDL
MODEL 7
REMARK VINA RESULT:    -4.521      3.574      6.406
REMARK INTER + INTRA:          -6.989
REMARK INTER:                  -6.354
REMARK INTRA:                  -0.636
REMARK UNBOUND:                -0.354
REMARK SMILES O=C([O-])CCCCCCCC(=O)[O-]
REMARK SMILES IDX 7 1 6 2 5 3 4 4 2 5 1 6 3 7 8 8 9 9 10 10 11 11 12 12 13 13
REMARK H PARENT
REMARK Flexibility Score: inf
ROOT
ATOM      1  C   UNL     1       4.156  44.753  11.359  1.00  0.00     0.000 C 
ENDROOT
BRANCH   1   2
ATOM      2  C   UNL     1       4.130  43.619  10.324  1.00  0.00     0.000 C 
BRANCH   2   3
ATOM      3  C   UNL     1       2.770  42.912  10.319  1.00  0.00     0.006 C 
BRANCH   3   4
ATOM      4  C   UNL     1       2.005  43.197   9.023  1.00  0.00     0.053 C 
BRANCH   4   5
ATOM      5  C   UNL     1       0.977  44.260   9.244  1.00  0.00     0.041 C 
ATOM      6  O   UNL     1       0.403  44.801   8.262  1.00  0.00    -0.550 OA
ATOM      7  O   UNL     1       0.687  44.690  10.533  1.00  0.00    -0.550 OA
ENDBRANCH   4   5
ENDBRANCH   3   4
ENDBRANCH   2   3
ENDBRANCH   1   2
BRANCH   1   8
ATOM      8  C   UNL     1       4.138  46.147  10.713  1.00  0.00     0.000 C 
BRANCH   8   9
ATOM      9  C   UNL     1       4.669  46.138   9.272  1.00  0.00     0.006 C 
BRANCH   9  10
ATOM     10  C   UNL     1       4.940  47.563   8.779  1.00  0.00     0.053 C 
BRANCH  10  11
ATOM     11  C   UNL     1       6.191  48.103   9.398  1.00  0.00     0.041 C 
ATOM     12  O   UNL     1       7.240  47.406   9.416  1.00  0.00    -0.550 OA
ATOM     13  O   UNL     1       6.212  49.394   9.910  1.00  0.00    -0.550 OA
ENDBRANCH  10  11
ENDBRANCH   9  10
ENDBRANCH   8   9
ENDBRANCH   1   8
TORSDOF 8
ENDMDL
MODEL 8
REMARK VINA RESULT:    -4.427      2.562      7.427
REMARK INTER + INTRA:          -6.851
REMARK INTER:                  -6.472
REMARK INTRA:                  -0.379
REMARK UNBOUND:                -0.354
REMARK SMILES O=C([O-])CCCCCCCC(=O)[O-]
REMARK SMILES IDX 7 1 6 2 5 3 4 4 2 5 1 6 3 7 8 8 9 9 10 10 11 11 12 12 13 13
REMARK H PARENT
REMARK Flexibility Score: inf
ROOT
ATOM      1  C   UNL     1       4.488  45.916   9.491  1.00  0.00     0.000 C 
ENDROOT
BRANCH   1   2
ATOM      2  C   UNL     1       3.776  45.878  10.851  1.00  0.00     0.000 C 
BRANCH   2   3
ATOM      3  C   UNL     1       4.065  44.563  11.585  1.00  0.00     0.006 C 
BRANCH   3   4
ATOM      4  C   UNL     1       2.765  43.843  11.956  1.00  0.00     0.053 C 
BRANCH   4   5
ATOM      5  C   UNL     1       2.630  42.572  11.179  1.00  0.00     0.041 C 
ATOM      6  O   UNL     1       2.747  41.460  11.759  1.00  0.00    -0.550 OA
ATOM      7  O   UNL     1       2.424  42.615   9.806  1.00  0.00    -0.550 OA
ENDBRANCH   4   5
ENDBRANCH   3   4
ENDBRANCH   2   3
ENDBRANCH   1   2
BRANCH   1   8
ATOM      8  C   UNL     1       5.571  47.004   9.417  1.00  0.00     0.000 C 
BRANCH   8   9
ATOM      9  C   UNL     1       5.111  48.244   8.637  1.00  0.00     0.006 C 
BRANCH   9  10
ATOM     10  C   UNL     1       3.887  47.924   7.772  1.00  0.00     0.053 C 
BRANCH  10  11
ATOM     11  C   UNL     1       2.879  49.026   7.862  1.00  0.00     0.041 C 
ATOM     12  O   UNL     1       2.907  49.979   7.039  1.00  0.00    -0.550 OA
ATOM     13  O   UNL     1       1.878  48.976   8.824  1.00  0.00    -0.550 OA
ENDBRANCH  10  11
ENDBRANCH   9  10
ENDBRANCH   8   9
ENDBRANCH   1   8
TORSDOF 8
ENDMDL
MODEL 9
REMARK VINA RESULT:    -4.424      2.278      3.684
REMARK INTER + INTRA:          -6.848
REMARK INTER:                  -6.398
REMARK INTRA:                  -0.449
REMARK UNBOUND:                -0.354
REMARK SMILES O=C([O-])CCCCCCCC(=O)[O-]
REMARK SMILES IDX 7 1 6 2 5 3 4 4 2 5 1 6 3 7 8 8 9 9 10 10 11 11 12 12 13 13
REMARK H PARENT
REMARK Flexibility Score: inf
ROOT
ATOM      1  C   UNL     1       4.087  46.188  10.639  1.00  0.00     0.000 C 
ENDROOT
BRANCH   1   2
ATOM      2  C   UNL     1       4.482  46.225   9.155  1.00  0.00     0.000 C 
BRANCH   2   3
ATOM      3  C   UNL     1       4.709  47.667   8.683  1.00  0.00     0.006 C 
BRANCH   3   4
ATOM      4  C   UNL     1       3.747  48.033   7.549  1.00  0.00     0.053 C 
BRANCH   4   5
ATOM      5  C   UNL     1       2.338  48.074   8.048  1.00  0.00     0.041 C 
ATOM      6  O   UNL     1       2.030  48.821   9.014  1.00  0.00    -0.550 OA
ATOM      7  O   UNL     1       1.374  47.250   7.480  1.00  0.00    -0.550 OA
ENDBRANCH   4   5
ENDBRANCH   3   4
ENDBRANCH   2   3
ENDBRANCH   1   2
BRANCH   1   8
ATOM      8  C   UNL     1       4.078  44.763  11.214  1.00  0.00     0.000 C 
BRANCH   8   9
ATOM      9  C   UNL     1       4.020  43.685  10.122  1.00  0.00     0.006 C 
BRANCH   9  10
ATOM     10  C   UNL     1       2.661  42.976  10.125  1.00  0.00     0.053 C 
BRANCH  10  11
ATOM     11  C   UNL     1       2.420  42.310  11.442  1.00  0.00     0.041 C 
ATOM     12  O   UNL     1       3.270  41.510  11.914  1.00  0.00    -0.550 OA
ATOM     13  O   UNL     1       1.278  42.611  12.174  1.00  0.00    -0.550 OA
ENDBRANCH  10  11
ENDBRANCH   9  10
ENDBRANCH   8   9
ENDBRANCH   1   8
TORSDOF 8
ENDMDL
