MODEL 1
REMARK VINA RESULT:    -4.910      0.000      0.000
REMARK INTER + INTRA:         -10.756
REMARK INTER:                  -8.928
REMARK INTRA:                  -1.828
REMARK UNBOUND:                -1.828
REMARK SMILES CCCCCCCCCCCCCCCC(=O)[O-]
REMARK SMILES IDX 9 1 10 2 11 3 12 4 13 5 14 6 15 7 16 8 17 9 18 10 8 11 7 12
REMARK SMILES IDX 6 13 5 14 4 15 3 16 2 17 1 18
REMARK H PARENT
REMARK Flexibility Score: inf
ROOT
ATOM      1  C   UNL     1       5.720   1.671  12.886  1.00  0.00     0.000 C 
ENDROOT
BRANCH   1   2
ATOM      2  C   UNL     1       6.162   0.198  12.876  1.00  0.00     0.000 C 
BRANCH   2   3
ATOM      3  C   UNL     1       6.577  -0.312  14.269  1.00  0.00     0.000 C 
BRANCH   3   4
ATOM      4  C   UNL     1       6.012  -1.691  14.665  1.00  0.00     0.000 C 
BRANCH   4   5
ATOM      5  C   UNL     1       4.510  -1.887  14.389  1.00  0.00     0.000 C 
BRANCH   5   6
ATOM      6  C   UNL     1       3.619  -1.290  15.490  1.00  0.00     0.006 C 
BRANCH   6   7
ATOM      7  C   UNL     1       2.152  -1.664  15.266  1.00  0.00     0.053 C 
BRANCH   7   8
ATOM      8  C   UNL     1       1.325  -0.435  15.050  1.00  0.00     0.041 C 
ATOM      9  O   UNL     1       0.531  -0.369  14.075  1.00  0.00    -0.550 OA
ATOM     10  O   UNL     1       1.396   0.618  15.953  1.00  0.00    -0.550 OA
ENDBRANCH   7   8
ENDBRANCH   6   7
ENDBRANCH   5   6
ENDBRANCH   4   5
ENDBRANCH   3   4
ENDBRANCH   2   3
ENDBRANCH   1   2
BRANCH   1  11
ATOM     11  C   UNL     1       4.363   1.888  13.581  1.00  0.00     0.000 C 
BRANCH  11  12
ATOM     12  C   UNL     1       4.038   3.346  13.955  1.00  0.00    -0.000 C 
BRANCH  12  13
ATOM     13  C   UNL     1       4.228   3.637  15.453  1.00  0.00    -0.000 C 
BRANCH  13  14
ATOM     14  C   UNL     1       4.834   2.446  16.213  1.00  0.00    -0.000 C 
BRANCH  14  15
ATOM     15  C   UNL     1       3.902   1.902  17.310  1.00  0.00    -0.000 C 
BRANCH  15  16
ATOM     16  C   UNL     1       4.663   1.142  18.408  1.00  0.00    -0.000 C 
BRANCH  16  17
ATOM     17  C   UNL     1       5.692   0.156  17.837  1.00  0.00    -0.003 C 
ATOM     18  C   UNL     1       5.755  -1.119  18.675  1.00  0.00     0.004 C 
ENDBRANCH  16  17
ENDBRANCH  15  16
ENDBRANCH  14  15
ENDBRANCH  13  14
ENDBRANCH  12  13
ENDBRANCH  11  12
ENDBRANCH   1  11
TORSDOF 14
ENDMDL
MODEL 2
REMARK VINA RESULT:    -4.902      1.975      4.792
REMARK INTER + INTRA:         -10.742
REMARK INTER:                  -8.666
REMARK INTRA:                  -2.076
REMARK UNBOUND:                -1.828
REMARK SMILES CCCCCCCCCCCCCCCC(=O)[O-]
REMARK SMILES IDX 9 1 10 2 11 3 12 4 13 5 14 6 15 7 16 8 17 9 18 10 8 11 7 12
REMARK SMILES IDX 6 13 5 14 4 15 3 16 2 17 1 18
REMARK H PARENT
REMARK Flexibility Score: inf
ROOT
ATOM      1  C   UNL     1       4.594   1.992  13.210  1.00  0.00     0.000 C 
ENDROOT
BRANCH   1   2
ATOM      2  C   UNL     1       4.541   3.468  13.641  1.00  0.00     0.000 C 
BRANCH   2   3
ATOM      3  C   UNL     1       4.288   3.642  15.150  1.00  0.00     0.000 C 
BRANCH   3   4
ATOM      4  C   UNL     1       4.748   2.469  16.038  1.00  0.00     0.000 C 
BRANCH   4   5
ATOM      5  C   UNL     1       3.706   1.972  17.058  1.00  0.00     0.000 C 
BRANCH   5   6
ATOM      6  C   UNL     1       4.344   1.277  18.271  1.00  0.00     0.006 C 
BRANCH   6   7
ATOM      7  C   UNL     1       5.571   0.464  17.851  1.00  0.00     0.053 C 
BRANCH   7   8
ATOM      8  C   UNL     1       5.604  -0.847  18.575  1.00  0.00     0.041 C 
ATOM      9  O   UNL     1       6.597  -1.155  19.284  1.00  0.00    -0.550 OA
ATOM     10  O   UNL     1       4.515  -1.707  18.504  1.00  0.00    -0.550 OA
ENDBRANCH   7   8
ENDBRANCH   6   7
ENDBRANCH   5   6
ENDBRANCH   4   5
ENDBRANCH   3   4
ENDBRANCH   2   3
ENDBRANCH   1   2
BRANCH   1  11
ATOM     11  C   UNL     1       6.032   1.471  13.028  1.00  0.00     0.000 C 
BRANCH  11  12
ATOM     12  C   UNL     1       6.341   0.131  13.723  1.00  0.00    -0.000 C 
BRANCH  12  13
ATOM     13  C   UNL     1       5.944  -1.090  12.875  1.00  0.00    -0.000 C 
BRANCH  13  14
ATOM     14  C   UNL     1       4.815  -1.912  13.518  1.00  0.00    -0.000 C 
BRANCH  14  15
ATOM     15  C   UNL     1       4.430  -1.402  14.918  1.00  0.00    -0.000 C 
BRANCH  15  16
ATOM     16  C   UNL     1       2.911  -1.417  15.154  1.00  0.00    -0.000 C 
BRANCH  16  17
ATOM     17  C   UNL     1       2.176  -0.344  14.338  1.00  0.00    -0.003 C 
ATOM     18  C   UNL     1       0.853   0.036  14.996  1.00  0.00     0.004 C 
ENDBRANCH  16  17
ENDBRANCH  15  16
ENDBRANCH  14  15
ENDBRANCH  13  14
ENDBRANCH  12  13
ENDBRANCH  11  12
ENDBRANCH   1  11
TORSDOF 14
ENDMDL
MODEL 3
REMARK VINA RESULT:    -4.809      2.124      3.655
REMARK INTER + INTRA:         -10.572
REMARK INTER:                  -8.462
REMARK INTRA:                  -2.110
REMARK UNBOUND:                -1.828
REMARK SMILES CCCCCCCCCCCCCCCC(=O)[O-]
REMARK SMILES IDX 9 1 10 2 11 3 12 4 13 5 14 6 15 7 16 8 17 9 18 10 8 11 7 12
REMARK SMILES IDX 6 13 5 14 4 15 3 16 2 17 1 18
REMARK H PARENT
REMARK Flexibility Score: inf
ROOT
ATOM      1  C   UNL     1       5.539   2.484  12.889  1.00  0.00     0.000 C 
ENDROOT
BRANCH   1   2
ATOM      2  C   UNL     1       5.066   1.022  12.966  1.00  0.00     0.000 C 
BRANCH   2   3
ATOM      3  C   UNL     1       5.992   0.137  13.823  1.00  0.00     0.000 C 
BRANCH   3   4
ATOM      4  C   UNL     1       5.602  -1.352  13.896  1.00  0.00     0.000 C 
BRANCH   4   5
ATOM      5  C   UNL     1       5.867  -2.033  15.251  1.00  0.00     0.000 C 
BRANCH   5   6
ATOM      6  C   UNL     1       5.991  -1.030  16.408  1.00  0.00     0.006 C 
BRANCH   6   7
ATOM      7  C   UNL     1       5.862  -1.737  17.759  1.00  0.00     0.053 C 
BRANCH   7   8
ATOM      8  C   UNL     1       5.739  -0.736  18.865  1.00  0.00     0.041 C 
ATOM      9  O   UNL     1       6.577  -0.724  19.805  1.00  0.00    -0.550 OA
ATOM     10  O   UNL     1       4.727   0.216  18.833  1.00  0.00    -0.550 OA
ENDBRANCH   7   8
ENDBRANCH   6   7
ENDBRANCH   5   6
ENDBRANCH   4   5
ENDBRANCH   3   4
ENDBRANCH   2   3
ENDBRANCH   1   2
BRANCH   1  11
ATOM     11  C   UNL     1       4.376   3.492  12.875  1.00  0.00     0.000 C 
BRANCH  11  12
ATOM     12  C   UNL     1       3.572   3.592  14.186  1.00  0.00    -0.000 C 
BRANCH  12  13
ATOM     13  C   UNL     1       4.459   3.512  15.440  1.00  0.00    -0.000 C 
BRANCH  13  14
ATOM     14  C   UNL     1       4.118   2.303  16.328  1.00  0.00    -0.000 C 
BRANCH  14  15
ATOM     15  C   UNL     1       2.767   1.662  15.966  1.00  0.00    -0.000 C 
BRANCH  15  16
ATOM     16  C   UNL     1       2.847   0.130  15.875  1.00  0.00    -0.000 C 
BRANCH  16  17
ATOM     17  C   UNL     1       2.110  -0.429  14.650  1.00  0.00    -0.003 C 
ATOM     18  C   UNL     1       0.604  -0.209  14.768  1.00  0.00     0.004 C 
ENDBRANCH  16  17
ENDBRANCH  15  16
ENDBRANCH  14  15
ENDBRANCH  13  14
ENDBRANCH  12  13
ENDBRANCH  11  12
ENDBRANCH   1  11
TORSDOF 14
ENDMDL
MODEL 4
REMARK VINA RESULT:    -4.568      0.979      2.143
REMARK INTER + INTRA:         -10.135
REMARK INTER:                  -8.283
REMARK INTRA:                  -1.852
REMARK UNBOUND:                -1.828
REMARK SMILES CCCCCCCCCCCCCCCC(=O)[O-]
REMARK SMILES IDX 9 1 10 2 11 3 12 4 13 5 14 6 15 7 16 8 17 9 18 10 8 11 7 12
REMARK SMILES IDX 6 13 5 14 4 15 3 16 2 17 1 18
REMARK H PARENT
REMARK Flexibility Score: inf
ROOT
ATOM      1  C   UNL     1       3.626   3.696  13.911  1.00  0.00     0.000 C 
ENDROOT
BRANCH   1   2
ATOM      2  C   UNL     1       4.808   2.996  13.218  1.00  0.00     0.000 C 
BRANCH   2   3
ATOM      3  C   UNL     1       4.515   1.523  12.876  1.00  0.00     0.000 C 
BRANCH   3   4
ATOM      4  C   UNL     1       5.605   0.517  13.297  1.00  0.00     0.000 C 
BRANCH   4   5
ATOM      5  C   UNL     1       5.083  -0.801  13.897  1.00  0.00     0.000 C 
BRANCH   5   6
ATOM      6  C   UNL     1       3.557  -0.940  13.792  1.00  0.00     0.006 C 
BRANCH   6   7
ATOM      7  C   UNL     1       2.909  -0.893  15.178  1.00  0.00     0.053 C 
BRANCH   7   8
ATOM      8  C   UNL     1       1.604  -0.160  15.122  1.00  0.00     0.041 C 
ATOM      9  O   UNL     1       0.868  -0.253  14.105  1.00  0.00    -0.550 OA
ATOM     10  O   UNL     1       1.179   0.587  16.213  1.00  0.00    -0.550 OA
ENDBRANCH   7   8
ENDBRANCH   6   7
ENDBRANCH   5   6
ENDBRANCH   4   5
ENDBRANCH   3   4
ENDBRANCH   2   3
ENDBRANCH   1   2
BRANCH   1  11
ATOM     11  C   UNL     1       3.354   3.155  15.327  1.00  0.00     0.000 C 
BRANCH  11  12
ATOM     12  C   UNL     1       4.605   2.906  16.190  1.00  0.00    -0.000 C 
BRANCH  12  13
ATOM     13  C   UNL     1       4.613   1.514  16.846  1.00  0.00    -0.000 C 
BRANCH  13  14
ATOM     14  C   UNL     1       4.387   1.577  18.366  1.00  0.00    -0.000 C 
BRANCH  14  15
ATOM     15  C   UNL     1       4.496   0.198  19.041  1.00  0.00    -0.000 C 
BRANCH  15  16
ATOM     16  C   UNL     1       5.952  -0.210  19.315  1.00  0.00    -0.000 C 
BRANCH  16  17
ATOM     17  C   UNL     1       6.288  -1.605  18.769  1.00  0.00    -0.003 C 
ATOM     18  C   UNL     1       5.885  -1.731  17.302  1.00  0.00     0.004 C 
ENDBRANCH  16  17
ENDBRANCH  15  16
ENDBRANCH  14  15
ENDBRANCH  13  14
ENDBRANCH  12  13
ENDBRANCH  11  12
ENDBRANCH   1  11
TORSDOF 14
ENDMDL
MODEL 5
REMARK VINA RESULT:    -4.518      1.142      3.466
REMARK INTER + INTRA:         -10.045
REMARK INTER:                  -8.333
REMARK INTRA:                  -1.712
REMARK UNBOUND:                -1.828
REMARK SMILES CCCCCCCCCCCCCCCC(=O)[O-]
REMARK SMILES IDX 9 1 10 2 11 3 12 4 13 5 14 6 15 7 16 8 17 9 18 10 8 11 7 12
REMARK SMILES IDX 6 13 5 14 4 15 3 16 2 17 1 18
REMARK H PARENT
REMARK Flexibility Score: inf
ROOT
ATOM      1  C   UNL     1       6.036   1.211  13.823  1.00  0.00     0.000 C 
ENDROOT
BRANCH   1   2
ATOM      2  C   UNL     1       4.897   1.772  12.955  1.00  0.00     0.000 C 
BRANCH   2   3
ATOM      3  C   UNL     1       4.524   3.221  13.323  1.00  0.00     0.000 C 
BRANCH   3   4
ATOM      4  C   UNL     1       3.382   3.370  14.349  1.00  0.00     0.000 C 
BRANCH   4   5
ATOM      5  C   UNL     1       3.640   2.709  15.715  1.00  0.00     0.000 C 
BRANCH   5   6
ATOM      6  C   UNL     1       2.566   1.675  16.089  1.00  0.00     0.006 C 
BRANCH   6   7
ATOM      7  C   UNL     1       2.698   0.416  15.228  1.00  0.00     0.053 C 
BRANCH   7   8
ATOM      8  C   UNL     1       1.352  -0.190  14.976  1.00  0.00     0.041 C 
ATOM      9  O   UNL     1       0.308   0.415  15.335  1.00  0.00    -0.550 OA
ATOM     10  O   UNL     1       1.250  -1.400  14.301  1.00  0.00    -0.550 OA
ENDBRANCH   7   8
ENDBRANCH   6   7
ENDBRANCH   5   6
ENDBRANCH   4   5
ENDBRANCH   3   4
ENDBRANCH   2   3
ENDBRANCH   1   2
BRANCH   1  11
ATOM     11  C   UNL     1       6.504  -0.185  13.371  1.00  0.00     0.000 C 
BRANCH  11  12
ATOM     12  C   UNL     1       5.388  -1.235  13.210  1.00  0.00    -0.000 C 
BRANCH  12  13
ATOM     13  C   UNL     1       5.045  -1.953  14.527  1.00  0.00    -0.000 C 
BRANCH  13  14
ATOM     14  C   UNL     1       6.144  -1.790  15.590  1.00  0.00    -0.000 C 
BRANCH  14  15
ATOM     15  C   UNL     1       5.576  -1.622  17.011  1.00  0.00    -0.000 C 
BRANCH  15  16
ATOM     16  C   UNL     1       5.587  -0.158  17.481  1.00  0.00    -0.000 C 
BRANCH  16  17
ATOM     17  C   UNL     1       5.214  -0.011  18.963  1.00  0.00    -0.003 C 
ATOM     18  C   UNL     1       4.395   1.255  19.200  1.00  0.00     0.004 C 
ENDBRANCH  16  17
ENDBRANCH  15  16
ENDBRANCH  14  15
ENDBRANCH  13  14
ENDBRANCH  12  13
ENDBRANCH  11  12
ENDBRANCH   1  11
TORSDOF 14
ENDMDL
MODEL 6
REMARK VINA RESULT:    -4.415      2.093      4.650
REMARK INTER + INTRA:          -9.856
REMARK INTER:                  -7.884
REMARK INTRA:                  -1.972
REMARK UNBOUND:                -1.828
REMARK SMILES CCCCCCCCCCCCCCCC(=O)[O-]
REMARK SMILES IDX 9 1 10 2 11 3 12 4 13 5 14 6 15 7 16 8 17 9 18 10 8 11 7 12
REMARK SMILES IDX 6 13 5 14 4 15 3 16 2 17 1 18
REMARK H PARENT
REMARK Flexibility Score: inf
ROOT
ATOM      1  C   UNL     1       4.436   3.584  14.678  1.00  0.00     0.000 C 
ENDROOT
BRANCH   1   2
ATOM      2  C   UNL     1       2.957   3.312  15.000  1.00  0.00     0.000 C 
BRANCH   2   3
ATOM      3  C   UNL     1       2.755   2.053  15.865  1.00  0.00     0.000 C 
BRANCH   3   4
ATOM      4  C   UNL     1       3.984   1.606  16.681  1.00  0.00     0.000 C 
BRANCH   4   5
ATOM      5  C   UNL     1       3.980   2.034  18.160  1.00  0.00     0.000 C 
BRANCH   5   6
ATOM      6  C   UNL     1       4.678   1.018  19.077  1.00  0.00     0.006 C 
BRANCH   6   7
ATOM      7  C   UNL     1       5.723   0.212  18.302  1.00  0.00     0.053 C 
BRANCH   7   8
ATOM      8  C   UNL     1       5.558  -1.252  18.567  1.00  0.00     0.041 C 
ATOM      9  O   UNL     1       4.498  -1.842  18.230  1.00  0.00    -0.550 OA
ATOM     10  O   UNL     1       6.594  -1.975  19.144  1.00  0.00    -0.550 OA
ENDBRANCH   7   8
ENDBRANCH   6   7
ENDBRANCH   5   6
ENDBRANCH   4   5
ENDBRANCH   3   4
ENDBRANCH   2   3
ENDBRANCH   1   2
BRANCH   1  11
ATOM     11  C   UNL     1       4.821   3.185  13.241  1.00  0.00     0.000 C 
BRANCH  11  12
ATOM     12  C   UNL     1       5.028   1.677  13.008  1.00  0.00    -0.000 C 
BRANCH  12  13
ATOM     13  C   UNL     1       6.075   1.062  13.953  1.00  0.00    -0.000 C 
BRANCH  13  14
ATOM     14  C   UNL     1       6.296  -0.437  13.694  1.00  0.00    -0.000 C 
BRANCH  14  15
ATOM     15  C   UNL     1       5.699  -1.327  14.799  1.00  0.00    -0.000 C 
BRANCH  15  16
ATOM     16  C   UNL     1       4.474  -2.121  14.319  1.00  0.00    -0.000 C 
BRANCH  16  17
ATOM     17  C   UNL     1       3.235  -1.235  14.124  1.00  0.00    -0.003 C 
ATOM     18  C   UNL     1       2.201  -1.489  15.219  1.00  0.00     0.004 C 
ENDBRANCH  16  17
ENDBRANCH  15  16
ENDBRANCH  14  15
ENDBRANCH  13  14
ENDBRANCH  12  13
ENDBRANCH  11  12
ENDBRANCH   1  11
TORSDOF 14
ENDMDL
MODEL 7
REMARK VINA RESULT:    -4.379      2.378      4.392
REMARK INTER + INTRA:          -9.791
REMARK INTER:                  -7.800
REMARK INTRA:                  -1.991
REMARK UNBOUND:                -1.828
REMARK SMILES CCCCCCCCCCCCCCCC(=O)[O-]
REMARK SMILES IDX 9 1 10 2 11 3 12 4 13 5 14 6 15 7 16 8 17 9 18 10 8 11 7 12
REMARK SMILES IDX 6 13 5 14 4 15 3 16 2 17 1 18
REMARK H PARENT
REMARK Flexibility Score: inf
ROOT
ATOM      1  C   UNL     1       4.258  -0.732  13.166  1.00  0.00     0.000 C 
ENDROOT
BRANCH   1   2
ATOM      2  C   UNL     1       5.760  -0.948  12.917  1.00  0.00     0.000 C 
BRANCH   2   3
ATOM      3  C   UNL     1       6.649  -0.176  13.911  1.00  0.00     0.000 C 
BRANCH   3   4
ATOM      4  C   UNL     1       5.892   0.630  14.986  1.00  0.00     0.000 C 
BRANCH   4   5
ATOM      5  C   UNL     1       6.208   0.237  16.441  1.00  0.00     0.000 C 
BRANCH   5   6
ATOM      6  C   UNL     1       5.884  -1.234  16.745  1.00  0.00     0.006 C 
BRANCH   6   7
ATOM      7  C   UNL     1       4.860  -1.345  17.878  1.00  0.00     0.053 C 
BRANCH   7   8
ATOM      8  C   UNL     1       5.329  -0.592  19.084  1.00  0.00     0.041 C 
ATOM      9  O   UNL     1       6.434  -0.875  19.618  1.00  0.00    -0.550 OA
ATOM     10  O   UNL     1       4.568   0.454  19.590  1.00  0.00    -0.550 OA
ENDBRANCH   7   8
ENDBRANCH   6   7
ENDBRANCH   5   6
ENDBRANCH   4   5
ENDBRANCH   3   4
ENDBRANCH   2   3
ENDBRANCH   1   2
BRANCH   1  11
ATOM     11  C   UNL     1       3.597  -1.905  13.912  1.00  0.00     0.000 C 
BRANCH  11  12
ATOM     12  C   UNL     1       2.559  -1.508  14.979  1.00  0.00    -0.000 C 
BRANCH  12  13
ATOM     13  C   UNL     1       1.673  -0.328  14.544  1.00  0.00    -0.000 C 
BRANCH  13  14
ATOM     14  C   UNL     1       1.583   0.769  15.617  1.00  0.00    -0.000 C 
BRANCH  14  15
ATOM     15  C   UNL     1       2.876   1.596  15.732  1.00  0.00    -0.000 C 
BRANCH  15  16
ATOM     16  C   UNL     1       2.786   2.937  14.986  1.00  0.00    -0.000 C 
BRANCH  16  17
ATOM     17  C   UNL     1       4.165   3.498  14.612  1.00  0.00    -0.003 C 
ATOM     18  C   UNL     1       4.405   3.407  13.107  1.00  0.00     0.004 C 
ENDBRANCH  16  17
ENDBRANCH  15  16
ENDBRANCH  14  15
ENDBRANCH  13  14
ENDBRANCH  12  13
ENDBRANCH  11  12
ENDBRANCH   1  11
TORSDOF 14
ENDMDL
MODEL 8
REMARK VINA RESULT:    -4.345      1.064      3.518
REMARK INTER + INTRA:          -9.729
REMARK INTER:                  -7.919
REMARK INTRA:                  -1.810
REMARK UNBOUND:                -1.828
REMARK SMILES CCCCCCCCCCCCCCCC(=O)[O-]
REMARK SMILES IDX 9 1 10 2 11 3 12 4 13 5 14 6 15 7 16 8 17 9 18 10 8 11 7 12
REMARK SMILES IDX 6 13 5 14 4 15 3 16 2 17 1 18
REMARK H PARENT
REMARK Flexibility Score: inf
ROOT
ATOM      1  C   UNL     1       6.261  -1.086  15.898  1.00  0.00     0.000 C 
ENDROOT
BRANCH   1   2
ATOM      2  C   UNL     1       6.575  -2.122  14.805  1.00  0.00     0.000 C 
BRANCH   2   3
ATOM      3  C   UNL     1       5.761  -1.898  13.516  1.00  0.00     0.000 C 
BRANCH   3   4
ATOM      4  C   UNL     1       5.593  -0.427  13.086  1.00  0.00     0.000 C 
BRANCH   4   5
ATOM      5  C   UNL     1       4.179   0.153  13.273  1.00  0.00     0.000 C 
BRANCH   5   6
ATOM      6  C   UNL     1       3.127  -0.926  13.571  1.00  0.00     0.006 C 
BRANCH   6   7
ATOM      7  C   UNL     1       2.678  -0.862  15.033  1.00  0.00     0.053 C 
BRANCH   7   8
ATOM      8  C   UNL     1       1.442  -0.027  15.166  1.00  0.00     0.041 C 
ATOM      9  O   UNL     1       0.434  -0.269  14.451  1.00  0.00    -0.550 OA
ATOM     10  O   UNL     1       1.387   0.988  16.112  1.00  0.00    -0.550 OA
ENDBRANCH   7   8
ENDBRANCH   6   7
ENDBRANCH   5   6
ENDBRANCH   4   5
ENDBRANCH   3   4
ENDBRANCH   2   3
ENDBRANCH   1   2
BRANCH   1  11
ATOM     11  C   UNL     1       5.647  -1.714  17.162  1.00  0.00     0.000 C 
BRANCH  11  12
ATOM     12  C   UNL     1       6.159  -1.142  18.499  1.00  0.00    -0.000 C 
BRANCH  12  13
ATOM     13  C   UNL     1       5.329   0.054  18.996  1.00  0.00    -0.000 C 
BRANCH  13  14
ATOM     14  C   UNL     1       4.288   0.519  17.965  1.00  0.00    -0.000 C 
BRANCH  14  15
ATOM     15  C   UNL     1       4.450   2.002  17.584  1.00  0.00    -0.000 C 
BRANCH  15  16
ATOM     16  C   UNL     1       4.719   2.198  16.083  1.00  0.00    -0.000 C 
BRANCH  16  17
ATOM     17  C   UNL     1       4.423   3.630  15.613  1.00  0.00    -0.003 C 
ATOM     18  C   UNL     1       3.284   3.650  14.597  1.00  0.00     0.004 C 
ENDBRANCH  16  17
ENDBRANCH  15  16
ENDBRANCH  14  15
ENDBRANCH  13  14
ENDBRANCH  12  13
ENDBRANCH  11  12
ENDBRANCH   1  11
TORSDOF 14
ENDMDL
MODEL 9
REMARK VINA RESULT:    -4.059      0.981      3.446
REMARK INTER + INTRA:          -9.209
REMARK INTER:                  -7.559
REMARK INTRA:                  -1.650
REMARK UNBOUND:                -1.828
REMARK SMILES CCCCCCCCCCCCCCCC(=O)[O-]
REMARK SMILES IDX 9 1 10 2 11 3 12 4 13 5 14 6 15 7 16 8 17 9 18 10 8 11 7 12
REMARK SMILES IDX 6 13 5 14 4 15 3 16 2 17 1 18
REMARK H PARENT
REMARK Flexibility Score: inf
ROOT
ATOM      1  C   UNL     1       3.962   1.988  17.956  1.00  0.00     0.000 C 
ENDROOT
BRANCH   1   2
ATOM      2  C   UNL     1       4.791   0.841  18.556  1.00  0.00     0.000 C 
BRANCH   2   3
ATOM      3  C   UNL     1       5.813   0.257  17.563  1.00  0.00     0.000 C 
BRANCH   3   4
ATOM      4  C   UNL     1       5.636  -1.240  17.234  1.00  0.00     0.000 C 
BRANCH   4   5
ATOM      5  C   UNL     1       4.186  -1.686  16.972  1.00  0.00     0.000 C 
BRANCH   5   6
ATOM      6  C   UNL     1       3.712  -1.363  15.547  1.00  0.00     0.006 C 
BRANCH   6   7
ATOM      7  C   UNL     1       2.222  -1.675  15.384  1.00  0.00     0.053 C 
BRANCH   7   8
ATOM      8  C   UNL     1       1.457  -0.427  15.071  1.00  0.00     0.041 C 
ATOM      9  O   UNL     1       0.920  -0.278  13.941  1.00  0.00    -0.550 OA
ATOM     10  O   UNL     1       1.295   0.552  16.044  1.00  0.00    -0.550 OA
ENDBRANCH   7   8
ENDBRANCH   6   7
ENDBRANCH   5   6
ENDBRANCH   4   5
ENDBRANCH   3   4
ENDBRANCH   2   3
ENDBRANCH   1   2
BRANCH   1  11
ATOM     11  C   UNL     1       3.959   1.986  16.416  1.00  0.00     0.000 C 
BRANCH  11  12
ATOM     12  C   UNL     1       4.349   3.321  15.753  1.00  0.00    -0.000 C 
BRANCH  12  13
ATOM     13  C   UNL     1       3.366   3.752  14.651  1.00  0.00    -0.000 C 
BRANCH  13  14
ATOM     14  C   UNL     1       4.040   3.877  13.275  1.00  0.00    -0.000 C 
BRANCH  14  15
ATOM     15  C   UNL     1       5.078   2.771  13.018  1.00  0.00    -0.000 C 
BRANCH  15  16
ATOM     16  C   UNL     1       4.436   1.382  12.875  1.00  0.00    -0.000 C 
BRANCH  16  17
ATOM     17  C   UNL     1       5.455   0.242  13.023  1.00  0.00    -0.003 C 
ATOM     18  C   UNL     1       6.579   0.631  13.980  1.00  0.00     0.004 C 
ENDBRANCH  16  17
ENDBRANCH  15  16
ENDBRANCH  14  15
ENDBRANCH  13  14
ENDBRANCH  12  13
ENDBRANCH  11  12
ENDBRANCH   1  11
TORSDOF 14
ENDMDL
