MODEL 1
REMARK VINA RESULT:    -5.133      0.000      0.000
REMARK INTER + INTRA:          -8.199
REMARK INTER:                  -7.384
REMARK INTRA:                  -0.815
REMARK UNBOUND:                -0.815
REMARK SMILES O=C(CO)[C@@H](O)[C@H](O)[C@H](O)CO
REMARK SMILES IDX 7 1 9 2 11 3 12 4 10 6 5 8 2 9 1 10 3 11 4 12 6 14 8 16
REMARK H PARENT 12 5 10 7 4 13 6 15 8 17
REMARK Flexibility Score: inf
ROOT
ATOM      1  C   UNL     1      24.237  -7.812  39.531  1.00  0.00     0.181 C 
ENDROOT
BRANCH   1   2
ATOM      2  C   UNL     1      22.915  -8.451  39.008  1.00  0.00     0.171 C 
BRANCH   2   3
ATOM      3  C   UNL     1      21.633  -7.943  39.697  1.00  0.00     0.190 C 
BRANCH   3   4
ATOM      4  O   UNL     1      21.039  -8.945  40.479  1.00  0.00    -0.394 OA
ATOM      5  H   UNL     1      21.738  -9.285  41.096  1.00  0.00     0.210 HD
ENDBRANCH   3   4
ENDBRANCH   2   3
BRANCH   2   6
ATOM      6  O   UNL     1      22.799  -8.230  37.625  1.00  0.00    -0.388 OA
ATOM      7  H   UNL     1      21.866  -8.458  37.371  1.00  0.00     0.211 HD
ENDBRANCH   2   6
ENDBRANCH   1   2
BRANCH   1   8
ATOM      8  C   UNL     1      24.484  -6.360  39.022  1.00  0.00     0.214 C 
BRANCH   8   9
ATOM      9  C   UNL     1      25.510  -5.637  39.877  1.00  0.00     0.189 C 
ATOM     10  O   UNL     1      25.181  -5.251  40.991  1.00  0.00    -0.294 OA
BRANCH   9  11
ATOM     11  C   UNL     1      26.920  -5.391  39.395  1.00  0.00     0.234 C 
BRANCH  11  12
ATOM     12  O   UNL     1      27.492  -6.561  38.874  1.00  0.00    -0.388 OA
ATOM     13  H   UNL     1      26.885  -6.877  38.154  1.00  0.00     0.211 HD
ENDBRANCH  11  12
ENDBRANCH   9  11
ENDBRANCH   8   9
BRANCH   8  14
ATOM     14  O   UNL     1      24.803  -6.311  37.652  1.00  0.00    -0.382 OA
ATOM     15  H   UNL     1      24.011  -6.601  37.133  1.00  0.00     0.211 HD
ENDBRANCH   8  14
ENDBRANCH   1   8
BRANCH   1  16
ATOM     16  O   UNL     1      25.349  -8.655  39.344  1.00  0.00    -0.387 OA
ATOM     17  H   UNL     1      26.145  -8.219  39.739  1.00  0.00     0.211 HD
ENDBRANCH   1  16
TORSDOF 10
ENDMDL
MODEL 2
REMARK VINA RESULT:    -4.944      1.251      4.722
REMARK INTER + INTRA:          -7.927
REMARK INTER:                  -7.148
REMARK INTRA:                  -0.779
REMARK UNBOUND:                -0.815
REMARK SMILES O=C(CO)[C@@H](O)[C@H](O)[C@H](O)CO
REMARK SMILES IDX 7 1 9 2 11 3 12 4 10 6 5 8 2 9 1 10 3 11 4 12 6 14 8 16
REMARK H PARENT 12 5 10 7 4 13 6 15 8 17
REMARK Flexibility Score: inf
ROOT
ATOM      1  C   UNL     1      24.349  -6.827  39.049  1.00  0.00     0.181 C 
ENDROOT
BRANCH   1   2
ATOM      2  C   UNL     1      25.766  -7.215  39.572  1.00  0.00     0.171 C 
BRANCH   2   3
ATOM      3  C   UNL     1      26.675  -6.022  39.929  1.00  0.00     0.190 C 
BRANCH   3   4
ATOM      4  O   UNL     1      27.096  -5.335  38.780  1.00  0.00    -0.394 OA
ATOM      5  H   UNL     1      26.319  -4.812  38.453  1.00  0.00     0.210 HD
ENDBRANCH   3   4
ENDBRANCH   2   3
BRANCH   2   6
ATOM      6  O   UNL     1      25.642  -8.039  40.703  1.00  0.00    -0.388 OA
ATOM      7  H   UNL     1      25.012  -8.769  40.465  1.00  0.00     0.211 HD
ENDBRANCH   2   6
ENDBRANCH   1   2
BRANCH   1   8
ATOM      8  C   UNL     1      23.254  -7.898  39.333  1.00  0.00     0.214 C 
BRANCH   8   9
ATOM      9  C   UNL     1      21.859  -7.299  39.267  1.00  0.00     0.189 C 
ATOM     10  O   UNL     1      21.633  -6.423  38.444  1.00  0.00    -0.294 OA
BRANCH   9  11
ATOM     11  C   UNL     1      20.748  -7.763  40.179  1.00  0.00     0.234 C 
BRANCH  11  12
ATOM     12  O   UNL     1      20.880  -9.125  40.491  1.00  0.00    -0.388 OA
ATOM     13  H   UNL     1      21.572  -9.187  41.200  1.00  0.00     0.211 HD
ENDBRANCH  11  12
ENDBRANCH   9  11
ENDBRANCH   8   9
BRANCH   8  14
ATOM     14  O   UNL     1      23.383  -9.038  38.519  1.00  0.00    -0.382 OA
ATOM     15  H   UNL     1      22.651  -9.033  37.851  1.00  0.00     0.211 HD
ENDBRANCH   8  14
ENDBRANCH   1   8
BRANCH   1  16
ATOM     16  O   UNL     1      24.372  -6.408  37.705  1.00  0.00    -0.387 OA
ATOM     17  H   UNL     1      23.911  -7.090  37.156  1.00  0.00     0.211 HD
ENDBRANCH   1  16
TORSDOF 10
ENDMDL
MODEL 3
REMARK VINA RESULT:    -4.900     16.221     17.540
REMARK INTER + INTRA:          -7.864
REMARK INTER:                  -7.151
REMARK INTRA:                  -0.713
REMARK UNBOUND:                -0.815
REMARK SMILES O=C(CO)[C@@H](O)[C@H](O)[C@H](O)CO
REMARK SMILES IDX 7 1 9 2 11 3 12 4 10 6 5 8 2 9 1 10 3 11 4 12 6 14 8 16
REMARK H PARENT 12 5 10 7 4 13 6 15 8 17
REMARK Flexibility Score: inf
ROOT
ATOM      1  C   UNL     1      11.578   4.283  38.860  1.00  0.00     0.181 C 
ENDROOT
BRANCH   1   2
ATOM      2  C   UNL     1      11.268   5.806  38.981  1.00  0.00     0.171 C 
BRANCH   2   3
ATOM      3  C   UNL     1      12.498   6.699  39.237  1.00  0.00     0.190 C 
BRANCH   3   4
ATOM      4  O   UNL     1      12.432   7.317  40.496  1.00  0.00    -0.394 OA
ATOM      5  H   UNL     1      13.194   6.971  41.030  1.00  0.00     0.210 HD
ENDBRANCH   3   4
ENDBRANCH   2   3
BRANCH   2   6
ATOM      6  O   UNL     1      10.625   6.253  37.814  1.00  0.00    -0.388 OA
ATOM      7  H   UNL     1      11.335   6.537  37.180  1.00  0.00     0.211 HD
ENDBRANCH   2   6
ENDBRANCH   1   2
BRANCH   1   8
ATOM      8  C   UNL     1      11.243   3.679  37.463  1.00  0.00     0.214 C 
BRANCH   8   9
ATOM      9  C   UNL     1      12.123   2.481  37.149  1.00  0.00     0.189 C 
ATOM     10  O   UNL     1      12.551   1.805  38.075  1.00  0.00    -0.294 OA
BRANCH   9  11
ATOM     11  C   UNL     1      12.474   2.100  35.730  1.00  0.00     0.234 C 
BRANCH  11  12
ATOM     12  O   UNL     1      11.761   2.875  34.803  1.00  0.00    -0.388 OA
ATOM     13  H   UNL     1      11.428   2.249  34.108  1.00  0.00     0.211 HD
ENDBRANCH  11  12
ENDBRANCH   9  11
ENDBRANCH   8   9
BRANCH   8  14
ATOM     14  O   UNL     1       9.875   3.389  37.309  1.00  0.00    -0.382 OA
ATOM     15  H   UNL     1       9.368   3.880  38.005  1.00  0.00     0.211 HD
ENDBRANCH   8  14
ENDBRANCH   1   8
BRANCH   1  16
ATOM     16  O   UNL     1      11.032   3.540  39.924  1.00  0.00    -0.387 OA
ATOM     17  H   UNL     1      10.438   2.843  39.548  1.00  0.00     0.211 HD
ENDBRANCH   1  16
TORSDOF 10
ENDMDL
MODEL 4
REMARK VINA RESULT:    -4.818      1.180      4.677
REMARK INTER + INTRA:          -7.746
REMARK INTER:                  -7.058
REMARK INTRA:                  -0.688
REMARK UNBOUND:                -0.815
REMARK SMILES O=C(CO)[C@@H](O)[C@H](O)[C@H](O)CO
REMARK SMILES IDX 7 1 9 2 11 3 12 4 10 6 5 8 2 9 1 10 3 11 4 12 6 14 8 16
REMARK H PARENT 12 5 10 7 4 13 6 15 8 17
REMARK Flexibility Score: inf
ROOT
ATOM      1  C   UNL     1      24.443  -6.632  39.216  1.00  0.00     0.181 C 
ENDROOT
BRANCH   1   2
ATOM      2  C   UNL     1      25.727  -6.809  40.081  1.00  0.00     0.171 C 
BRANCH   2   3
ATOM      3  C   UNL     1      27.052  -6.554  39.337  1.00  0.00     0.190 C 
BRANCH   3   4
ATOM      4  O   UNL     1      27.410  -7.648  38.533  1.00  0.00    -0.394 OA
ATOM      5  H   UNL     1      28.398  -7.636  38.449  1.00  0.00     0.210 HD
ENDBRANCH   3   4
ENDBRANCH   2   3
BRANCH   2   6
ATOM      6  O   UNL     1      25.667  -5.955  41.196  1.00  0.00    -0.388 OA
ATOM      7  H   UNL     1      25.070  -5.199  40.952  1.00  0.00     0.211 HD
ENDBRANCH   2   6
ENDBRANCH   1   2
BRANCH   1   8
ATOM      8  C   UNL     1      23.341  -7.698  39.491  1.00  0.00     0.214 C 
BRANCH   8   9
ATOM      9  C   UNL     1      21.949  -7.101  39.385  1.00  0.00     0.189 C 
ATOM     10  O   UNL     1      21.787  -6.101  38.698  1.00  0.00    -0.294 OA
BRANCH   9  11
ATOM     11  C   UNL     1      20.762  -7.711  40.094  1.00  0.00     0.234 C 
BRANCH  11  12
ATOM     12  O   UNL     1      21.150  -8.796  40.894  1.00  0.00    -0.388 OA
ATOM     13  H   UNL     1      20.336  -9.344  41.043  1.00  0.00     0.211 HD
ENDBRANCH  11  12
ENDBRANCH   9  11
ENDBRANCH   8   9
BRANCH   8  14
ATOM     14  O   UNL     1      23.488  -8.851  38.698  1.00  0.00    -0.382 OA
ATOM     15  H   UNL     1      24.453  -9.067  38.631  1.00  0.00     0.211 HD
ENDBRANCH   8  14
ENDBRANCH   1   8
BRANCH   1  16
ATOM     16  O   UNL     1      24.738  -6.489  37.846  1.00  0.00    -0.387 OA
ATOM     17  H   UNL     1      25.709  -6.625  37.718  1.00  0.00     0.211 HD
ENDBRANCH   1  16
TORSDOF 10
ENDMDL
MODEL 5
REMARK VINA RESULT:    -4.635     16.911     18.059
REMARK INTER + INTRA:          -7.482
REMARK INTER:                  -7.105
REMARK INTRA:                  -0.378
REMARK UNBOUND:                -0.815
REMARK SMILES O=C(CO)[C@@H](O)[C@H](O)[C@H](O)CO
REMARK SMILES IDX 7 1 9 2 11 3 12 4 10 6 5 8 2 9 1 10 3 11 4 12 6 14 8 16
REMARK H PARENT 12 5 10 7 4 13 6 15 8 17
REMARK Flexibility Score: inf
ROOT
ATOM      1  C   UNL     1      11.025   4.931  37.840  1.00  0.00     0.181 C 
ENDROOT
BRANCH   1   2
ATOM      2  C   UNL     1      10.753   3.467  37.378  1.00  0.00     0.171 C 
BRANCH   2   3
ATOM      3  C   UNL     1      11.827   2.870  36.447  1.00  0.00     0.190 C 
BRANCH   3   4
ATOM      4  O   UNL     1      11.395   2.848  35.112  1.00  0.00    -0.394 OA
ATOM      5  H   UNL     1      10.465   3.194  35.102  1.00  0.00     0.210 HD
ENDBRANCH   3   4
ENDBRANCH   2   3
BRANCH   2   6
ATOM      6  O   UNL     1      10.621   2.634  38.503  1.00  0.00    -0.388 OA
ATOM      7  H   UNL     1      11.408   2.028  38.511  1.00  0.00     0.211 HD
ENDBRANCH   2   6
ENDBRANCH   1   2
BRANCH   1   8
ATOM      8  C   UNL     1      11.748   5.037  39.216  1.00  0.00     0.214 C 
BRANCH   8   9
ATOM      9  C   UNL     1      12.190   6.462  39.504  1.00  0.00     0.189 C 
ATOM     10  O   UNL     1      13.230   6.869  39.004  1.00  0.00    -0.294 OA
BRANCH   9  11
ATOM     11  C   UNL     1      11.378   7.387  40.381  1.00  0.00     0.234 C 
BRANCH  11  12
ATOM     12  O   UNL     1      11.363   6.945  41.712  1.00  0.00    -0.388 OA
ATOM     13  H   UNL     1      12.189   6.410  41.842  1.00  0.00     0.211 HD
ENDBRANCH  11  12
ENDBRANCH   9  11
ENDBRANCH   8   9
BRANCH   8  14
ATOM     14  O   UNL     1      10.995   4.490  40.270  1.00  0.00    -0.382 OA
ATOM     15  H   UNL     1      10.969   3.505  40.161  1.00  0.00     0.211 HD
ENDBRANCH   8  14
ENDBRANCH   1   8
BRANCH   1  16
ATOM     16  O   UNL     1       9.875   5.739  37.761  1.00  0.00    -0.387 OA
ATOM     17  H   UNL     1       9.109   5.171  37.497  1.00  0.00     0.211 HD
ENDBRANCH   1  16
TORSDOF 10
ENDMDL
MODEL 6
REMARK VINA RESULT:    -4.578      1.257      4.485
REMARK INTER + INTRA:          -7.400
REMARK INTER:                  -6.692
REMARK INTRA:                  -0.708
REMARK UNBOUND:                -0.815
REMARK SMILES O=C(CO)[C@@H](O)[C@H](O)[C@H](O)CO
REMARK SMILES IDX 7 1 9 2 11 3 12 4 10 6 5 8 2 9 1 10 3 11 4 12 6 14 8 16
REMARK H PARENT 12 5 10 7 4 13 6 15 8 17
REMARK Flexibility Score: inf
ROOT
ATOM      1  C   UNL     1      25.083  -7.631  39.457  1.00  0.00     0.181 C 
ENDROOT
BRANCH   1   2
ATOM      2  C   UNL     1      26.284  -6.658  39.257  1.00  0.00     0.171 C 
BRANCH   2   3
ATOM      3  C   UNL     1      26.908  -6.121  40.560  1.00  0.00     0.190 C 
BRANCH   3   4
ATOM      4  O   UNL     1      25.923  -5.730  41.479  1.00  0.00    -0.394 OA
ATOM      5  H   UNL     1      25.666  -4.799  41.251  1.00  0.00     0.210 HD
ENDBRANCH   3   4
ENDBRANCH   2   3
BRANCH   2   6
ATOM      6  O   UNL     1      27.288  -7.293  38.507  1.00  0.00    -0.388 OA
ATOM      7  H   UNL     1      27.473  -6.716  37.719  1.00  0.00     0.211 HD
ENDBRANCH   2   6
ENDBRANCH   1   2
BRANCH   1   8
ATOM      8  C   UNL     1      23.706  -7.031  39.046  1.00  0.00     0.214 C 
BRANCH   8   9
ATOM      9  C   UNL     1      22.576  -8.021  39.275  1.00  0.00     0.189 C 
ATOM     10  O   UNL     1      22.645  -9.125  38.754  1.00  0.00    -0.294 OA
BRANCH   9  11
ATOM     11  C   UNL     1      21.381  -7.681  40.135  1.00  0.00     0.234 C 
BRANCH  11  12
ATOM     12  O   UNL     1      21.102  -8.709  41.048  1.00  0.00    -0.388 OA
ATOM     13  H   UNL     1      20.130  -8.657  41.245  1.00  0.00     0.211 HD
ENDBRANCH  11  12
ENDBRANCH   9  11
ENDBRANCH   8   9
BRANCH   8  14
ATOM     14  O   UNL     1      23.453  -5.785  39.648  1.00  0.00    -0.382 OA
ATOM     15  H   UNL     1      24.054  -5.685  40.429  1.00  0.00     0.211 HD
ENDBRANCH   8  14
ENDBRANCH   1   8
BRANCH   1  16
ATOM     16  O   UNL     1      25.069  -8.206  40.742  1.00  0.00    -0.387 OA
ATOM     17  H   UNL     1      25.769  -8.904  40.782  1.00  0.00     0.211 HD
ENDBRANCH   1  16
TORSDOF 10
ENDMDL
MODEL 7
REMARK VINA RESULT:    -4.442      1.808      4.218
REMARK INTER + INTRA:          -7.205
REMARK INTER:                  -6.323
REMARK INTRA:                  -0.882
REMARK UNBOUND:                -0.815
REMARK SMILES O=C(CO)[C@@H](O)[C@H](O)[C@H](O)CO
REMARK SMILES IDX 7 1 9 2 11 3 12 4 10 6 5 8 2 9 1 10 3 11 4 12 6 14 8 16
REMARK H PARENT 12 5 10 7 4 13 6 15 8 17
REMARK Flexibility Score: inf
ROOT
ATOM      1  C   UNL     1      24.012  -6.374  38.837  1.00  0.00     0.181 C 
ENDROOT
BRANCH   1   2
ATOM      2  C   UNL     1      24.822  -6.652  40.140  1.00  0.00     0.171 C 
BRANCH   2   3
ATOM      3  C   UNL     1      26.024  -7.602  39.966  1.00  0.00     0.190 C 
BRANCH   3   4
ATOM      4  O   UNL     1      25.639  -8.816  39.376  1.00  0.00    -0.394 OA
ATOM      5  H   UNL     1      25.607  -9.493  40.101  1.00  0.00     0.210 HD
ENDBRANCH   3   4
ENDBRANCH   2   3
BRANCH   2   6
ATOM      6  O   UNL     1      25.283  -5.439  40.679  1.00  0.00    -0.388 OA
ATOM      7  H   UNL     1      25.576  -4.874  39.916  1.00  0.00     0.211 HD
ENDBRANCH   2   6
ENDBRANCH   1   2
BRANCH   1   8
ATOM      8  C   UNL     1      22.745  -7.265  38.677  1.00  0.00     0.214 C 
BRANCH   8   9
ATOM      9  C   UNL     1      21.533  -6.443  38.271  1.00  0.00     0.189 C 
ATOM     10  O   UNL     1      20.600  -6.343  39.055  1.00  0.00    -0.294 OA
BRANCH   9  11
ATOM     11  C   UNL     1      21.457  -5.740  36.936  1.00  0.00     0.234 C 
BRANCH  11  12
ATOM     12  O   UNL     1      22.176  -6.436  35.952  1.00  0.00    -0.388 OA
ATOM     13  H   UNL     1      22.263  -7.372  36.274  1.00  0.00     0.211 HD
ENDBRANCH  11  12
ENDBRANCH   9  11
ENDBRANCH   8   9
BRANCH   8  14
ATOM     14  O   UNL     1      22.955  -8.361  37.821  1.00  0.00    -0.382 OA
ATOM     15  H   UNL     1      23.921  -8.583  37.823  1.00  0.00     0.211 HD
ENDBRANCH   8  14
ENDBRANCH   1   8
BRANCH   1  16
ATOM     16  O   UNL     1      24.829  -6.371  37.691  1.00  0.00    -0.387 OA
ATOM     17  H   UNL     1      24.593  -7.154  37.135  1.00  0.00     0.211 HD
ENDBRANCH   1  16
TORSDOF 10
ENDMDL
MODEL 8
REMARK VINA RESULT:    -4.436      1.202      2.546
REMARK INTER + INTRA:          -7.196
REMARK INTER:                  -6.133
REMARK INTRA:                  -1.063
REMARK UNBOUND:                -0.815
REMARK SMILES O=C(CO)[C@@H](O)[C@H](O)[C@H](O)CO
REMARK SMILES IDX 7 1 9 2 11 3 12 4 10 6 5 8 2 9 1 10 3 11 4 12 6 14 8 16
REMARK H PARENT 12 5 10 7 4 13 6 15 8 17
REMARK Flexibility Score: inf
ROOT
ATOM      1  C   UNL     1      23.193  -8.297  39.106  1.00  0.00     0.181 C 
ENDROOT
BRANCH   1   2
ATOM      2  C   UNL     1      22.097  -7.617  39.981  1.00  0.00     0.171 C 
BRANCH   2   3
ATOM      3  C   UNL     1      21.039  -6.819  39.193  1.00  0.00     0.190 C 
BRANCH   3   4
ATOM      4  O   UNL     1      21.596  -5.677  38.597  1.00  0.00    -0.394 OA
ATOM      5  H   UNL     1      22.546  -5.635  38.880  1.00  0.00     0.210 HD
ENDBRANCH   3   4
ENDBRANCH   2   3
BRANCH   2   6
ATOM      6  O   UNL     1      21.440  -8.588  40.756  1.00  0.00    -0.388 OA
ATOM      7  H   UNL     1      20.821  -8.106  41.365  1.00  0.00     0.211 HD
ENDBRANCH   2   6
ENDBRANCH   1   2
BRANCH   1   8
ATOM      8  C   UNL     1      24.644  -7.837  39.437  1.00  0.00     0.214 C 
BRANCH   8   9
ATOM      9  C   UNL     1      24.801  -6.334  39.282  1.00  0.00     0.189 C 
ATOM     10  O   UNL     1      24.648  -5.837  38.175  1.00  0.00    -0.294 OA
BRANCH   9  11
ATOM     11  C   UNL     1      25.129  -5.441  40.456  1.00  0.00     0.234 C 
BRANCH  11  12
ATOM     12  O   UNL     1      26.265  -5.897  41.141  1.00  0.00    -0.388 OA
ATOM     13  H   UNL     1      26.787  -5.090  41.391  1.00  0.00     0.211 HD
ENDBRANCH  11  12
ENDBRANCH   9  11
ENDBRANCH   8   9
BRANCH   8  14
ATOM     14  O   UNL     1      25.086  -8.292  40.693  1.00  0.00    -0.382 OA
ATOM     15  H   UNL     1      25.983  -7.910  40.868  1.00  0.00     0.211 HD
ENDBRANCH   8  14
ENDBRANCH   1   8
BRANCH   1  16
ATOM     16  O   UNL     1      22.896  -8.230  37.731  1.00  0.00    -0.387 OA
ATOM     17  H   UNL     1      22.433  -7.374  37.551  1.00  0.00     0.211 HD
ENDBRANCH   1  16
TORSDOF 10
ENDMDL
MODEL 9
REMARK VINA RESULT:    -4.343      1.780      4.996
REMARK INTER + INTRA:          -7.063
REMARK INTER:                  -6.677
REMARK INTRA:                  -0.386
REMARK UNBOUND:                -0.815
REMARK SMILES O=C(CO)[C@@H](O)[C@H](O)[C@H](O)CO
REMARK SMILES IDX 7 1 9 2 11 3 12 4 10 6 5 8 2 9 1 10 3 11 4 12 6 14 8 16
REMARK H PARENT 12 5 10 7 4 13 6 15 8 17
REMARK Flexibility Score: inf
ROOT
ATOM      1  C   UNL     1      22.616  -7.686  38.644  1.00  0.00     0.181 C 
ENDROOT
BRANCH   1   2
ATOM      2  C   UNL     1      23.841  -6.772  38.950  1.00  0.00     0.171 C 
BRANCH   2   3
ATOM      3  C   UNL     1      24.835  -7.342  39.981  1.00  0.00     0.190 C 
BRANCH   3   4
ATOM      4  O   UNL     1      25.466  -8.500  39.500  1.00  0.00    -0.394 OA
ATOM      5  H   UNL     1      24.908  -8.847  38.756  1.00  0.00     0.210 HD
ENDBRANCH   3   4
ENDBRANCH   2   3
BRANCH   2   6
ATOM      6  O   UNL     1      24.536  -6.499  37.759  1.00  0.00    -0.388 OA
ATOM      7  H   UNL     1      25.299  -5.907  37.996  1.00  0.00     0.211 HD
ENDBRANCH   2   6
ENDBRANCH   1   2
BRANCH   1   8
ATOM      8  C   UNL     1      21.600  -7.798  39.819  1.00  0.00     0.214 C 
BRANCH   8   9
ATOM      9  C   UNL     1      20.409  -6.878  39.616  1.00  0.00     0.189 C 
ATOM     10  O   UNL     1      20.473  -6.013  38.754  1.00  0.00    -0.294 OA
BRANCH   9  11
ATOM     11  C   UNL     1      19.149  -7.010  40.440  1.00  0.00     0.234 C 
BRANCH  11  12
ATOM     12  O   UNL     1      18.027  -7.221  39.625  1.00  0.00    -0.388 OA
ATOM     13  H   UNL     1      17.246  -7.299  40.233  1.00  0.00     0.211 HD
ENDBRANCH  11  12
ENDBRANCH   9  11
ENDBRANCH   8   9
BRANCH   8  14
ATOM     14  O   UNL     1      21.210  -9.125  40.077  1.00  0.00    -0.382 OA
ATOM     15  H   UNL     1      21.907  -9.733  39.723  1.00  0.00     0.211 HD
ENDBRANCH   8  14
ENDBRANCH   1   8
BRANCH   1  16
ATOM     16  O   UNL     1      23.000  -8.939  38.129  1.00  0.00    -0.387 OA
ATOM     17  H   UNL     1      22.440  -9.637  38.551  1.00  0.00     0.211 HD
ENDBRANCH   1  16
TORSDOF 10
ENDMDL
