MODEL 1
REMARK VINA RESULT:    -5.297      0.000      0.000
REMARK INTER + INTRA:          -7.613
REMARK INTER:                  -7.155
REMARK INTRA:                  -0.458
REMARK UNBOUND:                -0.458
REMARK SMILES CC(=O)CCC=C(C)CCC=C(C)C
REMARK SMILES IDX 7 1 6 2 8 3 9 4 10 5 11 6 13 7 12 8 14 9 5 10 4 11 2 12 3 13
REMARK SMILES IDX 1 14
REMARK H PARENT
REMARK Flexibility Score: inf
ROOT
ATOM      1  C   UNL     1      24.468  52.485   0.085  1.00  0.00    -0.077 C 
ATOM      2  C   UNL     1      25.483  53.355   0.288  1.00  0.00    -0.028 C 
ATOM      3  C   UNL     1      24.211  51.430   1.131  1.00  0.00     0.039 C 
ENDROOT
BRANCH   1   4
ATOM      4  C   UNL     1      23.534  52.568  -1.106  1.00  0.00     0.034 C 
BRANCH   4   5
ATOM      5  C   UNL     1      23.465  51.222  -1.834  1.00  0.00     0.032 C 
BRANCH   5   6
ATOM      6  C   UNL     1      22.578  51.317  -3.050  1.00  0.00    -0.028 C 
ATOM      7  C   UNL     1      24.029  49.812  -4.428  1.00  0.00     0.039 C 
ATOM      8  C   UNL     1      22.830  50.711  -4.230  1.00  0.00    -0.080 C 
ATOM      9  C   UNL     1      21.871  50.932  -5.371  1.00  0.00     0.039 C 
ENDBRANCH   5   6
ENDBRANCH   4   5
ENDBRANCH   1   4
BRANCH   2  10
ATOM     10  C   UNL     1      25.872  54.460  -0.663  1.00  0.00     0.035 C 
BRANCH  10  11
ATOM     11  C   UNL     1      26.731  55.512   0.045  1.00  0.00     0.079 C 
BRANCH  11  12
ATOM     12  C   UNL     1      27.963  55.821  -0.762  1.00  0.00     0.130 C 
ATOM     13  O   UNL     1      28.673  56.762  -0.441  1.00  0.00    -0.300 OA
ATOM     14  C   UNL     1      28.344  54.993  -1.954  1.00  0.00     0.087 C 
ENDBRANCH  11  12
ENDBRANCH  10  11
ENDBRANCH   2  10
TORSDOF 6
ENDMDL
MODEL 2
REMARK VINA RESULT:    -5.035      3.123      6.551
REMARK INTER + INTRA:          -7.259
REMARK INTER:                  -6.210
REMARK INTRA:                  -1.049
REMARK UNBOUND:                -0.458
REMARK SMILES CC(=O)CCC=C(C)CCC=C(C)C
REMARK SMILES IDX 7 1 6 2 8 3 9 4 10 5 11 6 13 7 12 8 14 9 5 10 4 11 2 12 3 13
REMARK SMILES IDX 1 14
REMARK H PARENT
REMARK Flexibility Score: inf
ROOT
ATOM      1  C   UNL     1      22.834  50.444  -1.773  1.00  0.00    -0.077 C 
ATOM      2  C   UNL     1      21.908  49.604  -1.255  1.00  0.00    -0.028 C 
ATOM      3  C   UNL     1      22.605  50.993  -3.158  1.00  0.00     0.039 C 
ENDROOT
BRANCH   1   4
ATOM      4  C   UNL     1      24.049  50.913  -0.998  1.00  0.00     0.034 C 
BRANCH   4   5
ATOM      5  C   UNL     1      23.939  52.407  -0.674  1.00  0.00     0.032 C 
BRANCH   5   6
ATOM      6  C   UNL     1      24.723  52.742   0.571  1.00  0.00    -0.028 C 
ATOM      7  C   UNL     1      25.932  54.651  -0.509  1.00  0.00     0.039 C 
ATOM      8  C   UNL     1      25.640  53.729   0.654  1.00  0.00    -0.080 C 
ATOM      9  C   UNL     1      26.376  53.920   1.955  1.00  0.00     0.039 C 
ENDBRANCH   5   6
ENDBRANCH   4   5
ENDBRANCH   1   4
BRANCH   2  10
ATOM     10  C   UNL     1      21.993  48.966   0.109  1.00  0.00     0.035 C 
BRANCH  10  11
ATOM     11  C   UNL     1      20.968  49.584   1.065  1.00  0.00     0.079 C 
BRANCH  11  12
ATOM     12  C   UNL     1      21.578  50.727   1.830  1.00  0.00     0.130 C 
ATOM     13  O   UNL     1      21.146  51.859   1.668  1.00  0.00    -0.300 OA
ATOM     14  C   UNL     1      22.705  50.508   2.795  1.00  0.00     0.087 C 
ENDBRANCH  11  12
ENDBRANCH  10  11
ENDBRANCH   2  10
TORSDOF 6
ENDMDL
MODEL 3
REMARK VINA RESULT:    -5.033      1.961      2.907
REMARK INTER + INTRA:          -7.256
REMARK INTER:                  -6.467
REMARK INTRA:                  -0.789
REMARK UNBOUND:                -0.458
REMARK SMILES CC(=O)CCC=C(C)CCC=C(C)C
REMARK SMILES IDX 7 1 6 2 8 3 9 4 10 5 11 6 13 7 12 8 14 9 5 10 4 11 2 12 3 13
REMARK SMILES IDX 1 14
REMARK H PARENT
REMARK Flexibility Score: inf
ROOT
ATOM      1  C   UNL     1      22.383  50.900   1.155  1.00  0.00    -0.077 C 
ATOM      2  C   UNL     1      23.222  51.961   1.170  1.00  0.00    -0.028 C 
ATOM      3  C   UNL     1      21.003  51.070   1.738  1.00  0.00     0.039 C 
ENDROOT
BRANCH   1   4
ATOM      4  C   UNL     1      22.740  49.573   0.515  1.00  0.00     0.034 C 
BRANCH   4   5
ATOM      5  C   UNL     1      21.908  49.342  -0.751  1.00  0.00     0.032 C 
BRANCH   5   6
ATOM      6  C   UNL     1      22.355  50.264  -1.858  1.00  0.00    -0.028 C 
ATOM      7  C   UNL     1      21.126  48.994  -3.632  1.00  0.00     0.039 C 
ATOM      8  C   UNL     1      22.033  50.107  -3.160  1.00  0.00    -0.080 C 
ATOM      9  C   UNL     1      22.589  51.087  -4.161  1.00  0.00     0.039 C 
ENDBRANCH   5   6
ENDBRANCH   4   5
ENDBRANCH   1   4
BRANCH   2  10
ATOM     10  C   UNL     1      24.631  51.950   0.634  1.00  0.00     0.035 C 
BRANCH  10  11
ATOM     11  C   UNL     1      24.794  52.973  -0.495  1.00  0.00     0.079 C 
BRANCH  11  12
ATOM     12  C   UNL     1      25.662  54.119  -0.050  1.00  0.00     0.130 C 
ATOM     13  O   UNL     1      26.008  54.963  -0.863  1.00  0.00    -0.300 OA
ATOM     14  C   UNL     1      26.111  54.252   1.376  1.00  0.00     0.087 C 
ENDBRANCH  11  12
ENDBRANCH  10  11
ENDBRANCH   2  10
TORSDOF 6
ENDMDL
MODEL 4
REMARK VINA RESULT:    -4.951      2.154      4.586
REMARK INTER + INTRA:          -7.145
REMARK INTER:                  -6.109
REMARK INTRA:                  -1.037
REMARK UNBOUND:                -0.458
REMARK SMILES CC(=O)CCC=C(C)CCC=C(C)C
REMARK SMILES IDX 7 1 6 2 8 3 9 4 10 5 11 6 13 7 12 8 14 9 5 10 4 11 2 12 3 13
REMARK SMILES IDX 1 14
REMARK H PARENT
REMARK Flexibility Score: inf
ROOT
ATOM      1  C   UNL     1      23.104  51.037  -1.797  1.00  0.00    -0.077 C 
ATOM      2  C   UNL     1      23.433  52.260  -1.320  1.00  0.00    -0.028 C 
ATOM      3  C   UNL     1      22.466  50.948  -3.160  1.00  0.00     0.039 C 
ENDROOT
BRANCH   1   4
ATOM      4  C   UNL     1      23.414  49.751  -1.057  1.00  0.00     0.034 C 
BRANCH   4   5
ATOM      5  C   UNL     1      22.213  49.308  -0.215  1.00  0.00     0.032 C 
BRANCH   5   6
ATOM      6  C   UNL     1      22.551  49.339   1.255  1.00  0.00    -0.028 C 
ATOM      7  C   UNL     1      21.116  51.342   1.708  1.00  0.00     0.039 C 
ATOM      8  C   UNL     1      22.087  50.261   2.126  1.00  0.00    -0.080 C 
ATOM      9  C   UNL     1      22.545  50.189   3.560  1.00  0.00     0.039 C 
ENDBRANCH   5   6
ENDBRANCH   4   5
ENDBRANCH   1   4
BRANCH   2  10
ATOM     10  C   UNL     1      24.069  52.516   0.022  1.00  0.00     0.035 C 
BRANCH  10  11
ATOM     11  C   UNL     1      25.573  52.767  -0.126  1.00  0.00     0.079 C 
BRANCH  11  12
ATOM     12  C   UNL     1      25.939  54.126   0.407  1.00  0.00     0.130 C 
ATOM     13  O   UNL     1      25.932  54.322   1.614  1.00  0.00    -0.300 OA
ATOM     14  C   UNL     1      26.319  55.249  -0.512  1.00  0.00     0.087 C 
ENDBRANCH  11  12
ENDBRANCH  10  11
ENDBRANCH   2  10
TORSDOF 6
ENDMDL
MODEL 5
REMARK VINA RESULT:    -4.931      2.852      6.287
REMARK INTER + INTRA:          -7.118
REMARK INTER:                  -6.552
REMARK INTRA:                  -0.566
REMARK UNBOUND:                -0.458
REMARK SMILES CC(=O)CCC=C(C)CCC=C(C)C
REMARK SMILES IDX 7 1 6 2 8 3 9 4 10 5 11 6 13 7 12 8 14 9 5 10 4 11 2 12 3 13
REMARK SMILES IDX 1 14
REMARK H PARENT
REMARK Flexibility Score: inf
ROOT
ATOM      1  C   UNL     1      22.603  51.152  -0.394  1.00  0.00    -0.077 C 
ATOM      2  C   UNL     1      22.397  50.000  -1.072  1.00  0.00    -0.028 C 
ATOM      3  C   UNL     1      22.049  51.269   1.003  1.00  0.00     0.039 C 
ENDROOT
BRANCH   1   4
ATOM      4  C   UNL     1      23.427  52.300  -0.945  1.00  0.00     0.034 C 
BRANCH   4   5
ATOM      5  C   UNL     1      24.746  52.436  -0.177  1.00  0.00     0.032 C 
BRANCH   5   6
ATOM      6  C   UNL     1      25.448  53.718  -0.547  1.00  0.00    -0.028 C 
ATOM      7  C   UNL     1      26.184  54.183   1.802  1.00  0.00     0.039 C 
ATOM      8  C   UNL     1      26.077  54.527   0.333  1.00  0.00    -0.080 C 
ATOM      9  C   UNL     1      26.701  55.800  -0.178  1.00  0.00     0.039 C 
ENDBRANCH   5   6
ENDBRANCH   4   5
ENDBRANCH   1   4
BRANCH   2  10
ATOM     10  C   UNL     1      22.880  49.730  -2.475  1.00  0.00     0.035 C 
BRANCH  10  11
ATOM     11  C   UNL     1      21.862  50.226  -3.507  1.00  0.00     0.079 C 
BRANCH  11  12
ATOM     12  C   UNL     1      22.563  50.849  -4.685  1.00  0.00     0.130 C 
ATOM     13  O   UNL     1      22.051  51.800  -5.257  1.00  0.00    -0.300 OA
ATOM     14  C   UNL     1      23.884  50.330  -5.172  1.00  0.00     0.087 C 
ENDBRANCH  11  12
ENDBRANCH  10  11
ENDBRANCH   2  10
TORSDOF 6
ENDMDL
MODEL 6
REMARK VINA RESULT:    -4.905      2.000      3.421
REMARK INTER + INTRA:          -7.083
REMARK INTER:                  -6.551
REMARK INTRA:                  -0.532
REMARK UNBOUND:                -0.458
REMARK SMILES CC(=O)CCC=C(C)CCC=C(C)C
REMARK SMILES IDX 7 1 6 2 8 3 9 4 10 5 11 6 13 7 12 8 14 9 5 10 4 11 2 12 3 13
REMARK SMILES IDX 1 14
REMARK H PARENT
REMARK Flexibility Score: inf
ROOT
ATOM      1  C   UNL     1      24.342  52.663  -0.258  1.00  0.00    -0.077 C 
ATOM      2  C   UNL     1      25.104  53.723  -0.614  1.00  0.00    -0.028 C 
ATOM      3  C   UNL     1      23.362  52.116  -1.266  1.00  0.00     0.039 C 
ENDROOT
BRANCH   1   4
ATOM      4  C   UNL     1      24.480  51.957   1.076  1.00  0.00     0.034 C 
BRANCH   4   5
ATOM      5  C   UNL     1      23.820  50.575   1.026  1.00  0.00     0.032 C 
BRANCH   5   6
ATOM      6  C   UNL     1      22.469  50.605   1.696  1.00  0.00    -0.028 C 
ATOM      7  C   UNL     1      21.389  49.174  -0.053  1.00  0.00     0.039 C 
ATOM      8  C   UNL     1      21.362  50.002   1.211  1.00  0.00    -0.080 C 
ATOM      9  C   UNL     1      20.069  50.154   1.971  1.00  0.00     0.039 C 
ENDBRANCH   5   6
ENDBRANCH   4   5
ENDBRANCH   1   4
BRANCH   2  10
ATOM     10  C   UNL     1      26.121  54.388   0.278  1.00  0.00     0.035 C 
BRANCH  10  11
ATOM     11  C   UNL     1      26.456  55.794  -0.230  1.00  0.00     0.079 C 
BRANCH  11  12
ATOM     12  C   UNL     1      27.863  55.844  -0.764  1.00  0.00     0.130 C 
ATOM     13  O   UNL     1      28.687  56.566  -0.223  1.00  0.00    -0.300 OA
ATOM     14  C   UNL     1      28.279  55.019  -1.945  1.00  0.00     0.087 C 
ENDBRANCH  11  12
ENDBRANCH  10  11
ENDBRANCH   2  10
TORSDOF 6
ENDMDL
MODEL 7
REMARK VINA RESULT:    -4.714      3.168      6.296
REMARK INTER + INTRA:          -6.825
REMARK INTER:                  -6.100
REMARK INTRA:                  -0.725
REMARK UNBOUND:                -0.458
REMARK SMILES CC(=O)CCC=C(C)CCC=C(C)C
REMARK SMILES IDX 7 1 6 2 8 3 9 4 10 5 11 6 13 7 12 8 14 9 5 10 4 11 2 12 3 13
REMARK SMILES IDX 1 14
REMARK H PARENT
REMARK Flexibility Score: inf
ROOT
ATOM      1  C   UNL     1      22.640  51.157  -0.737  1.00  0.00    -0.077 C 
ATOM      2  C   UNL     1      22.055  50.659   0.376  1.00  0.00    -0.028 C 
ATOM      3  C   UNL     1      22.547  50.359  -2.013  1.00  0.00     0.039 C 
ENDROOT
BRANCH   1   4
ATOM      4  C   UNL     1      23.318  52.512  -0.778  1.00  0.00     0.034 C 
BRANCH   4   5
ATOM      5  C   UNL     1      24.794  52.390  -0.383  1.00  0.00     0.032 C 
BRANCH   5   6
ATOM      6  C   UNL     1      25.524  53.685  -0.640  1.00  0.00    -0.028 C 
ATOM      7  C   UNL     1      26.100  54.027   1.773  1.00  0.00     0.039 C 
ATOM      8  C   UNL     1      26.093  54.445   0.320  1.00  0.00    -0.080 C 
ATOM      9  C   UNL     1      26.754  55.737  -0.085  1.00  0.00     0.039 C 
ENDBRANCH   5   6
ENDBRANCH   4   5
ENDBRANCH   1   4
BRANCH   2  10
ATOM     10  C   UNL     1      22.065  51.330   1.726  1.00  0.00     0.035 C 
BRANCH  10  11
ATOM     11  C   UNL     1      22.087  50.291   2.852  1.00  0.00     0.079 C 
BRANCH  11  12
ATOM     12  C   UNL     1      23.436  50.262   3.519  1.00  0.00     0.130 C 
ATOM     13  O   UNL     1      23.504  50.166   4.736  1.00  0.00    -0.300 OA
ATOM     14  C   UNL     1      24.703  50.342   2.722  1.00  0.00     0.087 C 
ENDBRANCH  11  12
ENDBRANCH  10  11
ENDBRANCH   2  10
TORSDOF 6
ENDMDL
MODEL 8
REMARK VINA RESULT:    -4.682      3.145      5.074
REMARK INTER + INTRA:          -6.782
REMARK INTER:                  -5.766
REMARK INTRA:                  -1.016
REMARK UNBOUND:                -0.458
REMARK SMILES CC(=O)CCC=C(C)CCC=C(C)C
REMARK SMILES IDX 7 1 6 2 8 3 9 4 10 5 11 6 13 7 12 8 14 9 5 10 4 11 2 12 3 13
REMARK SMILES IDX 1 14
REMARK H PARENT
REMARK Flexibility Score: inf
ROOT
ATOM      1  C   UNL     1      24.685  51.995   0.134  1.00  0.00    -0.077 C 
ATOM      2  C   UNL     1      24.626  51.630   1.435  1.00  0.00    -0.028 C 
ATOM      3  C   UNL     1      25.328  53.314  -0.210  1.00  0.00     0.039 C 
ENDROOT
BRANCH   1   4
ATOM      4  C   UNL     1      24.200  51.108  -0.996  1.00  0.00     0.034 C 
BRANCH   4   5
ATOM      5  C   UNL     1      22.831  51.576  -1.501  1.00  0.00     0.032 C 
BRANCH   5   6
ATOM      6  C   UNL     1      22.689  51.312  -2.979  1.00  0.00    -0.028 C 
ATOM      7  C   UNL     1      21.442  49.166  -2.642  1.00  0.00     0.039 C 
ATOM      8  C   UNL     1      22.091  50.223  -3.507  1.00  0.00    -0.080 C 
ATOM      9  C   UNL     1      22.061  50.076  -5.007  1.00  0.00     0.039 C 
ENDBRANCH   5   6
ENDBRANCH   4   5
ENDBRANCH   1   4
BRANCH   2  10
ATOM     10  C   UNL     1      24.011  50.349   1.942  1.00  0.00     0.035 C 
BRANCH  10  11
ATOM     11  C   UNL     1      22.738  50.636   2.744  1.00  0.00     0.079 C 
BRANCH  11  12
ATOM     12  C   UNL     1      21.534  50.644   1.841  1.00  0.00     0.130 C 
ATOM     13  O   UNL     1      20.867  51.663   1.737  1.00  0.00    -0.300 OA
ATOM     14  C   UNL     1      21.136  49.428   1.060  1.00  0.00     0.087 C 
ENDBRANCH  11  12
ENDBRANCH  10  11
ENDBRANCH   2  10
TORSDOF 6
ENDMDL
MODEL 9
REMARK VINA RESULT:    -4.666      1.733      2.910
REMARK INTER + INTRA:          -6.760
REMARK INTER:                  -6.137
REMARK INTRA:                  -0.623
REMARK UNBOUND:                -0.458
REMARK SMILES CC(=O)CCC=C(C)CCC=C(C)C
REMARK SMILES IDX 7 1 6 2 8 3 9 4 10 5 11 6 13 7 12 8 14 9 5 10 4 11 2 12 3 13
REMARK SMILES IDX 1 14
REMARK H PARENT
REMARK Flexibility Score: inf
ROOT
ATOM      1  C   UNL     1      22.797  50.475  -1.304  1.00  0.00    -0.077 C 
ATOM      2  C   UNL     1      22.884  51.619  -0.586  1.00  0.00    -0.028 C 
ATOM      3  C   UNL     1      21.784  49.441  -0.882  1.00  0.00     0.039 C 
ENDROOT
BRANCH   1   4
ATOM      4  C   UNL     1      23.617  50.220  -2.553  1.00  0.00     0.034 C 
BRANCH   4   5
ATOM      5  C   UNL     1      22.703  49.950  -3.753  1.00  0.00     0.032 C 
BRANCH   5   6
ATOM      6  C   UNL     1      22.248  51.245  -4.379  1.00  0.00    -0.028 C 
ATOM      7  C   UNL     1      22.114  50.273  -6.683  1.00  0.00     0.039 C 
ATOM      8  C   UNL     1      22.004  51.413  -5.696  1.00  0.00    -0.080 C 
ATOM      9  C   UNL     1      21.594  52.779  -6.183  1.00  0.00     0.039 C 
ENDBRANCH   5   6
ENDBRANCH   4   5
ENDBRANCH   1   4
BRANCH   2  10
ATOM     10  C   UNL     1      23.847  52.744  -0.874  1.00  0.00     0.035 C 
BRANCH  10  11
ATOM     11  C   UNL     1      25.160  52.546  -0.112  1.00  0.00     0.079 C 
BRANCH  11  12
ATOM     12  C   UNL     1      25.729  53.873   0.316  1.00  0.00     0.130 C 
ATOM     13  O   UNL     1      25.879  54.108   1.506  1.00  0.00    -0.300 OA
ATOM     14  C   UNL     1      26.122  54.915  -0.689  1.00  0.00     0.087 C 
ENDBRANCH  11  12
ENDBRANCH  10  11
ENDBRANCH   2  10
TORSDOF 6
ENDMDL
