MODEL 1
REMARK VINA RESULT:    -4.021      0.000      0.000
REMARK INTER + INTRA:          -8.875
REMARK INTER:                  -6.843
REMARK INTRA:                  -2.033
REMARK UNBOUND:                -2.033
REMARK SMILES CCCCCCCCCCCCCC(=O)[O-]
REMARK SMILES IDX 8 1 9 2 10 3 11 4 12 5 13 6 14 7 15 8 16 9 7 10 6 11 5 12
REMARK SMILES IDX 4 13 3 14 2 15 1 16
REMARK H PARENT
REMARK Flexibility Score: inf
ROOT
ATOM      1  C   UNL     1      19.071 -32.856  20.845  1.00  0.00     0.000 C 
ENDROOT
BRANCH   1   2
ATOM      2  C   UNL     1      18.018 -31.779  20.526  1.00  0.00     0.000 C 
BRANCH   2   3
ATOM      3  C   UNL     1      16.988 -31.518  21.640  1.00  0.00     0.000 C 
BRANCH   3   4
ATOM      4  C   UNL     1      17.551 -31.756  23.048  1.00  0.00     0.000 C 
BRANCH   4   5
ATOM      5  C   UNL     1      16.455 -31.615  24.111  1.00  0.00     0.006 C 
BRANCH   5   6
ATOM      6  C   UNL     1      15.203 -30.956  23.527  1.00  0.00     0.053 C 
BRANCH   6   7
ATOM      7  C   UNL     1      14.006 -31.829  23.734  1.00  0.00     0.041 C 
ATOM      8  O   UNL     1      14.000 -32.688  24.654  1.00  0.00    -0.550 OA
ATOM      9  O   UNL     1      12.876 -31.659  22.943  1.00  0.00    -0.550 OA
ENDBRANCH   6   7
ENDBRANCH   5   6
ENDBRANCH   4   5
ENDBRANCH   3   4
ENDBRANCH   2   3
ENDBRANCH   1   2
BRANCH   1  10
ATOM     10  C   UNL     1      19.087 -34.002  19.818  1.00  0.00     0.000 C 
BRANCH  10  11
ATOM     11  C   UNL     1      17.712 -34.241  19.166  1.00  0.00    -0.000 C 
BRANCH  11  12
ATOM     12  C   UNL     1      16.901 -35.408  19.761  1.00  0.00    -0.000 C 
BRANCH  12  13
ATOM     13  C   UNL     1      15.562 -35.005  20.411  1.00  0.00    -0.000 C 
BRANCH  13  14
ATOM     14  C   UNL     1      15.652 -34.799  21.939  1.00  0.00    -0.000 C 
BRANCH  14  15
ATOM     15  C   UNL     1      16.923 -35.394  22.570  1.00  0.00    -0.003 C 
ATOM     16  C   UNL     1      16.895 -35.350  24.098  1.00  0.00     0.004 C 
ENDBRANCH  14  15
ENDBRANCH  13  14
ENDBRANCH  12  13
ENDBRANCH  11  12
ENDBRANCH  10  11
ENDBRANCH   1  10
TORSDOF 12
ENDMDL
MODEL 2
REMARK VINA RESULT:    -4.006      1.908      3.593
REMARK INTER + INTRA:          -8.850
REMARK INTER:                  -7.643
REMARK INTRA:                  -1.206
REMARK UNBOUND:                -2.033
REMARK SMILES CCCCCCCCCCCCCC(=O)[O-]
REMARK SMILES IDX 8 1 9 2 10 3 11 4 12 5 13 6 14 7 15 8 16 9 7 10 6 11 5 12
REMARK SMILES IDX 4 13 3 14 2 15 1 16
REMARK H PARENT
REMARK Flexibility Score: inf
ROOT
ATOM      1  C   UNL     1      15.822 -35.346  20.661  1.00  0.00     0.000 C 
ENDROOT
BRANCH   1   2
ATOM      2  C   UNL     1      14.907 -34.173  20.265  1.00  0.00     0.000 C 
BRANCH   2   3
ATOM      3  C   UNL     1      14.653 -33.135  21.373  1.00  0.00     0.000 C 
BRANCH   3   4
ATOM      4  C   UNL     1      13.831 -31.930  20.892  1.00  0.00     0.000 C 
BRANCH   4   5
ATOM      5  C   UNL     1      12.801 -31.509  21.947  1.00  0.00     0.006 C 
BRANCH   5   6
ATOM      6  C   UNL     1      13.408 -31.545  23.352  1.00  0.00     0.053 C 
BRANCH   6   7
ATOM      7  C   UNL     1      13.816 -30.171  23.782  1.00  0.00     0.041 C 
ATOM      8  O   UNL     1      14.978 -29.751  23.541  1.00  0.00    -0.550 OA
ATOM      9  O   UNL     1      12.896 -29.336  24.405  1.00  0.00    -0.550 OA
ENDBRANCH   6   7
ENDBRANCH   5   6
ENDBRANCH   4   5
ENDBRANCH   3   4
ENDBRANCH   2   3
ENDBRANCH   1   2
BRANCH   1  10
ATOM     10  C   UNL     1      16.886 -35.663  19.596  1.00  0.00     0.000 C 
BRANCH  10  11
ATOM     11  C   UNL     1      17.673 -34.418  19.146  1.00  0.00    -0.000 C 
BRANCH  11  12
ATOM     12  C   UNL     1      19.156 -34.395  19.566  1.00  0.00    -0.000 C 
BRANCH  12  13
ATOM     13  C   UNL     1      19.533 -33.282  20.563  1.00  0.00    -0.000 C 
BRANCH  13  14
ATOM     14  C   UNL     1      18.319 -32.676  21.304  1.00  0.00    -0.000 C 
BRANCH  14  15
ATOM     15  C   UNL     1      18.038 -31.209  20.933  1.00  0.00    -0.003 C 
ATOM     16  C   UNL     1      19.190 -30.278  21.310  1.00  0.00     0.004 C 
ENDBRANCH  14  15
ENDBRANCH  13  14
ENDBRANCH  12  13
ENDBRANCH  11  12
ENDBRANCH  10  11
ENDBRANCH   1  10
TORSDOF 12
ENDMDL
MODEL 3
REMARK VINA RESULT:    -3.993      3.230      5.445
REMARK INTER + INTRA:          -8.826
REMARK INTER:                  -7.279
REMARK INTRA:                  -1.547
REMARK UNBOUND:                -2.033
REMARK SMILES CCCCCCCCCCCCCC(=O)[O-]
REMARK SMILES IDX 8 1 9 2 10 3 11 4 12 5 13 6 14 7 15 8 16 9 7 10 6 11 5 12
REMARK SMILES IDX 4 13 3 14 2 15 1 16
REMARK H PARENT
REMARK Flexibility Score: inf
ROOT
ATOM      1  C   UNL     1      17.018 -31.900  21.404  1.00  0.00     0.000 C 
ENDROOT
BRANCH   1   2
ATOM      2  C   UNL     1      18.124 -32.449  20.484  1.00  0.00     0.000 C 
BRANCH   2   3
ATOM      3  C   UNL     1      18.709 -33.811  20.902  1.00  0.00     0.000 C 
BRANCH   3   4
ATOM      4  C   UNL     1      18.704 -34.842  19.763  1.00  0.00     0.000 C 
BRANCH   4   5
ATOM      5  C   UNL     1      17.291 -35.027  19.196  1.00  0.00     0.006 C 
BRANCH   5   6
ATOM      6  C   UNL     1      16.584 -36.213  19.857  1.00  0.00     0.053 C 
BRANCH   6   7
ATOM      7  C   UNL     1      17.350 -37.477  19.622  1.00  0.00     0.041 C 
ATOM      8  O   UNL     1      17.532 -37.899  18.450  1.00  0.00    -0.550 OA
ATOM      9  O   UNL     1      17.905 -38.162  20.696  1.00  0.00    -0.550 OA
ENDBRANCH   6   7
ENDBRANCH   5   6
ENDBRANCH   4   5
ENDBRANCH   3   4
ENDBRANCH   2   3
ENDBRANCH   1   2
BRANCH   1  10
ATOM     10  C   UNL     1      16.560 -32.917  22.464  1.00  0.00     0.000 C 
BRANCH  10  11
ATOM     11  C   UNL     1      15.220 -33.589  22.109  1.00  0.00    -0.000 C 
BRANCH  11  12
ATOM     12  C   UNL     1      14.361 -32.831  21.079  1.00  0.00    -0.000 C 
BRANCH  12  13
ATOM     13  C   UNL     1      13.668 -31.563  21.618  1.00  0.00    -0.000 C 
BRANCH  13  14
ATOM     14  C   UNL     1      13.083 -31.732  23.038  1.00  0.00    -0.000 C 
BRANCH  14  15
ATOM     15  C   UNL     1      13.824 -30.918  24.113  1.00  0.00    -0.003 C 
ATOM     16  C   UNL     1      14.604 -29.743  23.525  1.00  0.00     0.004 C 
ENDBRANCH  14  15
ENDBRANCH  13  14
ENDBRANCH  12  13
ENDBRANCH  11  12
ENDBRANCH  10  11
ENDBRANCH   1  10
TORSDOF 12
ENDMDL
MODEL 4
REMARK VINA RESULT:    -3.968      1.572      2.996
REMARK INTER + INTRA:          -8.784
REMARK INTER:                  -6.913
REMARK INTRA:                  -1.871
REMARK UNBOUND:                -2.033
REMARK SMILES CCCCCCCCCCCCCC(=O)[O-]
REMARK SMILES IDX 8 1 9 2 10 3 11 4 12 5 13 6 14 7 15 8 16 9 7 10 6 11 5 12
REMARK SMILES IDX 4 13 3 14 2 15 1 16
REMARK H PARENT
REMARK Flexibility Score: inf
ROOT
ATOM      1  C   UNL     1      17.096 -35.717  19.422  1.00  0.00     0.000 C 
ENDROOT
BRANCH   1   2
ATOM      2  C   UNL     1      15.778 -35.633  20.214  1.00  0.00     0.000 C 
BRANCH   2   3
ATOM      3  C   UNL     1      15.027 -34.293  20.098  1.00  0.00     0.000 C 
BRANCH   3   4
ATOM      4  C   UNL     1      14.845 -33.587  21.449  1.00  0.00     0.000 C 
BRANCH   4   5
ATOM      5  C   UNL     1      14.573 -32.091  21.257  1.00  0.00     0.006 C 
BRANCH   5   6
ATOM      6  C   UNL     1      13.072 -31.792  21.317  1.00  0.00     0.053 C 
BRANCH   6   7
ATOM      7  C   UNL     1      12.725 -31.109  22.602  1.00  0.00     0.041 C 
ATOM      8  O   UNL     1      11.867 -30.188  22.618  1.00  0.00    -0.550 OA
ATOM      9  O   UNL     1      13.314 -31.524  23.791  1.00  0.00    -0.550 OA
ENDBRANCH   6   7
ENDBRANCH   5   6
ENDBRANCH   4   5
ENDBRANCH   3   4
ENDBRANCH   2   3
ENDBRANCH   1   2
BRANCH   1  10
ATOM     10  C   UNL     1      17.690 -34.335  19.097  1.00  0.00     0.000 C 
BRANCH  10  11
ATOM     11  C   UNL     1      18.886 -33.972  19.997  1.00  0.00    -0.000 C 
BRANCH  11  12
ATOM     12  C   UNL     1      18.582 -32.944  21.104  1.00  0.00    -0.000 C 
BRANCH  12  13
ATOM     13  C   UNL     1      18.290 -33.551  22.491  1.00  0.00    -0.000 C 
BRANCH  13  14
ATOM     14  C   UNL     1      18.748 -35.019  22.635  1.00  0.00    -0.000 C 
BRANCH  14  15
ATOM     15  C   UNL     1      17.723 -35.920  23.346  1.00  0.00    -0.003 C 
ATOM     16  C   UNL     1      16.757 -35.127  24.227  1.00  0.00     0.004 C 
ENDBRANCH  14  15
ENDBRANCH  13  14
ENDBRANCH  12  13
ENDBRANCH  11  12
ENDBRANCH  10  11
ENDBRANCH   1  10
TORSDOF 12
ENDMDL
MODEL 5
REMARK VINA RESULT:    -3.877      2.621      4.666
REMARK INTER + INTRA:          -8.629
REMARK INTER:                  -7.025
REMARK INTRA:                  -1.605
REMARK UNBOUND:                -2.033
REMARK SMILES CCCCCCCCCCCCCC(=O)[O-]
REMARK SMILES IDX 8 1 9 2 10 3 11 4 12 5 13 6 14 7 15 8 16 9 7 10 6 11 5 12
REMARK SMILES IDX 4 13 3 14 2 15 1 16
REMARK H PARENT
REMARK Flexibility Score: inf
ROOT
ATOM      1  C   UNL     1      16.091 -35.761  20.346  1.00  0.00     0.000 C 
ENDROOT
BRANCH   1   2
ATOM      2  C   UNL     1      17.299 -35.625  19.401  1.00  0.00     0.000 C 
BRANCH   2   3
ATOM      3  C   UNL     1      17.926 -34.220  19.335  1.00  0.00     0.000 C 
BRANCH   3   4
ATOM      4  C   UNL     1      19.431 -34.219  19.640  1.00  0.00     0.000 C 
BRANCH   4   5
ATOM      5  C   UNL     1      19.790 -33.108  20.635  1.00  0.00     0.006 C 
BRANCH   5   6
ATOM      6  C   UNL     1      18.601 -32.172  20.867  1.00  0.00     0.053 C 
BRANCH   6   7
ATOM      7  C   UNL     1      19.073 -30.829  21.328  1.00  0.00     0.041 C 
ATOM      8  O   UNL     1      20.049 -30.738  22.118  1.00  0.00    -0.550 OA
ATOM      9  O   UNL     1      18.468 -29.676  20.844  1.00  0.00    -0.550 OA
ENDBRANCH   6   7
ENDBRANCH   5   6
ENDBRANCH   4   5
ENDBRANCH   3   4
ENDBRANCH   2   3
ENDBRANCH   1   2
BRANCH   1  10
ATOM     10  C   UNL     1      16.266 -34.980  21.660  1.00  0.00     0.000 C 
BRANCH  10  11
ATOM     11  C   UNL     1      15.062 -34.076  21.985  1.00  0.00    -0.000 C 
BRANCH  11  12
ATOM     12  C   UNL     1      14.451 -33.342  20.775  1.00  0.00    -0.000 C 
BRANCH  12  13
ATOM     13  C   UNL     1      13.920 -31.926  21.075  1.00  0.00    -0.000 C 
BRANCH  13  14
ATOM     14  C   UNL     1      15.028 -30.913  21.443  1.00  0.00    -0.000 C 
BRANCH  14  15
ATOM     15  C   UNL     1      15.001 -30.477  22.918  1.00  0.00    -0.003 C 
ATOM     16  C   UNL     1      16.243 -30.929  23.686  1.00  0.00     0.004 C 
ENDBRANCH  14  15
ENDBRANCH  13  14
ENDBRANCH  12  13
ENDBRANCH  11  12
ENDBRANCH  10  11
ENDBRANCH   1  10
TORSDOF 12
ENDMDL
MODEL 6
REMARK VINA RESULT:    -3.843      1.690      3.447
REMARK INTER + INTRA:          -8.572
REMARK INTER:                  -6.497
REMARK INTRA:                  -2.075
REMARK UNBOUND:                -2.033
REMARK SMILES CCCCCCCCCCCCCC(=O)[O-]
REMARK SMILES IDX 8 1 9 2 10 3 11 4 12 5 13 6 14 7 15 8 16 9 7 10 6 11 5 12
REMARK SMILES IDX 4 13 3 14 2 15 1 16
REMARK H PARENT
REMARK Flexibility Score: inf
ROOT
ATOM      1  C   UNL     1      18.651 -35.483  23.179  1.00  0.00     0.000 C 
ENDROOT
BRANCH   1   2
ATOM      2  C   UNL     1      17.232 -35.646  23.754  1.00  0.00     0.000 C 
BRANCH   2   3
ATOM      3  C   UNL     1      16.230 -34.549  23.351  1.00  0.00     0.000 C 
BRANCH   3   4
ATOM      4  C   UNL     1      16.907 -33.211  23.018  1.00  0.00     0.000 C 
BRANCH   4   5
ATOM      5  C   UNL     1      16.242 -32.544  21.807  1.00  0.00     0.006 C 
BRANCH   5   6
ATOM      6  C   UNL     1      14.995 -33.317  21.369  1.00  0.00     0.053 C 
BRANCH   6   7
ATOM      7  C   UNL     1      13.828 -32.391  21.229  1.00  0.00     0.041 C 
ATOM      8  O   UNL     1      13.141 -32.393  20.174  1.00  0.00    -0.550 OA
ATOM      9  O   UNL     1      13.467 -31.562  22.284  1.00  0.00    -0.550 OA
ENDBRANCH   6   7
ENDBRANCH   5   6
ENDBRANCH   4   5
ENDBRANCH   3   4
ENDBRANCH   2   3
ENDBRANCH   1   2
BRANCH   1  10
ATOM     10  C   UNL     1      19.096 -36.686  22.328  1.00  0.00     0.000 C 
BRANCH  10  11
ATOM     11  C   UNL     1      18.007 -37.163  21.350  1.00  0.00    -0.000 C 
BRANCH  11  12
ATOM     12  C   UNL     1      18.226 -36.756  19.879  1.00  0.00    -0.000 C 
BRANCH  12  13
ATOM     13  C   UNL     1      17.269 -35.666  19.357  1.00  0.00    -0.000 C 
BRANCH  13  14
ATOM     14  C   UNL     1      17.927 -34.274  19.224  1.00  0.00    -0.000 C 
BRANCH  14  15
ATOM     15  C   UNL     1      19.449 -34.285  19.452  1.00  0.00    -0.003 C 
ATOM     16  C   UNL     1      19.893 -33.252  20.488  1.00  0.00     0.004 C 
ENDBRANCH  14  15
ENDBRANCH  13  14
ENDBRANCH  12  13
ENDBRANCH  11  12
ENDBRANCH  10  11
ENDBRANCH   1  10
TORSDOF 12
ENDMDL
MODEL 7
REMARK VINA RESULT:    -3.817      3.270      5.410
REMARK INTER + INTRA:          -8.528
REMARK INTER:                  -7.106
REMARK INTRA:                  -1.422
REMARK UNBOUND:                -2.033
REMARK SMILES CCCCCCCCCCCCCC(=O)[O-]
REMARK SMILES IDX 8 1 9 2 10 3 11 4 12 5 13 6 14 7 15 8 16 9 7 10 6 11 5 12
REMARK SMILES IDX 4 13 3 14 2 15 1 16
REMARK H PARENT
REMARK Flexibility Score: inf
ROOT
ATOM      1  C   UNL     1      18.056 -31.087  21.063  1.00  0.00     0.000 C 
ENDROOT
BRANCH   1   2
ATOM      2  C   UNL     1      17.825 -32.521  20.553  1.00  0.00     0.000 C 
BRANCH   2   3
ATOM      3  C   UNL     1      19.087 -33.400  20.473  1.00  0.00     0.000 C 
BRANCH   3   4
ATOM      4  C   UNL     1      18.964 -34.534  19.445  1.00  0.00     0.000 C 
BRANCH   4   5
ATOM      5  C   UNL     1      17.517 -35.032  19.344  1.00  0.00     0.006 C 
BRANCH   5   6
ATOM      6  C   UNL     1      17.235 -36.117  20.386  1.00  0.00     0.053 C 
BRANCH   6   7
ATOM      7  C   UNL     1      17.644 -37.460  19.867  1.00  0.00     0.041 C 
ATOM      8  O   UNL     1      17.958 -38.379  20.668  1.00  0.00    -0.550 OA
ATOM      9  O   UNL     1      17.630 -37.712  18.501  1.00  0.00    -0.550 OA
ENDBRANCH   6   7
ENDBRANCH   5   6
ENDBRANCH   4   5
ENDBRANCH   3   4
ENDBRANCH   2   3
ENDBRANCH   1   2
BRANCH   1  10
ATOM     10  C   UNL     1      17.303 -30.786  22.371  1.00  0.00     0.000 C 
BRANCH  10  11
ATOM     11  C   UNL     1      16.081 -29.872  22.162  1.00  0.00    -0.000 C 
BRANCH  11  12
ATOM     12  C   UNL     1      14.955 -30.039  23.201  1.00  0.00    -0.000 C 
BRANCH  12  13
ATOM     13  C   UNL     1      14.184 -31.371  23.116  1.00  0.00    -0.000 C 
BRANCH  13  14
ATOM     14  C   UNL     1      13.787 -31.767  21.676  1.00  0.00    -0.000 C 
BRANCH  14  15
ATOM     15  C   UNL     1      14.341 -33.133  21.235  1.00  0.00    -0.003 C 
ATOM     16  C   UNL     1      15.041 -33.877  22.373  1.00  0.00     0.004 C 
ENDBRANCH  14  15
ENDBRANCH  13  14
ENDBRANCH  12  13
ENDBRANCH  11  12
ENDBRANCH  10  11
ENDBRANCH   1  10
TORSDOF 12
ENDMDL
MODEL 8
REMARK VINA RESULT:    -3.797      1.376      1.984
REMARK INTER + INTRA:          -8.493
REMARK INTER:                  -6.349
REMARK INTRA:                  -2.144
REMARK UNBOUND:                -2.033
REMARK SMILES CCCCCCCCCCCCCC(=O)[O-]
REMARK SMILES IDX 8 1 9 2 10 3 11 4 12 5 13 6 14 7 15 8 16 9 7 10 6 11 5 12
REMARK SMILES IDX 4 13 3 14 2 15 1 16
REMARK H PARENT
REMARK Flexibility Score: inf
ROOT
ATOM      1  C   UNL     1      18.711 -31.263  21.728  1.00  0.00     0.000 C 
ENDROOT
BRANCH   1   2
ATOM      2  C   UNL     1      18.532 -32.107  23.004  1.00  0.00     0.000 C 
BRANCH   2   3
ATOM      3  C   UNL     1      17.605 -31.495  24.070  1.00  0.00     0.000 C 
BRANCH   3   4
ATOM      4  C   UNL     1      16.682 -30.403  23.510  1.00  0.00     0.000 C 
BRANCH   4   5
ATOM      5  C   UNL     1      15.250 -30.925  23.339  1.00  0.00     0.006 C 
BRANCH   5   6
ATOM      6  C   UNL     1      14.763 -30.734  21.900  1.00  0.00     0.053 C 
BRANCH   6   7
ATOM      7  C   UNL     1      13.495 -31.495  21.672  1.00  0.00     0.041 C 
ATOM      8  O   UNL     1      12.491 -31.287  22.401  1.00  0.00    -0.550 OA
ATOM      9  O   UNL     1      13.407 -32.399  20.620  1.00  0.00    -0.550 OA
ENDBRANCH   6   7
ENDBRANCH   5   6
ENDBRANCH   4   5
ENDBRANCH   3   4
ENDBRANCH   2   3
ENDBRANCH   1   2
BRANCH   1  10
ATOM     10  C   UNL     1      17.990 -31.861  20.507  1.00  0.00     0.000 C 
BRANCH  10  11
ATOM     11  C   UNL     1      17.968 -33.401  20.520  1.00  0.00    -0.000 C 
BRANCH  11  12
ATOM     12  C   UNL     1      16.563 -34.035  20.491  1.00  0.00    -0.000 C 
BRANCH  12  13
ATOM     13  C   UNL     1      16.279 -35.037  21.627  1.00  0.00    -0.000 C 
BRANCH  13  14
ATOM     14  C   UNL     1      15.420 -34.451  22.770  1.00  0.00    -0.000 C 
BRANCH  14  15
ATOM     15  C   UNL     1      15.997 -34.709  24.173  1.00  0.00    -0.003 C 
ATOM     16  C   UNL     1      17.299 -35.509  24.132  1.00  0.00     0.004 C 
ENDBRANCH  14  15
ENDBRANCH  13  14
ENDBRANCH  12  13
ENDBRANCH  11  12
ENDBRANCH  10  11
ENDBRANCH   1  10
TORSDOF 12
ENDMDL
MODEL 9
REMARK VINA RESULT:    -3.794      1.306      2.110
REMARK INTER + INTRA:          -8.488
REMARK INTER:                  -6.844
REMARK INTRA:                  -1.643
REMARK UNBOUND:                -2.033
REMARK SMILES CCCCCCCCCCCCCC(=O)[O-]
REMARK SMILES IDX 8 1 9 2 10 3 11 4 12 5 13 6 14 7 15 8 16 9 7 10 6 11 5 12
REMARK SMILES IDX 4 13 3 14 2 15 1 16
REMARK H PARENT
REMARK Flexibility Score: inf
ROOT
ATOM      1  C   UNL     1      19.568 -31.420  21.550  1.00  0.00     0.000 C 
ENDROOT
BRANCH   1   2
ATOM      2  C   UNL     1      18.291 -30.977  20.813  1.00  0.00     0.000 C 
BRANCH   2   3
ATOM      3  C   UNL     1      16.971 -31.293  21.540  1.00  0.00     0.000 C 
BRANCH   3   4
ATOM      4  C   UNL     1      17.175 -32.081  22.842  1.00  0.00     0.000 C 
BRANCH   4   5
ATOM      5  C   UNL     1      16.247 -31.566  23.949  1.00  0.00     0.006 C 
BRANCH   5   6
ATOM      6  C   UNL     1      14.888 -32.268  23.897  1.00  0.00     0.053 C 
BRANCH   6   7
ATOM      7  C   UNL     1      13.797 -31.280  23.627  1.00  0.00     0.041 C 
ATOM      8  O   UNL     1      12.784 -31.620  22.962  1.00  0.00    -0.550 OA
ATOM      9  O   UNL     1      13.878 -29.996  24.152  1.00  0.00    -0.550 OA
ENDBRANCH   6   7
ENDBRANCH   5   6
ENDBRANCH   4   5
ENDBRANCH   3   4
ENDBRANCH   2   3
ENDBRANCH   1   2
BRANCH   1  10
ATOM     10  C   UNL     1      20.378 -32.469  20.767  1.00  0.00     0.000 C 
BRANCH  10  11
ATOM     11  C   UNL     1      19.739 -33.869  20.805  1.00  0.00    -0.000 C 
BRANCH  11  12
ATOM     12  C   UNL     1      19.276 -34.413  19.439  1.00  0.00    -0.000 C 
BRANCH  12  13
ATOM     13  C   UNL     1      17.770 -34.248  19.151  1.00  0.00    -0.000 C 
BRANCH  13  14
ATOM     14  C   UNL     1      16.914 -35.445  19.621  1.00  0.00    -0.000 C 
BRANCH  14  15
ATOM     15  C   UNL     1      16.068 -35.146  20.872  1.00  0.00    -0.003 C 
ATOM     16  C   UNL     1      14.951 -34.140  20.598  1.00  0.00     0.004 C 
ENDBRANCH  14  15
ENDBRANCH  13  14
ENDBRANCH  12  13
ENDBRANCH  11  12
ENDBRANCH  10  11
ENDBRANCH   1  10
TORSDOF 12
ENDMDL
