MODEL 1
REMARK VINA RESULT:    -3.969      0.000      0.000
REMARK INTER + INTRA:          -4.085
REMARK INTER:                  -4.085
REMARK INTRA:                   0.000
REMARK UNBOUND:                 0.000
REMARK SMILES Cc1ccccc1O
REMARK SMILES IDX 1 1 2 2 3 3 4 4 5 5 6 6 7 7 8 8
REMARK H PARENT 8 9
REMARK Flexibility Score: inf
ROOT
ATOM      1  C   UNL     1      17.150 -45.332  27.259  1.00  0.00     0.048 C 
ATOM      2  C   UNL     1      16.540 -45.239  28.630  1.00  0.00    -0.009 A 
ATOM      3  C   UNL     1      15.144 -45.326  28.775  1.00  0.00     0.007 A 
ATOM      4  C   UNL     1      14.557 -45.243  30.041  1.00  0.00     0.001 A 
ATOM      5  C   UNL     1      15.355 -45.071  31.172  1.00  0.00     0.004 A 
ATOM      6  C   UNL     1      16.743 -44.984  31.042  1.00  0.00     0.046 A 
ATOM      7  C   UNL     1      17.344 -45.066  29.780  1.00  0.00     0.118 A 
ENDROOT
BRANCH   7   8
ATOM      8  O   UNL     1      18.736 -44.972  29.703  1.00  0.00    -0.508 OA
ATOM      9  H   UNL     1      19.357 -45.675  30.081  1.00  0.00     0.293 HD
ENDBRANCH   7   8
TORSDOF 1
ENDMDL
MODEL 2
REMARK VINA RESULT:    -3.806      0.666      2.532
REMARK INTER + INTRA:          -3.917
REMARK INTER:                  -3.917
REMARK INTRA:                   0.000
REMARK UNBOUND:                 0.000
REMARK SMILES Cc1ccccc1O
REMARK SMILES IDX 1 1 2 2 3 3 4 4 5 5 6 6 7 7 8 8
REMARK H PARENT 8 9
REMARK Flexibility Score: inf
ROOT
ATOM      1  C   UNL     1      17.310 -45.071  32.465  1.00  0.00     0.048 C 
ATOM      2  C   UNL     1      16.497 -45.150  31.203  1.00  0.00    -0.009 A 
ATOM      3  C   UNL     1      15.094 -45.190  31.282  1.00  0.00     0.007 A 
ATOM      4  C   UNL     1      14.321 -45.263  30.120  1.00  0.00     0.001 A 
ATOM      5  C   UNL     1      14.939 -45.298  28.870  1.00  0.00     0.004 A 
ATOM      6  C   UNL     1      16.331 -45.259  28.776  1.00  0.00     0.046 A 
ATOM      7  C   UNL     1      17.118 -45.185  29.933  1.00  0.00     0.118 A 
ENDROOT
BRANCH   7   8
ATOM      8  O   UNL     1      18.507 -45.149  29.786  1.00  0.00    -0.508 OA
ATOM      9  H   UNL     1      19.103 -45.939  29.993  1.00  0.00     0.293 HD
ENDBRANCH   7   8
TORSDOF 1
ENDMDL
MODEL 3
REMARK VINA RESULT:    -3.792      5.424      6.503
REMARK INTER + INTRA:          -3.903
REMARK INTER:                  -3.903
REMARK INTRA:                   0.000
REMARK UNBOUND:                 0.000
REMARK SMILES Cc1ccccc1O
REMARK SMILES IDX 1 1 2 2 3 3 4 4 5 5 6 6 7 7 8 8
REMARK H PARENT 8 9
REMARK Flexibility Score: inf
ROOT
ATOM      1  C   UNL     1      18.575 -38.816  24.261  1.00  0.00     0.048 C 
ATOM      2  C   UNL     1      18.500 -40.024  25.153  1.00  0.00    -0.009 A 
ATOM      3  C   UNL     1      18.496 -41.310  24.583  1.00  0.00     0.007 A 
ATOM      4  C   UNL     1      18.428 -42.445  25.394  1.00  0.00     0.001 A 
ATOM      5  C   UNL     1      18.362 -42.310  26.782  1.00  0.00     0.004 A 
ATOM      6  C   UNL     1      18.366 -41.040  27.362  1.00  0.00     0.046 A 
ATOM      7  C   UNL     1      18.434 -39.894  26.560  1.00  0.00     0.118 A 
ENDROOT
BRANCH   7   8
ATOM      8  O   UNL     1      18.434 -38.646  27.188  1.00  0.00    -0.508 OA
ATOM      9  H   UNL     1      19.265 -38.077  27.281  1.00  0.00     0.293 HD
ENDBRANCH   7   8
TORSDOF 1
ENDMDL
MODEL 4
REMARK VINA RESULT:    -3.712      1.089      1.891
REMARK INTER + INTRA:          -3.820
REMARK INTER:                  -3.820
REMARK INTRA:                   0.000
REMARK UNBOUND:                 0.000
REMARK SMILES Cc1ccccc1O
REMARK SMILES IDX 1 1 2 2 3 3 4 4 5 5 6 6 7 7 8 8
REMARK H PARENT 8 9
REMARK Flexibility Score: inf
ROOT
ATOM      1  C   UNL     1      15.599 -45.132  28.760  1.00  0.00     0.048 C 
ATOM      2  C   UNL     1      16.069 -45.144  30.188  1.00  0.00    -0.009 A 
ATOM      3  C   UNL     1      15.125 -45.173  31.230  1.00  0.00     0.007 A 
ATOM      4  C   UNL     1      15.542 -45.186  32.563  1.00  0.00     0.001 A 
ATOM      5  C   UNL     1      16.903 -45.168  32.871  1.00  0.00     0.004 A 
ATOM      6  C   UNL     1      17.851 -45.141  31.847  1.00  0.00     0.046 A 
ATOM      7  C   UNL     1      17.448 -45.128  30.506  1.00  0.00     0.118 A 
ENDROOT
BRANCH   7   8
ATOM      8  O   UNL     1      18.435 -45.099  29.518  1.00  0.00    -0.508 OA
ATOM      9  H   UNL     1      18.612 -45.875  28.894  1.00  0.00     0.293 HD
ENDBRANCH   7   8
TORSDOF 1
ENDMDL
MODEL 5
REMARK VINA RESULT:    -3.697      3.840      4.722
REMARK INTER + INTRA:          -3.805
REMARK INTER:                  -3.805
REMARK INTRA:                   0.000
REMARK UNBOUND:                 0.000
REMARK SMILES Cc1ccccc1O
REMARK SMILES IDX 1 1 2 2 3 3 4 4 5 5 6 6 7 7 8 8
REMARK H PARENT 8 9
REMARK Flexibility Score: inf
ROOT
ATOM      1  C   UNL     1      15.282 -45.605  32.768  1.00  0.00     0.048 C 
ATOM      2  C   UNL     1      16.500 -44.730  32.870  1.00  0.00    -0.009 A 
ATOM      3  C   UNL     1      17.776 -45.290  32.677  1.00  0.00     0.007 A 
ATOM      4  C   UNL     1      18.920 -44.494  32.767  1.00  0.00     0.001 A 
ATOM      5  C   UNL     1      18.804 -43.133  33.052  1.00  0.00     0.004 A 
ATOM      6  C   UNL     1      17.544 -42.563  33.246  1.00  0.00     0.046 A 
ATOM      7  C   UNL     1      16.389 -43.350  33.158  1.00  0.00     0.118 A 
ENDROOT
BRANCH   7   8
ATOM      8  O   UNL     1      15.152 -42.734  33.361  1.00  0.00    -0.508 OA
ATOM      9  H   UNL     1      14.863 -41.901  32.864  1.00  0.00     0.293 HD
ENDBRANCH   7   8
TORSDOF 1
ENDMDL
MODEL 6
REMARK VINA RESULT:    -3.694      5.216      6.591
REMARK INTER + INTRA:          -3.802
REMARK INTER:                  -3.802
REMARK INTRA:                   0.000
REMARK UNBOUND:                 0.000
REMARK SMILES Cc1ccccc1O
REMARK SMILES IDX 1 1 2 2 3 3 4 4 5 5 6 6 7 7 8 8
REMARK H PARENT 8 9
REMARK Flexibility Score: inf
ROOT
ATOM      1  C   UNL     1      18.533 -40.135  28.385  1.00  0.00     0.048 C 
ATOM      2  C   UNL     1      18.479 -40.420  26.911  1.00  0.00    -0.009 A 
ATOM      3  C   UNL     1      18.379 -39.353  26.000  1.00  0.00     0.007 A 
ATOM      4  C   UNL     1      18.328 -39.597  24.625  1.00  0.00     0.001 A 
ATOM      5  C   UNL     1      18.375 -40.907  24.145  1.00  0.00     0.004 A 
ATOM      6  C   UNL     1      18.474 -41.976  25.038  1.00  0.00     0.046 A 
ATOM      7  C   UNL     1      18.527 -41.745  26.418  1.00  0.00     0.118 A 
ENDROOT
BRANCH   7   8
ATOM      8  O   UNL     1      18.625 -42.848  27.270  1.00  0.00    -0.508 OA
ATOM      9  H   UNL     1      18.659 -43.802  26.934  1.00  0.00     0.293 HD
ENDBRANCH   7   8
TORSDOF 1
ENDMDL
MODEL 7
REMARK VINA RESULT:    -3.686      4.503      5.586
REMARK INTER + INTRA:          -3.793
REMARK INTER:                  -3.793
REMARK INTRA:                   0.000
REMARK UNBOUND:                 0.000
REMARK SMILES Cc1ccccc1O
REMARK SMILES IDX 1 1 2 2 3 3 4 4 5 5 6 6 7 7 8 8
REMARK H PARENT 8 9
REMARK Flexibility Score: inf
ROOT
ATOM      1  C   UNL     1      18.170 -43.857  25.385  1.00  0.00     0.048 C 
ATOM      2  C   UNL     1      18.275 -42.413  25.792  1.00  0.00    -0.009 A 
ATOM      3  C   UNL     1      18.274 -41.412  24.805  1.00  0.00     0.007 A 
ATOM      4  C   UNL     1      18.371 -40.065  25.162  1.00  0.00     0.001 A 
ATOM      5  C   UNL     1      18.471 -39.703  26.506  1.00  0.00     0.004 A 
ATOM      6  C   UNL     1      18.472 -40.686  27.497  1.00  0.00     0.046 A 
ATOM      7  C   UNL     1      18.376 -42.041  27.153  1.00  0.00     0.118 A 
ENDROOT
BRANCH   7   8
ATOM      8  O   UNL     1      18.383 -42.987  28.180  1.00  0.00    -0.508 OA
ATOM      9  H   UNL     1      17.754 -42.945  28.971  1.00  0.00     0.293 HD
ENDBRANCH   7   8
TORSDOF 1
ENDMDL
MODEL 8
REMARK VINA RESULT:    -3.659      2.446      3.398
REMARK INTER + INTRA:          -3.766
REMARK INTER:                  -3.766
REMARK INTRA:                   0.000
REMARK UNBOUND:                 0.000
REMARK SMILES Cc1ccccc1O
REMARK SMILES IDX 1 1 2 2 3 3 4 4 5 5 6 6 7 7 8 8
REMARK H PARENT 8 9
REMARK Flexibility Score: inf
ROOT
ATOM      1  C   UNL     1      17.727 -45.165  29.661  1.00  0.00     0.048 C 
ATOM      2  C   UNL     1      18.063 -44.392  30.906  1.00  0.00    -0.009 A 
ATOM      3  C   UNL     1      17.027 -43.873  31.702  1.00  0.00     0.007 A 
ATOM      4  C   UNL     1      17.318 -43.152  32.863  1.00  0.00     0.001 A 
ATOM      5  C   UNL     1      18.644 -42.941  33.241  1.00  0.00     0.004 A 
ATOM      6  C   UNL     1      19.684 -43.451  32.461  1.00  0.00     0.046 A 
ATOM      7  C   UNL     1      19.406 -44.176  31.295  1.00  0.00     0.118 A 
ENDROOT
BRANCH   7   8
ATOM      8  O   UNL     1      20.480 -44.665  30.548  1.00  0.00    -0.508 OA
ATOM      9  H   UNL     1      20.688 -45.651  30.464  1.00  0.00     0.293 HD
ENDBRANCH   7   8
TORSDOF 1
ENDMDL
MODEL 9
REMARK VINA RESULT:    -3.647      2.378      4.381
REMARK INTER + INTRA:          -3.754
REMARK INTER:                  -3.754
REMARK INTRA:                   0.000
REMARK UNBOUND:                 0.000
REMARK SMILES Cc1ccccc1O
REMARK SMILES IDX 1 1 2 2 3 3 4 4 5 5 6 6 7 7 8 8
REMARK H PARENT 8 9
REMARK Flexibility Score: inf
ROOT
ATOM      1  C   UNL     1      17.119 -43.525  29.563  1.00  0.00     0.048 C 
ATOM      2  C   UNL     1      17.466 -43.577  28.102  1.00  0.00    -0.009 A 
ATOM      3  C   UNL     1      18.086 -42.469  27.495  1.00  0.00     0.007 A 
ATOM      4  C   UNL     1      18.417 -42.498  26.139  1.00  0.00     0.001 A 
ATOM      5  C   UNL     1      18.133 -43.629  25.372  1.00  0.00     0.004 A 
ATOM      6  C   UNL     1      17.519 -44.736  25.961  1.00  0.00     0.046 A 
ATOM      7  C   UNL     1      17.181 -44.721  27.320  1.00  0.00     0.118 A 
ENDROOT
BRANCH   7   8
ATOM      8  O   UNL     1      16.567 -45.853  27.862  1.00  0.00    -0.508 OA
ATOM      9  H   UNL     1      16.720 -46.159  28.814  1.00  0.00     0.293 HD
ENDBRANCH   7   8
TORSDOF 1
ENDMDL
