MODEL 1
REMARK VINA RESULT:    -3.589      0.000      0.000
REMARK INTER + INTRA:          -5.628
REMARK INTER:                  -4.847
REMARK INTRA:                  -0.780
REMARK UNBOUND:                -0.780
REMARK SMILES CC(=O)CCC=C(C)CCC=C(C)C
REMARK SMILES IDX 7 1 6 2 8 3 9 4 10 5 11 6 13 7 12 8 14 9 5 10 4 11 2 12 3 13
REMARK SMILES IDX 1 14
REMARK H PARENT
REMARK Flexibility Score: inf
ROOT
ATOM      1  C   UNL     1      -2.482  -5.119 -14.855  1.00  0.00    -0.077 C 
ATOM      2  C   UNL     1      -3.466  -4.191 -14.900  1.00  0.00    -0.028 C 
ATOM      3  C   UNL     1      -1.190  -4.952 -15.617  1.00  0.00     0.039 C 
ENDROOT
BRANCH   1   4
ATOM      4  C   UNL     1      -2.706  -6.399 -14.076  1.00  0.00     0.034 C 
BRANCH   4   5
ATOM      5  C   UNL     1      -2.283  -7.635 -14.879  1.00  0.00     0.032 C 
BRANCH   5   6
ATOM      6  C   UNL     1      -3.340  -8.054 -15.873  1.00  0.00    -0.028 C 
ATOM      7  C   UNL     1      -4.239  -8.728 -18.078  1.00  0.00     0.039 C 
ATOM      8  C   UNL     1      -3.109  -8.285 -17.186  1.00  0.00    -0.080 C 
ATOM      9  C   UNL     1      -1.757  -8.053 -17.814  1.00  0.00     0.039 C 
ENDBRANCH   5   6
ENDBRANCH   4   5
ENDBRANCH   1   4
BRANCH   2  10
ATOM     10  C   UNL     1      -3.366  -2.875 -15.630  1.00  0.00     0.035 C 
BRANCH  10  11
ATOM     11  C   UNL     1      -3.505  -3.084 -17.145  1.00  0.00     0.079 C 
BRANCH  11  12
ATOM     12  C   UNL     1      -4.745  -3.835 -17.587  1.00  0.00     0.130 C 
ATOM     13  O   UNL     1      -4.610  -5.000 -17.930  1.00  0.00    -0.300 OA
ATOM     14  C   UNL     1      -6.131  -3.248 -17.637  1.00  0.00     0.087 C 
ENDBRANCH  11  12
ENDBRANCH  10  11
ENDBRANCH   2  10
TORSDOF 6
ENDMDL
MODEL 2
REMARK VINA RESULT:    -3.427      1.120      1.653
REMARK INTER + INTRA:          -5.409
REMARK INTER:                  -4.319
REMARK INTRA:                  -1.090
REMARK UNBOUND:                -0.780
REMARK SMILES CC(=O)CCC=C(C)CCC=C(C)C
REMARK SMILES IDX 7 1 6 2 8 3 9 4 10 5 11 6 13 7 12 8 14 9 5 10 4 11 2 12 3 13
REMARK SMILES IDX 1 14
REMARK H PARENT
REMARK Flexibility Score: inf
ROOT
ATOM      1  C   UNL     1      -1.565  -6.142 -14.651  1.00  0.00    -0.077 C 
ATOM      2  C   UNL     1      -0.967  -5.341 -15.563  1.00  0.00    -0.028 C 
ATOM      3  C   UNL     1      -2.868  -5.767 -13.988  1.00  0.00     0.039 C 
ENDROOT
BRANCH   1   4
ATOM      4  C   UNL     1      -0.875  -7.422 -14.225  1.00  0.00     0.034 C 
BRANCH   4   5
ATOM      5  C   UNL     1      -1.114  -8.557 -15.229  1.00  0.00     0.032 C 
BRANCH   5   6
ATOM      6  C   UNL     1      -2.526  -8.552 -15.765  1.00  0.00    -0.028 C 
ATOM      7  C   UNL     1      -4.299  -8.376 -17.481  1.00  0.00     0.039 C 
ATOM      8  C   UNL     1      -2.855  -8.326 -17.057  1.00  0.00    -0.080 C 
ATOM      9  C   UNL     1      -1.822  -7.959 -18.094  1.00  0.00     0.039 C 
ENDBRANCH   5   6
ENDBRANCH   4   5
ENDBRANCH   1   4
BRANCH   2  10
ATOM     10  C   UNL     1      -1.551  -4.048 -16.077  1.00  0.00     0.035 C 
BRANCH  10  11
ATOM     11  C   UNL     1      -2.378  -4.294 -17.346  1.00  0.00     0.079 C 
BRANCH  11  12
ATOM     12  C   UNL     1      -3.867  -4.046 -17.210  1.00  0.00     0.130 C 
ATOM     13  O   UNL     1      -4.601  -4.518 -18.065  1.00  0.00    -0.300 OA
ATOM     14  C   UNL     1      -4.508  -3.258 -16.098  1.00  0.00     0.087 C 
ENDBRANCH  11  12
ENDBRANCH  10  11
ENDBRANCH   2  10
TORSDOF 6
ENDMDL
MODEL 3
REMARK VINA RESULT:    -3.357      1.635      4.451
REMARK INTER + INTRA:          -5.315
REMARK INTER:                  -4.076
REMARK INTRA:                  -1.239
REMARK UNBOUND:                -0.780
REMARK SMILES CC(=O)CCC=C(C)CCC=C(C)C
REMARK SMILES IDX 7 1 6 2 8 3 9 4 10 5 11 6 13 7 12 8 14 9 5 10 4 11 2 12 3 13
REMARK SMILES IDX 1 14
REMARK H PARENT
REMARK Flexibility Score: inf
ROOT
ATOM      1  C   UNL     1      -2.095  -5.652 -14.986  1.00  0.00    -0.077 C 
ATOM      2  C   UNL     1      -1.308  -5.834 -16.072  1.00  0.00    -0.028 C 
ATOM      3  C   UNL     1      -2.750  -6.808 -14.271  1.00  0.00     0.039 C 
ENDROOT
BRANCH   1   4
ATOM      4  C   UNL     1      -2.388  -4.244 -14.512  1.00  0.00     0.034 C 
BRANCH   4   5
ATOM      5  C   UNL     1      -2.514  -3.263 -15.686  1.00  0.00     0.032 C 
BRANCH   5   6
ATOM      6  C   UNL     1      -3.951  -2.885 -15.956  1.00  0.00    -0.028 C 
ATOM      7  C   UNL     1      -6.151  -2.998 -17.084  1.00  0.00     0.039 C 
ATOM      8  C   UNL     1      -4.717  -3.433 -16.928  1.00  0.00    -0.080 C 
ATOM      9  C   UNL     1      -4.167  -4.433 -17.914  1.00  0.00     0.039 C 
ENDBRANCH   5   6
ENDBRANCH   4   5
ENDBRANCH   1   4
BRANCH   2  10
ATOM     10  C   UNL     1      -0.932  -7.180 -16.639  1.00  0.00     0.035 C 
BRANCH  10  11
ATOM     11  C   UNL     1      -1.700  -7.454 -17.939  1.00  0.00     0.079 C 
BRANCH  11  12
ATOM     12  C   UNL     1      -2.838  -8.449 -17.825  1.00  0.00     0.130 C 
ATOM     13  O   UNL     1      -2.607  -9.611 -18.125  1.00  0.00    -0.300 OA
ATOM     14  C   UNL     1      -4.233  -8.109 -17.371  1.00  0.00     0.087 C 
ENDBRANCH  11  12
ENDBRANCH  10  11
ENDBRANCH   2  10
TORSDOF 6
ENDMDL
MODEL 4
REMARK VINA RESULT:    -3.148     16.077     17.467
REMARK INTER + INTRA:          -5.033
REMARK INTER:                  -4.379
REMARK INTRA:                  -0.654
REMARK UNBOUND:                -0.780
REMARK SMILES CC(=O)CCC=C(C)CCC=C(C)C
REMARK SMILES IDX 7 1 6 2 8 3 9 4 10 5 11 6 13 7 12 8 14 9 5 10 4 11 2 12 3 13
REMARK SMILES IDX 1 14
REMARK H PARENT
REMARK Flexibility Score: inf
ROOT
ATOM      1  C   UNL     1      -1.710  -5.898   1.863  1.00  0.00    -0.077 C 
ATOM      2  C   UNL     1      -1.075  -4.703   1.818  1.00  0.00    -0.028 C 
ATOM      3  C   UNL     1      -3.195  -6.005   2.111  1.00  0.00     0.039 C 
ENDROOT
BRANCH   1   4
ATOM      4  C   UNL     1      -0.901  -7.171   1.730  1.00  0.00     0.034 C 
BRANCH   4   5
ATOM      5  C   UNL     1      -1.769  -8.420   1.932  1.00  0.00     0.032 C 
BRANCH   5   6
ATOM      6  C   UNL     1      -2.234  -9.004   0.619  1.00  0.00    -0.028 C 
ATOM      7  C   UNL     1      -3.870  -9.849  -1.034  1.00  0.00     0.039 C 
ATOM      8  C   UNL     1      -3.521  -9.296   0.323  1.00  0.00    -0.080 C 
ATOM      9  C   UNL     1      -4.630  -9.146   1.336  1.00  0.00     0.039 C 
ENDBRANCH   5   6
ENDBRANCH   4   5
ENDBRANCH   1   4
BRANCH   2  10
ATOM     10  C   UNL     1      -1.763  -3.365   1.927  1.00  0.00     0.035 C 
BRANCH  10  11
ATOM     11  C   UNL     1      -2.218  -2.875   0.546  1.00  0.00     0.079 C 
BRANCH  11  12
ATOM     12  C   UNL     1      -3.696  -3.038   0.252  1.00  0.00     0.130 C 
ATOM     13  O   UNL     1      -4.019  -3.319  -0.892  1.00  0.00    -0.300 OA
ATOM     14  C   UNL     1      -4.796  -2.877   1.269  1.00  0.00     0.087 C 
ENDBRANCH  11  12
ENDBRANCH  10  11
ENDBRANCH   2  10
TORSDOF 6
ENDMDL
MODEL 5
REMARK VINA RESULT:    -3.037     16.413     18.097
REMARK INTER + INTRA:          -4.883
REMARK INTER:                  -4.320
REMARK INTRA:                  -0.563
REMARK UNBOUND:                -0.780
REMARK SMILES CC(=O)CCC=C(C)CCC=C(C)C
REMARK SMILES IDX 7 1 6 2 8 3 9 4 10 5 11 6 13 7 12 8 14 9 5 10 4 11 2 12 3 13
REMARK SMILES IDX 1 14
REMARK H PARENT
REMARK Flexibility Score: inf
ROOT
ATOM      1  C   UNL     1      -1.833  -6.480   1.756  1.00  0.00    -0.077 C 
ATOM      2  C   UNL     1      -3.151  -6.681   1.987  1.00  0.00    -0.028 C 
ATOM      3  C   UNL     1      -0.875  -7.627   1.542  1.00  0.00     0.039 C 
ENDROOT
BRANCH   1   4
ATOM      4  C   UNL     1      -1.283  -5.069   1.781  1.00  0.00     0.034 C 
BRANCH   4   5
ATOM      5  C   UNL     1      -2.120  -4.117   0.917  1.00  0.00     0.032 C 
BRANCH   5   6
ATOM      6  C   UNL     1      -3.274  -3.520   1.688  1.00  0.00    -0.028 C 
ATOM      7  C   UNL     1      -5.626  -2.884   2.119  1.00  0.00     0.039 C 
ATOM      8  C   UNL     1      -4.552  -3.479   1.246  1.00  0.00    -0.080 C 
ATOM      9  C   UNL     1      -4.939  -3.958  -0.131  1.00  0.00     0.039 C 
ENDBRANCH   5   6
ENDBRANCH   4   5
ENDBRANCH   1   4
BRANCH   2  10
ATOM     10  C   UNL     1      -3.824  -8.031   1.982  1.00  0.00     0.035 C 
BRANCH  10  11
ATOM     11  C   UNL     1      -4.313  -8.386   0.571  1.00  0.00     0.079 C 
BRANCH  11  12
ATOM     12  C   UNL     1      -3.615  -9.562  -0.083  1.00  0.00     0.130 C 
ATOM     13  O   UNL     1      -3.868  -9.790  -1.256  1.00  0.00    -0.300 OA
ATOM     14  C   UNL     1      -2.634 -10.471   0.610  1.00  0.00     0.087 C 
ENDBRANCH  11  12
ENDBRANCH  10  11
ENDBRANCH   2  10
TORSDOF 6
ENDMDL
MODEL 6
REMARK VINA RESULT:    -2.904      1.512      4.606
REMARK INTER + INTRA:          -4.703
REMARK INTER:                  -3.791
REMARK INTRA:                  -0.912
REMARK UNBOUND:                -0.780
REMARK SMILES CC(=O)CCC=C(C)CCC=C(C)C
REMARK SMILES IDX 7 1 6 2 8 3 9 4 10 5 11 6 13 7 12 8 14 9 5 10 4 11 2 12 3 13
REMARK SMILES IDX 1 14
REMARK H PARENT
REMARK Flexibility Score: inf
ROOT
ATOM      1  C   UNL     1      -2.031  -3.791 -15.531  1.00  0.00    -0.077 C 
ATOM      2  C   UNL     1      -1.691  -5.078 -15.286  1.00  0.00    -0.028 C 
ATOM      3  C   UNL     1      -3.109  -3.086 -14.743  1.00  0.00     0.039 C 
ENDROOT
BRANCH   1   4
ATOM      4  C   UNL     1      -1.364  -3.052 -16.672  1.00  0.00     0.034 C 
BRANCH   4   5
ATOM      5  C   UNL     1      -2.005  -3.395 -18.023  1.00  0.00     0.032 C 
BRANCH   5   6
ATOM      6  C   UNL     1      -3.421  -2.877 -18.125  1.00  0.00    -0.028 C 
ATOM      7  C   UNL     1      -5.891  -3.014 -18.109  1.00  0.00     0.039 C 
ATOM      8  C   UNL     1      -4.528  -3.648 -18.022  1.00  0.00    -0.080 C 
ATOM      9  C   UNL     1      -4.449  -5.148 -17.882  1.00  0.00     0.039 C 
ENDBRANCH   5   6
ENDBRANCH   4   5
ENDBRANCH   1   4
BRANCH   2  10
ATOM     10  C   UNL     1      -2.272  -5.920 -14.178  1.00  0.00     0.035 C 
BRANCH  10  11
ATOM     11  C   UNL     1      -2.005  -7.409 -14.433  1.00  0.00     0.079 C 
BRANCH  11  12
ATOM     12  C   UNL     1      -2.495  -7.940 -15.766  1.00  0.00     0.130 C 
ATOM     13  O   UNL     1      -3.701  -7.956 -15.960  1.00  0.00    -0.300 OA
ATOM     14  C   UNL     1      -1.603  -8.451 -16.866  1.00  0.00     0.087 C 
ENDBRANCH  11  12
ENDBRANCH  10  11
ENDBRANCH   2  10
TORSDOF 6
ENDMDL
MODEL 7
REMARK VINA RESULT:    -2.865      1.409      3.661
REMARK INTER + INTRA:          -4.650
REMARK INTER:                  -3.835
REMARK INTRA:                  -0.815
REMARK UNBOUND:                -0.780
REMARK SMILES CC(=O)CCC=C(C)CCC=C(C)C
REMARK SMILES IDX 7 1 6 2 8 3 9 4 10 5 11 6 13 7 12 8 14 9 5 10 4 11 2 12 3 13
REMARK SMILES IDX 1 14
REMARK H PARENT
REMARK Flexibility Score: inf
ROOT
ATOM      1  C   UNL     1      -3.270  -8.068 -17.163  1.00  0.00    -0.077 C 
ATOM      2  C   UNL     1      -3.305  -6.716 -17.121  1.00  0.00    -0.028 C 
ATOM      3  C   UNL     1      -4.124  -8.861 -18.122  1.00  0.00     0.039 C 
ENDROOT
BRANCH   1   4
ATOM      4  C   UNL     1      -2.402  -8.817 -16.173  1.00  0.00     0.034 C 
BRANCH   4   5
ATOM      5  C   UNL     1      -1.128  -8.036 -15.827  1.00  0.00     0.032 C 
BRANCH   5   6
ATOM      6  C   UNL     1      -1.214  -7.386 -14.467  1.00  0.00    -0.028 C 
ATOM      7  C   UNL     1      -1.274  -5.516 -12.847  1.00  0.00     0.039 C 
ATOM      8  C   UNL     1      -1.145  -6.052 -14.249  1.00  0.00    -0.080 C 
ATOM      9  C   UNL     1      -0.880  -5.071 -15.364  1.00  0.00     0.039 C 
ENDBRANCH   5   6
ENDBRANCH   4   5
ENDBRANCH   1   4
BRANCH   2  10
ATOM     10  C   UNL     1      -4.117  -5.853 -18.054  1.00  0.00     0.035 C 
BRANCH  10  11
ATOM     11  C   UNL     1      -3.716  -4.378 -17.914  1.00  0.00     0.079 C 
BRANCH  11  12
ATOM     12  C   UNL     1      -4.510  -3.582 -16.897  1.00  0.00     0.130 C 
ATOM     13  O   UNL     1      -5.536  -3.038 -17.278  1.00  0.00    -0.300 OA
ATOM     14  C   UNL     1      -4.124  -3.409 -15.451  1.00  0.00     0.087 C 
ENDBRANCH  11  12
ENDBRANCH  10  11
ENDBRANCH   2  10
TORSDOF 6
ENDMDL
MODEL 8
REMARK VINA RESULT:    -2.564      1.874      4.058
REMARK INTER + INTRA:          -4.244
REMARK INTER:                  -3.114
REMARK INTRA:                  -1.130
REMARK UNBOUND:                -0.780
REMARK SMILES CC(=O)CCC=C(C)CCC=C(C)C
REMARK SMILES IDX 7 1 6 2 8 3 9 4 10 5 11 6 13 7 12 8 14 9 5 10 4 11 2 12 3 13
REMARK SMILES IDX 1 14
REMARK H PARENT
REMARK Flexibility Score: inf
ROOT
ATOM      1  C   UNL     1      -2.936  -4.170 -15.609  1.00  0.00    -0.077 C 
ATOM      2  C   UNL     1      -1.775  -4.714 -15.174  1.00  0.00    -0.028 C 
ATOM      3  C   UNL     1      -4.211  -4.258 -14.806  1.00  0.00     0.039 C 
ENDROOT
BRANCH   1   4
ATOM      4  C   UNL     1      -2.980  -3.514 -16.974  1.00  0.00     0.034 C 
BRANCH   4   5
ATOM      5  C   UNL     1      -2.724  -4.525 -18.099  1.00  0.00     0.032 C 
BRANCH   5   6
ATOM      6  C   UNL     1      -3.600  -5.749 -17.971  1.00  0.00    -0.028 C 
ATOM      7  C   UNL     1      -4.108  -8.160 -17.747  1.00  0.00     0.039 C 
ATOM      8  C   UNL     1      -3.138  -7.019 -17.904  1.00  0.00    -0.080 C 
ATOM      9  C   UNL     1      -1.672  -7.346 -18.045  1.00  0.00     0.039 C 
ENDBRANCH   5   6
ENDBRANCH   4   5
ENDBRANCH   1   4
BRANCH   2  10
ATOM     10  C   UNL     1      -1.596  -5.386 -13.836  1.00  0.00     0.035 C 
BRANCH  10  11
ATOM     11  C   UNL     1      -0.878  -6.733 -13.998  1.00  0.00     0.079 C 
BRANCH  11  12
ATOM     12  C   UNL     1      -1.734  -7.868 -14.523  1.00  0.00     0.130 C 
ATOM     13  O   UNL     1      -2.945  -7.704 -14.538  1.00  0.00    -0.300 OA
ATOM     14  C   UNL     1      -1.201  -9.184 -15.024  1.00  0.00     0.087 C 
ENDBRANCH  11  12
ENDBRANCH  10  11
ENDBRANCH   2  10
TORSDOF 6
ENDMDL
MODEL 9
REMARK VINA RESULT:    -2.473      1.988      5.242
REMARK INTER + INTRA:          -4.120
REMARK INTER:                  -3.372
REMARK INTRA:                  -0.748
REMARK UNBOUND:                -0.780
REMARK SMILES CC(=O)CCC=C(C)CCC=C(C)C
REMARK SMILES IDX 7 1 6 2 8 3 9 4 10 5 11 6 13 7 12 8 14 9 5 10 4 11 2 12 3 13
REMARK SMILES IDX 1 14
REMARK H PARENT
REMARK Flexibility Score: inf
ROOT
ATOM      1  C   UNL     1      -3.652  -6.305 -17.780  1.00  0.00    -0.077 C 
ATOM      2  C   UNL     1      -2.332  -6.431 -18.055  1.00  0.00    -0.028 C 
ATOM      3  C   UNL     1      -4.474  -7.461 -17.264  1.00  0.00     0.039 C 
ENDROOT
BRANCH   1   4
ATOM      4  C   UNL     1      -4.345  -4.989 -18.064  1.00  0.00     0.034 C 
BRANCH   4   5
ATOM      5  C   UNL     1      -4.215  -4.012 -16.888  1.00  0.00     0.032 C 
BRANCH   5   6
ATOM      6  C   UNL     1      -3.573  -4.660 -15.683  1.00  0.00    -0.028 C 
ATOM      7  C   UNL     1      -1.824  -5.034 -13.973  1.00  0.00     0.039 C 
ATOM      8  C   UNL     1      -2.349  -4.341 -15.203  1.00  0.00    -0.080 C 
ATOM      9  C   UNL     1      -1.451  -3.347 -15.896  1.00  0.00     0.039 C 
ENDBRANCH   5   6
ENDBRANCH   4   5
ENDBRANCH   1   4
BRANCH   2  10
ATOM     10  C   UNL     1      -1.524  -7.681 -17.811  1.00  0.00     0.035 C 
BRANCH  10  11
ATOM     11  C   UNL     1      -0.876  -7.644 -16.420  1.00  0.00     0.079 C 
BRANCH  11  12
ATOM     12  C   UNL     1      -1.457  -8.608 -15.405  1.00  0.00     0.130 C 
ATOM     13  O   UNL     1      -2.470  -8.266 -14.814  1.00  0.00    -0.300 OA
ATOM     14  C   UNL     1      -0.875  -9.957 -15.071  1.00  0.00     0.087 C 
ENDBRANCH  11  12
ENDBRANCH  10  11
ENDBRANCH   2  10
TORSDOF 6
ENDMDL
