MODEL 1
REMARK VINA RESULT:    -5.754      0.000      0.000
REMARK INTER + INTRA:          -6.339
REMARK INTER:                  -6.090
REMARK INTRA:                  -0.249
REMARK UNBOUND:                -0.249
REMARK SMILES CC(C)[C@H]1CC[C@@H](C)[C@@H]2C=C[C@@H](C)C[C@@H]21
REMARK SMILES IDX 8 1 7 2 6 3 5 4 4 5 15 6 9 7 10 8 11 9 12 10 14 11 13 12
REMARK SMILES IDX 2 13 1 14 3 15
REMARK H PARENT
REMARK Flexibility Score: inf
ROOT
ATOM      1  C   UNL     1     169.587 165.954 200.027  1.00  0.00     0.008 C 
ATOM      2  C   UNL     1     168.649 164.980 200.761  1.00  0.00    -0.007 C 
ATOM      3  C   UNL     1     168.673 165.270 202.280  1.00  0.00     0.004 C 
ATOM      4  C   UNL     1     168.468 164.026 203.159  1.00  0.00     0.004 C 
ATOM      5  C   UNL     1     167.461 163.014 202.553  1.00  0.00    -0.005 C 
ATOM      6  C   UNL     1     167.950 162.530 201.133  1.00  0.00    -0.000 C 
ATOM      7  C   UNL     1     168.995 163.496 200.474  1.00  0.00     0.018 C 
ATOM      8  C   UNL     1     169.148 163.210 198.996  1.00  0.00    -0.027 C 
ATOM      9  C   UNL     1     168.084 162.952 198.230  1.00  0.00    -0.028 C 
ATOM     10  C   UNL     1     166.711 162.929 198.844  1.00  0.00     0.008 C 
ATOM     11  C   UNL     1     166.746 162.168 200.187  1.00  0.00     0.012 C 
ATOM     12  C   UNL     1     165.697 162.301 197.882  1.00  0.00     0.012 C 
ENDROOT
BRANCH   5  13
ATOM     13  C   UNL     1     167.230 161.816 203.549  1.00  0.00    -0.014 C 
ATOM     14  C   UNL     1     168.382 161.663 204.562  1.00  0.00     0.007 C 
ATOM     15  C   UNL     1     165.911 161.934 204.334  1.00  0.00     0.007 C 
ENDBRANCH   5  13
TORSDOF 1
ENDMDL
MODEL 2
REMARK VINA RESULT:    -5.701      5.609      8.019
REMARK INTER + INTRA:          -6.284
REMARK INTER:                  -5.983
REMARK INTRA:                  -0.301
REMARK UNBOUND:                -0.249
REMARK SMILES CC(C)[C@H]1CC[C@@H](C)[C@@H]2C=C[C@@H](C)C[C@@H]21
REMARK SMILES IDX 8 1 7 2 6 3 5 4 4 5 15 6 9 7 10 8 11 9 12 10 14 11 13 12
REMARK SMILES IDX 2 13 1 14 3 15
REMARK H PARENT
REMARK Flexibility Score: inf
ROOT
ATOM      1  C   UNL     1     162.081 168.385 199.595  1.00  0.00     0.008 C 
ATOM      2  C   UNL     1     163.459 169.000 199.893  1.00  0.00    -0.007 C 
ATOM      3  C   UNL     1     164.203 169.294 198.570  1.00  0.00     0.004 C 
ATOM      4  C   UNL     1     165.731 169.156 198.664  1.00  0.00     0.004 C 
ATOM      5  C   UNL     1     166.300 169.634 200.024  1.00  0.00    -0.005 C 
ATOM      6  C   UNL     1     165.663 168.811 201.211  1.00  0.00    -0.000 C 
ATOM      7  C   UNL     1     164.318 168.105 200.824  1.00  0.00     0.018 C 
ATOM      8  C   UNL     1     163.563 167.655 202.056  1.00  0.00    -0.027 C 
ATOM      9  C   UNL     1     163.479 168.436 203.137  1.00  0.00    -0.028 C 
ATOM     10  C   UNL     1     164.157 169.779 203.141  1.00  0.00     0.008 C 
ATOM     11  C   UNL     1     165.571 169.658 202.533  1.00  0.00     0.012 C 
ATOM     12  C   UNL     1     164.215 170.353 204.561  1.00  0.00     0.012 C 
ENDROOT
BRANCH   5  13
ATOM     13  C   UNL     1     167.873 169.554 200.013  1.00  0.00    -0.014 C 
ATOM     14  C   UNL     1     168.395 168.202 200.540  1.00  0.00     0.007 C 
ATOM     15  C   UNL     1     168.477 169.792 198.617  1.00  0.00     0.007 C 
ENDBRANCH   5  13
TORSDOF 1
ENDMDL
MODEL 3
REMARK VINA RESULT:    -5.698      1.545      4.386
REMARK INTER + INTRA:          -6.280
REMARK INTER:                  -5.980
REMARK INTRA:                  -0.300
REMARK UNBOUND:                -0.249
REMARK SMILES CC(C)[C@H]1CC[C@@H](C)[C@@H]2C=C[C@@H](C)C[C@@H]21
REMARK SMILES IDX 8 1 7 2 6 3 5 4 4 5 15 6 9 7 10 8 11 9 12 10 14 11 13 12
REMARK SMILES IDX 2 13 1 14 3 15
REMARK H PARENT
REMARK Flexibility Score: inf
ROOT
ATOM      1  C   UNL     1     169.939 163.629 199.596  1.00  0.00     0.008 C 
ATOM      2  C   UNL     1     168.561 163.009 199.882  1.00  0.00    -0.007 C 
ATOM      3  C   UNL     1     167.827 162.720 198.551  1.00  0.00     0.004 C 
ATOM      4  C   UNL     1     166.298 162.853 198.635  1.00  0.00     0.004 C 
ATOM      5  C   UNL     1     165.720 162.368 199.990  1.00  0.00    -0.005 C 
ATOM      6  C   UNL     1     166.347 163.186 201.185  1.00  0.00    -0.000 C 
ATOM      7  C   UNL     1     167.693 163.898 200.811  1.00  0.00     0.018 C 
ATOM      8  C   UNL     1     168.438 164.344 202.050  1.00  0.00    -0.027 C 
ATOM      9  C   UNL     1     168.517 163.557 203.127  1.00  0.00    -0.028 C 
ATOM     10  C   UNL     1     167.843 162.213 203.120  1.00  0.00     0.008 C 
ATOM     11  C   UNL     1     166.433 162.333 202.504  1.00  0.00     0.012 C 
ATOM     12  C   UNL     1     167.776 161.632 204.537  1.00  0.00     0.012 C 
ENDROOT
BRANCH   5  13
ATOM     13  C   UNL     1     164.148 162.444 199.968  1.00  0.00    -0.014 C 
ATOM     14  C   UNL     1     163.618 163.786 200.513  1.00  0.00     0.007 C 
ATOM     15  C   UNL     1     163.555 162.227 198.564  1.00  0.00     0.007 C 
ENDBRANCH   5  13
TORSDOF 1
ENDMDL
MODEL 4
REMARK VINA RESULT:    -5.679      6.067      7.435
REMARK INTER + INTRA:          -6.260
REMARK INTER:                  -6.010
REMARK INTRA:                  -0.250
REMARK UNBOUND:                -0.249
REMARK SMILES CC(C)[C@H]1CC[C@@H](C)[C@@H]2C=C[C@@H](C)C[C@@H]21
REMARK SMILES IDX 8 1 7 2 6 3 5 4 4 5 15 6 9 7 10 8 11 9 12 10 14 11 13 12
REMARK SMILES IDX 2 13 1 14 3 15
REMARK H PARENT
REMARK Flexibility Score: inf
ROOT
ATOM      1  C   UNL     1     162.414 166.024 200.000  1.00  0.00     0.008 C 
ATOM      2  C   UNL     1     163.379 166.983 200.719  1.00  0.00    -0.007 C 
ATOM      3  C   UNL     1     163.374 166.694 202.238  1.00  0.00     0.004 C 
ATOM      4  C   UNL     1     163.613 167.935 203.113  1.00  0.00     0.004 C 
ATOM      5  C   UNL     1     164.627 168.930 202.491  1.00  0.00    -0.005 C 
ATOM      6  C   UNL     1     164.125 169.421 201.078  1.00  0.00    -0.000 C 
ATOM      7  C   UNL     1     163.053 168.473 200.436  1.00  0.00     0.018 C 
ATOM      8  C   UNL     1     162.883 168.760 198.961  1.00  0.00    -0.027 C 
ATOM      9  C   UNL     1     163.939 169.000 198.178  1.00  0.00    -0.028 C 
ATOM     10  C   UNL     1     165.321 169.001 198.771  1.00  0.00     0.008 C 
ATOM     11  C   UNL     1     165.319 169.763 200.113  1.00  0.00     0.012 C 
ATOM     12  C   UNL     1     166.331 169.612 197.793  1.00  0.00     0.012 C 
ENDROOT
BRANCH   5  13
ATOM     13  C   UNL     1     164.894 170.124 203.482  1.00  0.00    -0.014 C 
ATOM     14  C   UNL     1     163.747 170.314 204.496  1.00  0.00     0.007 C 
ATOM     15  C   UNL     1     166.209 169.971 204.267  1.00  0.00     0.007 C 
ENDBRANCH   5  13
TORSDOF 1
ENDMDL
MODEL 5
REMARK VINA RESULT:    -5.601      5.387      7.034
REMARK INTER + INTRA:          -6.177
REMARK INTER:                  -5.978
REMARK INTRA:                  -0.200
REMARK UNBOUND:                -0.249
REMARK SMILES CC(C)[C@H]1CC[C@@H](C)[C@@H]2C=C[C@@H](C)C[C@@H]21
REMARK SMILES IDX 8 1 7 2 6 3 5 4 4 5 15 6 9 7 10 8 11 9 12 10 14 11 13 12
REMARK SMILES IDX 2 13 1 14 3 15
REMARK H PARENT
REMARK Flexibility Score: inf
ROOT
ATOM      1  C   UNL     1     167.170 169.326 203.974  1.00  0.00     0.008 C 
ATOM      2  C   UNL     1     166.115 169.379 202.856  1.00  0.00    -0.007 C 
ATOM      3  C   UNL     1     164.697 169.429 203.470  1.00  0.00     0.004 C 
ATOM      4  C   UNL     1     163.620 168.734 202.622  1.00  0.00     0.004 C 
ATOM      5  C   UNL     1     163.838 168.917 201.097  1.00  0.00    -0.005 C 
ATOM      6  C   UNL     1     165.243 168.341 200.666  1.00  0.00    -0.000 C 
ATOM      7  C   UNL     1     166.247 168.195 201.862  1.00  0.00     0.018 C 
ATOM      8  C   UNL     1     167.664 168.008 201.365  1.00  0.00    -0.027 C 
ATOM      9  C   UNL     1     168.135 168.723 200.340  1.00  0.00    -0.028 C 
ATOM     10  C   UNL     1     167.243 169.721 199.654  1.00  0.00     0.008 C 
ATOM     11  C   UNL     1     165.843 169.112 199.433  1.00  0.00     0.012 C 
ATOM     12  C   UNL     1     167.860 170.179 198.328  1.00  0.00     0.012 C 
ENDROOT
BRANCH   5  13
ATOM     13  C   UNL     1     162.649 168.263 200.297  1.00  0.00    -0.014 C 
ATOM     14  C   UNL     1     162.447 168.912 198.913  1.00  0.00     0.007 C 
ATOM     15  C   UNL     1     162.822 166.747 200.097  1.00  0.00     0.007 C 
ENDBRANCH   5  13
TORSDOF 1
ENDMDL
MODEL 6
REMARK VINA RESULT:    -5.593      1.695      4.100
REMARK INTER + INTRA:          -6.170
REMARK INTER:                  -5.982
REMARK INTRA:                  -0.187
REMARK UNBOUND:                -0.249
REMARK SMILES CC(C)[C@H]1CC[C@@H](C)[C@@H]2C=C[C@@H](C)C[C@@H]21
REMARK SMILES IDX 8 1 7 2 6 3 5 4 4 5 15 6 9 7 10 8 11 9 12 10 14 11 13 12
REMARK SMILES IDX 2 13 1 14 3 15
REMARK H PARENT
REMARK Flexibility Score: inf
ROOT
ATOM      1  C   UNL     1     164.836 162.741 204.047  1.00  0.00     0.008 C 
ATOM      2  C   UNL     1     165.876 162.671 202.916  1.00  0.00    -0.007 C 
ATOM      3  C   UNL     1     167.301 162.608 203.513  1.00  0.00     0.004 C 
ATOM      4  C   UNL     1     168.375 163.287 202.648  1.00  0.00     0.004 C 
ATOM      5  C   UNL     1     168.136 163.099 201.127  1.00  0.00    -0.005 C 
ATOM      6  C   UNL     1     166.732 163.688 200.710  1.00  0.00    -0.000 C 
ATOM      7  C   UNL     1     165.745 163.851 201.918  1.00  0.00     0.018 C 
ATOM      8  C   UNL     1     164.324 164.052 201.438  1.00  0.00    -0.027 C 
ATOM      9  C   UNL     1     163.832 163.336 200.422  1.00  0.00    -0.028 C 
ATOM     10  C   UNL     1     164.705 162.325 199.730  1.00  0.00     0.008 C 
ATOM     11  C   UNL     1     166.109 162.918 199.489  1.00  0.00     0.012 C 
ATOM     12  C   UNL     1     164.066 161.868 198.414  1.00  0.00     0.012 C 
ENDROOT
BRANCH   5  13
ATOM     13  C   UNL     1     169.322 163.735 200.309  1.00  0.00    -0.014 C 
ATOM     14  C   UNL     1     169.477 163.102 198.912  1.00  0.00     0.007 C 
ATOM     15  C   UNL     1     169.181 165.258 200.133  1.00  0.00     0.007 C 
ENDBRANCH   5  13
TORSDOF 1
ENDMDL
MODEL 7
REMARK VINA RESULT:    -5.429      5.262      6.971
REMARK INTER + INTRA:          -5.995
REMARK INTER:                  -5.755
REMARK INTRA:                  -0.240
REMARK UNBOUND:                -0.249
REMARK SMILES CC(C)[C@H]1CC[C@@H](C)[C@@H]2C=C[C@@H](C)C[C@@H]21
REMARK SMILES IDX 8 1 7 2 6 3 5 4 4 5 15 6 9 7 10 8 11 9 12 10 14 11 13 12
REMARK SMILES IDX 2 13 1 14 3 15
REMARK H PARENT
REMARK Flexibility Score: inf
ROOT
ATOM      1  C   UNL     1     165.350 169.209 196.804  1.00  0.00     0.008 C 
ATOM      2  C   UNL     1     165.147 168.797 198.273  1.00  0.00    -0.007 C 
ATOM      3  C   UNL     1     163.638 168.641 198.572  1.00  0.00     0.004 C 
ATOM      4  C   UNL     1     163.244 169.001 200.014  1.00  0.00     0.004 C 
ATOM      5  C   UNL     1     164.314 168.586 201.057  1.00  0.00    -0.005 C 
ATOM      6  C   UNL     1     165.694 169.284 200.742  1.00  0.00    -0.000 C 
ATOM      7  C   UNL     1     165.809 169.792 199.263  1.00  0.00     0.018 C 
ATOM      8  C   UNL     1     167.245 170.102 198.902  1.00  0.00    -0.027 C 
ATOM      9  C   UNL     1     168.241 169.296 199.281  1.00  0.00    -0.028 C 
ATOM     10  C   UNL     1     167.937 168.068 200.095  1.00  0.00     0.008 C 
ATOM     11  C   UNL     1     166.916 168.407 201.202  1.00  0.00     0.012 C 
ATOM     12  C   UNL     1     169.221 167.481 200.692  1.00  0.00     0.012 C 
ENDROOT
BRANCH   5  13
ATOM     13  C   UNL     1     163.802 168.898 202.513  1.00  0.00    -0.014 C 
ATOM     14  C   UNL     1     163.935 167.684 203.455  1.00  0.00     0.007 C 
ATOM     15  C   UNL     1     164.525 170.092 203.162  1.00  0.00     0.007 C 
ENDBRANCH   5  13
TORSDOF 1
ENDMDL
MODEL 8
REMARK VINA RESULT:    -5.428      1.870      3.443
REMARK INTER + INTRA:          -5.994
REMARK INTER:                  -5.759
REMARK INTRA:                  -0.235
REMARK UNBOUND:                -0.249
REMARK SMILES CC(C)[C@H]1CC[C@@H](C)[C@@H]2C=C[C@@H](C)C[C@@H]21
REMARK SMILES IDX 8 1 7 2 6 3 5 4 4 5 15 6 9 7 10 8 11 9 12 10 14 11 13 12
REMARK SMILES IDX 2 13 1 14 3 15
REMARK H PARENT
REMARK Flexibility Score: inf
ROOT
ATOM      1  C   UNL     1     166.660 162.835 196.840  1.00  0.00     0.008 C 
ATOM      2  C   UNL     1     166.862 163.230 198.313  1.00  0.00    -0.007 C 
ATOM      3  C   UNL     1     168.370 163.382 198.617  1.00  0.00     0.004 C 
ATOM      4  C   UNL     1     168.763 163.006 200.055  1.00  0.00     0.004 C 
ATOM      5  C   UNL     1     167.692 163.409 201.101  1.00  0.00    -0.005 C 
ATOM      6  C   UNL     1     166.312 162.715 200.776  1.00  0.00    -0.000 C 
ATOM      7  C   UNL     1     166.199 162.224 199.291  1.00  0.00     0.018 C 
ATOM      8  C   UNL     1     164.763 161.918 198.924  1.00  0.00    -0.027 C 
ATOM      9  C   UNL     1     163.767 162.719 199.312  1.00  0.00    -0.028 C 
ATOM     10  C   UNL     1     164.069 163.938 200.140  1.00  0.00     0.008 C 
ATOM     11  C   UNL     1     165.089 163.586 201.244  1.00  0.00     0.012 C 
ATOM     12  C   UNL     1     162.784 164.518 200.742  1.00  0.00     0.012 C 
ENDROOT
BRANCH   5  13
ATOM     13  C   UNL     1     168.202 163.080 202.554  1.00  0.00    -0.014 C 
ATOM     14  C   UNL     1     168.081 164.288 203.506  1.00  0.00     0.007 C 
ATOM     15  C   UNL     1     167.467 161.888 203.194  1.00  0.00     0.007 C 
ENDBRANCH   5  13
TORSDOF 1
ENDMDL
MODEL 9
REMARK VINA RESULT:    -5.324      5.016      6.399
REMARK INTER + INTRA:          -5.885
REMARK INTER:                  -5.636
REMARK INTRA:                  -0.249
REMARK UNBOUND:                -0.249
REMARK SMILES CC(C)[C@H]1CC[C@@H](C)[C@@H]2C=C[C@@H](C)C[C@@H]21
REMARK SMILES IDX 8 1 7 2 6 3 5 4 4 5 15 6 9 7 10 8 11 9 12 10 14 11 13 12
REMARK SMILES IDX 2 13 1 14 3 15
REMARK H PARENT
REMARK Flexibility Score: inf
ROOT
ATOM      1  C   UNL     1     166.789 170.016 196.413  1.00  0.00     0.008 C 
ATOM      2  C   UNL     1     166.689 169.739 197.923  1.00  0.00    -0.007 C 
ATOM      3  C   UNL     1     168.007 170.146 198.622  1.00  0.00     0.004 C 
ATOM      4  C   UNL     1     168.361 169.284 199.845  1.00  0.00     0.004 C 
ATOM      5  C   UNL     1     167.117 168.858 200.667  1.00  0.00    -0.005 C 
ATOM      6  C   UNL     1     166.113 168.037 199.767  1.00  0.00    -0.000 C 
ATOM      7  C   UNL     1     166.331 168.261 198.231  1.00  0.00     0.018 C 
ATOM      8  C   UNL     1     165.142 167.773 197.433  1.00  0.00    -0.027 C 
ATOM      9  C   UNL     1     163.893 168.004 197.847  1.00  0.00    -0.028 C 
ATOM     10  C   UNL     1     163.658 168.746 199.134  1.00  0.00     0.008 C 
ATOM     11  C   UNL     1     164.620 168.228 200.225  1.00  0.00     0.012 C 
ATOM     12  C   UNL     1     162.198 168.612 199.580  1.00  0.00     0.012 C 
ENDROOT
BRANCH   5  13
ATOM     13  C   UNL     1     167.562 168.062 201.951  1.00  0.00    -0.014 C 
ATOM     14  C   UNL     1     168.996 167.507 201.831  1.00  0.00     0.007 C 
ATOM     15  C   UNL     1     167.477 168.902 203.238  1.00  0.00     0.007 C 
ENDBRANCH   5  13
TORSDOF 1
ENDMDL
