MODEL 1
REMARK VINA RESULT:    -5.682      0.000      0.000
REMARK INTER + INTRA:         -11.547
REMARK INTER:                 -10.001
REMARK INTRA:                  -1.546
REMARK UNBOUND:                -1.546
REMARK SMILES CCCCCCCCCCCCCCC(=O)[O-]
REMARK SMILES IDX 9 1 10 2 11 3 12 4 13 5 14 6 15 7 16 8 17 9 8 10 7 11 6 12
REMARK SMILES IDX 5 13 4 14 3 15 2 16 1 17
REMARK H PARENT
REMARK Flexibility Score: inf
ROOT
ATOM      1  C   UNL     1     -13.276  -9.123  10.301  1.00  0.00     0.000 C 
ENDROOT
BRANCH   1   2
ATOM      2  C   UNL     1     -11.865  -8.694  10.754  1.00  0.00     0.000 C 
BRANCH   2   3
ATOM      3  C   UNL     1     -10.896  -8.329   9.614  1.00  0.00     0.000 C 
BRANCH   3   4
ATOM      4  C   UNL     1     -11.272  -8.990   8.277  1.00  0.00     0.000 C 
BRANCH   4   5
ATOM      5  C   UNL     1     -10.169  -9.927   7.746  1.00  0.00     0.006 C 
BRANCH   5   6
ATOM      6  C   UNL     1      -8.793  -9.722   8.401  1.00  0.00     0.053 C 
BRANCH   6   7
ATOM      7  C   UNL     1      -7.762  -9.274   7.411  1.00  0.00     0.041 C 
ATOM      8  O   UNL     1      -7.767  -8.091   6.982  1.00  0.00    -0.550 OA
ATOM      9  O   UNL     1      -6.776 -10.156   6.986  1.00  0.00    -0.550 OA
ENDBRANCH   6   7
ENDBRANCH   5   6
ENDBRANCH   4   5
ENDBRANCH   3   4
ENDBRANCH   2   3
ENDBRANCH   1   2
BRANCH   1  10
ATOM     10  C   UNL     1     -13.702 -10.540  10.732  1.00  0.00     0.000 C 
BRANCH  10  11
ATOM     11  C   UNL     1     -12.559 -11.436  11.240  1.00  0.00    -0.000 C 
BRANCH  11  12
ATOM     12  C   UNL     1     -12.227 -12.585  10.276  1.00  0.00    -0.000 C 
BRANCH  12  13
ATOM     13  C   UNL     1     -10.713 -12.680  10.035  1.00  0.00    -0.000 C 
BRANCH  13  14
ATOM     14  C   UNL     1     -10.359 -13.596   8.853  1.00  0.00    -0.000 C 
BRANCH  14  15
ATOM     15  C   UNL     1     -11.236 -14.860   8.801  1.00  0.00    -0.000 C 
BRANCH  15  16
ATOM     16  C   UNL     1     -10.432 -16.144   9.064  1.00  0.00    -0.003 C 
ATOM     17  C   UNL     1     -11.325 -17.370   9.248  1.00  0.00     0.004 C 
ENDBRANCH  15  16
ENDBRANCH  14  15
ENDBRANCH  13  14
ENDBRANCH  12  13
ENDBRANCH  11  12
ENDBRANCH  10  11
ENDBRANCH   1  10
TORSDOF 13
ENDMDL
MODEL 2
REMARK VINA RESULT:    -5.637      0.796      1.330
REMARK INTER + INTRA:         -11.468
REMARK INTER:                  -9.735
REMARK INTRA:                  -1.733
REMARK UNBOUND:                -1.546
REMARK SMILES CCCCCCCCCCCCCCC(=O)[O-]
REMARK SMILES IDX 9 1 10 2 11 3 12 4 13 5 14 6 15 7 16 8 17 9 8 10 7 11 6 12
REMARK SMILES IDX 5 13 4 14 3 15 2 16 1 17
REMARK H PARENT
REMARK Flexibility Score: inf
ROOT
ATOM      1  C   UNL     1     -12.418  -8.784  10.290  1.00  0.00     0.000 C 
ENDROOT
BRANCH   1   2
ATOM      2  C   UNL     1     -11.344  -8.013   9.496  1.00  0.00     0.000 C 
BRANCH   2   3
ATOM      3  C   UNL     1     -11.164  -8.463   8.035  1.00  0.00     0.000 C 
BRANCH   3   4
ATOM      4  C   UNL     1     -10.760  -9.942   7.912  1.00  0.00     0.000 C 
BRANCH   4   5
ATOM      5  C   UNL     1      -9.353 -10.223   8.474  1.00  0.00     0.006 C 
BRANCH   5   6
ATOM      6  C   UNL     1      -8.345 -10.737   7.433  1.00  0.00     0.053 C 
BRANCH   6   7
ATOM      7  C   UNL     1      -7.316  -9.704   7.091  1.00  0.00     0.041 C 
ATOM      8  O   UNL     1      -7.611  -8.481   7.118  1.00  0.00    -0.550 OA
ATOM      9  O   UNL     1      -6.020 -10.092   6.773  1.00  0.00    -0.550 OA
ENDBRANCH   6   7
ENDBRANCH   5   6
ENDBRANCH   4   5
ENDBRANCH   3   4
ENDBRANCH   2   3
ENDBRANCH   1   2
BRANCH   1  10
ATOM     10  C   UNL     1     -11.934  -9.411  11.613  1.00  0.00     0.000 C 
BRANCH  10  11
ATOM     11  C   UNL     1     -11.952 -10.949  11.648  1.00  0.00    -0.000 C 
BRANCH  11  12
ATOM     12  C   UNL     1     -13.072 -11.552  10.786  1.00  0.00    -0.000 C 
BRANCH  12  13
ATOM     13  C   UNL     1     -12.506 -12.564   9.780  1.00  0.00    -0.000 C 
BRANCH  13  14
ATOM     14  C   UNL     1     -11.031 -12.903  10.048  1.00  0.00    -0.000 C 
BRANCH  14  15
ATOM     15  C   UNL     1     -10.407 -13.757   8.930  1.00  0.00    -0.000 C 
BRANCH  15  16
ATOM     16  C   UNL     1     -10.227 -15.227   9.344  1.00  0.00    -0.003 C 
ATOM     17  C   UNL     1     -11.355 -16.124   8.838  1.00  0.00     0.004 C 
ENDBRANCH  15  16
ENDBRANCH  14  15
ENDBRANCH  13  14
ENDBRANCH  12  13
ENDBRANCH  11  12
ENDBRANCH  10  11
ENDBRANCH   1  10
TORSDOF 13
ENDMDL
MODEL 3
REMARK VINA RESULT:    -5.518      3.043      6.273
REMARK INTER + INTRA:         -11.258
REMARK INTER:                  -9.603
REMARK INTRA:                  -1.656
REMARK UNBOUND:                -1.546
REMARK SMILES CCCCCCCCCCCCCCC(=O)[O-]
REMARK SMILES IDX 9 1 10 2 11 3 12 4 13 5 14 6 15 7 16 8 17 9 8 10 7 11 6 12
REMARK SMILES IDX 5 13 4 14 3 15 2 16 1 17
REMARK H PARENT
REMARK Flexibility Score: inf
ROOT
ATOM      1  C   UNL     1      -9.621 -11.537   7.225  1.00  0.00     0.000 C 
ENDROOT
BRANCH   1   2
ATOM      2  C   UNL     1      -9.724 -12.801   8.103  1.00  0.00     0.000 C 
BRANCH   2   3
ATOM      3  C   UNL     1     -10.653 -12.673   9.325  1.00  0.00     0.000 C 
BRANCH   3   4
ATOM      4  C   UNL     1     -12.086 -13.149   9.037  1.00  0.00     0.000 C 
BRANCH   4   5
ATOM      5  C   UNL     1     -12.142 -14.254   7.964  1.00  0.00     0.006 C 
BRANCH   5   6
ATOM      6  C   UNL     1     -12.641 -15.614   8.478  1.00  0.00     0.053 C 
BRANCH   6   7
ATOM      7  C   UNL     1     -11.513 -16.561   8.746  1.00  0.00     0.041 C 
ATOM      8  O   UNL     1     -11.746 -17.777   8.975  1.00  0.00    -0.550 OA
ATOM      9  O   UNL     1     -10.200 -16.108   8.713  1.00  0.00    -0.550 OA
ENDBRANCH   6   7
ENDBRANCH   5   6
ENDBRANCH   4   5
ENDBRANCH   3   4
ENDBRANCH   2   3
ENDBRANCH   1   2
BRANCH   1  10
ATOM     10  C   UNL     1      -8.334 -10.710   7.413  1.00  0.00     0.000 C 
BRANCH  10  11
ATOM     11  C   UNL     1      -8.542  -9.315   8.029  1.00  0.00    -0.000 C 
BRANCH  11  12
ATOM     12  C   UNL     1      -9.262  -9.363   9.385  1.00  0.00    -0.000 C 
BRANCH  12  13
ATOM     13  C   UNL     1     -10.486  -8.436   9.390  1.00  0.00    -0.000 C 
BRANCH  13  14
ATOM     14  C   UNL     1     -11.797  -9.185   9.102  1.00  0.00    -0.000 C 
BRANCH  14  15
ATOM     15  C   UNL     1     -12.828  -9.030  10.233  1.00  0.00    -0.000 C 
BRANCH  15  16
ATOM     16  C   UNL     1     -13.012 -10.324  11.042  1.00  0.00    -0.003 C 
ATOM     17  C   UNL     1     -11.927 -10.517  12.101  1.00  0.00     0.004 C 
ENDBRANCH  15  16
ENDBRANCH  14  15
ENDBRANCH  13  14
ENDBRANCH  12  13
ENDBRANCH  11  12
ENDBRANCH  10  11
ENDBRANCH   1  10
TORSDOF 13
ENDMDL
MODEL 4
REMARK VINA RESULT:    -5.510      2.733      5.508
REMARK INTER + INTRA:         -11.245
REMARK INTER:                  -9.795
REMARK INTRA:                  -1.449
REMARK UNBOUND:                -1.546
REMARK SMILES CCCCCCCCCCCCCCC(=O)[O-]
REMARK SMILES IDX 9 1 10 2 11 3 12 4 13 5 14 6 15 7 16 8 17 9 8 10 7 11 6 12
REMARK SMILES IDX 5 13 4 14 3 15 2 16 1 17
REMARK H PARENT
REMARK Flexibility Score: inf
ROOT
ATOM      1  C   UNL     1     -12.029 -10.690  11.748  1.00  0.00     0.000 C 
ENDROOT
BRANCH   1   2
ATOM      2  C   UNL     1     -13.193 -11.327  10.962  1.00  0.00     0.000 C 
BRANCH   2   3
ATOM      3  C   UNL     1     -12.778 -12.389   9.927  1.00  0.00     0.000 C 
BRANCH   3   4
ATOM      4  C   UNL     1     -11.330 -12.871  10.115  1.00  0.00     0.000 C 
BRANCH   4   5
ATOM      5  C   UNL     1     -10.754 -13.532   8.848  1.00  0.00     0.006 C 
BRANCH   5   6
ATOM      6  C   UNL     1     -11.364 -14.902   8.512  1.00  0.00     0.053 C 
BRANCH   6   7
ATOM      7  C   UNL     1     -10.458 -16.030   8.901  1.00  0.00     0.041 C 
ATOM      8  O   UNL     1      -9.215 -15.936   8.724  1.00  0.00    -0.550 OA
ATOM      9  O   UNL     1     -10.984 -17.173   9.490  1.00  0.00    -0.550 OA
ENDBRANCH   6   7
ENDBRANCH   5   6
ENDBRANCH   4   5
ENDBRANCH   3   4
ENDBRANCH   2   3
ENDBRANCH   1   2
BRANCH   1  10
ATOM     10  C   UNL     1     -11.722  -9.221  11.393  1.00  0.00     0.000 C 
BRANCH  10  11
ATOM     11  C   UNL     1     -12.697  -8.577  10.393  1.00  0.00    -0.000 C 
BRANCH  11  12
ATOM     12  C   UNL     1     -12.010  -8.131   9.094  1.00  0.00    -0.000 C 
BRANCH  12  13
ATOM     13  C   UNL     1     -10.486  -8.062   9.274  1.00  0.00    -0.000 C 
BRANCH  13  14
ATOM     14  C   UNL     1      -9.725  -8.780   8.149  1.00  0.00    -0.000 C 
BRANCH  14  15
ATOM     15  C   UNL     1      -9.239 -10.180   8.564  1.00  0.00    -0.000 C 
BRANCH  15  16
ATOM     16  C   UNL     1      -8.379 -10.850   7.480  1.00  0.00    -0.003 C 
ATOM     17  C   UNL     1      -7.175 -10.001   7.075  1.00  0.00     0.004 C 
ENDBRANCH  15  16
ENDBRANCH  14  15
ENDBRANCH  13  14
ENDBRANCH  12  13
ENDBRANCH  11  12
ENDBRANCH  10  11
ENDBRANCH   1  10
TORSDOF 13
ENDMDL
MODEL 5
REMARK VINA RESULT:    -5.456      2.811      5.272
REMARK INTER + INTRA:         -11.150
REMARK INTER:                  -9.481
REMARK INTRA:                  -1.668
REMARK UNBOUND:                -1.546
REMARK SMILES CCCCCCCCCCCCCCC(=O)[O-]
REMARK SMILES IDX 9 1 10 2 11 3 12 4 13 5 14 6 15 7 16 8 17 9 8 10 7 11 6 12
REMARK SMILES IDX 5 13 4 14 3 15 2 16 1 17
REMARK H PARENT
REMARK Flexibility Score: inf
ROOT
ATOM      1  C   UNL     1     -13.832 -10.063  10.661  1.00  0.00     0.000 C 
ENDROOT
BRANCH   1   2
ATOM      2  C   UNL     1     -12.693 -10.643  11.524  1.00  0.00     0.000 C 
BRANCH   2   3
ATOM      3  C   UNL     1     -12.008 -11.895  10.945  1.00  0.00     0.000 C 
BRANCH   3   4
ATOM      4  C   UNL     1     -12.918 -12.686   9.991  1.00  0.00     0.000 C 
BRANCH   4   5
ATOM      5  C   UNL     1     -12.162 -13.234   8.766  1.00  0.00     0.006 C 
BRANCH   5   6
ATOM      6  C   UNL     1     -10.845 -13.954   9.102  1.00  0.00     0.053 C 
BRANCH   6   7
ATOM      7  C   UNL     1     -10.914 -15.419   8.800  1.00  0.00     0.041 C 
ATOM      8  O   UNL     1     -12.014 -15.954   8.501  1.00  0.00    -0.550 OA
ATOM      9  O   UNL     1      -9.757 -16.188   8.818  1.00  0.00    -0.550 OA
ENDBRANCH   6   7
ENDBRANCH   5   6
ENDBRANCH   4   5
ENDBRANCH   3   4
ENDBRANCH   2   3
ENDBRANCH   1   2
BRANCH   1  10
ATOM     10  C   UNL     1     -13.457  -8.822   9.826  1.00  0.00     0.000 C 
BRANCH  10  11
ATOM     11  C   UNL     1     -12.282  -7.997  10.381  1.00  0.00    -0.000 C 
BRANCH  11  12
ATOM     12  C   UNL     1     -10.928  -8.414   9.789  1.00  0.00    -0.000 C 
BRANCH  12  13
ATOM     13  C   UNL     1     -11.025  -8.588   8.266  1.00  0.00    -0.000 C 
BRANCH  13  14
ATOM     14  C   UNL     1     -10.748 -10.032   7.817  1.00  0.00    -0.000 C 
BRANCH  14  15
ATOM     15  C   UNL     1      -9.444 -10.595   8.410  1.00  0.00    -0.000 C 
BRANCH  15  16
ATOM     16  C   UNL     1      -8.303 -10.643   7.381  1.00  0.00    -0.003 C 
ATOM     17  C   UNL     1      -7.591  -9.300   7.228  1.00  0.00     0.004 C 
ENDBRANCH  15  16
ENDBRANCH  14  15
ENDBRANCH  13  14
ENDBRANCH  12  13
ENDBRANCH  11  12
ENDBRANCH  10  11
ENDBRANCH   1  10
TORSDOF 13
ENDMDL
MODEL 6
REMARK VINA RESULT:    -5.445      2.791      4.284
REMARK INTER + INTRA:         -11.129
REMARK INTER:                  -9.845
REMARK INTRA:                  -1.284
REMARK UNBOUND:                -1.546
REMARK SMILES CCCCCCCCCCCCCCC(=O)[O-]
REMARK SMILES IDX 9 1 10 2 11 3 12 4 13 5 14 6 15 7 16 8 17 9 8 10 7 11 6 12
REMARK SMILES IDX 5 13 4 14 3 15 2 16 1 17
REMARK H PARENT
REMARK Flexibility Score: inf
ROOT
ATOM      1  C   UNL     1      -8.623  -9.683   8.282  1.00  0.00     0.000 C 
ENDROOT
BRANCH   1   2
ATOM      2  C   UNL     1      -9.461  -8.550   7.656  1.00  0.00     0.000 C 
BRANCH   2   3
ATOM      3  C   UNL     1     -10.829  -8.307   8.319  1.00  0.00     0.000 C 
BRANCH   3   4
ATOM      4  C   UNL     1     -10.709  -7.721   9.736  1.00  0.00     0.000 C 
BRANCH   4   5
ATOM      5  C   UNL     1     -11.650  -8.407  10.745  1.00  0.00     0.006 C 
BRANCH   5   6
ATOM      6  C   UNL     1     -12.469  -9.570  10.161  1.00  0.00     0.053 C 
BRANCH   6   7
ATOM      7  C   UNL     1     -12.654 -10.679  11.150  1.00  0.00     0.041 C 
ATOM      8  O   UNL     1     -12.152 -10.592  12.302  1.00  0.00    -0.550 OA
ATOM      9  O   UNL     1     -13.407 -11.795  10.811  1.00  0.00    -0.550 OA
ENDBRANCH   6   7
ENDBRANCH   5   6
ENDBRANCH   4   5
ENDBRANCH   3   4
ENDBRANCH   2   3
ENDBRANCH   1   2
BRANCH   1  10
ATOM     10  C   UNL     1      -8.413 -10.919   7.386  1.00  0.00     0.000 C 
BRANCH  10  11
ATOM     11  C   UNL     1      -9.677 -11.759   7.130  1.00  0.00    -0.000 C 
BRANCH  11  12
ATOM     12  C   UNL     1     -10.380 -12.187   8.427  1.00  0.00    -0.000 C 
BRANCH  12  13
ATOM     13  C   UNL     1     -11.763 -12.785   8.130  1.00  0.00    -0.000 C 
BRANCH  13  14
ATOM     14  C   UNL     1     -11.787 -14.316   8.267  1.00  0.00    -0.000 C 
BRANCH  14  15
ATOM     15  C   UNL     1     -10.760 -14.834   9.289  1.00  0.00    -0.000 C 
BRANCH  15  16
ATOM     16  C   UNL     1     -10.245 -16.241   8.945  1.00  0.00    -0.003 C 
ATOM     17  C   UNL     1     -11.243 -17.340   9.307  1.00  0.00     0.004 C 
ENDBRANCH  15  16
ENDBRANCH  14  15
ENDBRANCH  13  14
ENDBRANCH  12  13
ENDBRANCH  11  12
ENDBRANCH  10  11
ENDBRANCH   1  10
TORSDOF 13
ENDMDL
MODEL 7
REMARK VINA RESULT:    -5.275      1.868      5.464
REMARK INTER + INTRA:         -10.830
REMARK INTER:                  -9.010
REMARK INTRA:                  -1.820
REMARK UNBOUND:                -1.546
REMARK SMILES CCCCCCCCCCCCCCC(=O)[O-]
REMARK SMILES IDX 9 1 10 2 11 3 12 4 13 5 14 6 15 7 16 8 17 9 8 10 7 11 6 12
REMARK SMILES IDX 5 13 4 14 3 15 2 16 1 17
REMARK H PARENT
REMARK Flexibility Score: inf
ROOT
ATOM      1  C   UNL     1     -12.787 -12.017  10.243  1.00  0.00     0.000 C 
ENDROOT
BRANCH   1   2
ATOM      2  C   UNL     1     -11.337 -12.515  10.411  1.00  0.00     0.000 C 
BRANCH   2   3
ATOM      3  C   UNL     1     -10.434 -12.328   9.178  1.00  0.00     0.000 C 
BRANCH   3   4
ATOM      4  C   UNL     1     -11.150 -11.617   8.017  1.00  0.00     0.000 C 
BRANCH   4   5
ATOM      5  C   UNL     1     -10.610 -10.196   7.766  1.00  0.00     0.006 C 
BRANCH   5   6
ATOM      6  C   UNL     1      -9.293  -9.880   8.492  1.00  0.00     0.053 C 
BRANCH   6   7
ATOM      7  C   UNL     1      -8.186  -9.564   7.534  1.00  0.00     0.041 C 
ATOM      8  O   UNL     1      -8.015  -8.383   7.129  1.00  0.00    -0.550 OA
ATOM      9  O   UNL     1      -7.323 -10.567   7.112  1.00  0.00    -0.550 OA
ENDBRANCH   6   7
ENDBRANCH   5   6
ENDBRANCH   4   5
ENDBRANCH   3   4
ENDBRANCH   2   3
ENDBRANCH   1   2
BRANCH   1  10
ATOM     10  C   UNL     1     -13.139 -10.739  11.030  1.00  0.00     0.000 C 
BRANCH  10  11
ATOM     11  C   UNL     1     -11.936 -10.003  11.645  1.00  0.00    -0.000 C 
BRANCH  11  12
ATOM     12  C   UNL     1     -11.692  -8.625  11.011  1.00  0.00    -0.000 C 
BRANCH  12  13
ATOM     13  C   UNL     1     -12.793  -8.285   9.996  1.00  0.00    -0.000 C 
BRANCH  13  14
ATOM     14  C   UNL     1     -12.400  -7.130   9.061  1.00  0.00    -0.000 C 
BRANCH  14  15
ATOM     15  C   UNL     1     -13.577  -6.186   8.761  1.00  0.00    -0.000 C 
BRANCH  15  16
ATOM     16  C   UNL     1     -13.923  -5.281   9.954  1.00  0.00    -0.003 C 
ATOM     17  C   UNL     1     -15.339  -5.513  10.479  1.00  0.00     0.004 C 
ENDBRANCH  15  16
ENDBRANCH  14  15
ENDBRANCH  13  14
ENDBRANCH  12  13
ENDBRANCH  11  12
ENDBRANCH  10  11
ENDBRANCH   1  10
TORSDOF 13
ENDMDL
MODEL 8
REMARK VINA RESULT:    -5.212      2.709      4.868
REMARK INTER + INTRA:         -10.720
REMARK INTER:                  -9.053
REMARK INTRA:                  -1.668
REMARK UNBOUND:                -1.546
REMARK SMILES CCCCCCCCCCCCCCC(=O)[O-]
REMARK SMILES IDX 9 1 10 2 11 3 12 4 13 5 14 6 15 7 16 8 17 9 8 10 7 11 6 12
REMARK SMILES IDX 5 13 4 14 3 15 2 16 1 17
REMARK H PARENT
REMARK Flexibility Score: inf
ROOT
ATOM      1  C   UNL     1     -10.999  -7.880  10.094  1.00  0.00     0.000 C 
ENDROOT
BRANCH   1   2
ATOM      2  C   UNL     1     -10.055  -8.384   8.984  1.00  0.00     0.000 C 
BRANCH   2   3
ATOM      3  C   UNL     1      -9.515  -9.812   9.185  1.00  0.00     0.000 C 
BRANCH   3   4
ATOM      4  C   UNL     1      -8.777 -10.350   7.947  1.00  0.00     0.000 C 
BRANCH   4   5
ATOM      5  C   UNL     1      -9.314 -11.718   7.483  1.00  0.00     0.006 C 
BRANCH   5   6
ATOM      6  C   UNL     1     -10.818 -11.926   7.725  1.00  0.00     0.053 C 
BRANCH   6   7
ATOM      7  C   UNL     1     -11.129 -13.326   8.156  1.00  0.00     0.041 C 
ATOM      8  O   UNL     1     -10.300 -13.977   8.844  1.00  0.00    -0.550 OA
ATOM      9  O   UNL     1     -12.350 -13.901   7.824  1.00  0.00    -0.550 OA
ENDBRANCH   6   7
ENDBRANCH   5   6
ENDBRANCH   4   5
ENDBRANCH   3   4
ENDBRANCH   2   3
ENDBRANCH   1   2
BRANCH   1  10
ATOM     10  C   UNL     1     -11.912  -6.703   9.696  1.00  0.00     0.000 C 
BRANCH  10  11
ATOM     11  C   UNL     1     -13.409  -6.919   9.977  1.00  0.00    -0.000 C 
BRANCH  11  12
ATOM     12  C   UNL     1     -13.990  -8.125   9.224  1.00  0.00    -0.000 C 
BRANCH  12  13
ATOM     13  C   UNL     1     -15.053  -8.842  10.070  1.00  0.00    -0.000 C 
BRANCH  13  14
ATOM     14  C   UNL     1     -14.487 -10.055  10.825  1.00  0.00    -0.000 C 
BRANCH  14  15
ATOM     15  C   UNL     1     -13.134 -10.524  10.262  1.00  0.00    -0.000 C 
BRANCH  15  16
ATOM     16  C   UNL     1     -12.347 -11.386  11.262  1.00  0.00    -0.003 C 
ATOM     17  C   UNL     1     -11.821 -10.580  12.449  1.00  0.00     0.004 C 
ENDBRANCH  15  16
ENDBRANCH  14  15
ENDBRANCH  13  14
ENDBRANCH  12  13
ENDBRANCH  11  12
ENDBRANCH  10  11
ENDBRANCH   1  10
TORSDOF 13
ENDMDL
MODEL 9
REMARK VINA RESULT:    -5.101      3.060      6.417
REMARK INTER + INTRA:         -10.524
REMARK INTER:                  -8.888
REMARK INTRA:                  -1.635
REMARK UNBOUND:                -1.546
REMARK SMILES CCCCCCCCCCCCCCC(=O)[O-]
REMARK SMILES IDX 9 1 10 2 11 3 12 4 13 5 14 6 15 7 16 8 17 9 8 10 7 11 6 12
REMARK SMILES IDX 5 13 4 14 3 15 2 16 1 17
REMARK H PARENT
REMARK Flexibility Score: inf
ROOT
ATOM      1  C   UNL     1      -9.966  -8.448   7.709  1.00  0.00     0.000 C 
ENDROOT
BRANCH   1   2
ATOM      2  C   UNL     1      -8.555  -9.070   7.758  1.00  0.00     0.000 C 
BRANCH   2   3
ATOM      3  C   UNL     1      -8.502 -10.588   7.511  1.00  0.00     0.000 C 
BRANCH   3   4
ATOM      4  C   UNL     1      -9.897 -11.217   7.359  1.00  0.00     0.000 C 
BRANCH   4   5
ATOM      5  C   UNL     1     -10.018 -12.575   8.078  1.00  0.00     0.006 C 
BRANCH   5   6
ATOM      6  C   UNL     1     -10.778 -12.521   9.413  1.00  0.00     0.053 C 
BRANCH   6   7
ATOM      7  C   UNL     1     -12.183 -13.024   9.280  1.00  0.00     0.041 C 
ATOM      8  O   UNL     1     -12.516 -13.721   8.285  1.00  0.00    -0.550 OA
ATOM      9  O   UNL     1     -13.117 -12.749  10.271  1.00  0.00    -0.550 OA
ENDBRANCH   6   7
ENDBRANCH   5   6
ENDBRANCH   4   5
ENDBRANCH   3   4
ENDBRANCH   2   3
ENDBRANCH   1   2
BRANCH   1  10
ATOM     10  C   UNL     1     -10.474  -7.865   9.043  1.00  0.00     0.000 C 
BRANCH  10  11
ATOM     11  C   UNL     1     -10.742  -8.904  10.146  1.00  0.00    -0.000 C 
BRANCH  11  12
ATOM     12  C   UNL     1     -12.119  -8.734  10.805  1.00  0.00    -0.000 C 
BRANCH  12  13
ATOM     13  C   UNL     1     -13.229  -9.313   9.915  1.00  0.00    -0.000 C 
BRANCH  13  14
ATOM     14  C   UNL     1     -14.191  -8.234   9.392  1.00  0.00    -0.000 C 
BRANCH  14  15
ATOM     15  C   UNL     1     -14.020  -6.888  10.118  1.00  0.00    -0.000 C 
BRANCH  15  16
ATOM     16  C   UNL     1     -13.588  -5.759   9.168  1.00  0.00    -0.003 C 
ATOM     17  C   UNL     1     -13.153  -4.497   9.911  1.00  0.00     0.004 C 
ENDBRANCH  15  16
ENDBRANCH  14  15
ENDBRANCH  13  14
ENDBRANCH  12  13
ENDBRANCH  11  12
ENDBRANCH  10  11
ENDBRANCH   1  10
TORSDOF 13
ENDMDL
