MODEL 1
REMARK VINA RESULT:    10.068      0.000      0.000
REMARK INTER + INTRA:          12.599
REMARK INTER:                  10.951
REMARK INTRA:                   1.648
REMARK UNBOUND:                 1.648
REMARK SMILES C[C@@H]1[C@H](C)CC[C@@]2(C(=O)[O-])CC[C@]3(C)C(=CC[C@@H]4[C@@]5(C)CC[C@@H](O)C(C)(C)[C@@H]5CC[C@@]43C)[C@@H]12
REMARK SMILES IDX 7 1 6 2 11 3 33 4 5 5 12 6 15 7 2 8 3 9 13 10 16 11 1 12
REMARK SMILES IDX 4 13 14 14 31 15 17 16 18 17 30 18 32 19 19 20 29 21 28 22
REMARK SMILES IDX 21 23 20 24 25 25 22 26 23 27 26 28 27 29 8 30 9 31 10 32
REMARK SMILES IDX 24 33
REMARK H PARENT 24 34
REMARK Flexibility Score: inf
ROOT
ATOM      1  C   UNL     1      10.673  21.371   9.794  1.00  0.00     0.017 C 
ATOM      2  C   UNL     1      12.226  21.402   9.736  1.00  0.00     0.014 C 
ATOM      3  C   UNL     1      10.115  21.578   8.333  1.00  0.00     0.014 C 
ATOM      4  C   UNL     1      10.104  20.046  10.456  1.00  0.00     0.030 C 
ATOM      5  C   UNL     1      12.851  20.142   9.157  1.00  0.00     0.004 C 
ATOM      6  C   UNL     1       8.790  20.846   7.973  1.00  0.00     0.013 C 
ATOM      7  C   UNL     1       8.551  19.913  10.255  1.00  0.00    -0.063 C 
ATOM      8  C   UNL     1      10.912  18.749  10.011  1.00  0.00    -0.003 C 
ATOM      9  C   UNL     1      12.463  18.932   9.991  1.00  0.00    -0.011 C 
ATOM     10  C   UNL     1       7.767  20.692   9.148  1.00  0.00    -0.006 C 
ATOM     11  C   UNL     1       7.901  19.068  11.080  1.00  0.00    -0.027 C 
ATOM     12  C   UNL     1      10.612  17.459  10.818  1.00  0.00     0.008 C 
ATOM     13  C   UNL     1      13.124  19.002  11.386  1.00  0.00     0.008 C 
ATOM     14  C   UNL     1       7.463  22.161   9.626  1.00  0.00     0.017 C 
ATOM     15  C   UNL     1       6.325  19.977   8.744  1.00  0.00    -0.020 C 
ATOM     16  C   UNL     1       6.580  18.420  10.776  1.00  0.00     0.032 C 
ATOM     17  C   UNL     1       6.147  18.498   9.294  1.00  0.00     0.006 C 
ATOM     18  C   UNL     1       6.011  20.038   7.208  1.00  0.00     0.008 C 
ATOM     19  C   UNL     1       5.103  20.757   9.398  1.00  0.00     0.012 C 
ATOM     20  C   UNL     1       6.546  17.257   8.369  1.00  0.00    -0.025 C 
ATOM     21  C   UNL     1       6.562  18.883   6.369  1.00  0.00     0.005 C 
ATOM     22  C   UNL     1       6.041  17.537   6.905  1.00  0.00     0.003 C 
ATOM     23  C   UNL     1       5.846  15.949   8.926  1.00  0.00     0.010 C 
ATOM     24  C   UNL     1       8.075  17.030   8.404  1.00  0.00     0.012 C 
ATOM     25  C   UNL     1       6.157  16.342   5.853  1.00  0.00    -0.006 C 
ATOM     26  C   UNL     1       5.294  14.993   7.856  1.00  0.00     0.033 C 
ATOM     27  C   UNL     1       6.178  14.964   6.603  1.00  0.00     0.120 C 
ATOM     28  C   UNL     1       7.408  16.432   4.944  1.00  0.00     0.014 C 
ATOM     29  C   UNL     1       4.926  16.413   4.901  1.00  0.00     0.014 C 
ENDROOT
BRANCH   1  30
ATOM     30  C   UNL     1      10.341  22.580  10.679  1.00  0.00     0.048 C 
ATOM     31  O   UNL     1       9.199  23.125  10.601  1.00  0.00    -0.550 OA
ATOM     32  O   UNL     1      11.273  23.116  11.560  1.00  0.00    -0.550 OA
ENDBRANCH   1  30
BRANCH  27  33
ATOM     33  O   UNL     1       5.840  13.890   5.754  1.00  0.00    -0.393 OA
ATOM     34  H   UNL     1       5.974  13.043   6.252  1.00  0.00     0.210 HD
ENDBRANCH  27  33
TORSDOF 2
ENDMDL
MODEL 2
REMARK VINA RESULT:    11.962      1.400      2.025
REMARK INTER + INTRA:          14.659
REMARK INTER:                  14.120
REMARK INTRA:                   0.539
REMARK UNBOUND:                 1.648
REMARK SMILES C[C@@H]1[C@H](C)CC[C@@]2(C(=O)[O-])CC[C@]3(C)C(=CC[C@@H]4[C@@]5(C)CC[C@@H](O)C(C)(C)[C@@H]5CC[C@@]43C)[C@@H]12
REMARK SMILES IDX 7 1 6 2 11 3 33 4 5 5 12 6 15 7 2 8 3 9 13 10 16 11 1 12
REMARK SMILES IDX 4 13 14 14 31 15 17 16 18 17 30 18 32 19 19 20 29 21 28 22
REMARK SMILES IDX 21 23 20 24 25 25 22 26 23 27 26 28 27 29 8 30 9 31 10 32
REMARK SMILES IDX 24 33
REMARK H PARENT 24 34
REMARK Flexibility Score: inf
ROOT
ATOM      1  C   UNL     1       9.514  22.136   9.801  1.00  0.00     0.017 C 
ATOM      2  C   UNL     1      10.530  23.123   9.162  1.00  0.00     0.014 C 
ATOM      3  C   UNL     1       8.166  22.210   8.984  1.00  0.00     0.014 C 
ATOM      4  C   UNL     1      10.064  20.651   9.889  1.00  0.00     0.030 C 
ATOM      5  C   UNL     1      11.125  22.640   7.848  1.00  0.00     0.004 C 
ATOM      6  C   UNL     1       7.340  20.897   8.863  1.00  0.00     0.013 C 
ATOM      7  C   UNL     1       8.933  19.630  10.275  1.00  0.00    -0.063 C 
ATOM      8  C   UNL     1      10.880  20.227   8.589  1.00  0.00    -0.003 C 
ATOM      9  C   UNL     1      11.856  21.324   8.055  1.00  0.00    -0.011 C 
ATOM     10  C   UNL     1       7.410  19.944  10.103  1.00  0.00    -0.006 C 
ATOM     11  C   UNL     1       9.330  18.436  10.756  1.00  0.00    -0.027 C 
ATOM     12  C   UNL     1      11.687  18.908   8.701  1.00  0.00     0.008 C 
ATOM     13  C   UNL     1      13.122  21.538   8.917  1.00  0.00     0.008 C 
ATOM     14  C   UNL     1       6.890  20.803  11.315  1.00  0.00     0.017 C 
ATOM     15  C   UNL     1       6.470  18.579  10.003  1.00  0.00    -0.020 C 
ATOM     16  C   UNL     1       8.507  17.179  10.720  1.00  0.00     0.032 C 
ATOM     17  C   UNL     1       7.285  17.235   9.774  1.00  0.00     0.006 C 
ATOM     18  C   UNL     1       5.304  18.704   8.960  1.00  0.00     0.008 C 
ATOM     19  C   UNL     1       5.709  18.314  11.373  1.00  0.00     0.012 C 
ATOM     20  C   UNL     1       7.508  16.689   8.289  1.00  0.00    -0.025 C 
ATOM     21  C   UNL     1       5.649  18.302   7.524  1.00  0.00     0.005 C 
ATOM     22  C   UNL     1       6.164  16.852   7.484  1.00  0.00     0.003 C 
ATOM     23  C   UNL     1       7.898  15.154   8.354  1.00  0.00     0.010 C 
ATOM     24  C   UNL     1       8.670  17.446   7.606  1.00  0.00     0.012 C 
ATOM     25  C   UNL     1       6.099  16.190   6.034  1.00  0.00    -0.006 C 
ATOM     26  C   UNL     1       7.266  14.268   7.268  1.00  0.00     0.033 C 
ATOM     27  C   UNL     1       7.128  15.009   5.933  1.00  0.00     0.120 C 
ATOM     28  C   UNL     1       6.371  17.187   4.881  1.00  0.00     0.014 C 
ATOM     29  C   UNL     1       4.652  15.655   5.810  1.00  0.00     0.014 C 
ENDROOT
BRANCH   1  30
ATOM     30  C   UNL     1       9.325  22.706  11.212  1.00  0.00     0.048 C 
ATOM     31  O   UNL     1      10.319  22.805  11.993  1.00  0.00    -0.550 OA
ATOM     32  O   UNL     1       8.076  23.103  11.676  1.00  0.00    -0.550 OA
ENDBRANCH   1  30
BRANCH  27  33
ATOM     33  O   UNL     1       6.823  14.126   4.877  1.00  0.00    -0.393 OA
ATOM     34  H   UNL     1       7.133  14.534   4.028  1.00  0.00     0.210 HD
ENDBRANCH  27  33
TORSDOF 2
ENDMDL
