MODEL 1
REMARK VINA RESULT:    -5.388      0.000      0.000
REMARK INTER + INTRA:         -11.903
REMARK INTER:                  -9.483
REMARK INTRA:                  -2.421
REMARK UNBOUND:                -2.421
REMARK SMILES CCCCCCCCCCCCCCC(=O)[O-]
REMARK SMILES IDX 9 1 10 2 11 3 12 4 13 5 14 6 15 7 16 8 17 9 8 10 7 11 6 12
REMARK SMILES IDX 5 13 4 14 3 15 2 16 1 17
REMARK H PARENT
REMARK Flexibility Score: inf
ROOT
ATOM      1  C   UNL     1       6.355  20.087  44.436  1.00  0.00     0.000 C 
ENDROOT
BRANCH   1   2
ATOM      2  C   UNL     1       4.886  20.549  44.476  1.00  0.00     0.000 C 
BRANCH   2   3
ATOM      3  C   UNL     1       4.564  21.601  45.552  1.00  0.00     0.000 C 
BRANCH   3   4
ATOM      4  C   UNL     1       4.635  23.040  45.023  1.00  0.00     0.000 C 
BRANCH   4   5
ATOM      5  C   UNL     1       3.451  23.344  44.096  1.00  0.00     0.006 C 
BRANCH   5   6
ATOM      6  C   UNL     1       3.908  24.118  42.856  1.00  0.00     0.053 C 
BRANCH   6   7
ATOM      7  C   UNL     1       3.929  25.588  43.134  1.00  0.00     0.041 C 
ATOM      8  O   UNL     1       2.861  26.255  43.100  1.00  0.00    -0.550 OA
ATOM      9  O   UNL     1       5.135  26.232  43.383  1.00  0.00    -0.550 OA
ENDBRANCH   6   7
ENDBRANCH   5   6
ENDBRANCH   4   5
ENDBRANCH   3   4
ENDBRANCH   2   3
ENDBRANCH   1   2
BRANCH   1  10
ATOM     10  C   UNL     1       6.953  20.111  43.021  1.00  0.00     0.000 C 
BRANCH  10  11
ATOM     11  C   UNL     1       6.017  20.835  42.043  1.00  0.00    -0.000 C 
BRANCH  11  12
ATOM     12  C   UNL     1       6.636  22.120  41.463  1.00  0.00    -0.000 C 
BRANCH  12  13
ATOM     13  C   UNL     1       7.836  22.678  42.255  1.00  0.00    -0.000 C 
BRANCH  13  14
ATOM     14  C   UNL     1       7.636  24.092  42.834  1.00  0.00    -0.000 C 
BRANCH  14  15
ATOM     15  C   UNL     1       8.302  24.337  44.202  1.00  0.00    -0.000 C 
BRANCH  15  16
ATOM     16  C   UNL     1       8.676  23.060  44.977  1.00  0.00    -0.003 C 
ATOM     17  C   UNL     1       7.973  22.958  46.331  1.00  0.00     0.004 C 
ENDBRANCH  15  16
ENDBRANCH  14  15
ENDBRANCH  13  14
ENDBRANCH  12  13
ENDBRANCH  11  12
ENDBRANCH  10  11
ENDBRANCH   1  10
TORSDOF 13
ENDMDL
MODEL 2
REMARK VINA RESULT:    -5.345      3.158      5.471
REMARK INTER + INTRA:         -11.828
REMARK INTER:                  -9.320
REMARK INTRA:                  -2.508
REMARK UNBOUND:                -2.421
REMARK SMILES CCCCCCCCCCCCCCC(=O)[O-]
REMARK SMILES IDX 9 1 10 2 11 3 12 4 13 5 14 6 15 7 16 8 17 9 8 10 7 11 6 12
REMARK SMILES IDX 5 13 4 14 3 15 2 16 1 17
REMARK H PARENT
REMARK Flexibility Score: inf
ROOT
ATOM      1  C   UNL     1       6.862  23.842  42.715  1.00  0.00     0.000 C 
ENDROOT
BRANCH   1   2
ATOM      2  C   UNL     1       7.482  24.348  44.029  1.00  0.00     0.000 C 
BRANCH   2   3
ATOM      3  C   UNL     1       8.551  23.425  44.642  1.00  0.00     0.000 C 
BRANCH   3   4
ATOM      4  C   UNL     1       8.069  22.711  45.912  1.00  0.00     0.000 C 
BRANCH   4   5
ATOM      5  C   UNL     1       8.471  21.231  45.897  1.00  0.00     0.006 C 
BRANCH   5   6
ATOM      6  C   UNL     1       9.696  21.002  45.007  1.00  0.00     0.053 C 
BRANCH   6   7
ATOM      7  C   UNL     1       9.495  19.800  44.139  1.00  0.00     0.041 C 
ATOM      8  O   UNL     1       8.937  18.770  44.602  1.00  0.00    -0.550 OA
ATOM      9  O   UNL     1       9.967  19.800  42.832  1.00  0.00    -0.550 OA
ENDBRANCH   6   7
ENDBRANCH   5   6
ENDBRANCH   4   5
ENDBRANCH   3   4
ENDBRANCH   2   3
ENDBRANCH   1   2
BRANCH   1  10
ATOM     10  C   UNL     1       7.442  22.494  42.257  1.00  0.00     0.000 C 
BRANCH  10  11
ATOM     11  C   UNL     1       6.323  21.471  42.013  1.00  0.00    -0.000 C 
BRANCH  11  12
ATOM     12  C   UNL     1       6.148  20.485  43.183  1.00  0.00    -0.000 C 
BRANCH  12  13
ATOM     13  C   UNL     1       4.772  20.536  43.876  1.00  0.00    -0.000 C 
BRANCH  13  14
ATOM     14  C   UNL     1       4.759  21.226  45.253  1.00  0.00    -0.000 C 
BRANCH  14  15
ATOM     15  C   UNL     1       4.344  22.711  45.236  1.00  0.00    -0.000 C 
BRANCH  15  16
ATOM     16  C   UNL     1       3.572  23.152  43.979  1.00  0.00    -0.003 C 
ATOM     17  C   UNL     1       2.937  24.534  44.125  1.00  0.00     0.004 C 
ENDBRANCH  15  16
ENDBRANCH  14  15
ENDBRANCH  13  14
ENDBRANCH  12  13
ENDBRANCH  11  12
ENDBRANCH  10  11
ENDBRANCH   1  10
TORSDOF 13
ENDMDL
MODEL 3
REMARK VINA RESULT:    -5.337      3.133      4.998
REMARK INTER + INTRA:         -11.814
REMARK INTER:                  -9.471
REMARK INTRA:                  -2.343
REMARK UNBOUND:                -2.421
REMARK SMILES CCCCCCCCCCCCCCC(=O)[O-]
REMARK SMILES IDX 9 1 10 2 11 3 12 4 13 5 14 6 15 7 16 8 17 9 8 10 7 11 6 12
REMARK SMILES IDX 5 13 4 14 3 15 2 16 1 17
REMARK H PARENT
REMARK Flexibility Score: inf
ROOT
ATOM      1  C   UNL     1       5.943  21.843  46.470  1.00  0.00     0.000 C 
ENDROOT
BRANCH   1   2
ATOM      2  C   UNL     1       4.724  21.794  45.531  1.00  0.00     0.000 C 
BRANCH   2   3
ATOM      3  C   UNL     1       4.786  20.709  44.440  1.00  0.00     0.000 C 
BRANCH   3   4
ATOM      4  C   UNL     1       5.437  21.204  43.141  1.00  0.00     0.000 C 
BRANCH   4   5
ATOM      5  C   UNL     1       6.794  20.527  42.913  1.00  0.00     0.006 C 
BRANCH   5   6
ATOM      6  C   UNL     1       7.037  19.419  43.942  1.00  0.00     0.053 C 
BRANCH   6   7
ATOM      7  C   UNL     1       8.449  19.461  44.436  1.00  0.00     0.041 C 
ATOM      8  O   UNL     1       9.406  19.322  43.629  1.00  0.00    -0.550 OA
ATOM      9  O   UNL     1       8.707  19.606  45.793  1.00  0.00    -0.550 OA
ENDBRANCH   6   7
ENDBRANCH   5   6
ENDBRANCH   4   5
ENDBRANCH   3   4
ENDBRANCH   2   3
ENDBRANCH   1   2
BRANCH   1  10
ATOM     10  C   UNL     1       6.630  23.217  46.490  1.00  0.00     0.000 C 
BRANCH  10  11
ATOM     11  C   UNL     1       8.133  23.083  46.204  1.00  0.00    -0.000 C 
BRANCH  11  12
ATOM     12  C   UNL     1       8.468  23.190  44.705  1.00  0.00    -0.000 C 
BRANCH  12  13
ATOM     13  C   UNL     1       8.061  24.521  44.042  1.00  0.00    -0.000 C 
BRANCH  13  14
ATOM     14  C   UNL     1       6.833  24.442  43.115  1.00  0.00    -0.000 C 
BRANCH  14  15
ATOM     15  C   UNL     1       5.611  25.257  43.579  1.00  0.00    -0.000 C 
BRANCH  15  16
ATOM     16  C   UNL     1       4.271  24.824  42.957  1.00  0.00    -0.003 C 
ATOM     17  C   UNL     1       3.144  24.718  43.985  1.00  0.00     0.004 C 
ENDBRANCH  15  16
ENDBRANCH  14  15
ENDBRANCH  13  14
ENDBRANCH  12  13
ENDBRANCH  11  12
ENDBRANCH  10  11
ENDBRANCH   1  10
TORSDOF 13
ENDMDL
MODEL 4
REMARK VINA RESULT:    -5.272      1.447      3.021
REMARK INTER + INTRA:         -11.700
REMARK INTER:                  -9.356
REMARK INTRA:                  -2.344
REMARK UNBOUND:                -2.421
REMARK SMILES CCCCCCCCCCCCCCC(=O)[O-]
REMARK SMILES IDX 9 1 10 2 11 3 12 4 13 5 14 6 15 7 16 8 17 9 8 10 7 11 6 12
REMARK SMILES IDX 5 13 4 14 3 15 2 16 1 17
REMARK H PARENT
REMARK Flexibility Score: inf
ROOT
ATOM      1  C   UNL     1       5.885  20.612  42.242  1.00  0.00     0.000 C 
ENDROOT
BRANCH   1   2
ATOM      2  C   UNL     1       6.656  21.938  42.107  1.00  0.00     0.000 C 
BRANCH   2   3
ATOM      3  C   UNL     1       5.798  23.208  42.259  1.00  0.00     0.000 C 
BRANCH   3   4
ATOM      4  C   UNL     1       6.483  24.297  43.095  1.00  0.00     0.000 C 
BRANCH   4   5
ATOM      5  C   UNL     1       5.478  24.991  44.023  1.00  0.00     0.006 C 
BRANCH   5   6
ATOM      6  C   UNL     1       4.347  25.642  43.221  1.00  0.00     0.053 C 
BRANCH   6   7
ATOM      7  C   UNL     1       3.015  25.193  43.734  1.00  0.00     0.041 C 
ATOM      8  O   UNL     1       2.823  23.982  44.023  1.00  0.00    -0.550 OA
ATOM      9  O   UNL     1       1.971  26.102  43.847  1.00  0.00    -0.550 OA
ENDBRANCH   6   7
ENDBRANCH   5   6
ENDBRANCH   4   5
ENDBRANCH   3   4
ENDBRANCH   2   3
ENDBRANCH   1   2
BRANCH   1  10
ATOM     10  C   UNL     1       5.819  20.102  43.690  1.00  0.00     0.000 C 
BRANCH  10  11
ATOM     11  C   UNL     1       4.545  20.597  44.388  1.00  0.00    -0.000 C 
BRANCH  11  12
ATOM     12  C   UNL     1       4.837  21.564  45.551  1.00  0.00    -0.000 C 
BRANCH  12  13
ATOM     13  C   UNL     1       6.189  21.338  46.258  1.00  0.00    -0.000 C 
BRANCH  13  14
ATOM     14  C   UNL     1       7.111  22.572  46.313  1.00  0.00    -0.000 C 
BRANCH  14  15
ATOM     15  C   UNL     1       8.474  22.399  45.615  1.00  0.00    -0.000 C 
BRANCH  15  16
ATOM     16  C   UNL     1       9.001  20.953  45.575  1.00  0.00    -0.003 C 
ATOM     17  C   UNL     1       9.470  20.528  44.184  1.00  0.00     0.004 C 
ENDBRANCH  15  16
ENDBRANCH  14  15
ENDBRANCH  13  14
ENDBRANCH  12  13
ENDBRANCH  11  12
ENDBRANCH  10  11
ENDBRANCH   1  10
TORSDOF 13
ENDMDL
MODEL 5
REMARK VINA RESULT:    -5.272      3.485      5.356
REMARK INTER + INTRA:         -11.699
REMARK INTER:                  -9.266
REMARK INTRA:                  -2.433
REMARK UNBOUND:                -2.421
REMARK SMILES CCCCCCCCCCCCCCC(=O)[O-]
REMARK SMILES IDX 9 1 10 2 11 3 12 4 13 5 14 6 15 7 16 8 17 9 8 10 7 11 6 12
REMARK SMILES IDX 5 13 4 14 3 15 2 16 1 17
REMARK H PARENT
REMARK Flexibility Score: inf
ROOT
ATOM      1  C   UNL     1       5.685  21.558  46.322  1.00  0.00     0.000 C 
ENDROOT
BRANCH   1   2
ATOM      2  C   UNL     1       6.413  22.897  46.539  1.00  0.00     0.000 C 
BRANCH   2   3
ATOM      3  C   UNL     1       7.926  22.868  46.257  1.00  0.00     0.000 C 
BRANCH   3   4
ATOM      4  C   UNL     1       8.431  21.480  45.839  1.00  0.00     0.000 C 
BRANCH   4   5
ATOM      5  C   UNL     1       9.590  21.594  44.841  1.00  0.00     0.006 C 
BRANCH   5   6
ATOM      6  C   UNL     1       9.522  20.482  43.789  1.00  0.00     0.053 C 
BRANCH   6   7
ATOM      7  C   UNL     1       9.593  19.138  44.442  1.00  0.00     0.041 C 
ATOM      8  O   UNL     1       8.690  18.284  44.234  1.00  0.00    -0.550 OA
ATOM      9  O   UNL     1      10.630  18.845  45.319  1.00  0.00    -0.550 OA
ENDBRANCH   6   7
ENDBRANCH   5   6
ENDBRANCH   4   5
ENDBRANCH   3   4
ENDBRANCH   2   3
ENDBRANCH   1   2
BRANCH   1  10
ATOM     10  C   UNL     1       4.394  21.703  45.501  1.00  0.00     0.000 C 
BRANCH  10  11
ATOM     11  C   UNL     1       4.353  20.677  44.359  1.00  0.00    -0.000 C 
BRANCH  11  12
ATOM     12  C   UNL     1       5.751  20.167  43.963  1.00  0.00    -0.000 C 
BRANCH  12  13
ATOM     13  C   UNL     1       6.068  20.243  42.456  1.00  0.00    -0.000 C 
BRANCH  13  14
ATOM     14  C   UNL     1       5.879  21.632  41.818  1.00  0.00    -0.000 C 
BRANCH  14  15
ATOM     15  C   UNL     1       6.629  22.781  42.521  1.00  0.00    -0.000 C 
BRANCH  15  16
ATOM     16  C   UNL     1       5.753  23.991  42.896  1.00  0.00    -0.003 C 
ATOM     17  C   UNL     1       6.517  25.059  43.678  1.00  0.00     0.004 C 
ENDBRANCH  15  16
ENDBRANCH  14  15
ENDBRANCH  13  14
ENDBRANCH  12  13
ENDBRANCH  11  12
ENDBRANCH  10  11
ENDBRANCH   1  10
TORSDOF 13
ENDMDL
MODEL 6
REMARK VINA RESULT:    -5.258      1.058      2.856
REMARK INTER + INTRA:         -11.675
REMARK INTER:                  -9.271
REMARK INTRA:                  -2.404
REMARK UNBOUND:                -2.421
REMARK SMILES CCCCCCCCCCCCCCC(=O)[O-]
REMARK SMILES IDX 9 1 10 2 11 3 12 4 13 5 14 6 15 7 16 8 17 9 8 10 7 11 6 12
REMARK SMILES IDX 5 13 4 14 3 15 2 16 1 17
REMARK H PARENT
REMARK Flexibility Score: inf
ROOT
ATOM      1  C   UNL     1       6.632  22.721  46.367  1.00  0.00     0.000 C 
ENDROOT
BRANCH   1   2
ATOM      2  C   UNL     1       5.529  21.665  46.175  1.00  0.00     0.000 C 
BRANCH   2   3
ATOM      3  C   UNL     1       4.450  22.032  45.139  1.00  0.00     0.000 C 
BRANCH   3   4
ATOM      4  C   UNL     1       4.287  23.547  44.956  1.00  0.00     0.000 C 
BRANCH   4   5
ATOM      5  C   UNL     1       3.799  23.881  43.541  1.00  0.00     0.006 C 
BRANCH   5   6
ATOM      6  C   UNL     1       4.011  25.364  43.221  1.00  0.00     0.053 C 
BRANCH   6   7
ATOM      7  C   UNL     1       2.722  26.114  43.340  1.00  0.00     0.041 C 
ATOM      8  O   UNL     1       1.812  25.694  44.103  1.00  0.00    -0.550 OA
ATOM      9  O   UNL     1       2.505  27.251  42.571  1.00  0.00    -0.550 OA
ENDBRANCH   6   7
ENDBRANCH   5   6
ENDBRANCH   4   5
ENDBRANCH   3   4
ENDBRANCH   2   3
ENDBRANCH   1   2
BRANCH   1  10
ATOM     10  C   UNL     1       8.015  22.235  45.906  1.00  0.00     0.000 C 
BRANCH  10  11
ATOM     11  C   UNL     1       8.678  23.268  44.983  1.00  0.00    -0.000 C 
BRANCH  11  12
ATOM     12  C   UNL     1       7.660  24.196  44.295  1.00  0.00    -0.000 C 
BRANCH  12  13
ATOM     13  C   UNL     1       7.578  24.048  42.762  1.00  0.00    -0.000 C 
BRANCH  13  14
ATOM     14  C   UNL     1       7.720  22.607  42.236  1.00  0.00    -0.000 C 
BRANCH  14  15
ATOM     15  C   UNL     1       6.407  21.952  41.765  1.00  0.00    -0.000 C 
BRANCH  15  16
ATOM     16  C   UNL     1       6.126  20.562  42.365  1.00  0.00    -0.003 C 
ATOM     17  C   UNL     1       7.288  20.030  43.203  1.00  0.00     0.004 C 
ENDBRANCH  15  16
ENDBRANCH  14  15
ENDBRANCH  13  14
ENDBRANCH  12  13
ENDBRANCH  11  12
ENDBRANCH  10  11
ENDBRANCH   1  10
TORSDOF 13
ENDMDL
MODEL 7
REMARK VINA RESULT:    -5.254      3.519      6.069
REMARK INTER + INTRA:         -11.667
REMARK INTER:                  -9.382
REMARK INTRA:                  -2.284
REMARK UNBOUND:                -2.421
REMARK SMILES CCCCCCCCCCCCCCC(=O)[O-]
REMARK SMILES IDX 9 1 10 2 11 3 12 4 13 5 14 6 15 7 16 8 17 9 8 10 7 11 6 12
REMARK SMILES IDX 5 13 4 14 3 15 2 16 1 17
REMARK H PARENT
REMARK Flexibility Score: inf
ROOT
ATOM      1  C   UNL     1       7.411  23.979  42.788  1.00  0.00     0.000 C 
ENDROOT
BRANCH   1   2
ATOM      2  C   UNL     1       8.484  23.528  43.796  1.00  0.00     0.000 C 
BRANCH   2   3
ATOM      3  C   UNL     1       7.977  23.315  45.235  1.00  0.00     0.000 C 
BRANCH   3   4
ATOM      4  C   UNL     1       8.401  21.964  45.826  1.00  0.00     0.000 C 
BRANCH   4   5
ATOM      5  C   UNL     1       9.452  21.282  44.941  1.00  0.00     0.006 C 
BRANCH   5   6
ATOM      6  C   UNL     1      10.068  20.072  45.650  1.00  0.00     0.053 C 
BRANCH   6   7
ATOM      7  C   UNL     1       9.916  18.841  44.813  1.00  0.00     0.041 C 
ATOM      8  O   UNL     1      10.864  18.017  44.720  1.00  0.00    -0.550 OA
ATOM      9  O   UNL     1       8.745  18.628  44.096  1.00  0.00    -0.550 OA
ENDBRANCH   6   7
ENDBRANCH   5   6
ENDBRANCH   4   5
ENDBRANCH   3   4
ENDBRANCH   2   3
ENDBRANCH   1   2
BRANCH   1  10
ATOM     10  C   UNL     1       6.168  24.579  43.463  1.00  0.00     0.000 C 
BRANCH  10  11
ATOM     11  C   UNL     1       4.886  24.128  42.750  1.00  0.00    -0.000 C 
BRANCH  11  12
ATOM     12  C   UNL     1       3.854  23.507  43.710  1.00  0.00    -0.000 C 
BRANCH  12  13
ATOM     13  C   UNL     1       4.382  23.211  45.129  1.00  0.00    -0.000 C 
BRANCH  13  14
ATOM     14  C   UNL     1       4.554  21.717  45.464  1.00  0.00    -0.000 C 
BRANCH  14  15
ATOM     15  C   UNL     1       4.538  20.770  44.248  1.00  0.00    -0.000 C 
BRANCH  15  16
ATOM     16  C   UNL     1       5.925  20.456  43.656  1.00  0.00    -0.003 C 
ATOM     17  C   UNL     1       5.958  20.558  42.131  1.00  0.00     0.004 C 
ENDBRANCH  15  16
ENDBRANCH  14  15
ENDBRANCH  13  14
ENDBRANCH  12  13
ENDBRANCH  11  12
ENDBRANCH  10  11
ENDBRANCH   1  10
TORSDOF 13
ENDMDL
MODEL 8
REMARK VINA RESULT:    -5.246      3.424      4.794
REMARK INTER + INTRA:         -11.653
REMARK INTER:                  -9.169
REMARK INTRA:                  -2.485
REMARK UNBOUND:                -2.421
REMARK SMILES CCCCCCCCCCCCCCC(=O)[O-]
REMARK SMILES IDX 9 1 10 2 11 3 12 4 13 5 14 6 15 7 16 8 17 9 8 10 7 11 6 12
REMARK SMILES IDX 5 13 4 14 3 15 2 16 1 17
REMARK H PARENT
REMARK Flexibility Score: inf
ROOT
ATOM      1  C   UNL     1       4.503  21.090  44.249  1.00  0.00     0.000 C 
ENDROOT
BRANCH   1   2
ATOM      2  C   UNL     1       4.762  21.334  45.746  1.00  0.00     0.000 C 
BRANCH   2   3
ATOM      3  C   UNL     1       6.216  21.107  46.200  1.00  0.00     0.000 C 
BRANCH   3   4
ATOM      4  C   UNL     1       7.097  22.352  46.035  1.00  0.00     0.000 C 
BRANCH   4   5
ATOM      5  C   UNL     1       8.577  21.968  45.918  1.00  0.00     0.006 C 
BRANCH   5   6
ATOM      6  C   UNL     1       8.828  21.115  44.671  1.00  0.00     0.053 C 
BRANCH   6   7
ATOM      7  C   UNL     1       9.376  19.776  45.054  1.00  0.00     0.041 C 
ATOM      8  O   UNL     1       9.713  19.547  46.245  1.00  0.00    -0.550 OA
ATOM      9  O   UNL     1       9.560  18.798  44.085  1.00  0.00    -0.550 OA
ENDBRANCH   6   7
ENDBRANCH   5   6
ENDBRANCH   4   5
ENDBRANCH   3   4
ENDBRANCH   2   3
ENDBRANCH   1   2
BRANCH   1  10
ATOM     10  C   UNL     1       5.412  20.005  43.651  1.00  0.00     0.000 C 
BRANCH  10  11
ATOM     11  C   UNL     1       6.072  20.496  42.355  1.00  0.00    -0.000 C 
BRANCH  11  12
ATOM     12  C   UNL     1       5.797  21.985  42.071  1.00  0.00    -0.000 C 
BRANCH  12  13
ATOM     13  C   UNL     1       7.042  22.894  42.114  1.00  0.00    -0.000 C 
BRANCH  13  14
ATOM     14  C   UNL     1       6.885  24.176  42.954  1.00  0.00    -0.000 C 
BRANCH  14  15
ATOM     15  C   UNL     1       5.455  24.748  43.012  1.00  0.00    -0.000 C 
BRANCH  15  16
ATOM     16  C   UNL     1       4.859  24.858  44.427  1.00  0.00    -0.003 C 
ATOM     17  C   UNL     1       3.352  24.604  44.460  1.00  0.00     0.004 C 
ENDBRANCH  15  16
ENDBRANCH  14  15
ENDBRANCH  13  14
ENDBRANCH  12  13
ENDBRANCH  11  12
ENDBRANCH  10  11
ENDBRANCH   1  10
TORSDOF 13
ENDMDL
MODEL 9
REMARK VINA RESULT:    -5.228      1.720      3.730
REMARK INTER + INTRA:         -11.621
REMARK INTER:                  -9.302
REMARK INTRA:                  -2.319
REMARK UNBOUND:                -2.421
REMARK SMILES CCCCCCCCCCCCCCC(=O)[O-]
REMARK SMILES IDX 9 1 10 2 11 3 12 4 13 5 14 6 15 7 16 8 17 9 8 10 7 11 6 12
REMARK SMILES IDX 5 13 4 14 3 15 2 16 1 17
REMARK H PARENT
REMARK Flexibility Score: inf
ROOT
ATOM      1  C   UNL     1       7.607  24.101  42.689  1.00  0.00     0.000 C 
ENDROOT
BRANCH   1   2
ATOM      2  C   UNL     1       8.115  24.485  44.091  1.00  0.00     0.000 C 
BRANCH   2   3
ATOM      3  C   UNL     1       8.718  23.325  44.905  1.00  0.00     0.000 C 
BRANCH   3   4
ATOM      4  C   UNL     1       7.892  22.975  46.150  1.00  0.00     0.000 C 
BRANCH   4   5
ATOM      5  C   UNL     1       6.601  23.801  46.204  1.00  0.00     0.006 C 
BRANCH   5   6
ATOM      6  C   UNL     1       5.382  22.940  45.860  1.00  0.00     0.053 C 
BRANCH   6   7
ATOM      7  C   UNL     1       4.523  23.629  44.847  1.00  0.00     0.041 C 
ATOM      8  O   UNL     1       4.571  24.882  44.722  1.00  0.00    -0.550 OA
ATOM      9  O   UNL     1       3.635  22.893  44.073  1.00  0.00    -0.550 OA
ENDBRANCH   6   7
ENDBRANCH   5   6
ENDBRANCH   4   5
ENDBRANCH   3   4
ENDBRANCH   2   3
ENDBRANCH   1   2
BRANCH   1  10
ATOM     10  C   UNL     1       7.776  22.606  42.378  1.00  0.00     0.000 C 
BRANCH  10  11
ATOM     11  C   UNL     1       6.436  21.975  41.976  1.00  0.00    -0.000 C 
BRANCH  11  12
ATOM     12  C   UNL     1       6.348  20.479  42.332  1.00  0.00    -0.000 C 
BRANCH  12  13
ATOM     13  C   UNL     1       5.925  20.181  43.784  1.00  0.00    -0.000 C 
BRANCH  13  14
ATOM     14  C   UNL     1       7.079  19.829  44.742  1.00  0.00    -0.000 C 
BRANCH  14  15
ATOM     15  C   UNL     1       8.303  19.170  44.075  1.00  0.00    -0.000 C 
BRANCH  15  16
ATOM     16  C   UNL     1       9.623  19.947  44.235  1.00  0.00    -0.003 C 
ATOM     17  C   UNL     1      10.326  19.658  45.561  1.00  0.00     0.004 C 
ENDBRANCH  15  16
ENDBRANCH  14  15
ENDBRANCH  13  14
ENDBRANCH  12  13
ENDBRANCH  11  12
ENDBRANCH  10  11
ENDBRANCH   1  10
TORSDOF 13
ENDMDL
