MODEL 1
REMARK VINA RESULT:    -6.231      0.000      0.000
REMARK INTER + INTRA:          -7.794
REMARK INTER:                  -7.506
REMARK INTRA:                  -0.288
REMARK UNBOUND:                -0.288
REMARK SMILES Oc1cc(O)c2c(c1)O[C@@H](c1ccc(O)c(O)c1)[C@H](O)C2
REMARK SMILES IDX 21 1 19 2 10 3 9 4 7 5 8 6 2 7 3 8 4 9 6 10 20 11 11 13
REMARK SMILES IDX 18 14 12 15 16 16 13 17 14 18 17 19 15 21 5 23 1 25
REMARK H PARENT 20 12 17 20 15 22 5 24 1 26
REMARK Flexibility Score: inf
ROOT
ATOM      1  C   UNL     1      71.061  48.368   6.078  1.00  0.00     0.079 C 
ATOM      2  C   UNL     1      69.682  48.725   6.663  1.00  0.00     0.164 C 
ATOM      3  C   UNL     1      69.205  47.597   7.595  1.00  0.00     0.232 C 
ATOM      4  O   UNL     1      70.176  47.355   8.614  1.00  0.00    -0.482 OA
ATOM      5  C   UNL     1      71.553  47.435   8.373  1.00  0.00     0.131 A 
ATOM      6  C   UNL     1      72.447  47.022   9.365  1.00  0.00     0.093 A 
ATOM      7  C   UNL     1      73.827  47.091   9.143  1.00  0.00     0.122 A 
ATOM      8  C   UNL     1      74.312  47.574   7.924  1.00  0.00     0.092 A 
ATOM      9  C   UNL     1      73.424  47.996   6.924  1.00  0.00     0.126 A 
ATOM     10  C   UNL     1      72.036  47.946   7.152  1.00  0.00     0.039 A 
ENDROOT
BRANCH   2  11
ATOM     11  O   UNL     1      68.756  48.905   5.622  1.00  0.00    -0.389 OA
ATOM     12  H   UNL     1      69.283  49.015   4.787  1.00  0.00     0.211 HD
ENDBRANCH   2  11
BRANCH   3  13
ATOM     13  C   UNL     1      67.878  47.941   8.231  1.00  0.00    -0.001 A 
ATOM     14  C   UNL     1      66.684  47.417   7.706  1.00  0.00     0.057 A 
ATOM     15  C   UNL     1      67.817  48.824   9.322  1.00  0.00     0.012 A 
ATOM     16  C   UNL     1      65.448  47.756   8.276  1.00  0.00     0.157 A 
ATOM     17  C   UNL     1      66.586  49.162   9.889  1.00  0.00     0.050 A 
ATOM     18  C   UNL     1      65.399  48.628   9.371  1.00  0.00     0.157 A 
BRANCH  16  19
ATOM     19  O   UNL     1      64.265  47.232   7.758  1.00  0.00    -0.504 OA
ATOM     20  H   UNL     1      63.739  46.521   8.254  1.00  0.00     0.293 HD
ENDBRANCH  16  19
BRANCH  18  21
ATOM     21  O   UNL     1      64.170  48.962   9.935  1.00  0.00    -0.504 OA
ATOM     22  H   UNL     1      64.108  49.498  10.793  1.00  0.00     0.293 HD
ENDBRANCH  18  21
ENDBRANCH   3  13
BRANCH   9  23
ATOM     23  O   UNL     1      73.917  48.463   5.705  1.00  0.00    -0.507 OA
ATOM     24  H   UNL     1      73.810  49.432   5.426  1.00  0.00     0.293 HD
ENDBRANCH   9  23
BRANCH   7  25
ATOM     25  O   UNL     1      74.726  46.680  10.125  1.00  0.00    -0.508 OA
ATOM     26  H   UNL     1      75.099  45.739  10.141  1.00  0.00     0.293 HD
ENDBRANCH   7  25
TORSDOF 6
ENDMDL
MODEL 2
REMARK VINA RESULT:    -6.202      1.818      3.770
REMARK INTER + INTRA:          -7.760
REMARK INTER:                  -7.384
REMARK INTRA:                  -0.375
REMARK UNBOUND:                -0.288
REMARK SMILES Oc1cc(O)c2c(c1)O[C@@H](c1ccc(O)c(O)c1)[C@H](O)C2
REMARK SMILES IDX 21 1 19 2 10 3 9 4 7 5 8 6 2 7 3 8 4 9 6 10 20 11 11 13
REMARK SMILES IDX 18 14 12 15 16 16 13 17 14 18 17 19 15 21 5 23 1 25
REMARK H PARENT 20 12 17 20 15 22 5 24 1 26
REMARK Flexibility Score: inf
ROOT
ATOM      1  C   UNL     1      71.468  47.498   6.554  1.00  0.00     0.079 C 
ATOM      2  C   UNL     1      70.161  47.305   7.344  1.00  0.00     0.164 C 
ATOM      3  C   UNL     1      69.414  48.647   7.446  1.00  0.00     0.232 C 
ATOM      4  O   UNL     1      69.181  49.182   6.142  1.00  0.00    -0.482 OA
ATOM      5  C   UNL     1      70.108  49.055   5.102  1.00  0.00     0.131 A 
ATOM      6  C   UNL     1      69.895  49.745   3.905  1.00  0.00     0.093 A 
ATOM      7  C   UNL     1      70.813  49.632   2.853  1.00  0.00     0.122 A 
ATOM      8  C   UNL     1      71.946  48.827   3.002  1.00  0.00     0.092 A 
ATOM      9  C   UNL     1      72.167  48.126   4.196  1.00  0.00     0.126 A 
ATOM     10  C   UNL     1      71.236  48.222   5.247  1.00  0.00     0.039 A 
ENDROOT
BRANCH   2  11
ATOM     11  O   UNL     1      70.450  46.825   8.631  1.00  0.00    -0.389 OA
ATOM     12  H   UNL     1      71.108  46.088   8.520  1.00  0.00     0.211 HD
ENDBRANCH   2  11
BRANCH   3  13
ATOM     13  C   UNL     1      68.096  48.483   8.168  1.00  0.00    -0.001 A 
ATOM     14  C   UNL     1      67.055  47.743   7.582  1.00  0.00     0.057 A 
ATOM     15  C   UNL     1      67.880  49.106   9.409  1.00  0.00     0.012 A 
ATOM     16  C   UNL     1      65.821  47.611   8.235  1.00  0.00     0.157 A 
ATOM     17  C   UNL     1      66.651  48.974  10.060  1.00  0.00     0.050 A 
ATOM     18  C   UNL     1      65.620  48.225   9.477  1.00  0.00     0.157 A 
BRANCH  16  19
ATOM     19  O   UNL     1      64.791  46.872   7.655  1.00  0.00    -0.504 OA
ATOM     20  H   UNL     1      64.967  46.220   6.899  1.00  0.00     0.293 HD
ENDBRANCH  16  19
BRANCH  18  21
ATOM     21  O   UNL     1      64.393  48.092  10.124  1.00  0.00    -0.504 OA
ATOM     22  H   UNL     1      63.708  48.839  10.124  1.00  0.00     0.293 HD
ENDBRANCH  18  21
ENDBRANCH   3  13
BRANCH   9  23
ATOM     23  O   UNL     1      73.308  47.336   4.341  1.00  0.00    -0.507 OA
ATOM     24  H   UNL     1      73.857  47.045   3.540  1.00  0.00     0.293 HD
ENDBRANCH   9  23
BRANCH   7  25
ATOM     25  O   UNL     1      70.610  50.318   1.658  1.00  0.00    -0.508 OA
ATOM     26  H   UNL     1      71.364  50.470   0.999  1.00  0.00     0.293 HD
ENDBRANCH   7  25
TORSDOF 6
ENDMDL
MODEL 3
REMARK VINA RESULT:    -6.083      1.820      6.962
REMARK INTER + INTRA:          -7.616
REMARK INTER:                  -7.291
REMARK INTRA:                  -0.325
REMARK UNBOUND:                -0.288
REMARK SMILES Oc1cc(O)c2c(c1)O[C@@H](c1ccc(O)c(O)c1)[C@H](O)C2
REMARK SMILES IDX 21 1 19 2 10 3 9 4 7 5 8 6 2 7 3 8 4 9 6 10 20 11 11 13
REMARK SMILES IDX 18 14 12 15 16 16 13 17 14 18 17 19 15 21 5 23 1 25
REMARK H PARENT 20 12 17 20 15 22 5 24 1 26
REMARK Flexibility Score: inf
ROOT
ATOM      1  C   UNL     1      68.278  49.101   9.335  1.00  0.00     0.079 C 
ATOM      2  C   UNL     1      69.525  49.257   8.446  1.00  0.00     0.164 C 
ATOM      3  C   UNL     1      70.118  47.870   8.135  1.00  0.00     0.232 C 
ATOM      4  O   UNL     1      69.128  47.034   7.534  1.00  0.00    -0.482 OA
ATOM      5  C   UNL     1      67.781  47.074   7.912  1.00  0.00     0.131 A 
ATOM      6  C   UNL     1      66.898  46.115   7.407  1.00  0.00     0.093 A 
ATOM      7  C   UNL     1      65.547  46.137   7.776  1.00  0.00     0.122 A 
ATOM      8  C   UNL     1      65.082  47.120   8.653  1.00  0.00     0.092 A 
ATOM      9  C   UNL     1      65.957  48.091   9.161  1.00  0.00     0.126 A 
ATOM     10  C   UNL     1      67.311  48.083   8.777  1.00  0.00     0.039 A 
ENDROOT
BRANCH   2  11
ATOM     11  O   UNL     1      70.483  50.045   9.103  1.00  0.00    -0.389 OA
ATOM     12  H   UNL     1      70.484  49.759  10.054  1.00  0.00     0.211 HD
ENDBRANCH   2  11
BRANCH   3  13
ATOM     13  C   UNL     1      71.312  47.982   7.216  1.00  0.00    -0.001 A 
ATOM     14  C   UNL     1      71.128  48.168   5.835  1.00  0.00     0.057 A 
ATOM     15  C   UNL     1      72.617  47.854   7.722  1.00  0.00     0.012 A 
ATOM     16  C   UNL     1      72.232  48.244   4.974  1.00  0.00     0.157 A 
ATOM     17  C   UNL     1      73.717  47.930   6.864  1.00  0.00     0.050 A 
ATOM     18  C   UNL     1      73.529  48.127   5.490  1.00  0.00     0.157 A 
BRANCH  16  19
ATOM     19  O   UNL     1      72.048  48.434   3.606  1.00  0.00    -0.504 OA
ATOM     20  H   UNL     1      72.564  49.142   3.095  1.00  0.00     0.293 HD
ENDBRANCH  16  19
BRANCH  18  21
ATOM     21  O   UNL     1      74.625  48.204   4.632  1.00  0.00    -0.504 OA
ATOM     22  H   UNL     1      74.628  48.824   3.830  1.00  0.00     0.293 HD
ENDBRANCH  18  21
ENDBRANCH   3  13
BRANCH   9  23
ATOM     23  O   UNL     1      65.486  49.060  10.047  1.00  0.00    -0.507 OA
ATOM     24  H   UNL     1      64.991  49.882   9.719  1.00  0.00     0.293 HD
ENDBRANCH   9  23
BRANCH   7  25
ATOM     25  O   UNL     1      64.661  45.184   7.279  1.00  0.00    -0.508 OA
ATOM     26  H   UNL     1      64.005  44.704   7.884  1.00  0.00     0.293 HD
ENDBRANCH   7  25
TORSDOF 6
ENDMDL
MODEL 4
REMARK VINA RESULT:    -5.823      1.421      7.215
REMARK INTER + INTRA:          -7.303
REMARK INTER:                  -6.964
REMARK INTRA:                  -0.339
REMARK UNBOUND:                -0.288
REMARK SMILES Oc1cc(O)c2c(c1)O[C@@H](c1ccc(O)c(O)c1)[C@H](O)C2
REMARK SMILES IDX 21 1 19 2 10 3 9 4 7 5 8 6 2 7 3 8 4 9 6 10 20 11 11 13
REMARK SMILES IDX 18 14 12 15 16 16 13 17 14 18 17 19 15 21 5 23 1 25
REMARK H PARENT 20 12 17 20 15 22 5 24 1 26
REMARK Flexibility Score: inf
ROOT
ATOM      1  C   UNL     1      67.113  48.988   9.673  1.00  0.00     0.079 C 
ATOM      2  C   UNL     1      68.487  49.124   8.992  1.00  0.00     0.164 C 
ATOM      3  C   UNL     1      69.145  47.738   8.869  1.00  0.00     0.232 C 
ATOM      4  O   UNL     1      68.282  46.843   8.167  1.00  0.00    -0.482 OA
ATOM      5  C   UNL     1      66.891  46.869   8.317  1.00  0.00     0.131 A 
ATOM      6  C   UNL     1      66.119  45.859   7.734  1.00  0.00     0.093 A 
ATOM      7  C   UNL     1      64.726  45.866   7.875  1.00  0.00     0.122 A 
ATOM      8  C   UNL     1      64.106  46.886   8.601  1.00  0.00     0.092 A 
ATOM      9  C   UNL     1      64.870  47.908   9.185  1.00  0.00     0.126 A 
ATOM     10  C   UNL     1      66.268  47.914   9.028  1.00  0.00     0.039 A 
ENDROOT
BRANCH   2  11
ATOM     11  O   UNL     1      69.310  49.975   9.747  1.00  0.00    -0.389 OA
ATOM     12  H   UNL     1      70.135  49.463   9.956  1.00  0.00     0.211 HD
ENDBRANCH   2  11
BRANCH   3  13
ATOM     13  C   UNL     1      70.473  47.827   8.153  1.00  0.00    -0.001 A 
ATOM     14  C   UNL     1      71.675  47.693   8.869  1.00  0.00     0.057 A 
ATOM     15  C   UNL     1      70.524  48.093   6.774  1.00  0.00     0.012 A 
ATOM     16  C   UNL     1      72.910  47.803   8.214  1.00  0.00     0.157 A 
ATOM     17  C   UNL     1      71.754  48.203   6.121  1.00  0.00     0.050 A 
ATOM     18  C   UNL     1      72.949  48.056   6.837  1.00  0.00     0.157 A 
BRANCH  16  19
ATOM     19  O   UNL     1      74.100  47.665   8.924  1.00  0.00    -0.504 OA
ATOM     20  H   UNL     1      74.503  46.753   9.112  1.00  0.00     0.293 HD
ENDBRANCH  16  19
BRANCH  18  21
ATOM     21  O   UNL     1      74.178  48.165   6.188  1.00  0.00    -0.504 OA
ATOM     22  H   UNL     1      74.829  47.389   6.152  1.00  0.00     0.293 HD
ENDBRANCH  18  21
ENDBRANCH   3  13
BRANCH   9  23
ATOM     23  O   UNL     1      64.243  48.914   9.920  1.00  0.00    -0.507 OA
ATOM     24  H   UNL     1      64.336  49.892   9.667  1.00  0.00     0.293 HD
ENDBRANCH   9  23
BRANCH   7  25
ATOM     25  O   UNL     1      63.950  44.862   7.300  1.00  0.00    -0.508 OA
ATOM     26  H   UNL     1      64.354  44.168   6.683  1.00  0.00     0.293 HD
ENDBRANCH   7  25
TORSDOF 6
ENDMDL
MODEL 5
REMARK VINA RESULT:    -5.675      2.135      3.018
REMARK INTER + INTRA:          -7.124
REMARK INTER:                  -6.775
REMARK INTRA:                  -0.348
REMARK UNBOUND:                -0.288
REMARK SMILES Oc1cc(O)c2c(c1)O[C@@H](c1ccc(O)c(O)c1)[C@H](O)C2
REMARK SMILES IDX 21 1 19 2 10 3 9 4 7 5 8 6 2 7 3 8 4 9 6 10 20 11 11 13
REMARK SMILES IDX 18 14 12 15 16 16 13 17 14 18 17 19 15 21 5 23 1 25
REMARK H PARENT 20 12 17 20 15 22 5 24 1 26
REMARK Flexibility Score: inf
ROOT
ATOM      1  C   UNL     1      71.216  44.530   7.180  1.00  0.00     0.079 C 
ATOM      2  C   UNL     1      69.805  45.055   7.504  1.00  0.00     0.164 C 
ATOM      3  C   UNL     1      69.907  46.437   8.174  1.00  0.00     0.232 C 
ATOM      4  O   UNL     1      70.638  47.337   7.339  1.00  0.00    -0.482 OA
ATOM      5  C   UNL     1      71.734  46.926   6.571  1.00  0.00     0.131 A 
ATOM      6  C   UNL     1      72.507  47.885   5.911  1.00  0.00     0.093 A 
ATOM      7  C   UNL     1      73.609  47.494   5.141  1.00  0.00     0.122 A 
ATOM      8  C   UNL     1      73.936  46.140   5.032  1.00  0.00     0.092 A 
ATOM      9  C   UNL     1      73.164  45.168   5.685  1.00  0.00     0.126 A 
ATOM     10  C   UNL     1      72.045  45.557   6.444  1.00  0.00     0.039 A 
ENDROOT
BRANCH   2  11
ATOM     11  O   UNL     1      69.150  44.159   8.363  1.00  0.00    -0.389 OA
ATOM     12  H   UNL     1      69.644  43.298   8.310  1.00  0.00     0.211 HD
ENDBRANCH   2  11
BRANCH   3  13
ATOM     13  C   UNL     1      68.536  47.008   8.455  1.00  0.00    -0.001 A 
ATOM     14  C   UNL     1      67.577  47.082   7.430  1.00  0.00     0.057 A 
ATOM     15  C   UNL     1      68.221  47.515   9.727  1.00  0.00     0.012 A 
ATOM     16  C   UNL     1      66.313  47.637   7.678  1.00  0.00     0.157 A 
ATOM     17  C   UNL     1      66.962  48.067   9.974  1.00  0.00     0.050 A 
ATOM     18  C   UNL     1      66.004  48.128   8.953  1.00  0.00     0.157 A 
BRANCH  16  19
ATOM     19  O   UNL     1      65.361  47.705   6.663  1.00  0.00    -0.504 OA
ATOM     20  H   UNL     1      64.572  47.068   6.633  1.00  0.00     0.293 HD
ENDBRANCH  16  19
BRANCH  18  21
ATOM     21  O   UNL     1      64.747  48.678   9.197  1.00  0.00    -0.504 OA
ATOM     22  H   UNL     1      63.896  48.182   8.960  1.00  0.00     0.293 HD
ENDBRANCH  18  21
ENDBRANCH   3  13
BRANCH   9  23
ATOM     23  O   UNL     1      73.507  43.820   5.582  1.00  0.00    -0.507 OA
ATOM     24  H   UNL     1      73.510  43.210   6.392  1.00  0.00     0.293 HD
ENDBRANCH   9  23
BRANCH   7  25
ATOM     25  O   UNL     1      74.386  48.444   4.482  1.00  0.00    -0.508 OA
ATOM     26  H   UNL     1      75.249  48.191   4.015  1.00  0.00     0.293 HD
ENDBRANCH   7  25
TORSDOF 6
ENDMDL
MODEL 6
REMARK VINA RESULT:    -5.674      1.888      2.553
REMARK INTER + INTRA:          -7.123
REMARK INTER:                  -6.834
REMARK INTRA:                  -0.290
REMARK UNBOUND:                -0.288
REMARK SMILES Oc1cc(O)c2c(c1)O[C@@H](c1ccc(O)c(O)c1)[C@H](O)C2
REMARK SMILES IDX 21 1 19 2 10 3 9 4 7 5 8 6 2 7 3 8 4 9 6 10 20 11 11 13
REMARK SMILES IDX 18 14 12 15 16 16 13 17 14 18 17 19 15 21 5 23 1 25
REMARK H PARENT 20 12 17 20 15 22 5 24 1 26
REMARK Flexibility Score: inf
ROOT
ATOM      1  C   UNL     1      70.441  49.483   9.046  1.00  0.00     0.079 C 
ATOM      2  C   UNL     1      69.139  48.747   9.413  1.00  0.00     0.164 C 
ATOM      3  C   UNL     1      68.522  48.125   8.147  1.00  0.00     0.232 C 
ATOM      4  O   UNL     1      69.466  47.264   7.510  1.00  0.00    -0.482 OA
ATOM      5  C   UNL     1      70.835  47.552   7.466  1.00  0.00     0.131 A 
ATOM      6  C   UNL     1      71.679  46.759   6.683  1.00  0.00     0.093 A 
ATOM      7  C   UNL     1      73.050  47.033   6.625  1.00  0.00     0.122 A 
ATOM      8  C   UNL     1      73.577  48.104   7.352  1.00  0.00     0.092 A 
ATOM      9  C   UNL     1      72.741  48.903   8.145  1.00  0.00     0.126 A 
ATOM     10  C   UNL     1      71.365  48.618   8.221  1.00  0.00     0.039 A 
ENDROOT
BRANCH   2  11
ATOM     11  O   UNL     1      68.231  49.648   9.991  1.00  0.00    -0.389 OA
ATOM     12  H   UNL     1      67.359  49.175  10.051  1.00  0.00     0.211 HD
ENDBRANCH   2  11
BRANCH   3  13
ATOM     13  C   UNL     1      67.270  47.345   8.480  1.00  0.00    -0.001 A 
ATOM     14  C   UNL     1      66.117  47.487   7.690  1.00  0.00     0.057 A 
ATOM     15  C   UNL     1      67.229  46.508   9.608  1.00  0.00     0.012 A 
ATOM     16  C   UNL     1      64.945  46.787   8.010  1.00  0.00     0.157 A 
ATOM     17  C   UNL     1      66.061  45.811   9.928  1.00  0.00     0.050 A 
ATOM     18  C   UNL     1      64.918  45.946   9.130  1.00  0.00     0.157 A 
BRANCH  16  19
ATOM     19  O   UNL     1      63.803  46.924   7.222  1.00  0.00    -0.504 OA
ATOM     20  H   UNL     1      63.674  47.721   6.610  1.00  0.00     0.293 HD
ENDBRANCH  16  19
BRANCH  18  21
ATOM     21  O   UNL     1      63.751  45.252   9.446  1.00  0.00    -0.504 OA
ATOM     22  H   UNL     1      63.614  44.289   9.161  1.00  0.00     0.293 HD
ENDBRANCH  18  21
ENDBRANCH   3  13
BRANCH   9  23
ATOM     23  O   UNL     1      73.274  49.979   8.856  1.00  0.00    -0.507 OA
ATOM     24  H   UNL     1      72.927  50.924   8.727  1.00  0.00     0.293 HD
ENDBRANCH   9  23
BRANCH   7  25
ATOM     25  O   UNL     1      73.898  46.249   5.846  1.00  0.00    -0.508 OA
ATOM     26  H   UNL     1      74.641  46.659   5.293  1.00  0.00     0.293 HD
ENDBRANCH   7  25
TORSDOF 6
ENDMDL
MODEL 7
REMARK VINA RESULT:    -5.590      2.240      7.099
REMARK INTER + INTRA:          -7.022
REMARK INTER:                  -6.656
REMARK INTRA:                  -0.367
REMARK UNBOUND:                -0.288
REMARK SMILES Oc1cc(O)c2c(c1)O[C@@H](c1ccc(O)c(O)c1)[C@H](O)C2
REMARK SMILES IDX 21 1 19 2 10 3 9 4 7 5 8 6 2 7 3 8 4 9 6 10 20 11 11 13
REMARK SMILES IDX 18 14 12 15 16 16 13 17 14 18 17 19 15 21 5 23 1 25
REMARK H PARENT 20 12 17 20 15 22 5 24 1 26
REMARK Flexibility Score: inf
ROOT
ATOM      1  C   UNL     1      65.556  48.308   9.727  1.00  0.00     0.079 C 
ATOM      2  C   UNL     1      66.959  48.812   9.341  1.00  0.00     0.164 C 
ATOM      3  C   UNL     1      67.991  47.690   9.559  1.00  0.00     0.232 C 
ATOM      4  O   UNL     1      67.615  46.525   8.823  1.00  0.00    -0.482 OA
ATOM      5  C   UNL     1      66.281  46.132   8.669  1.00  0.00     0.131 A 
ATOM      6  C   UNL     1      65.993  44.895   8.086  1.00  0.00     0.093 A 
ATOM      7  C   UNL     1      64.664  44.483   7.925  1.00  0.00     0.122 A 
ATOM      8  C   UNL     1      63.623  45.312   8.351  1.00  0.00     0.092 A 
ATOM      9  C   UNL     1      63.900  46.558   8.932  1.00  0.00     0.126 A 
ATOM     10  C   UNL     1      65.234  46.983   9.077  1.00  0.00     0.039 A 
ENDROOT
BRANCH   2  11
ATOM     11  O   UNL     1      67.297  49.926  10.125  1.00  0.00    -0.389 OA
ATOM     12  H   UNL     1      67.764  50.566   9.525  1.00  0.00     0.211 HD
ENDBRANCH   2  11
BRANCH   3  13
ATOM     13  C   UNL     1      69.373  48.132   9.135  1.00  0.00    -0.001 A 
ATOM     14  C   UNL     1      69.674  48.305   7.773  1.00  0.00     0.057 A 
ATOM     15  C   UNL     1      70.384  48.329  10.091  1.00  0.00     0.012 A 
ATOM     16  C   UNL     1      70.962  48.688   7.373  1.00  0.00     0.157 A 
ATOM     17  C   UNL     1      71.667  48.710   9.692  1.00  0.00     0.050 A 
ATOM     18  C   UNL     1      71.960  48.893   8.334  1.00  0.00     0.157 A 
BRANCH  16  19
ATOM     19  O   UNL     1      71.259  48.865   6.023  1.00  0.00    -0.504 OA
ATOM     20  H   UNL     1      70.780  48.337   5.301  1.00  0.00     0.293 HD
ENDBRANCH  16  19
BRANCH  18  21
ATOM     21  O   UNL     1      73.239  49.275   7.934  1.00  0.00    -0.504 OA
ATOM     22  H   UNL     1      73.743  48.769   7.214  1.00  0.00     0.293 HD
ENDBRANCH  18  21
ENDBRANCH   3  13
BRANCH   9  23
ATOM     23  O   UNL     1      62.854  47.373   9.367  1.00  0.00    -0.507 OA
ATOM     24  H   UNL     1      61.898  47.213   9.069  1.00  0.00     0.293 HD
ENDBRANCH   9  23
BRANCH   7  25
ATOM     25  O   UNL     1      64.369  43.251   7.347  1.00  0.00    -0.508 OA
ATOM     26  H   UNL     1      63.504  42.764   7.549  1.00  0.00     0.293 HD
ENDBRANCH   7  25
TORSDOF 6
ENDMDL
MODEL 8
REMARK VINA RESULT:    -5.491      2.078      6.830
REMARK INTER + INTRA:          -6.903
REMARK INTER:                  -6.544
REMARK INTRA:                  -0.359
REMARK UNBOUND:                -0.288
REMARK SMILES Oc1cc(O)c2c(c1)O[C@@H](c1ccc(O)c(O)c1)[C@H](O)C2
REMARK SMILES IDX 21 1 19 2 10 3 9 4 7 5 8 6 2 7 3 8 4 9 6 10 20 11 11 13
REMARK SMILES IDX 18 14 12 15 16 16 13 17 14 18 17 19 15 21 5 23 1 25
REMARK H PARENT 20 12 17 20 15 22 5 24 1 26
REMARK Flexibility Score: inf
ROOT
ATOM      1  C   UNL     1      70.089  49.757   9.241  1.00  0.00     0.079 C 
ATOM      2  C   UNL     1      71.105  49.121   8.275  1.00  0.00     0.164 C 
ATOM      3  C   UNL     1      71.214  47.611   8.557  1.00  0.00     0.232 C 
ATOM      4  O   UNL     1      69.927  46.998   8.466  1.00  0.00    -0.482 OA
ATOM      5  C   UNL     1      68.758  47.637   8.897  1.00  0.00     0.131 A 
ATOM      6  C   UNL     1      67.559  46.920   8.938  1.00  0.00     0.093 A 
ATOM      7  C   UNL     1      66.381  47.541   9.369  1.00  0.00     0.122 A 
ATOM      8  C   UNL     1      66.405  48.882   9.761  1.00  0.00     0.092 A 
ATOM      9  C   UNL     1      67.601  49.613   9.719  1.00  0.00     0.126 A 
ATOM     10  C   UNL     1      68.783  48.997   9.267  1.00  0.00     0.039 A 
ENDROOT
BRANCH   2  11
ATOM     11  O   UNL     1      72.361  49.726   8.439  1.00  0.00    -0.389 OA
ATOM     12  H   UNL     1      72.927  49.078   8.937  1.00  0.00     0.211 HD
ENDBRANCH   2  11
BRANCH   3  13
ATOM     13  C   UNL     1      72.162  46.943   7.587  1.00  0.00    -0.001 A 
ATOM     14  C   UNL     1      71.974  47.087   6.202  1.00  0.00     0.057 A 
ATOM     15  C   UNL     1      73.210  46.134   8.056  1.00  0.00     0.012 A 
ATOM     16  C   UNL     1      72.834  46.447   5.298  1.00  0.00     0.157 A 
ATOM     17  C   UNL     1      74.067  45.497   7.156  1.00  0.00     0.050 A 
ATOM     18  C   UNL     1      73.884  45.652   5.776  1.00  0.00     0.157 A 
BRANCH  16  19
ATOM     19  O   UNL     1      72.651  46.594   3.924  1.00  0.00    -0.504 OA
ATOM     20  H   UNL     1      71.745  46.454   3.492  1.00  0.00     0.293 HD
ENDBRANCH  16  19
BRANCH  18  21
ATOM     21  O   UNL     1      74.738  45.018   4.875  1.00  0.00    -0.504 OA
ATOM     22  H   UNL     1      74.662  45.169   3.876  1.00  0.00     0.293 HD
ENDBRANCH  18  21
ENDBRANCH   3  13
BRANCH   9  23
ATOM     23  O   UNL     1      67.618  50.948  10.125  1.00  0.00    -0.507 OA
ATOM     24  H   UNL     1      67.132  51.668   9.602  1.00  0.00     0.293 HD
ENDBRANCH   9  23
BRANCH   7  25
ATOM     25  O   UNL     1      65.182  46.833   9.415  1.00  0.00    -0.508 OA
ATOM     26  H   UNL     1      64.820  46.350   8.601  1.00  0.00     0.293 HD
ENDBRANCH   7  25
TORSDOF 6
ENDMDL
MODEL 9
REMARK VINA RESULT:    -5.487      4.178      7.172
REMARK INTER + INTRA:          -6.899
REMARK INTER:                  -6.612
REMARK INTRA:                  -0.287
REMARK UNBOUND:                -0.288
REMARK SMILES Oc1cc(O)c2c(c1)O[C@@H](c1ccc(O)c(O)c1)[C@H](O)C2
REMARK SMILES IDX 21 1 19 2 10 3 9 4 7 5 8 6 2 7 3 8 4 9 6 10 20 11 11 13
REMARK SMILES IDX 18 14 12 15 16 16 13 17 14 18 17 19 15 21 5 23 1 25
REMARK H PARENT 20 12 17 20 15 22 5 24 1 26
REMARK Flexibility Score: inf
ROOT
ATOM      1  C   UNL     1      71.804  47.266   3.572  1.00  0.00     0.079 C 
ATOM      2  C   UNL     1      72.132  45.780   3.805  1.00  0.00     0.164 C 
ATOM      3  C   UNL     1      73.104  45.643   4.991  1.00  0.00     0.232 C 
ATOM      4  O   UNL     1      72.553  46.262   6.154  1.00  0.00    -0.482 OA
ATOM      5  C   UNL     1      71.797  47.439   6.092  1.00  0.00     0.131 A 
ATOM      6  C   UNL     1      71.433  48.083   7.278  1.00  0.00     0.093 A 
ATOM      7  C   UNL     1      70.679  49.263   7.236  1.00  0.00     0.122 A 
ATOM      8  C   UNL     1      70.290  49.796   6.004  1.00  0.00     0.092 A 
ATOM      9  C   UNL     1      70.645  49.155   4.808  1.00  0.00     0.126 A 
ATOM     10  C   UNL     1      71.386  47.959   4.848  1.00  0.00     0.039 A 
ENDROOT
BRANCH   2  11
ATOM     11  O   UNL     1      72.713  45.234   2.650  1.00  0.00    -0.389 OA
ATOM     12  H   UNL     1      72.559  45.886   1.917  1.00  0.00     0.211 HD
ENDBRANCH   2  11
BRANCH   3  13
ATOM     13  C   UNL     1      73.403  44.191   5.285  1.00  0.00    -0.001 A 
ATOM     14  C   UNL     1      72.367  43.241   5.282  1.00  0.00     0.057 A 
ATOM     15  C   UNL     1      74.707  43.782   5.610  1.00  0.00     0.012 A 
ATOM     16  C   UNL     1      72.635  41.897   5.582  1.00  0.00     0.157 A 
ATOM     17  C   UNL     1      74.974  42.443   5.907  1.00  0.00     0.050 A 
ATOM     18  C   UNL     1      73.940  41.497   5.892  1.00  0.00     0.157 A 
BRANCH  16  19
ATOM     19  O   UNL     1      71.608  40.954   5.574  1.00  0.00    -0.504 OA
ATOM     20  H   UNL     1      70.828  41.025   4.930  1.00  0.00     0.293 HD
ENDBRANCH  16  19
BRANCH  18  21
ATOM     21  O   UNL     1      74.203  40.161   6.189  1.00  0.00    -0.504 OA
ATOM     22  H   UNL     1      73.967  39.761   7.089  1.00  0.00     0.293 HD
ENDBRANCH  18  21
ENDBRANCH   3  13
BRANCH   9  23
ATOM     23  O   UNL     1      70.265  49.702   3.583  1.00  0.00    -0.507 OA
ATOM     24  H   UNL     1      70.943  49.896   2.855  1.00  0.00     0.293 HD
ENDBRANCH   9  23
BRANCH   7  25
ATOM     25  O   UNL     1      70.313  49.913   8.412  1.00  0.00    -0.508 OA
ATOM     26  H   UNL     1      71.006  50.311   9.035  1.00  0.00     0.293 HD
ENDBRANCH   7  25
TORSDOF 6
ENDMDL
