MODEL 1
REMARK VINA RESULT:    -3.565      0.000      0.000
REMARK INTER + INTRA:          -5.249
REMARK INTER:                  -4.816
REMARK INTRA:                  -0.433
REMARK UNBOUND:                -0.433
REMARK SMILES CCCCCCCC(=O)[O-]
REMARK SMILES IDX 5 1 6 2 7 3 8 4 9 5 10 6 4 7 3 8 2 9 1 10
REMARK H PARENT
REMARK Flexibility Score: inf
ROOT
ATOM      1  C   UNL     1      20.642  -0.211  42.870  1.00  0.00     0.000 C 
ENDROOT
BRANCH   1   2
ATOM      2  C   UNL     1      21.741  -0.061  41.812  1.00  0.00     0.006 C 
BRANCH   2   3
ATOM      3  C   UNL     1      22.493  -1.380  41.611  1.00  0.00     0.053 C 
BRANCH   3   4
ATOM      4  C   UNL     1      22.285  -1.895  40.222  1.00  0.00     0.041 C 
ATOM      5  O   UNL     1      21.119  -2.092  39.787  1.00  0.00    -0.550 OA
ATOM      6  O   UNL     1      23.379  -2.208  39.425  1.00  0.00    -0.550 OA
ENDBRANCH   3   4
ENDBRANCH   2   3
ENDBRANCH   1   2
BRANCH   1   7
ATOM      7  C   UNL     1      20.802  -1.522  43.649  1.00  0.00     0.000 C 
BRANCH   7   8
ATOM      8  C   UNL     1      20.639  -1.291  45.156  1.00  0.00    -0.000 C 
BRANCH   8   9
ATOM      9  C   UNL     1      21.467  -2.300  45.961  1.00  0.00    -0.003 C 
ATOM     10  C   UNL     1      22.791  -2.606  45.267  1.00  0.00     0.004 C 
ENDBRANCH   8   9
ENDBRANCH   7   8
ENDBRANCH   1   7
TORSDOF 6
ENDMDL
MODEL 2
REMARK VINA RESULT:    -3.378     16.719     17.841
REMARK INTER + INTRA:          -4.995
REMARK INTER:                  -4.514
REMARK INTRA:                  -0.481
REMARK UNBOUND:                -0.433
REMARK SMILES CCCCCCCC(=O)[O-]
REMARK SMILES IDX 5 1 6 2 7 3 8 4 9 5 10 6 4 7 3 8 2 9 1 10
REMARK H PARENT
REMARK Flexibility Score: inf
ROOT
ATOM      1  C   UNL     1      39.050   6.030  42.343  1.00  0.00     0.000 C 
ENDROOT
BRANCH   1   2
ATOM      2  C   UNL     1      37.524   6.164  42.407  1.00  0.00     0.006 C 
BRANCH   2   3
ATOM      3  C   UNL     1      36.973   6.792  41.124  1.00  0.00     0.053 C 
BRANCH   3   4
ATOM      4  C   UNL     1      35.580   6.314  40.862  1.00  0.00     0.041 C 
ATOM      5  O   UNL     1      35.283   5.802  39.751  1.00  0.00    -0.550 OA
ATOM      6  O   UNL     1      34.596   6.481  41.828  1.00  0.00    -0.550 OA
ENDBRANCH   3   4
ENDBRANCH   2   3
ENDBRANCH   1   2
BRANCH   1   7
ATOM      7  C   UNL     1      39.498   5.478  40.984  1.00  0.00     0.000 C 
BRANCH   7   8
ATOM      8  C   UNL     1      40.038   4.050  41.120  1.00  0.00    -0.000 C 
BRANCH   8   9
ATOM      9  C   UNL     1      39.372   3.110  40.108  1.00  0.00    -0.003 C 
ATOM     10  C   UNL     1      38.240   3.813  39.366  1.00  0.00     0.004 C 
ENDBRANCH   8   9
ENDBRANCH   7   8
ENDBRANCH   1   7
TORSDOF 6
ENDMDL
MODEL 3
REMARK VINA RESULT:    -3.365     15.496     16.617
REMARK INTER + INTRA:          -4.978
REMARK INTER:                  -4.697
REMARK INTRA:                  -0.281
REMARK UNBOUND:                -0.433
REMARK SMILES CCCCCCCC(=O)[O-]
REMARK SMILES IDX 5 1 6 2 7 3 8 4 9 5 10 6 4 7 3 8 2 9 1 10
REMARK H PARENT
REMARK Flexibility Score: inf
ROOT
ATOM      1  C   UNL     1      36.210   5.977  40.349  1.00  0.00     0.000 C 
ENDROOT
BRANCH   1   2
ATOM      2  C   UNL     1      34.986   6.528  41.089  1.00  0.00     0.006 C 
BRANCH   2   3
ATOM      3  C   UNL     1      35.100   6.286  42.597  1.00  0.00     0.053 C 
BRANCH   3   4
ATOM      4  C   UNL     1      33.742   6.188  43.217  1.00  0.00     0.041 C 
ATOM      5  O   UNL     1      33.034   5.163  43.034  1.00  0.00    -0.550 OA
ATOM      6  O   UNL     1      33.237   7.251  43.955  1.00  0.00    -0.550 OA
ENDBRANCH   3   4
ENDBRANCH   2   3
ENDBRANCH   1   2
BRANCH   1   7
ATOM      7  C   UNL     1      37.502   6.281  41.118  1.00  0.00     0.000 C 
BRANCH   7   8
ATOM      8  C   UNL     1      38.512   5.138  40.970  1.00  0.00    -0.000 C 
BRANCH   8   9
ATOM      9  C   UNL     1      38.226   4.309  39.712  1.00  0.00    -0.003 C 
ATOM     10  C   UNL     1      39.114   3.070  39.653  1.00  0.00     0.004 C 
ENDBRANCH   8   9
ENDBRANCH   7   8
ENDBRANCH   1   7
TORSDOF 6
ENDMDL
MODEL 4
REMARK VINA RESULT:    -3.357      2.975      4.919
REMARK INTER + INTRA:          -4.968
REMARK INTER:                  -4.477
REMARK INTRA:                  -0.491
REMARK UNBOUND:                -0.433
REMARK SMILES CCCCCCCC(=O)[O-]
REMARK SMILES IDX 5 1 6 2 7 3 8 4 9 5 10 6 4 7 3 8 2 9 1 10
REMARK H PARENT
REMARK Flexibility Score: inf
ROOT
ATOM      1  C   UNL     1      23.046  -2.112  41.753  1.00  0.00     0.000 C 
ENDROOT
BRANCH   1   2
ATOM      2  C   UNL     1      21.958  -2.777  42.604  1.00  0.00     0.006 C 
BRANCH   2   3
ATOM      3  C   UNL     1      21.258  -1.751  43.501  1.00  0.00     0.053 C 
BRANCH   3   4
ATOM      4  C   UNL     1      21.542  -2.035  44.942  1.00  0.00     0.041 C 
ATOM      5  O   UNL     1      20.686  -1.756  45.823  1.00  0.00    -0.550 OA
ATOM      6  O   UNL     1      22.772  -2.560  45.318  1.00  0.00    -0.550 OA
ENDBRANCH   3   4
ENDBRANCH   2   3
ENDBRANCH   1   2
BRANCH   1   7
ATOM      7  C   UNL     1      22.564  -1.896  40.313  1.00  0.00     0.000 C 
BRANCH   7   8
ATOM      8  C   UNL     1      22.076  -0.458  40.105  1.00  0.00    -0.000 C 
BRANCH   8   9
ATOM      9  C   UNL     1      20.547  -0.405  40.003  1.00  0.00    -0.003 C 
ATOM     10  C   UNL     1      19.973  -1.763  39.614  1.00  0.00     0.004 C 
ENDBRANCH   8   9
ENDBRANCH   7   8
ENDBRANCH   1   7
TORSDOF 6
ENDMDL
MODEL 5
REMARK VINA RESULT:    -3.356      1.304      1.786
REMARK INTER + INTRA:          -4.966
REMARK INTER:                  -4.669
REMARK INTRA:                  -0.297
REMARK UNBOUND:                -0.433
REMARK SMILES CCCCCCCC(=O)[O-]
REMARK SMILES IDX 5 1 6 2 7 3 8 4 9 5 10 6 4 7 3 8 2 9 1 10
REMARK H PARENT
REMARK Flexibility Score: inf
ROOT
ATOM      1  C   UNL     1      21.669   0.032  41.837  1.00  0.00     0.000 C 
ENDROOT
BRANCH   1   2
ATOM      2  C   UNL     1      21.834  -0.184  40.328  1.00  0.00     0.006 C 
BRANCH   2   3
ATOM      3  C   UNL     1      21.754  -1.672  39.974  1.00  0.00     0.053 C 
BRANCH   3   4
ATOM      4  C   UNL     1      23.117  -2.288  39.988  1.00  0.00     0.041 C 
ATOM      5  O   UNL     1      23.762  -2.425  38.916  1.00  0.00    -0.550 OA
ATOM      6  O   UNL     1      23.654  -2.759  41.180  1.00  0.00    -0.550 OA
ENDBRANCH   3   4
ENDBRANCH   2   3
ENDBRANCH   1   2
BRANCH   1   7
ATOM      7  C   UNL     1      20.646  -0.948  42.424  1.00  0.00     0.000 C 
BRANCH   7   8
ATOM      8  C   UNL     1      21.226  -1.690  43.634  1.00  0.00    -0.000 C 
BRANCH   8   9
ATOM      9  C   UNL     1      20.585  -1.201  44.939  1.00  0.00    -0.003 C 
ATOM     10  C   UNL     1      20.985  -2.087  46.115  1.00  0.00     0.004 C 
ENDBRANCH   8   9
ENDBRANCH   7   8
ENDBRANCH   1   7
TORSDOF 6
ENDMDL
MODEL 6
REMARK VINA RESULT:    -3.341     14.966     16.024
REMARK INTER + INTRA:          -4.946
REMARK INTER:                  -4.586
REMARK INTRA:                  -0.360
REMARK UNBOUND:                -0.433
REMARK SMILES CCCCCCCC(=O)[O-]
REMARK SMILES IDX 5 1 6 2 7 3 8 4 9 5 10 6 4 7 3 8 2 9 1 10
REMARK H PARENT
REMARK Flexibility Score: inf
ROOT
ATOM      1  C   UNL     1      31.764  -9.106  31.611  1.00  0.00     0.000 C 
ENDROOT
BRANCH   1   2
ATOM      2  C   UNL     1      30.742 -10.102  31.051  1.00  0.00     0.006 C 
BRANCH   2   3
ATOM      3  C   UNL     1      29.317  -9.552  31.169  1.00  0.00     0.053 C 
BRANCH   3   4
ATOM      4  C   UNL     1      28.446 -10.117  30.093  1.00  0.00     0.041 C 
ATOM      5  O   UNL     1      27.317  -9.610  29.859  1.00  0.00    -0.550 OA
ATOM      6  O   UNL     1      28.857 -11.238  29.382  1.00  0.00    -0.550 OA
ENDBRANCH   3   4
ENDBRANCH   2   3
ENDBRANCH   1   2
BRANCH   1   7
ATOM      7  C   UNL     1      31.227  -7.671  31.547  1.00  0.00     0.000 C 
BRANCH   7   8
ATOM      8  C   UNL     1      31.318  -6.988  32.917  1.00  0.00    -0.000 C 
BRANCH   8   9
ATOM      9  C   UNL     1      31.785  -7.974  33.994  1.00  0.00    -0.003 C 
ATOM     10  C   UNL     1      32.889  -7.367  34.855  1.00  0.00     0.004 C 
ENDBRANCH   8   9
ENDBRANCH   7   8
ENDBRANCH   1   7
TORSDOF 6
ENDMDL
MODEL 7
REMARK VINA RESULT:    -3.269     17.094     18.138
REMARK INTER + INTRA:          -4.849
REMARK INTER:                  -4.336
REMARK INTRA:                  -0.513
REMARK UNBOUND:                -0.433
REMARK SMILES CCCCCCCC(=O)[O-]
REMARK SMILES IDX 5 1 6 2 7 3 8 4 9 5 10 6 4 7 3 8 2 9 1 10
REMARK H PARENT
REMARK Flexibility Score: inf
ROOT
ATOM      1  C   UNL     1      38.516   3.641  39.580  1.00  0.00     0.000 C 
ENDROOT
BRANCH   1   2
ATOM      2  C   UNL     1      37.970   5.047  39.302  1.00  0.00     0.006 C 
BRANCH   2   3
ATOM      3  C   UNL     1      36.491   5.147  39.688  1.00  0.00     0.053 C 
BRANCH   3   4
ATOM      4  C   UNL     1      36.206   6.466  40.334  1.00  0.00     0.041 C 
ATOM      5  O   UNL     1      35.181   6.613  41.050  1.00  0.00    -0.550 OA
ATOM      6  O   UNL     1      37.046   7.548  40.103  1.00  0.00    -0.550 OA
ENDBRANCH   3   4
ENDBRANCH   2   3
ENDBRANCH   1   2
BRANCH   1   7
ATOM      7  C   UNL     1      39.628   3.682  40.636  1.00  0.00     0.000 C 
BRANCH   7   8
ATOM      8  C   UNL     1      40.019   5.126  40.968  1.00  0.00    -0.000 C 
BRANCH   8   9
ATOM      9  C   UNL     1      39.991   5.370  42.482  1.00  0.00    -0.003 C 
ATOM     10  C   UNL     1      38.916   6.385  42.857  1.00  0.00     0.004 C 
ENDBRANCH   8   9
ENDBRANCH   7   8
ENDBRANCH   1   7
TORSDOF 6
ENDMDL
MODEL 8
REMARK VINA RESULT:    -3.267     14.891     16.202
REMARK INTER + INTRA:          -4.846
REMARK INTER:                  -4.491
REMARK INTRA:                  -0.355
REMARK UNBOUND:                -0.433
REMARK SMILES CCCCCCCC(=O)[O-]
REMARK SMILES IDX 5 1 6 2 7 3 8 4 9 5 10 6 4 7 3 8 2 9 1 10
REMARK H PARENT
REMARK Flexibility Score: inf
ROOT
ATOM      1  C   UNL     1      30.263 -10.237  31.616  1.00  0.00     0.000 C 
ENDROOT
BRANCH   1   2
ATOM      2  C   UNL     1      31.633  -9.610  31.333  1.00  0.00     0.006 C 
BRANCH   2   3
ATOM      3  C   UNL     1      31.567  -8.083  31.424  1.00  0.00     0.053 C 
BRANCH   3   4
ATOM      4  C   UNL     1      31.040  -7.659  32.759  1.00  0.00     0.041 C 
ATOM      5  O   UNL     1      29.998  -6.957  32.835  1.00  0.00    -0.550 OA
ATOM      6  O   UNL     1      31.729  -7.997  33.917  1.00  0.00    -0.550 OA
ENDBRANCH   3   4
ENDBRANCH   2   3
ENDBRANCH   1   2
BRANCH   1   7
ATOM      7  C   UNL     1      29.271  -9.924  30.489  1.00  0.00     0.000 C 
BRANCH   7   8
ATOM      8  C   UNL     1      27.892  -9.565  31.054  1.00  0.00    -0.000 C 
BRANCH   8   9
ATOM      9  C   UNL     1      26.834  -9.532  29.945  1.00  0.00    -0.003 C 
ATOM     10  C   UNL     1      27.453  -9.830  28.583  1.00  0.00     0.004 C 
ENDBRANCH   8   9
ENDBRANCH   7   8
ENDBRANCH   1   7
TORSDOF 6
ENDMDL
MODEL 9
REMARK VINA RESULT:    -3.145     14.851     15.894
REMARK INTER + INTRA:          -4.681
REMARK INTER:                  -4.377
REMARK INTRA:                  -0.304
REMARK UNBOUND:                -0.433
REMARK SMILES CCCCCCCC(=O)[O-]
REMARK SMILES IDX 5 1 6 2 7 3 8 4 9 5 10 6 4 7 3 8 2 9 1 10
REMARK H PARENT
REMARK Flexibility Score: inf
ROOT
ATOM      1  C   UNL     1      30.446 -10.311  31.149  1.00  0.00     0.000 C 
ENDROOT
BRANCH   1   2
ATOM      2  C   UNL     1      29.141  -9.506  31.146  1.00  0.00     0.006 C 
BRANCH   2   3
ATOM      3  C   UNL     1      28.205  -9.983  30.031  1.00  0.00     0.053 C 
BRANCH   3   4
ATOM      4  C   UNL     1      26.815  -9.480  30.263  1.00  0.00     0.041 C 
ATOM      5  O   UNL     1      26.319  -9.497  31.420  1.00  0.00    -0.550 OA
ATOM      6  O   UNL     1      26.048  -9.040  29.191  1.00  0.00    -0.550 OA
ENDBRANCH   3   4
ENDBRANCH   2   3
ENDBRANCH   1   2
BRANCH   1   7
ATOM      7  C   UNL     1      31.590  -9.501  31.771  1.00  0.00     0.000 C 
BRANCH   7   8
ATOM      8  C   UNL     1      31.422  -8.003  31.487  1.00  0.00    -0.000 C 
BRANCH   8   9
ATOM      9  C   UNL     1      31.393  -7.196  32.791  1.00  0.00    -0.003 C 
ATOM     10  C   UNL     1      31.867  -8.038  33.971  1.00  0.00     0.004 C 
ENDBRANCH   8   9
ENDBRANCH   7   8
ENDBRANCH   1   7
TORSDOF 6
ENDMDL
