MODEL 1
REMARK VINA RESULT:    -2.719      0.000      0.000
REMARK INTER + INTRA:          -3.939
REMARK INTER:                  -3.673
REMARK INTRA:                  -0.267
REMARK UNBOUND:                -0.267
REMARK SMILES CCCCCCCC=O
REMARK SMILES IDX 5 1 4 2 3 3 2 4 1 5 6 6 7 7 8 8 9 9
REMARK H PARENT
REMARK Flexibility Score: inf
ROOT
ATOM      1  C   UNL     1     141.149 148.646 139.154  1.00  0.00     0.000 C 
ENDROOT
BRANCH   1   2
ATOM      2  C   UNL     1     141.398 147.278 138.503  1.00  0.00     0.000 C 
BRANCH   2   3
ATOM      3  C   UNL     1     142.375 146.439 139.339  1.00  0.00    -0.000 C 
BRANCH   3   4
ATOM      4  C   UNL     1     142.076 144.933 139.262  1.00  0.00    -0.003 C 
ATOM      5  C   UNL     1     141.620 144.350 140.600  1.00  0.00     0.004 C 
ENDBRANCH   3   4
ENDBRANCH   2   3
ENDBRANCH   1   2
BRANCH   1   6
ATOM      6  C   UNL     1     140.294 148.561 140.431  1.00  0.00     0.008 C 
BRANCH   6   7
ATOM      7  C   UNL     1     140.470 149.759 141.381  1.00  0.00     0.072 C 
BRANCH   7   8
ATOM      8  C   UNL     1     141.840 150.367 141.292  1.00  0.00     0.224 C 
ATOM      9  O   UNL     1     142.724 150.018 142.058  1.00  0.00    -0.303 OA
ENDBRANCH   7   8
ENDBRANCH   6   7
ENDBRANCH   1   6
TORSDOF 6
ENDMDL
MODEL 2
REMARK VINA RESULT:    -2.691     10.189     11.382
REMARK INTER + INTRA:          -3.902
REMARK INTER:                  -3.463
REMARK INTRA:                  -0.439
REMARK UNBOUND:                -0.267
REMARK SMILES CCCCCCCC=O
REMARK SMILES IDX 5 1 4 2 3 3 2 4 1 5 6 6 7 7 8 8 9 9
REMARK H PARENT
REMARK Flexibility Score: inf
ROOT
ATOM      1  C   UNL     1     148.485 141.300 140.161  1.00  0.00     0.000 C 
ENDROOT
BRANCH   1   2
ATOM      2  C   UNL     1     147.781 140.039 139.639  1.00  0.00     0.000 C 
BRANCH   2   3
ATOM      3  C   UNL     1     147.288 140.241 138.199  1.00  0.00    -0.000 C 
BRANCH   3   4
ATOM      4  C   UNL     1     148.270 141.063 137.349  1.00  0.00    -0.003 C 
ATOM      5  C   UNL     1     149.373 140.208 136.725  1.00  0.00     0.004 C 
ENDBRANCH   3   4
ENDBRANCH   2   3
ENDBRANCH   1   2
BRANCH   1   6
ATOM      6  C   UNL     1     149.677 140.988 141.084  1.00  0.00     0.008 C 
BRANCH   6   7
ATOM      7  C   UNL     1     150.690 139.998 140.482  1.00  0.00     0.072 C 
BRANCH   7   8
ATOM      8  C   UNL     1     150.815 138.740 141.292  1.00  0.00     0.224 C 
ATOM      9  O   UNL     1     150.427 138.706 142.448  1.00  0.00    -0.303 OA
ENDBRANCH   7   8
ENDBRANCH   6   7
ENDBRANCH   1   6
TORSDOF 6
ENDMDL
MODEL 3
REMARK VINA RESULT:    -2.680      9.119     10.686
REMARK INTER + INTRA:          -3.887
REMARK INTER:                  -3.588
REMARK INTRA:                  -0.298
REMARK UNBOUND:                -0.267
REMARK SMILES CCCCCCCC=O
REMARK SMILES IDX 5 1 4 2 3 3 2 4 1 5 6 6 7 7 8 8 9 9
REMARK H PARENT
REMARK Flexibility Score: inf
ROOT
ATOM      1  C   UNL     1     148.445 139.890 139.215  1.00  0.00     0.000 C 
ENDROOT
BRANCH   1   2
ATOM      2  C   UNL     1     148.455 141.191 140.031  1.00  0.00     0.000 C 
BRANCH   2   3
ATOM      3  C   UNL     1     149.530 141.145 141.126  1.00  0.00    -0.000 C 
BRANCH   3   4
ATOM      4  C   UNL     1     150.476 139.944 140.974  1.00  0.00    -0.003 C 
ATOM      5  C   UNL     1     150.356 138.946 142.125  1.00  0.00     0.004 C 
ENDBRANCH   3   4
ENDBRANCH   2   3
ENDBRANCH   1   2
BRANCH   1   6
ATOM      6  C   UNL     1     147.193 139.030 139.464  1.00  0.00     0.008 C 
BRANCH   6   7
ATOM      7  C   UNL     1     145.985 139.421 138.595  1.00  0.00     0.072 C 
BRANCH   7   8
ATOM      8  C   UNL     1     144.732 139.606 139.401  1.00  0.00     0.224 C 
ATOM      9  O   UNL     1     144.793 139.951 140.570  1.00  0.00    -0.303 OA
ENDBRANCH   7   8
ENDBRANCH   6   7
ENDBRANCH   1   6
TORSDOF 6
ENDMDL
MODEL 4
REMARK VINA RESULT:    -2.676     10.430     11.907
REMARK INTER + INTRA:          -3.881
REMARK INTER:                  -3.336
REMARK INTRA:                  -0.544
REMARK UNBOUND:                -0.267
REMARK SMILES CCCCCCCC=O
REMARK SMILES IDX 5 1 4 2 3 3 2 4 1 5 6 6 7 7 8 8 9 9
REMARK H PARENT
REMARK Flexibility Score: inf
ROOT
ATOM      1  C   UNL     1     148.656 140.616 139.117  1.00  0.00     0.000 C 
ENDROOT
BRANCH   1   2
ATOM      2  C   UNL     1     148.518 141.403 140.429  1.00  0.00     0.000 C 
BRANCH   2   3
ATOM      3  C   UNL     1     149.741 141.186 141.332  1.00  0.00    -0.000 C 
BRANCH   3   4
ATOM      4  C   UNL     1     150.522 139.912 140.971  1.00  0.00    -0.003 C 
ATOM      5  C   UNL     1     150.310 138.782 141.979  1.00  0.00     0.004 C 
ENDBRANCH   3   4
ENDBRANCH   2   3
ENDBRANCH   1   2
BRANCH   1   6
ATOM      6  C   UNL     1     147.473 139.668 138.854  1.00  0.00     0.008 C 
BRANCH   6   7
ATOM      7  C   UNL     1     147.855 138.177 138.859  1.00  0.00     0.072 C 
BRANCH   7   8
ATOM      8  C   UNL     1     149.075 137.893 138.032  1.00  0.00     0.224 C 
ATOM      9  O   UNL     1     150.065 137.390 138.539  1.00  0.00    -0.303 OA
ENDBRANCH   7   8
ENDBRANCH   6   7
ENDBRANCH   1   6
TORSDOF 6
ENDMDL
MODEL 5
REMARK VINA RESULT:    -2.667      9.332     10.638
REMARK INTER + INTRA:          -3.869
REMARK INTER:                  -3.538
REMARK INTRA:                  -0.331
REMARK UNBOUND:                -0.267
REMARK SMILES CCCCCCCC=O
REMARK SMILES IDX 5 1 4 2 3 3 2 4 1 5 6 6 7 7 8 8 9 9
REMARK H PARENT
REMARK Flexibility Score: inf
ROOT
ATOM      1  C   UNL     1     148.861 140.195 138.944  1.00  0.00     0.000 C 
ENDROOT
BRANCH   1   2
ATOM      2  C   UNL     1     147.599 139.743 138.194  1.00  0.00     0.000 C 
BRANCH   2   3
ATOM      3  C   UNL     1     146.698 138.890 139.099  1.00  0.00    -0.000 C 
BRANCH   3   4
ATOM      4  C   UNL     1     145.223 139.318 139.032  1.00  0.00    -0.003 C 
ATOM      5  C   UNL     1     144.698 139.848 140.366  1.00  0.00     0.004 C 
ENDBRANCH   3   4
ENDBRANCH   2   3
ENDBRANCH   1   2
BRANCH   1   6
ATOM      6  C   UNL     1     148.557 141.115 140.140  1.00  0.00     0.008 C 
BRANCH   6   7
ATOM      7  C   UNL     1     149.598 141.032 141.270  1.00  0.00     0.072 C 
BRANCH   7   8
ATOM      8  C   UNL     1     150.270 139.692 141.337  1.00  0.00     0.224 C 
ATOM      9  O   UNL     1     150.143 138.982 142.322  1.00  0.00    -0.303 OA
ENDBRANCH   7   8
ENDBRANCH   6   7
ENDBRANCH   1   6
TORSDOF 6
ENDMDL
MODEL 6
REMARK VINA RESULT:    -2.619      2.369      4.763
REMARK INTER + INTRA:          -3.804
REMARK INTER:                  -3.508
REMARK INTRA:                  -0.296
REMARK UNBOUND:                -0.267
REMARK SMILES CCCCCCCC=O
REMARK SMILES IDX 5 1 4 2 3 3 2 4 1 5 6 6 7 7 8 8 9 9
REMARK H PARENT
REMARK Flexibility Score: inf
ROOT
ATOM      1  C   UNL     1     141.472 147.261 138.520  1.00  0.00     0.000 C 
ENDROOT
BRANCH   1   2
ATOM      2  C   UNL     1     141.114 148.674 139.004  1.00  0.00     0.000 C 
BRANCH   2   3
ATOM      3  C   UNL     1     140.261 148.619 140.279  1.00  0.00    -0.000 C 
BRANCH   3   4
ATOM      4  C   UNL     1     140.618 149.734 141.276  1.00  0.00    -0.003 C 
ATOM      5  C   UNL     1     142.120 150.008 141.344  1.00  0.00     0.004 C 
ENDBRANCH   3   4
ENDBRANCH   2   3
ENDBRANCH   1   2
BRANCH   1   6
ATOM      6  C   UNL     1     142.087 146.382 139.623  1.00  0.00     0.008 C 
BRANCH   6   7
ATOM      7  C   UNL     1     141.867 144.873 139.413  1.00  0.00     0.072 C 
BRANCH   7   8
ATOM      8  C   UNL     1     141.640 144.140 140.703  1.00  0.00     0.224 C 
ATOM      9  O   UNL     1     142.183 143.067 140.911  1.00  0.00    -0.303 OA
ENDBRANCH   7   8
ENDBRANCH   6   7
ENDBRANCH   1   6
TORSDOF 6
ENDMDL
MODEL 7
REMARK VINA RESULT:    -2.599      1.942      3.226
REMARK INTER + INTRA:          -3.777
REMARK INTER:                  -3.287
REMARK INTRA:                  -0.490
REMARK UNBOUND:                -0.267
REMARK SMILES CCCCCCCC=O
REMARK SMILES IDX 5 1 4 2 3 3 2 4 1 5 6 6 7 7 8 8 9 9
REMARK H PARENT
REMARK Flexibility Score: inf
ROOT
ATOM      1  C   UNL     1     141.165 148.113 139.571  1.00  0.00     0.000 C 
ENDROOT
BRANCH   1   2
ATOM      2  C   UNL     1     140.610 148.166 138.140  1.00  0.00     0.000 C 
BRANCH   2   3
ATOM      3  C   UNL     1     141.357 149.211 137.299  1.00  0.00    -0.000 C 
BRANCH   3   4
ATOM      4  C   UNL     1     142.712 149.601 137.910  1.00  0.00    -0.003 C 
ATOM      5  C   UNL     1     142.868 151.111 138.091  1.00  0.00     0.004 C 
ENDBRANCH   3   4
ENDBRANCH   2   3
ENDBRANCH   1   2
BRANCH   1   6
ATOM      6  C   UNL     1     140.230 148.762 140.607  1.00  0.00     0.008 C 
BRANCH   6   7
ATOM      7  C   UNL     1     140.829 149.999 141.299  1.00  0.00     0.072 C 
BRANCH   7   8
ATOM      8  C   UNL     1     142.304 149.864 141.542  1.00  0.00     0.224 C 
ATOM      9  O   UNL     1     142.847 150.503 142.428  1.00  0.00    -0.303 OA
ENDBRANCH   7   8
ENDBRANCH   6   7
ENDBRANCH   1   6
TORSDOF 6
ENDMDL
MODEL 8
REMARK VINA RESULT:    -2.576      6.806      8.810
REMARK INTER + INTRA:          -3.746
REMARK INTER:                  -3.265
REMARK INTRA:                  -0.480
REMARK UNBOUND:                -0.267
REMARK SMILES CCCCCCCC=O
REMARK SMILES IDX 5 1 4 2 3 3 2 4 1 5 6 6 7 7 8 8 9 9
REMARK H PARENT
REMARK Flexibility Score: inf
ROOT
ATOM      1  C   UNL     1     143.154 140.548 142.121  1.00  0.00     0.000 C 
ENDROOT
BRANCH   1   2
ATOM      2  C   UNL     1     142.511 141.544 143.097  1.00  0.00     0.000 C 
BRANCH   2   3
ATOM      3  C   UNL     1     142.126 142.846 142.379  1.00  0.00    -0.000 C 
BRANCH   3   4
ATOM      4  C   UNL     1     140.630 142.910 142.035  1.00  0.00    -0.003 C 
ATOM      5  C   UNL     1     139.745 142.305 143.125  1.00  0.00     0.004 C 
ENDBRANCH   3   4
ENDBRANCH   2   3
ENDBRANCH   1   2
BRANCH   1   6
ATOM      6  C   UNL     1     142.183 139.450 141.652  1.00  0.00     0.008 C 
BRANCH   6   7
ATOM      7  C   UNL     1     141.240 138.938 142.755  1.00  0.00     0.072 C 
BRANCH   7   8
ATOM      8  C   UNL     1     139.898 138.530 142.220  1.00  0.00     0.224 C 
ATOM      9  O   UNL     1     139.804 137.630 141.402  1.00  0.00    -0.303 OA
ENDBRANCH   7   8
ENDBRANCH   6   7
ENDBRANCH   1   6
TORSDOF 6
ENDMDL
MODEL 9
REMARK VINA RESULT:    -2.550      6.796      7.847
REMARK INTER + INTRA:          -3.712
REMARK INTER:                  -3.194
REMARK INTRA:                  -0.517
REMARK UNBOUND:                -0.267
REMARK SMILES CCCCCCCC=O
REMARK SMILES IDX 5 1 4 2 3 3 2 4 1 5 6 6 7 7 8 8 9 9
REMARK H PARENT
REMARK Flexibility Score: inf
ROOT
ATOM      1  C   UNL     1     141.276 141.817 142.159  1.00  0.00     0.000 C 
ENDROOT
BRANCH   1   2
ATOM      2  C   UNL     1     142.201 140.920 142.994  1.00  0.00     0.000 C 
BRANCH   2   3
ATOM      3  C   UNL     1     141.625 139.502 143.119  1.00  0.00    -0.000 C 
BRANCH   3   4
ATOM      4  C   UNL     1     140.997 139.003 141.808  1.00  0.00    -0.003 C 
ATOM      5  C   UNL     1     139.681 138.257 142.028  1.00  0.00     0.004 C 
ENDBRANCH   3   4
ENDBRANCH   2   3
ENDBRANCH   1   2
BRANCH   1   6
ATOM      6  C   UNL     1     140.213 142.542 143.003  1.00  0.00     0.008 C 
BRANCH   6   7
ATOM      7  C   UNL     1     138.781 142.022 142.783  1.00  0.00     0.072 C 
BRANCH   7   8
ATOM      8  C   UNL     1     138.449 141.849 141.330  1.00  0.00     0.224 C 
ATOM      9  O   UNL     1     137.290 141.886 140.950  1.00  0.00    -0.303 OA
ENDBRANCH   7   8
ENDBRANCH   6   7
ENDBRANCH   1   6
TORSDOF 6
ENDMDL
