MODEL 1
REMARK VINA RESULT:    -4.116      0.000      0.000
REMARK INTER + INTRA:          -6.972
REMARK INTER:                  -5.680
REMARK INTRA:                  -1.291
REMARK UNBOUND:                -1.291
REMARK SMILES CCCCc1cccc(O)c1CCCC
REMARK SMILES IDX 5 1 11 2 9 3 8 4 7 5 6 6 4 7 3 8 2 9 1 10 12 11 13 12 14 13
REMARK SMILES IDX 15 14 10 15
REMARK H PARENT 10 16
REMARK Flexibility Score: inf
ROOT
ATOM      1  C   UNL     1       7.022  11.018   8.012  1.00  0.00    -0.041 A 
ATOM      2  C   UNL     1       8.256  11.562   7.539  1.00  0.00    -0.003 A 
ATOM      3  C   UNL     1       8.325  12.958   7.270  1.00  0.00     0.119 A 
ATOM      4  C   UNL     1       7.195  13.763   7.438  1.00  0.00     0.046 A 
ATOM      5  C   UNL     1       5.999  13.222   7.896  1.00  0.00     0.004 A 
ATOM      6  C   UNL     1       5.915  11.865   8.191  1.00  0.00     0.004 A 
ENDROOT
BRANCH   1   7
ATOM      7  C   UNL     1       6.850   9.560   8.384  1.00  0.00     0.036 C 
BRANCH   7   8
ATOM      8  C   UNL     1       6.227   8.773   7.221  1.00  0.00     0.004 C 
BRANCH   8   9
ATOM      9  C   UNL     1       6.991   7.475   6.915  1.00  0.00    -0.003 C 
ATOM     10  C   UNL     1       7.188   7.249   5.417  1.00  0.00     0.004 C 
ENDBRANCH   8   9
ENDBRANCH   7   8
ENDBRANCH   1   7
BRANCH   2  11
ATOM     11  C   UNL     1       9.487  10.693   7.334  1.00  0.00     0.040 C 
BRANCH  11  12
ATOM     12  C   UNL     1       9.595  10.112   5.908  1.00  0.00     0.005 C 
BRANCH  12  13
ATOM     13  C   UNL     1      10.596   8.950   5.773  1.00  0.00    -0.003 C 
ATOM     14  C   UNL     1      10.632   8.048   7.006  1.00  0.00     0.004 C 
ENDBRANCH  12  13
ENDBRANCH  11  12
ENDBRANCH   2  11
BRANCH   3  15
ATOM     15  O   UNL     1       9.498  13.590   6.847  1.00  0.00    -0.508 OA
ATOM     16  H   UNL     1       9.686  14.576   6.964  1.00  0.00     0.293 HD
ENDBRANCH   3  15
TORSDOF 7
ENDMDL
MODEL 2
REMARK VINA RESULT:    -4.066      1.576      4.665
REMARK INTER + INTRA:          -6.903
REMARK INTER:                  -5.632
REMARK INTRA:                  -1.271
REMARK UNBOUND:                -1.291
REMARK SMILES CCCCc1cccc(O)c1CCCC
REMARK SMILES IDX 5 1 11 2 9 3 8 4 7 5 6 6 4 7 3 8 2 9 1 10 12 11 13 12 14 13
REMARK SMILES IDX 15 14 10 15
REMARK H PARENT 10 16
REMARK Flexibility Score: inf
ROOT
ATOM      1  C   UNL     1       7.282  10.644   7.830  1.00  0.00    -0.041 A 
ATOM      2  C   UNL     1       7.865  11.942   7.693  1.00  0.00    -0.003 A 
ATOM      3  C   UNL     1       9.077  12.069   6.957  1.00  0.00     0.119 A 
ATOM      4  C   UNL     1       9.692  10.938   6.414  1.00  0.00     0.046 A 
ATOM      5  C   UNL     1       9.118   9.680   6.557  1.00  0.00     0.004 A 
ATOM      6  C   UNL     1       7.919   9.535   7.247  1.00  0.00     0.004 A 
ENDROOT
BRANCH   1   7
ATOM      7  C   UNL     1       5.968  10.398   8.540  1.00  0.00     0.036 C 
BRANCH   7   8
ATOM      8  C   UNL     1       4.832  10.196   7.527  1.00  0.00     0.004 C 
BRANCH   8   9
ATOM      9  C   UNL     1       3.594  11.045   7.855  1.00  0.00    -0.003 C 
ATOM     10  C   UNL     1       3.536  11.453   9.327  1.00  0.00     0.004 C 
ENDBRANCH   8   9
ENDBRANCH   7   8
ENDBRANCH   1   7
BRANCH   2  11
ATOM     11  C   UNL     1       7.215  13.178   8.296  1.00  0.00     0.040 C 
BRANCH  11  12
ATOM     12  C   UNL     1       6.254  13.898   7.328  1.00  0.00     0.005 C 
BRANCH  12  13
ATOM     13  C   UNL     1       5.015  14.511   8.005  1.00  0.00    -0.003 C 
ATOM     14  C   UNL     1       3.859  14.746   7.033  1.00  0.00     0.004 C 
ENDBRANCH  12  13
ENDBRANCH  11  12
ENDBRANCH   2  11
BRANCH   3  15
ATOM     15  O   UNL     1       9.698  13.301   6.731  1.00  0.00    -0.508 OA
ATOM     16  H   UNL     1       9.397  13.970   6.036  1.00  0.00     0.293 HD
ENDBRANCH   3  15
TORSDOF 7
ENDMDL
MODEL 3
REMARK VINA RESULT:    -3.859      1.178      2.068
REMARK INTER + INTRA:          -6.617
REMARK INTER:                  -5.352
REMARK INTRA:                  -1.265
REMARK UNBOUND:                -1.291
REMARK SMILES CCCCc1cccc(O)c1CCCC
REMARK SMILES IDX 5 1 11 2 9 3 8 4 7 5 6 6 4 7 3 8 2 9 1 10 12 11 13 12 14 13
REMARK SMILES IDX 15 14 10 15
REMARK H PARENT 10 16
REMARK Flexibility Score: inf
ROOT
ATOM      1  C   UNL     1       7.044  10.929   7.873  1.00  0.00    -0.041 A 
ATOM      2  C   UNL     1       8.269  11.533   7.456  1.00  0.00    -0.003 A 
ATOM      3  C   UNL     1       8.292  12.938   7.229  1.00  0.00     0.119 A 
ATOM      4  C   UNL     1       7.127  13.694   7.381  1.00  0.00     0.046 A 
ATOM      5  C   UNL     1       5.940  13.095   7.784  1.00  0.00     0.004 A 
ATOM      6  C   UNL     1       5.900  11.728   8.039  1.00  0.00     0.004 A 
ENDROOT
BRANCH   1   7
ATOM      7  C   UNL     1       6.917   9.456   8.199  1.00  0.00     0.036 C 
BRANCH   7   8
ATOM      8  C   UNL     1       6.989   9.226   9.716  1.00  0.00     0.004 C 
BRANCH   8   9
ATOM      9  C   UNL     1       8.398   8.827  10.182  1.00  0.00    -0.003 C 
ATOM     10  C   UNL     1       9.080   9.927  10.995  1.00  0.00     0.004 C 
ENDBRANCH   8   9
ENDBRANCH   7   8
ENDBRANCH   1   7
BRANCH   2  11
ATOM     11  C   UNL     1       9.540  10.718   7.267  1.00  0.00     0.040 C 
BRANCH  11  12
ATOM     12  C   UNL     1       9.661  10.091   5.862  1.00  0.00     0.005 C 
BRANCH  12  13
ATOM     13  C   UNL     1       9.959   8.581   5.866  1.00  0.00    -0.003 C 
ATOM     14  C   UNL     1      10.494   8.083   7.209  1.00  0.00     0.004 C 
ENDBRANCH  12  13
ENDBRANCH  11  12
ENDBRANCH   2  11
BRANCH   3  15
ATOM     15  O   UNL     1       9.453  13.626   6.862  1.00  0.00    -0.508 OA
ATOM     16  H   UNL     1      10.162  13.254   6.246  1.00  0.00     0.293 HD
ENDBRANCH   3  15
TORSDOF 7
ENDMDL
MODEL 4
REMARK VINA RESULT:    -3.703      2.081      3.631
REMARK INTER + INTRA:          -6.402
REMARK INTER:                  -5.096
REMARK INTRA:                  -1.306
REMARK UNBOUND:                -1.291
REMARK SMILES CCCCc1cccc(O)c1CCCC
REMARK SMILES IDX 5 1 11 2 9 3 8 4 7 5 6 6 4 7 3 8 2 9 1 10 12 11 13 12 14 13
REMARK SMILES IDX 15 14 10 15
REMARK H PARENT 10 16
REMARK Flexibility Score: inf
ROOT
ATOM      1  C   UNL     1       7.475  11.795   7.854  1.00  0.00    -0.041 A 
ATOM      2  C   UNL     1       6.316  10.965   7.752  1.00  0.00    -0.003 A 
ATOM      3  C   UNL     1       5.040  11.587   7.661  1.00  0.00     0.119 A 
ATOM      4  C   UNL     1       4.932  12.980   7.705  1.00  0.00     0.046 A 
ATOM      5  C   UNL     1       6.065  13.777   7.808  1.00  0.00     0.004 A 
ATOM      6  C   UNL     1       7.326  13.192   7.870  1.00  0.00     0.004 A 
ENDROOT
BRANCH   1   7
ATOM      7  C   UNL     1       8.885  11.245   7.899  1.00  0.00     0.036 C 
BRANCH   7   8
ATOM      8  C   UNL     1       9.521  11.264   6.500  1.00  0.00     0.004 C 
BRANCH   8   9
ATOM      9  C   UNL     1       9.654   9.857   5.897  1.00  0.00    -0.003 C 
ATOM     10  C   UNL     1      10.052   8.808   6.935  1.00  0.00     0.004 C 
ENDBRANCH   8   9
ENDBRANCH   7   8
ENDBRANCH   1   7
BRANCH   2  11
ATOM     11  C   UNL     1       6.419   9.447   7.723  1.00  0.00     0.040 C 
BRANCH  11  12
ATOM     12  C   UNL     1       6.294   8.799   9.118  1.00  0.00     0.005 C 
BRANCH  12  13
ATOM     13  C   UNL     1       7.588   8.139   9.627  1.00  0.00    -0.003 C 
ATOM     14  C   UNL     1       8.287   8.957  10.713  1.00  0.00     0.004 C 
ENDBRANCH  12  13
ENDBRANCH  11  12
ENDBRANCH   2  11
BRANCH   3  15
ATOM     15  O   UNL     1       3.854  10.862   7.514  1.00  0.00    -0.508 OA
ATOM     16  H   UNL     1       2.988  11.088   7.984  1.00  0.00     0.293 HD
ENDBRANCH   3  15
TORSDOF 7
ENDMDL
MODEL 5
REMARK VINA RESULT:    -3.683      1.824      4.344
REMARK INTER + INTRA:          -6.373
REMARK INTER:                  -5.308
REMARK INTRA:                  -1.065
REMARK UNBOUND:                -1.291
REMARK SMILES CCCCc1cccc(O)c1CCCC
REMARK SMILES IDX 5 1 11 2 9 3 8 4 7 5 6 6 4 7 3 8 2 9 1 10 12 11 13 12 14 13
REMARK SMILES IDX 15 14 10 15
REMARK H PARENT 10 16
REMARK Flexibility Score: inf
ROOT
ATOM      1  C   UNL     1       7.162   9.080   7.207  1.00  0.00    -0.041 A 
ATOM      2  C   UNL     1       8.245   9.953   6.881  1.00  0.00    -0.003 A 
ATOM      3  C   UNL     1       9.114   9.591   5.814  1.00  0.00     0.119 A 
ATOM      4  C   UNL     1       8.923   8.388   5.129  1.00  0.00     0.046 A 
ATOM      5  C   UNL     1       7.868   7.544   5.457  1.00  0.00     0.004 A 
ATOM      6  C   UNL     1       6.989   7.891   6.478  1.00  0.00     0.004 A 
ENDROOT
BRANCH   1   7
ATOM      7  C   UNL     1       6.143   9.392   8.282  1.00  0.00     0.036 C 
BRANCH   7   8
ATOM      8  C   UNL     1       4.849   9.942   7.663  1.00  0.00     0.004 C 
BRANCH   8   9
ATOM      9  C   UNL     1       4.788  11.477   7.700  1.00  0.00    -0.003 C 
ATOM     10  C   UNL     1       3.355  12.006   7.742  1.00  0.00     0.004 C 
ENDBRANCH   8   9
ENDBRANCH   7   8
ENDBRANCH   1   7
BRANCH   2  11
ATOM     11  C   UNL     1       8.476  11.256   7.632  1.00  0.00     0.040 C 
BRANCH  11  12
ATOM     12  C   UNL     1       9.268  11.074   8.944  1.00  0.00     0.005 C 
BRANCH  12  13
ATOM     13  C   UNL     1       8.497  11.485  10.211  1.00  0.00    -0.003 C 
ATOM     14  C   UNL     1       7.522  12.637   9.968  1.00  0.00     0.004 C 
ENDBRANCH  12  13
ENDBRANCH  11  12
ENDBRANCH   2  11
BRANCH   3  15
ATOM     15  O   UNL     1      10.174  10.400   5.393  1.00  0.00    -0.508 OA
ATOM     16  H   UNL     1      10.107  11.400   5.263  1.00  0.00     0.293 HD
ENDBRANCH   3  15
TORSDOF 7
ENDMDL
MODEL 6
REMARK VINA RESULT:    -3.645      2.115      3.197
REMARK INTER + INTRA:          -6.322
REMARK INTER:                  -5.509
REMARK INTRA:                  -0.813
REMARK UNBOUND:                -1.291
REMARK SMILES CCCCc1cccc(O)c1CCCC
REMARK SMILES IDX 5 1 11 2 9 3 8 4 7 5 6 6 4 7 3 8 2 9 1 10 12 11 13 12 14 13
REMARK SMILES IDX 15 14 10 15
REMARK H PARENT 10 16
REMARK Flexibility Score: inf
ROOT
ATOM      1  C   UNL     1       5.499  11.420   7.724  1.00  0.00    -0.041 A 
ATOM      2  C   UNL     1       6.876  11.094   7.921  1.00  0.00    -0.003 A 
ATOM      3  C   UNL     1       7.822  12.155   7.994  1.00  0.00     0.119 A 
ATOM      4  C   UNL     1       7.406  13.480   7.842  1.00  0.00     0.046 A 
ATOM      5  C   UNL     1       6.064  13.785   7.648  1.00  0.00     0.004 A 
ATOM      6  C   UNL     1       5.117  12.767   7.601  1.00  0.00     0.004 A 
ENDROOT
BRANCH   1   7
ATOM      7  C   UNL     1       4.400  10.379   7.688  1.00  0.00     0.036 C 
BRANCH   7   8
ATOM      8  C   UNL     1       3.116  10.920   8.336  1.00  0.00     0.004 C 
BRANCH   8   9
ATOM      9  C   UNL     1       1.910  10.863   7.387  1.00  0.00    -0.003 C 
ATOM     10  C   UNL     1       1.384  12.251   7.021  1.00  0.00     0.004 C 
ENDBRANCH   8   9
ENDBRANCH   7   8
ENDBRANCH   1   7
BRANCH   2  11
ATOM     11  C   UNL     1       7.345   9.654   8.068  1.00  0.00     0.040 C 
BRANCH  11  12
ATOM     12  C   UNL     1       7.841   9.034   6.745  1.00  0.00     0.005 C 
BRANCH  12  13
ATOM     13  C   UNL     1       9.361   8.795   6.689  1.00  0.00    -0.003 C 
ATOM     14  C   UNL     1      10.065   9.671   5.654  1.00  0.00     0.004 C 
ENDBRANCH  12  13
ENDBRANCH  11  12
ENDBRANCH   2  11
BRANCH   3  15
ATOM     15  O   UNL     1       9.184  11.939   8.228  1.00  0.00    -0.508 OA
ATOM     16  H   UNL     1       9.698  12.341   8.999  1.00  0.00     0.293 HD
ENDBRANCH   3  15
TORSDOF 7
ENDMDL
MODEL 7
REMARK VINA RESULT:    -3.620      2.297      4.226
REMARK INTER + INTRA:          -6.288
REMARK INTER:                  -5.394
REMARK INTRA:                  -0.894
REMARK UNBOUND:                -1.291
REMARK SMILES CCCCc1cccc(O)c1CCCC
REMARK SMILES IDX 5 1 11 2 9 3 8 4 7 5 6 6 4 7 3 8 2 9 1 10 12 11 13 12 14 13
REMARK SMILES IDX 15 14 10 15
REMARK H PARENT 10 16
REMARK Flexibility Score: inf
ROOT
ATOM      1  C   UNL     1       6.528  11.756   7.805  1.00  0.00    -0.041 A 
ATOM      2  C   UNL     1       7.281  10.545   7.716  1.00  0.00    -0.003 A 
ATOM      3  C   UNL     1       6.578   9.315   7.578  1.00  0.00     0.119 A 
ATOM      4  C   UNL     1       5.181   9.301   7.565  1.00  0.00     0.046 A 
ATOM      5  C   UNL     1       4.458  10.485   7.656  1.00  0.00     0.004 A 
ATOM      6  C   UNL     1       5.124  11.702   7.763  1.00  0.00     0.004 A 
ENDROOT
BRANCH   1   7
ATOM      7  C   UNL     1       7.170  13.124   7.897  1.00  0.00     0.036 C 
BRANCH   7   8
ATOM      8  C   UNL     1       6.910  13.755   9.273  1.00  0.00     0.004 C 
BRANCH   8   9
ATOM      9  C   UNL     1       7.616  12.998  10.409  1.00  0.00    -0.003 C 
ATOM     10  C   UNL     1       7.563  13.751  11.738  1.00  0.00     0.004 C 
ENDBRANCH   8   9
ENDBRANCH   7   8
ENDBRANCH   1   7
BRANCH   2  11
ATOM     11  C   UNL     1       8.802  10.544   7.750  1.00  0.00     0.040 C 
BRANCH  11  12
ATOM     12  C   UNL     1       9.445  10.735   6.360  1.00  0.00     0.005 C 
BRANCH  12  13
ATOM     13  C   UNL     1      10.046   9.451   5.759  1.00  0.00    -0.003 C 
ATOM     14  C   UNL     1       9.164   8.831   4.676  1.00  0.00     0.004 C 
ENDBRANCH  12  13
ENDBRANCH  11  12
ENDBRANCH   2  11
BRANCH   3  15
ATOM     15  O   UNL     1       7.227   8.084   7.440  1.00  0.00    -0.508 OA
ATOM     16  H   UNL     1       6.842   7.201   7.744  1.00  0.00     0.293 HD
ENDBRANCH   3  15
TORSDOF 7
ENDMDL
MODEL 8
REMARK VINA RESULT:    -3.585      2.274      4.207
REMARK INTER + INTRA:          -6.238
REMARK INTER:                  -5.372
REMARK INTRA:                  -0.867
REMARK UNBOUND:                -1.291
REMARK SMILES CCCCc1cccc(O)c1CCCC
REMARK SMILES IDX 5 1 11 2 9 3 8 4 7 5 6 6 4 7 3 8 2 9 1 10 12 11 13 12 14 13
REMARK SMILES IDX 15 14 10 15
REMARK H PARENT 10 16
REMARK Flexibility Score: inf
ROOT
ATOM      1  C   UNL     1       8.489  11.531   8.494  1.00  0.00    -0.041 A 
ATOM      2  C   UNL     1       7.613  12.620   8.793  1.00  0.00    -0.003 A 
ATOM      3  C   UNL     1       7.513  13.063  10.142  1.00  0.00     0.119 A 
ATOM      4  C   UNL     1       8.236  12.418  11.149  1.00  0.00     0.046 A 
ATOM      5  C   UNL     1       9.083  11.358  10.848  1.00  0.00     0.004 A 
ATOM      6  C   UNL     1       9.218  10.925   9.532  1.00  0.00     0.004 A 
ENDROOT
BRANCH   1   7
ATOM      7  C   UNL     1       8.717  11.015   7.090  1.00  0.00     0.036 C 
BRANCH   7   8
ATOM      8  C   UNL     1       8.198   9.576   6.949  1.00  0.00     0.004 C 
BRANCH   8   9
ATOM      9  C   UNL     1       9.248   8.630   6.345  1.00  0.00    -0.003 C 
ATOM     10  C   UNL     1      10.373   9.380   5.634  1.00  0.00     0.004 C 
ENDBRANCH   8   9
ENDBRANCH   7   8
ENDBRANCH   1   7
BRANCH   2  11
ATOM     11  C   UNL     1       6.806  13.318   7.708  1.00  0.00     0.040 C 
BRANCH  11  12
ATOM     12  C   UNL     1       5.313  12.930   7.712  1.00  0.00     0.005 C 
BRANCH  12  13
ATOM     13  C   UNL     1       5.054  11.413   7.742  1.00  0.00    -0.003 C 
ATOM     14  C   UNL     1       3.567  11.060   7.691  1.00  0.00     0.004 C 
ENDBRANCH  12  13
ENDBRANCH  11  12
ENDBRANCH   2  11
BRANCH   3  15
ATOM     15  O   UNL     1       6.718  14.148  10.525  1.00  0.00    -0.508 OA
ATOM     16  H   UNL     1       6.611  14.465  11.478  1.00  0.00     0.293 HD
ENDBRANCH   3  15
TORSDOF 7
ENDMDL
MODEL 9
REMARK VINA RESULT:    -3.558      1.817      4.572
REMARK INTER + INTRA:          -6.201
REMARK INTER:                  -5.109
REMARK INTRA:                  -1.092
REMARK UNBOUND:                -1.291
REMARK SMILES CCCCc1cccc(O)c1CCCC
REMARK SMILES IDX 5 1 11 2 9 3 8 4 7 5 6 6 4 7 3 8 2 9 1 10 12 11 13 12 14 13
REMARK SMILES IDX 15 14 10 15
REMARK H PARENT 10 16
REMARK Flexibility Score: inf
ROOT
ATOM      1  C   UNL     1       7.736  10.584   8.252  1.00  0.00    -0.041 A 
ATOM      2  C   UNL     1       8.141  11.899   7.867  1.00  0.00    -0.003 A 
ATOM      3  C   UNL     1       9.179  12.036   6.903  1.00  0.00     0.119 A 
ATOM      4  C   UNL     1       9.804  10.902   6.377  1.00  0.00     0.046 A 
ATOM      5  C   UNL     1       9.404   9.628   6.761  1.00  0.00     0.004 A 
ATOM      6  C   UNL     1       8.372   9.469   7.681  1.00  0.00     0.004 A 
ENDROOT
BRANCH   1   7
ATOM      7  C   UNL     1       6.605  10.318   9.223  1.00  0.00     0.036 C 
BRANCH   7   8
ATOM      8  C   UNL     1       7.147   9.757  10.547  1.00  0.00     0.004 C 
BRANCH   8   9
ATOM      9  C   UNL     1       8.141  10.711  11.226  1.00  0.00    -0.003 C 
ATOM     10  C   UNL     1       9.421  10.005  11.673  1.00  0.00     0.004 C 
ENDBRANCH   8   9
ENDBRANCH   7   8
ENDBRANCH   1   7
BRANCH   2  11
ATOM     11  C   UNL     1       7.482  13.141   8.447  1.00  0.00     0.040 C 
BRANCH  11  12
ATOM     12  C   UNL     1       6.329  13.685   7.578  1.00  0.00     0.005 C 
BRANCH  12  13
ATOM     13  C   UNL     1       4.945  13.618   8.249  1.00  0.00    -0.003 C 
ATOM     14  C   UNL     1       4.084  12.469   7.726  1.00  0.00     0.004 C 
ENDBRANCH  12  13
ENDBRANCH  11  12
ENDBRANCH   2  11
BRANCH   3  15
ATOM     15  O   UNL     1       9.614  13.279   6.431  1.00  0.00    -0.508 OA
ATOM     16  H   UNL     1       9.113  13.834   5.751  1.00  0.00     0.293 HD
ENDBRANCH   3  15
TORSDOF 7
ENDMDL
