MODEL 1
REMARK VINA RESULT:    -3.062      0.000      0.000
REMARK INTER + INTRA:          -3.152
REMARK INTER:                  -3.152
REMARK INTRA:                   0.000
REMARK UNBOUND:                 0.000
REMARK SMILES Oc1ccc2[nH]ccc2c1
REMARK SMILES IDX 3 1 4 2 5 3 9 4 8 5 7 6 6 7 10 8 2 9 1 11
REMARK H PARENT 6 10 1 12
REMARK Flexibility Score: inf
ROOT
ATOM      1  C   UNL     1     -92.616  58.189 193.419  1.00  0.00     0.048 A 
ATOM      2  C   UNL     1     -91.566  57.729 194.236  1.00  0.00     0.030 A 
ATOM      3  C   UNL     1     -91.521  56.369 194.533  1.00  0.00     0.046 A 
ATOM      4  C   UNL     1     -92.460  55.495 194.052  1.00  0.00     0.003 A 
ATOM      5  C   UNL     1     -92.135  54.241 194.523  1.00  0.00     0.028 A 
ATOM      6  C   UNL     1     -90.984  54.425 195.283  1.00  0.00     0.083 A 
ATOM      7  N   UNL     1     -90.614  55.727 195.287  1.00  0.00    -0.361 N 
ATOM      8  C   UNL     1     -93.512  55.917 193.242  1.00  0.00     0.056 A 
ATOM      9  C   UNL     1     -93.589  57.286 192.922  1.00  0.00     0.116 A 
ATOM     10  H   UNL     1     -89.790  56.142 195.776  1.00  0.00     0.166 HD
ENDROOT
BRANCH   9  11
ATOM     11  O   UNL     1     -94.628  57.741 192.114  1.00  0.00    -0.508 OA
ATOM     12  H   UNL     1     -95.568  57.856 192.475  1.00  0.00     0.293 HD
ENDBRANCH   9  11
TORSDOF 1
ENDMDL
MODEL 2
REMARK VINA RESULT:    -3.059      2.333      3.536
REMARK INTER + INTRA:          -3.148
REMARK INTER:                  -3.148
REMARK INTRA:                   0.000
REMARK UNBOUND:                 0.000
REMARK SMILES Oc1ccc2[nH]ccc2c1
REMARK SMILES IDX 3 1 4 2 5 3 9 4 8 5 7 6 6 7 10 8 2 9 1 11
REMARK H PARENT 6 10 1 12
REMARK Flexibility Score: inf
ROOT
ATOM      1  C   UNL     1     -90.978  55.673 195.702  1.00  0.00     0.048 A 
ATOM      2  C   UNL     1     -90.876  57.056 195.464  1.00  0.00     0.030 A 
ATOM      3  C   UNL     1     -91.609  57.591 194.406  1.00  0.00     0.046 A 
ATOM      4  C   UNL     1     -92.408  56.808 193.616  1.00  0.00     0.003 A 
ATOM      5  C   UNL     1     -92.987  57.630 192.674  1.00  0.00     0.028 A 
ATOM      6  C   UNL     1     -92.496  58.903 192.951  1.00  0.00     0.083 A 
ATOM      7  N   UNL     1     -91.654  58.873 194.010  1.00  0.00    -0.361 N 
ATOM      8  C   UNL     1     -92.532  55.436 193.825  1.00  0.00     0.056 A 
ATOM      9  C   UNL     1     -91.805  54.862 194.884  1.00  0.00     0.116 A 
ATOM     10  H   UNL     1     -91.146  59.683 194.429  1.00  0.00     0.166 HD
ENDROOT
BRANCH   9  11
ATOM     11  O   UNL     1     -91.906  53.493 195.120  1.00  0.00    -0.508 OA
ATOM     12  H   UNL     1     -92.606  53.115 195.749  1.00  0.00     0.293 HD
ENDBRANCH   9  11
TORSDOF 1
ENDMDL
MODEL 3
REMARK VINA RESULT:    -3.057      2.457      3.733
REMARK INTER + INTRA:          -3.147
REMARK INTER:                  -3.147
REMARK INTRA:                   0.000
REMARK UNBOUND:                 0.000
REMARK SMILES Oc1ccc2[nH]ccc2c1
REMARK SMILES IDX 3 1 4 2 5 3 9 4 8 5 7 6 6 7 10 8 2 9 1 11
REMARK H PARENT 6 10 1 12
REMARK Flexibility Score: inf
ROOT
ATOM      1  C   UNL     1     -91.094  55.499 195.552  1.00  0.00     0.048 A 
ATOM      2  C   UNL     1     -91.945  54.817 194.662  1.00  0.00     0.030 A 
ATOM      3  C   UNL     1     -92.589  55.564 193.678  1.00  0.00     0.046 A 
ATOM      4  C   UNL     1     -92.410  56.917 193.567  1.00  0.00     0.003 A 
ATOM      5  C   UNL     1     -93.178  57.349 192.507  1.00  0.00     0.028 A 
ATOM      6  C   UNL     1     -93.799  56.203 192.017  1.00  0.00     0.083 A 
ATOM      7  N   UNL     1     -93.436  55.115 192.736  1.00  0.00    -0.361 N 
ATOM      8  C   UNL     1     -91.575  57.622 194.431  1.00  0.00     0.056 A 
ATOM      9  C   UNL     1     -90.909  56.900 195.438  1.00  0.00     0.116 A 
ATOM     10  H   UNL     1     -93.752  54.131 192.586  1.00  0.00     0.166 HD
ENDROOT
BRANCH   9  11
ATOM     11  O   UNL     1     -90.066  57.574 196.319  1.00  0.00    -0.508 OA
ATOM     12  H   UNL     1     -89.821  57.183 197.222  1.00  0.00     0.293 HD
ENDBRANCH   9  11
TORSDOF 1
ENDMDL
MODEL 4
REMARK VINA RESULT:    -3.043      1.644      2.284
REMARK INTER + INTRA:          -3.132
REMARK INTER:                  -3.132
REMARK INTRA:                   0.000
REMARK UNBOUND:                 0.000
REMARK SMILES Oc1ccc2[nH]ccc2c1
REMARK SMILES IDX 3 1 4 2 5 3 9 4 8 5 7 6 6 7 10 8 2 9 1 11
REMARK H PARENT 6 10 1 12
REMARK Flexibility Score: inf
ROOT
ATOM      1  C   UNL     1     -93.228  58.010 192.978  1.00  0.00     0.048 A 
ATOM      2  C   UNL     1     -93.565  56.643 192.941  1.00  0.00     0.030 A 
ATOM      3  C   UNL     1     -92.800  55.764 193.706  1.00  0.00     0.046 A 
ATOM      4  C   UNL     1     -91.753  56.200 194.473  1.00  0.00     0.003 A 
ATOM      5  C   UNL     1     -91.212  55.097 195.097  1.00  0.00     0.028 A 
ATOM      6  C   UNL     1     -91.980  54.021 194.663  1.00  0.00     0.083 A 
ATOM      7  N   UNL     1     -92.949  54.434 193.813  1.00  0.00    -0.361 N 
ATOM      8  C   UNL     1     -91.394  57.545 194.533  1.00  0.00     0.056 A 
ATOM      9  C   UNL     1     -92.144  58.462 193.772  1.00  0.00     0.116 A 
ATOM     10  H   UNL     1     -93.664  53.837 193.340  1.00  0.00     0.166 HD
ENDROOT
BRANCH   9  11
ATOM     11  O   UNL     1     -91.812  59.814 193.808  1.00  0.00    -0.508 OA
ATOM     12  H   UNL     1     -91.093  60.199 193.205  1.00  0.00     0.293 HD
ENDBRANCH   9  11
TORSDOF 1
ENDMDL
MODEL 5
REMARK VINA RESULT:    -3.019      2.479      3.054
REMARK INTER + INTRA:          -3.108
REMARK INTER:                  -3.108
REMARK INTRA:                   0.000
REMARK UNBOUND:                 0.000
REMARK SMILES Oc1ccc2[nH]ccc2c1
REMARK SMILES IDX 3 1 4 2 5 3 9 4 8 5 7 6 6 7 10 8 2 9 1 11
REMARK H PARENT 6 10 1 12
REMARK Flexibility Score: inf
ROOT
ATOM      1  C   UNL     1     -91.600  57.832 194.512  1.00  0.00     0.048 A 
ATOM      2  C   UNL     1     -92.342  57.229 193.479  1.00  0.00     0.030 A 
ATOM      3  C   UNL     1     -92.465  55.841 193.491  1.00  0.00     0.046 A 
ATOM      4  C   UNL     1     -91.888  55.076 194.470  1.00  0.00     0.003 A 
ATOM      5  C   UNL     1     -92.194  53.760 194.197  1.00  0.00     0.028 A 
ATOM      6  C   UNL     1     -92.960  53.798 193.036  1.00  0.00     0.083 A 
ATOM      7  N   UNL     1     -93.123  55.072 192.609  1.00  0.00    -0.361 N 
ATOM      8  C   UNL     1     -91.148  55.641 195.506  1.00  0.00     0.056 A 
ATOM      9  C   UNL     1     -91.003  57.041 195.524  1.00  0.00     0.116 A 
ATOM     10  H   UNL     1     -93.652  55.387 191.766  1.00  0.00     0.166 HD
ENDROOT
BRANCH   9  11
ATOM     11  O   UNL     1     -90.268  57.639 196.546  1.00  0.00    -0.508 OA
ATOM     12  H   UNL     1     -89.495  57.159 196.993  1.00  0.00     0.293 HD
ENDBRANCH   9  11
TORSDOF 1
ENDMDL
MODEL 6
REMARK VINA RESULT:    -2.996      1.732      2.157
REMARK INTER + INTRA:          -3.084
REMARK INTER:                  -3.084
REMARK INTRA:                   0.000
REMARK UNBOUND:                 0.000
REMARK SMILES Oc1ccc2[nH]ccc2c1
REMARK SMILES IDX 3 1 4 2 5 3 9 4 8 5 7 6 6 7 10 8 2 9 1 11
REMARK H PARENT 6 10 1 12
REMARK Flexibility Score: inf
ROOT
ATOM      1  C   UNL     1     -90.997  57.567 195.442  1.00  0.00     0.048 A 
ATOM      2  C   UNL     1     -90.968  56.263 195.969  1.00  0.00     0.030 A 
ATOM      3  C   UNL     1     -91.412  55.222 195.156  1.00  0.00     0.046 A 
ATOM      4  C   UNL     1     -91.865  55.446 193.882  1.00  0.00     0.003 A 
ATOM      5  C   UNL     1     -92.225  54.226 193.353  1.00  0.00     0.028 A 
ATOM      6  C   UNL     1     -91.964  53.301 194.359  1.00  0.00     0.083 A 
ATOM      7  N   UNL     1     -91.468  53.915 195.459  1.00  0.00    -0.361 N 
ATOM      8  C   UNL     1     -91.907  56.725 193.330  1.00  0.00     0.056 A 
ATOM      9  C   UNL     1     -91.467  57.800 194.125  1.00  0.00     0.116 A 
ATOM     10  H   UNL     1     -91.187  53.462 196.357  1.00  0.00     0.166 HD
ENDROOT
BRANCH   9  11
ATOM     11  O   UNL     1     -91.495  59.092 193.604  1.00  0.00    -0.508 OA
ATOM     12  H   UNL     1     -91.841  59.874 194.148  1.00  0.00     0.293 HD
ENDBRANCH   9  11
TORSDOF 1
ENDMDL
MODEL 7
REMARK VINA RESULT:    -2.959      6.596      7.261
REMARK INTER + INTRA:          -3.046
REMARK INTER:                  -3.046
REMARK INTRA:                   0.000
REMARK UNBOUND:                 0.000
REMARK SMILES Oc1ccc2[nH]ccc2c1
REMARK SMILES IDX 3 1 4 2 5 3 9 4 8 5 7 6 6 7 10 8 2 9 1 11
REMARK H PARENT 6 10 1 12
REMARK Flexibility Score: inf
ROOT
ATOM      1  C   UNL     1     -92.862  61.403 197.013  1.00  0.00     0.048 A 
ATOM      2  C   UNL     1     -94.268  61.465 197.005  1.00  0.00     0.030 A 
ATOM      3  C   UNL     1     -94.949  60.923 198.093  1.00  0.00     0.046 A 
ATOM      4  C   UNL     1     -94.286  60.347 199.144  1.00  0.00     0.003 A 
ATOM      5  C   UNL     1     -95.236  59.915 200.044  1.00  0.00     0.028 A 
ATOM      6  C   UNL     1     -96.458  60.262 199.477  1.00  0.00     0.083 A 
ATOM      7  N   UNL     1     -96.277  60.878 198.285  1.00  0.00    -0.361 N 
ATOM      8  C   UNL     1     -92.895  60.269 199.183  1.00  0.00     0.056 A 
ATOM      9  C   UNL     1     -92.175  60.805 198.099  1.00  0.00     0.116 A 
ATOM     10  H   UNL     1     -97.021  61.241 197.648  1.00  0.00     0.166 HD
ENDROOT
BRANCH   9  11
ATOM     11  O   UNL     1     -90.783  60.744 198.106  1.00  0.00    -0.508 OA
ATOM     12  H   UNL     1     -90.234  61.259 198.786  1.00  0.00     0.293 HD
ENDBRANCH   9  11
TORSDOF 1
ENDMDL
MODEL 8
REMARK VINA RESULT:    -2.839      2.724      3.963
REMARK INTER + INTRA:          -2.922
REMARK INTER:                  -2.922
REMARK INTRA:                   0.000
REMARK UNBOUND:                 0.000
REMARK SMILES Oc1ccc2[nH]ccc2c1
REMARK SMILES IDX 3 1 4 2 5 3 9 4 8 5 7 6 6 7 10 8 2 9 1 11
REMARK H PARENT 6 10 1 12
REMARK Flexibility Score: inf
ROOT
ATOM      1  C   UNL     1     -91.506  53.496 193.496  1.00  0.00     0.048 A 
ATOM      2  C   UNL     1     -91.460  54.560 192.576  1.00  0.00     0.030 A 
ATOM      3  C   UNL     1     -91.420  55.857 193.083  1.00  0.00     0.046 A 
ATOM      4  C   UNL     1     -91.424  56.104 194.430  1.00  0.00     0.003 A 
ATOM      5  C   UNL     1     -91.378  57.471 194.598  1.00  0.00     0.028 A 
ATOM      6  C   UNL     1     -91.348  57.995 193.309  1.00  0.00     0.083 A 
ATOM      7  N   UNL     1     -91.374  57.004 192.387  1.00  0.00    -0.361 N 
ATOM      8  C   UNL     1     -91.468  55.074 195.367  1.00  0.00     0.056 A 
ATOM      9  C   UNL     1     -91.510  53.751 194.890  1.00  0.00     0.116 A 
ATOM     10  H   UNL     1     -91.361  57.115 191.349  1.00  0.00     0.166 HD
ENDROOT
BRANCH   9  11
ATOM     11  O   UNL     1     -91.555  52.697 195.801  1.00  0.00    -0.508 OA
ATOM     12  H   UNL     1     -91.734  52.856 196.786  1.00  0.00     0.293 HD
ENDBRANCH   9  11
TORSDOF 1
ENDMDL
MODEL 9
REMARK VINA RESULT:    -2.758      8.454      9.033
REMARK INTER + INTRA:          -2.839
REMARK INTER:                  -2.839
REMARK INTRA:                   0.000
REMARK UNBOUND:                 0.000
REMARK SMILES Oc1ccc2[nH]ccc2c1
REMARK SMILES IDX 3 1 4 2 5 3 9 4 8 5 7 6 6 7 10 8 2 9 1 11
REMARK H PARENT 6 10 1 12
REMARK Flexibility Score: inf
ROOT
ATOM      1  C   UNL     1     -94.814  59.953 201.537  1.00  0.00     0.048 A 
ATOM      2  C   UNL     1     -96.163  59.979 201.938  1.00  0.00     0.030 A 
ATOM      3  C   UNL     1     -97.137  60.016 200.943  1.00  0.00     0.046 A 
ATOM      4  C   UNL     1     -96.809  60.025 199.614  1.00  0.00     0.003 A 
ATOM      5  C   UNL     1     -97.986  60.063 198.899  1.00  0.00     0.028 A 
ATOM      6  C   UNL     1     -98.994  60.074 199.858  1.00  0.00     0.083 A 
ATOM      7  N   UNL     1     -98.470  60.046 201.106  1.00  0.00    -0.361 N 
ATOM      8  C   UNL     1     -95.484  59.999 199.182  1.00  0.00     0.056 A 
ATOM      9  C   UNL     1     -94.473  59.963 200.161  1.00  0.00     0.116 A 
ATOM     10  H   UNL     1     -98.997  60.047 202.007  1.00  0.00     0.166 HD
ENDROOT
BRANCH   9  11
ATOM     11  O   UNL     1     -93.138  59.936 199.764  1.00  0.00    -0.508 OA
ATOM     12  H   UNL     1     -92.434  59.450 200.308  1.00  0.00     0.293 HD
ENDBRANCH   9  11
TORSDOF 1
ENDMDL
