MODEL 1
REMARK VINA RESULT:    -5.584      0.000      0.000
REMARK INTER + INTRA:          -9.600
REMARK INTER:                  -8.522
REMARK INTRA:                  -1.078
REMARK UNBOUND:                -1.078
REMARK SMILES CC(=O)CCC=C(C)CCC=C(C)CCC=C(C)C
REMARK SMILES IDX 10 1 11 2 12 3 13 4 14 5 15 6 16 7 18 8 17 9 19 10 9 11 7 12
REMARK SMILES IDX 6 13 8 14 5 15 4 16 2 17 3 18 1 19
REMARK H PARENT
REMARK Flexibility Score: inf
ROOT
ATOM      1  C   UNL     1      85.452  34.506  29.033  1.00  0.00     0.032 C 
ENDROOT
BRANCH   1   2
ATOM      2  C   UNL     1      86.322  35.707  28.765  1.00  0.00    -0.028 C 
ATOM      3  C   UNL     1      86.050  36.960  29.199  1.00  0.00    -0.077 C 
ATOM      4  C   UNL     1      84.853  37.259  30.069  1.00  0.00     0.039 C 
BRANCH   3   5
ATOM      5  C   UNL     1      86.981  38.089  28.814  1.00  0.00     0.034 C 
BRANCH   5   6
ATOM      6  C   UNL     1      87.757  37.743  27.538  1.00  0.00     0.032 C 
BRANCH   6   7
ATOM      7  C   UNL     1      88.257  38.993  26.860  1.00  0.00    -0.028 C 
ATOM      8  C   UNL     1      89.913  40.577  25.970  1.00  0.00     0.039 C 
ATOM      9  C   UNL     1      89.562  39.309  26.706  1.00  0.00    -0.080 C 
ATOM     10  C   UNL     1      90.666  38.441  27.263  1.00  0.00     0.039 C 
ENDBRANCH   6   7
ENDBRANCH   5   6
ENDBRANCH   3   5
ENDBRANCH   1   2
BRANCH   1  11
ATOM     11  C   UNL     1      86.273  33.371  29.655  1.00  0.00     0.034 C 
BRANCH  11  12
ATOM     12  C   UNL     1      86.369  33.541  31.155  1.00  0.00    -0.077 C 
ATOM     13  C   UNL     1      85.348  34.137  31.814  1.00  0.00    -0.028 C 
ATOM     14  C   UNL     1      87.598  33.037  31.872  1.00  0.00     0.039 C 
BRANCH  13  15
ATOM     15  C   UNL     1      85.270  34.309  33.314  1.00  0.00     0.035 C 
BRANCH  15  16
ATOM     16  C   UNL     1      83.833  34.124  33.812  1.00  0.00     0.079 C 
BRANCH  16  17
ATOM     17  C   UNL     1      83.434  32.672  33.823  1.00  0.00     0.130 C 
ATOM     18  O   UNL     1      84.298  31.809  33.789  1.00  0.00    -0.300 OA
ATOM     19  C   UNL     1      81.992  32.261  33.872  1.00  0.00     0.087 C 
ENDBRANCH  16  17
ENDBRANCH  15  16
ENDBRANCH  13  15
ENDBRANCH  11  12
ENDBRANCH   1  11
TORSDOF 9
ENDMDL
MODEL 2
REMARK VINA RESULT:    -5.537      3.175      8.481
REMARK INTER + INTRA:          -9.528
REMARK INTER:                  -8.276
REMARK INTRA:                  -1.252
REMARK UNBOUND:                -1.078
REMARK SMILES CC(=O)CCC=C(C)CCC=C(C)CCC=C(C)C
REMARK SMILES IDX 10 1 11 2 12 3 13 4 14 5 15 6 16 7 18 8 17 9 19 10 9 11 7 12
REMARK SMILES IDX 6 13 8 14 5 15 4 16 2 17 3 18 1 19
REMARK H PARENT
REMARK Flexibility Score: inf
ROOT
ATOM      1  C   UNL     1      85.059  35.555  29.414  1.00  0.00     0.032 C 
ENDROOT
BRANCH   1   2
ATOM      2  C   UNL     1      85.888  34.795  30.417  1.00  0.00    -0.028 C 
ATOM      3  C   UNL     1      86.524  33.630  30.156  1.00  0.00    -0.077 C 
ATOM      4  C   UNL     1      86.514  33.008  28.780  1.00  0.00     0.039 C 
BRANCH   3   5
ATOM      5  C   UNL     1      87.280  32.940  31.270  1.00  0.00     0.034 C 
BRANCH   5   6
ATOM      6  C   UNL     1      86.755  33.384  32.640  1.00  0.00     0.032 C 
BRANCH   6   7
ATOM      7  C   UNL     1      85.585  32.533  33.065  1.00  0.00    -0.028 C 
ATOM      8  C   UNL     1      83.319  32.048  33.883  1.00  0.00     0.039 C 
ATOM      9  C   UNL     1      84.415  33.021  33.533  1.00  0.00    -0.080 C 
ATOM     10  C   UNL     1      84.187  34.502  33.729  1.00  0.00     0.039 C 
ENDBRANCH   6   7
ENDBRANCH   5   6
ENDBRANCH   3   5
ENDBRANCH   1   2
BRANCH   1  11
ATOM     11  C   UNL     1      85.683  36.925  29.124  1.00  0.00     0.034 C 
BRANCH  11  12
ATOM     12  C   UNL     1      86.273  36.959  27.731  1.00  0.00    -0.077 C 
ATOM     13  C   UNL     1      87.468  37.565  27.541  1.00  0.00    -0.028 C 
ATOM     14  C   UNL     1      85.515  36.312  26.597  1.00  0.00     0.039 C 
BRANCH  13  15
ATOM     15  C   UNL     1      88.215  37.613  26.227  1.00  0.00     0.035 C 
BRANCH  15  16
ATOM     16  C   UNL     1      88.419  39.059  25.766  1.00  0.00     0.079 C 
BRANCH  16  17
ATOM     17  C   UNL     1      89.646  39.671  26.389  1.00  0.00     0.130 C 
ATOM     18  O   UNL     1      89.797  40.883  26.356  1.00  0.00    -0.300 OA
ATOM     19  C   UNL     1      90.692  38.821  27.047  1.00  0.00     0.087 C 
ENDBRANCH  16  17
ENDBRANCH  15  16
ENDBRANCH  13  15
ENDBRANCH  11  12
ENDBRANCH   1  11
TORSDOF 9
ENDMDL
MODEL 3
REMARK VINA RESULT:    -5.506      3.760      7.587
REMARK INTER + INTRA:          -9.480
REMARK INTER:                  -8.034
REMARK INTRA:                  -1.447
REMARK UNBOUND:                -1.078
REMARK SMILES CC(=O)CCC=C(C)CCC=C(C)CCC=C(C)C
REMARK SMILES IDX 10 1 11 2 12 3 13 4 14 5 15 6 16 7 18 8 17 9 19 10 9 11 7 12
REMARK SMILES IDX 6 13 8 14 5 15 4 16 2 17 3 18 1 19
REMARK H PARENT
REMARK Flexibility Score: inf
ROOT
ATOM      1  C   UNL     1      85.368  33.699  25.335  1.00  0.00     0.032 C 
ENDROOT
BRANCH   1   2
ATOM      2  C   UNL     1      84.488  34.188  26.456  1.00  0.00    -0.028 C 
ATOM      3  C   UNL     1      84.886  34.307  27.744  1.00  0.00    -0.077 C 
ATOM      4  C   UNL     1      86.306  34.017  28.168  1.00  0.00     0.039 C 
BRANCH   3   5
ATOM      5  C   UNL     1      83.886  34.760  28.784  1.00  0.00     0.034 C 
BRANCH   5   6
ATOM      6  C   UNL     1      84.578  35.024  30.126  1.00  0.00     0.032 C 
BRANCH   6   7
ATOM      7  C   UNL     1      84.193  36.376  30.669  1.00  0.00    -0.028 C 
ATOM      8  C   UNL     1      84.252  38.823  30.900  1.00  0.00     0.039 C 
ATOM      9  C   UNL     1      84.770  37.541  30.300  1.00  0.00    -0.080 C 
ATOM     10  C   UNL     1      85.920  37.590  29.322  1.00  0.00     0.039 C 
ENDBRANCH   6   7
ENDBRANCH   5   6
ENDBRANCH   3   5
ENDBRANCH   1   2
BRANCH   1  11
ATOM     11  C   UNL     1      85.350  34.685  24.162  1.00  0.00     0.034 C 
BRANCH  11  12
ATOM     12  C   UNL     1      86.618  35.510  24.138  1.00  0.00    -0.077 C 
ATOM     13  C   UNL     1      86.626  36.718  24.747  1.00  0.00    -0.028 C 
ATOM     14  C   UNL     1      87.837  34.959  23.438  1.00  0.00     0.039 C 
BRANCH  13  15
ATOM     15  C   UNL     1      87.834  37.618  24.869  1.00  0.00     0.035 C 
BRANCH  15  16
ATOM     16  C   UNL     1      88.192  37.858  26.339  1.00  0.00     0.079 C 
BRANCH  16  17
ATOM     17  C   UNL     1      89.149  39.010  26.495  1.00  0.00     0.130 C 
ATOM     18  O   UNL     1      88.822  40.121  26.105  1.00  0.00    -0.300 OA
ATOM     19  C   UNL     1      90.500  38.821  27.118  1.00  0.00     0.087 C 
ENDBRANCH  16  17
ENDBRANCH  15  16
ENDBRANCH  13  15
ENDBRANCH  11  12
ENDBRANCH   1  11
TORSDOF 9
ENDMDL
MODEL 4
REMARK VINA RESULT:    -5.437      4.376      7.720
REMARK INTER + INTRA:          -9.376
REMARK INTER:                  -7.902
REMARK INTRA:                  -1.474
REMARK UNBOUND:                -1.078
REMARK SMILES CC(=O)CCC=C(C)CCC=C(C)CCC=C(C)C
REMARK SMILES IDX 10 1 11 2 12 3 13 4 14 5 15 6 16 7 18 8 17 9 19 10 9 11 7 12
REMARK SMILES IDX 6 13 8 14 5 15 4 16 2 17 3 18 1 19
REMARK H PARENT
REMARK Flexibility Score: inf
ROOT
ATOM      1  C   UNL     1      84.503  35.315  26.874  1.00  0.00     0.032 C 
ENDROOT
BRANCH   1   2
ATOM      2  C   UNL     1      83.750  36.386  27.621  1.00  0.00    -0.028 C 
ATOM      3  C   UNL     1      84.215  37.017  28.725  1.00  0.00    -0.077 C 
ATOM      4  C   UNL     1      85.592  36.743  29.279  1.00  0.00     0.039 C 
BRANCH   3   5
ATOM      5  C   UNL     1      83.335  38.038  29.412  1.00  0.00     0.034 C 
BRANCH   5   6
ATOM      6  C   UNL     1      81.958  38.108  28.742  1.00  0.00     0.032 C 
BRANCH   6   7
ATOM      7  C   UNL     1      81.672  39.504  28.253  1.00  0.00    -0.028 C 
ATOM      8  C   UNL     1      81.257  41.287  26.612  1.00  0.00     0.039 C 
ATOM      9  C   UNL     1      81.590  39.856  26.950  1.00  0.00    -0.080 C 
ATOM     10  C   UNL     1      81.840  38.866  25.837  1.00  0.00     0.039 C 
ENDBRANCH   6   7
ENDBRANCH   5   6
ENDBRANCH   3   5
ENDBRANCH   1   2
BRANCH   1  11
ATOM     11  C   UNL     1      84.639  35.683  25.392  1.00  0.00     0.034 C 
BRANCH  11  12
ATOM     12  C   UNL     1      86.049  36.135  25.081  1.00  0.00    -0.077 C 
ATOM     13  C   UNL     1      86.554  37.205  25.738  1.00  0.00    -0.028 C 
ATOM     14  C   UNL     1      86.851  35.376  24.052  1.00  0.00     0.039 C 
BRANCH  13  15
ATOM     15  C   UNL     1      87.965  37.725  25.588  1.00  0.00     0.035 C 
BRANCH  15  16
ATOM     16  C   UNL     1      88.526  38.184  26.938  1.00  0.00     0.079 C 
BRANCH  16  17
ATOM     17  C   UNL     1      89.708  39.100  26.764  1.00  0.00     0.130 C 
ATOM     18  O   UNL     1      90.814  38.733  27.133  1.00  0.00    -0.300 OA
ATOM     19  C   UNL     1      89.556  40.460  26.149  1.00  0.00     0.087 C 
ENDBRANCH  16  17
ENDBRANCH  15  16
ENDBRANCH  13  15
ENDBRANCH  11  12
ENDBRANCH   1  11
TORSDOF 9
ENDMDL
MODEL 5
REMARK VINA RESULT:    -5.403      4.395      6.170
REMARK INTER + INTRA:          -9.323
REMARK INTER:                  -7.921
REMARK INTRA:                  -1.402
REMARK UNBOUND:                -1.078
REMARK SMILES CC(=O)CCC=C(C)CCC=C(C)CCC=C(C)C
REMARK SMILES IDX 10 1 11 2 12 3 13 4 14 5 15 6 16 7 18 8 17 9 19 10 9 11 7 12
REMARK SMILES IDX 6 13 8 14 5 15 4 16 2 17 3 18 1 19
REMARK H PARENT
REMARK Flexibility Score: inf
ROOT
ATOM      1  C   UNL     1      83.962  35.932  28.544  1.00  0.00     0.032 C 
ENDROOT
BRANCH   1   2
ATOM      2  C   UNL     1      85.380  36.435  28.452  1.00  0.00    -0.028 C 
ATOM      3  C   UNL     1      85.841  37.540  29.082  1.00  0.00    -0.077 C 
ATOM      4  C   UNL     1      84.968  38.349  30.012  1.00  0.00     0.039 C 
BRANCH   3   5
ATOM      5  C   UNL     1      87.275  37.966  28.863  1.00  0.00     0.034 C 
BRANCH   5   6
ATOM      6  C   UNL     1      87.696  37.730  27.407  1.00  0.00     0.032 C 
BRANCH   6   7
ATOM      7  C   UNL     1      88.221  39.000  26.789  1.00  0.00    -0.028 C 
ATOM      8  C   UNL     1      89.907  40.590  25.972  1.00  0.00     0.039 C 
ATOM      9  C   UNL     1      89.531  39.297  26.647  1.00  0.00    -0.080 C 
ATOM     10  C   UNL     1      90.619  38.381  27.159  1.00  0.00     0.039 C 
ENDBRANCH   6   7
ENDBRANCH   5   6
ENDBRANCH   3   5
ENDBRANCH   1   2
BRANCH   1  11
ATOM     11  C   UNL     1      83.266  36.019  27.182  1.00  0.00     0.034 C 
BRANCH  11  12
ATOM     12  C   UNL     1      82.300  37.183  27.148  1.00  0.00    -0.077 C 
ATOM     13  C   UNL     1      81.791  37.646  28.314  1.00  0.00    -0.028 C 
ATOM     14  C   UNL     1      81.937  37.796  25.817  1.00  0.00     0.039 C 
BRANCH  13  15
ATOM     15  C   UNL     1      80.877  38.843  28.444  1.00  0.00     0.035 C 
BRANCH  15  16
ATOM     16  C   UNL     1      81.662  40.086  28.872  1.00  0.00     0.079 C 
BRANCH  16  17
ATOM     17  C   UNL     1      81.345  41.270  27.996  1.00  0.00     0.130 C 
ATOM     18  O   UNL     1      81.843  41.347  26.884  1.00  0.00    -0.300 OA
ATOM     19  C   UNL     1      80.430  42.363  28.465  1.00  0.00     0.087 C 
ENDBRANCH  16  17
ENDBRANCH  15  16
ENDBRANCH  13  15
ENDBRANCH  11  12
ENDBRANCH   1  11
TORSDOF 9
ENDMDL
MODEL 6
REMARK VINA RESULT:    -5.389      2.845      4.775
REMARK INTER + INTRA:          -9.302
REMARK INTER:                  -8.370
REMARK INTRA:                  -0.933
REMARK UNBOUND:                -1.078
REMARK SMILES CC(=O)CCC=C(C)CCC=C(C)CCC=C(C)C
REMARK SMILES IDX 10 1 11 2 12 3 13 4 14 5 15 6 16 7 18 8 17 9 19 10 9 11 7 12
REMARK SMILES IDX 6 13 8 14 5 15 4 16 2 17 3 18 1 19
REMARK H PARENT
REMARK Flexibility Score: inf
ROOT
ATOM      1  C   UNL     1      87.263  37.765  28.930  1.00  0.00     0.032 C 
ENDROOT
BRANCH   1   2
ATOM      2  C   UNL     1      87.216  37.634  27.429  1.00  0.00    -0.028 C 
ATOM      3  C   UNL     1      88.210  38.023  26.598  1.00  0.00    -0.077 C 
ATOM      4  C   UNL     1      89.515  38.576  27.119  1.00  0.00     0.039 C 
BRANCH   3   5
ATOM      5  C   UNL     1      88.014  37.885  25.104  1.00  0.00     0.034 C 
BRANCH   5   6
ATOM      6  C   UNL     1      86.997  36.781  24.789  1.00  0.00     0.032 C 
BRANCH   6   7
ATOM      7  C   UNL     1      87.541  35.833  23.752  1.00  0.00    -0.028 C 
ATOM      8  C   UNL     1      87.573  33.863  22.282  1.00  0.00     0.039 C 
ATOM      9  C   UNL     1      86.928  34.693  23.362  1.00  0.00    -0.080 C 
ATOM     10  C   UNL     1      85.634  34.226  23.987  1.00  0.00     0.039 C 
ENDBRANCH   6   7
ENDBRANCH   5   6
ENDBRANCH   3   5
ENDBRANCH   1   2
BRANCH   1  11
ATOM     11  C   UNL     1      86.147  38.689  29.428  1.00  0.00     0.034 C 
BRANCH  11  12
ATOM     12  C   UNL     1      85.029  37.887  30.056  1.00  0.00    -0.077 C 
ATOM     13  C   UNL     1      85.097  36.535  30.030  1.00  0.00    -0.028 C 
ATOM     14  C   UNL     1      83.874  38.617  30.698  1.00  0.00     0.039 C 
BRANCH  13  15
ATOM     15  C   UNL     1      84.097  35.606  30.679  1.00  0.00     0.035 C 
BRANCH  15  16
ATOM     16  C   UNL     1      84.593  35.141  32.052  1.00  0.00     0.079 C 
BRANCH  16  17
ATOM     17  C   UNL     1      85.574  34.005  31.931  1.00  0.00     0.130 C 
ATOM     18  O   UNL     1      85.462  33.207  31.014  1.00  0.00    -0.300 OA
ATOM     19  C   UNL     1      86.689  33.831  32.920  1.00  0.00     0.087 C 
ENDBRANCH  16  17
ENDBRANCH  15  16
ENDBRANCH  13  15
ENDBRANCH  11  12
ENDBRANCH   1  11
TORSDOF 9
ENDMDL
MODEL 7
REMARK VINA RESULT:    -5.386      4.326      6.202
REMARK INTER + INTRA:          -9.298
REMARK INTER:                  -7.851
REMARK INTRA:                  -1.446
REMARK UNBOUND:                -1.078
REMARK SMILES CC(=O)CCC=C(C)CCC=C(C)CCC=C(C)C
REMARK SMILES IDX 10 1 11 2 12 3 13 4 14 5 15 6 16 7 18 8 17 9 19 10 9 11 7 12
REMARK SMILES IDX 6 13 8 14 5 15 4 16 2 17 3 18 1 19
REMARK H PARENT
REMARK Flexibility Score: inf
ROOT
ATOM      1  C   UNL     1      85.708  37.307  29.718  1.00  0.00     0.032 C 
ENDROOT
BRANCH   1   2
ATOM      2  C   UNL     1      85.843  37.532  28.234  1.00  0.00    -0.028 C 
ATOM      3  C   UNL     1      86.001  36.545  27.323  1.00  0.00    -0.077 C 
ATOM      4  C   UNL     1      85.988  35.087  27.717  1.00  0.00     0.039 C 
BRANCH   3   5
ATOM      5  C   UNL     1      86.178  36.911  25.866  1.00  0.00     0.034 C 
BRANCH   5   6
ATOM      6  C   UNL     1      87.665  37.059  25.520  1.00  0.00     0.032 C 
BRANCH   6   7
ATOM      7  C   UNL     1      88.066  38.512  25.495  1.00  0.00    -0.028 C 
ATOM      8  C   UNL     1      89.327  40.523  26.133  1.00  0.00     0.039 C 
ATOM      9  C   UNL     1      89.001  39.060  26.300  1.00  0.00    -0.080 C 
ATOM     10  C   UNL     1      89.711  38.258  27.365  1.00  0.00     0.039 C 
ENDBRANCH   6   7
ENDBRANCH   5   6
ENDBRANCH   3   5
ENDBRANCH   1   2
BRANCH   1  11
ATOM     11  C   UNL     1      84.734  38.317  30.333  1.00  0.00     0.034 C 
BRANCH  11  12
ATOM     12  C   UNL     1      83.342  38.127  29.774  1.00  0.00    -0.077 C 
ATOM     13  C   UNL     1      82.679  39.201  29.286  1.00  0.00    -0.028 C 
ATOM     14  C   UNL     1      82.736  36.744  29.771  1.00  0.00     0.039 C 
BRANCH  13  15
ATOM     15  C   UNL     1      81.318  39.154  28.630  1.00  0.00     0.035 C 
BRANCH  15  16
ATOM     16  C   UNL     1      80.964  40.507  28.005  1.00  0.00     0.079 C 
BRANCH  16  17
ATOM     17  C   UNL     1      81.436  40.599  26.578  1.00  0.00     0.130 C 
ATOM     18  O   UNL     1      81.643  41.695  26.082  1.00  0.00    -0.300 OA
ATOM     19  C   UNL     1      81.653  39.367  25.749  1.00  0.00     0.087 C 
ENDBRANCH  16  17
ENDBRANCH  15  16
ENDBRANCH  13  15
ENDBRANCH  11  12
ENDBRANCH   1  11
TORSDOF 9
ENDMDL
MODEL 8
REMARK VINA RESULT:    -5.364      4.309      7.145
REMARK INTER + INTRA:          -9.265
REMARK INTER:                  -7.806
REMARK INTRA:                  -1.458
REMARK UNBOUND:                -1.078
REMARK SMILES CC(=O)CCC=C(C)CCC=C(C)CCC=C(C)C
REMARK SMILES IDX 10 1 11 2 12 3 13 4 14 5 15 6 16 7 18 8 17 9 19 10 9 11 7 12
REMARK SMILES IDX 6 13 8 14 5 15 4 16 2 17 3 18 1 19
REMARK H PARENT
REMARK Flexibility Score: inf
ROOT
ATOM      1  C   UNL     1      82.757  36.917  29.560  1.00  0.00     0.032 C 
ENDROOT
BRANCH   1   2
ATOM      2  C   UNL     1      82.463  37.164  28.103  1.00  0.00    -0.028 C 
ATOM      3  C   UNL     1      81.348  37.775  27.641  1.00  0.00    -0.077 C 
ATOM      4  C   UNL     1      80.303  38.337  28.575  1.00  0.00     0.039 C 
BRANCH   3   5
ATOM      5  C   UNL     1      81.150  37.912  26.148  1.00  0.00     0.034 C 
BRANCH   5   6
ATOM      6  C   UNL     1      82.460  38.319  25.461  1.00  0.00     0.032 C 
BRANCH   6   7
ATOM      7  C   UNL     1      82.787  37.376  24.332  1.00  0.00    -0.028 C 
ATOM      8  C   UNL     1      84.031  35.629  23.132  1.00  0.00     0.039 C 
ATOM      9  C   UNL     1      83.854  36.547  24.314  1.00  0.00    -0.080 C 
ATOM     10  C   UNL     1      84.872  36.528  25.430  1.00  0.00     0.039 C 
ENDBRANCH   6   7
ENDBRANCH   5   6
ENDBRANCH   3   5
ENDBRANCH   1   2
BRANCH   1  11
ATOM     11  C   UNL     1      84.165  36.341  29.739  1.00  0.00     0.034 C 
BRANCH  11  12
ATOM     12  C   UNL     1      85.210  37.424  29.584  1.00  0.00    -0.077 C 
ATOM     13  C   UNL     1      86.314  37.169  28.844  1.00  0.00    -0.028 C 
ATOM     14  C   UNL     1      84.987  38.758  30.255  1.00  0.00     0.039 C 
BRANCH  13  15
ATOM     15  C   UNL     1      87.402  38.173  28.540  1.00  0.00     0.035 C 
BRANCH  15  16
ATOM     16  C   UNL     1      87.912  38.009  27.105  1.00  0.00     0.079 C 
BRANCH  16  17
ATOM     17  C   UNL     1      89.188  38.776  26.879  1.00  0.00     0.130 C 
ATOM     18  O   UNL     1      90.248  38.310  27.269  1.00  0.00    -0.300 OA
ATOM     19  C   UNL     1      89.185  40.107  26.187  1.00  0.00     0.087 C 
ENDBRANCH  16  17
ENDBRANCH  15  16
ENDBRANCH  13  15
ENDBRANCH  11  12
ENDBRANCH   1  11
TORSDOF 9
ENDMDL
MODEL 9
REMARK VINA RESULT:    -5.346      3.844      7.750
REMARK INTER + INTRA:          -9.237
REMARK INTER:                  -7.818
REMARK INTRA:                  -1.419
REMARK UNBOUND:                -1.078
REMARK SMILES CC(=O)CCC=C(C)CCC=C(C)CCC=C(C)C
REMARK SMILES IDX 10 1 11 2 12 3 13 4 14 5 15 6 16 7 18 8 17 9 19 10 9 11 7 12
REMARK SMILES IDX 6 13 8 14 5 15 4 16 2 17 3 18 1 19
REMARK H PARENT
REMARK Flexibility Score: inf
ROOT
ATOM      1  C   UNL     1      86.056  33.375  23.944  1.00  0.00     0.032 C 
ENDROOT
BRANCH   1   2
ATOM      2  C   UNL     1      86.543  33.103  25.345  1.00  0.00    -0.028 C 
ATOM      3  C   UNL     1      85.735  32.980  26.423  1.00  0.00    -0.077 C 
ATOM      4  C   UNL     1      84.231  33.041  26.303  1.00  0.00     0.039 C 
BRANCH   3   5
ATOM      5  C   UNL     1      86.356  32.760  27.785  1.00  0.00     0.034 C 
BRANCH   5   6
ATOM      6  C   UNL     1      85.677  33.639  28.841  1.00  0.00     0.032 C 
BRANCH   6   7
ATOM      7  C   UNL     1      86.025  35.090  28.634  1.00  0.00    -0.028 C 
ATOM      8  C   UNL     1      86.052  37.502  29.110  1.00  0.00     0.039 C 
ATOM      9  C   UNL     1      85.586  36.101  29.416  1.00  0.00    -0.080 C 
ATOM     10  C   UNL     1      84.636  35.868  30.567  1.00  0.00     0.039 C 
ENDBRANCH   6   7
ENDBRANCH   5   6
ENDBRANCH   3   5
ENDBRANCH   1   2
BRANCH   1  11
ATOM     11  C   UNL     1      86.903  34.465  23.279  1.00  0.00     0.034 C 
BRANCH  11  12
ATOM     12  C   UNL     1      86.709  35.793  23.976  1.00  0.00    -0.077 C 
ATOM     13  C   UNL     1      87.792  36.560  24.240  1.00  0.00    -0.028 C 
ATOM     14  C   UNL     1      85.312  36.226  24.353  1.00  0.00     0.039 C 
BRANCH  13  15
ATOM     15  C   UNL     1      87.748  37.938  24.860  1.00  0.00     0.035 C 
BRANCH  15  16
ATOM     16  C   UNL     1      88.151  37.886  26.337  1.00  0.00     0.079 C 
BRANCH  16  17
ATOM     17  C   UNL     1      89.343  38.763  26.616  1.00  0.00     0.130 C 
ATOM     18  O   UNL     1      90.315  38.294  27.189  1.00  0.00    -0.300 OA
ATOM     19  C   UNL     1      89.361  40.207  26.208  1.00  0.00     0.087 C 
ENDBRANCH  16  17
ENDBRANCH  15  16
ENDBRANCH  13  15
ENDBRANCH  11  12
ENDBRANCH   1  11
TORSDOF 9
ENDMDL
