MODEL 1
REMARK VINA RESULT:    -2.849      0.000      0.000
REMARK INTER + INTRA:          -3.497
REMARK INTER:                  -3.349
REMARK INTRA:                  -0.148
REMARK UNBOUND:                -0.148
REMARK SMILES O=C([O-])CCC(=O)[O-]
REMARK SMILES IDX 4 1 2 2 1 3 3 4 5 5 6 6 7 7 8 8
REMARK H PARENT
REMARK Flexibility Score: inf
ROOT
ATOM      1  C   UNL     1      17.015   8.135  23.209  1.00  0.00     0.059 C 
ENDROOT
BRANCH   1   2
ATOM      2  C   UNL     1      17.848   8.647  24.340  1.00  0.00     0.042 C 
ATOM      3  O   UNL     1      17.483   9.664  24.987  1.00  0.00    -0.550 OA
ATOM      4  O   UNL     1      19.004   7.973  24.713  1.00  0.00    -0.550 OA
ENDBRANCH   1   2
BRANCH   1   5
ATOM      5  C   UNL     1      17.235   8.983  21.955  1.00  0.00     0.059 C 
BRANCH   5   6
ATOM      6  C   UNL     1      18.504   8.586  21.271  1.00  0.00     0.042 C 
ATOM      7  O   UNL     1      18.579   7.485  20.664  1.00  0.00    -0.550 OA
ATOM      8  O   UNL     1      19.622   9.408  21.344  1.00  0.00    -0.550 OA
ENDBRANCH   5   6
ENDBRANCH   1   5
TORSDOF 3
ENDMDL
MODEL 2
REMARK VINA RESULT:    -2.808      0.134      3.560
REMARK INTER + INTRA:          -3.449
REMARK INTER:                  -3.303
REMARK INTRA:                  -0.146
REMARK UNBOUND:                -0.148
REMARK SMILES O=C([O-])CCC(=O)[O-]
REMARK SMILES IDX 4 1 2 2 1 3 3 4 5 5 6 6 7 7 8 8
REMARK H PARENT
REMARK Flexibility Score: inf
ROOT
ATOM      1  C   UNL     1      17.210   8.848  21.941  1.00  0.00     0.059 C 
ENDROOT
BRANCH   1   2
ATOM      2  C   UNL     1      18.490   8.540  21.232  1.00  0.00     0.042 C 
ATOM      3  O   UNL     1      18.569   7.538  20.474  1.00  0.00    -0.550 OA
ATOM      4  O   UNL     1      19.583   9.387  21.369  1.00  0.00    -0.550 OA
ENDBRANCH   1   2
BRANCH   1   5
ATOM      5  C   UNL     1      17.060   7.967  23.182  1.00  0.00     0.059 C 
BRANCH   5   6
ATOM      6  C   UNL     1      17.871   8.514  24.314  1.00  0.00     0.042 C 
ATOM      7  O   UNL     1      17.519   9.577  24.889  1.00  0.00    -0.550 OA
ATOM      8  O   UNL     1      19.042   7.876  24.703  1.00  0.00    -0.550 OA
ENDBRANCH   5   6
ENDBRANCH   1   5
TORSDOF 3
ENDMDL
MODEL 3
REMARK VINA RESULT:    -2.798      0.150      3.498
REMARK INTER + INTRA:          -3.437
REMARK INTER:                  -3.300
REMARK INTRA:                  -0.137
REMARK UNBOUND:                -0.148
REMARK SMILES O=C([O-])CCC(=O)[O-]
REMARK SMILES IDX 4 1 2 2 1 3 3 4 5 5 6 6 7 7 8 8
REMARK H PARENT
REMARK Flexibility Score: inf
ROOT
ATOM      1  C   UNL     1      17.186   8.851  21.967  1.00  0.00     0.059 C 
ENDROOT
BRANCH   1   2
ATOM      2  C   UNL     1      18.440   8.498  21.234  1.00  0.00     0.042 C 
ATOM      3  O   UNL     1      19.442   9.259  21.291  1.00  0.00    -0.550 OA
ATOM      4  O   UNL     1      18.521   7.305  20.526  1.00  0.00    -0.550 OA
ENDBRANCH   1   2
BRANCH   1   5
ATOM      5  C   UNL     1      17.053   8.008  23.237  1.00  0.00     0.059 C 
BRANCH   5   6
ATOM      6  C   UNL     1      17.880   8.587  24.339  1.00  0.00     0.042 C 
ATOM      7  O   UNL     1      17.520   9.650  24.910  1.00  0.00    -0.550 OA
ATOM      8  O   UNL     1      19.076   7.981  24.705  1.00  0.00    -0.550 OA
ENDBRANCH   5   6
ENDBRANCH   1   5
TORSDOF 3
ENDMDL
MODEL 4
REMARK VINA RESULT:    -2.795      0.121      3.473
REMARK INTER + INTRA:          -3.434
REMARK INTER:                  -3.304
REMARK INTRA:                  -0.130
REMARK UNBOUND:                -0.148
REMARK SMILES O=C([O-])CCC(=O)[O-]
REMARK SMILES IDX 4 1 2 2 1 3 3 4 5 5 6 6 7 7 8 8
REMARK H PARENT
REMARK Flexibility Score: inf
ROOT
ATOM      1  C   UNL     1      17.269   8.912  21.991  1.00  0.00     0.059 C 
ENDROOT
BRANCH   1   2
ATOM      2  C   UNL     1      18.511   8.571  21.232  1.00  0.00     0.042 C 
ATOM      3  O   UNL     1      19.519   9.323  21.296  1.00  0.00    -0.550 OA
ATOM      4  O   UNL     1      18.575   7.396  20.493  1.00  0.00    -0.550 OA
ENDBRANCH   1   2
BRANCH   1   5
ATOM      5  C   UNL     1      17.129   8.014  23.222  1.00  0.00     0.059 C 
BRANCH   5   6
ATOM      6  C   UNL     1      17.921   8.565  24.364  1.00  0.00     0.042 C 
ATOM      7  O   UNL     1      18.993   8.007  24.720  1.00  0.00    -0.550 OA
ATOM      8  O   UNL     1      17.451   9.666  25.070  1.00  0.00    -0.550 OA
ENDBRANCH   5   6
ENDBRANCH   1   5
TORSDOF 3
ENDMDL
MODEL 5
REMARK VINA RESULT:    -2.704      1.344      3.763
REMARK INTER + INTRA:          -3.326
REMARK INTER:                  -3.152
REMARK INTRA:                  -0.175
REMARK UNBOUND:                -0.148
REMARK SMILES O=C([O-])CCC(=O)[O-]
REMARK SMILES IDX 4 1 2 2 1 3 3 4 5 5 6 6 7 7 8 8
REMARK H PARENT
REMARK Flexibility Score: inf
ROOT
ATOM      1  C   UNL     1      18.585   7.479  22.758  1.00  0.00     0.059 C 
ENDROOT
BRANCH   1   2
ATOM      2  C   UNL     1      18.506   8.616  21.790  1.00  0.00     0.042 C 
ATOM      3  O   UNL     1      19.517   9.336  21.575  1.00  0.00    -0.550 OA
ATOM      4  O   UNL     1      17.331   8.851  21.087  1.00  0.00    -0.550 OA
ENDBRANCH   1   2
BRANCH   1   5
ATOM      5  C   UNL     1      18.697   8.002  24.190  1.00  0.00     0.059 C 
BRANCH   5   6
ATOM      6  C   UNL     1      17.418   8.651  24.612  1.00  0.00     0.042 C 
ATOM      7  O   UNL     1      17.425   9.817  25.087  1.00  0.00    -0.550 OA
ATOM      8  O   UNL     1      16.221   7.950  24.528  1.00  0.00    -0.550 OA
ENDBRANCH   5   6
ENDBRANCH   1   5
TORSDOF 3
ENDMDL
MODEL 6
REMARK VINA RESULT:    -2.696      1.472      1.986
REMARK INTER + INTRA:          -3.317
REMARK INTER:                  -3.177
REMARK INTRA:                  -0.141
REMARK UNBOUND:                -0.148
REMARK SMILES O=C([O-])CCC(=O)[O-]
REMARK SMILES IDX 4 1 2 2 1 3 3 4 5 5 6 6 7 7 8 8
REMARK H PARENT
REMARK Flexibility Score: inf
ROOT
ATOM      1  C   UNL     1      18.524   8.238  24.318  1.00  0.00     0.059 C 
ENDROOT
BRANCH   1   2
ATOM      2  C   UNL     1      17.228   8.875  24.706  1.00  0.00     0.042 C 
ATOM      3  O   UNL     1      16.137   8.310  24.432  1.00  0.00    -0.550 OA
ATOM      4  O   UNL     1      17.225  10.071  25.414  1.00  0.00    -0.550 OA
ENDBRANCH   1   2
BRANCH   1   5
ATOM      5  C   UNL     1      18.408   7.586  22.939  1.00  0.00     0.059 C 
BRANCH   5   6
ATOM      6  C   UNL     1      18.433   8.626  21.864  1.00  0.00     0.042 C 
ATOM      7  O   UNL     1      19.483   9.284  21.644  1.00  0.00    -0.550 OA
ATOM      8  O   UNL     1      17.281   8.903  21.137  1.00  0.00    -0.550 OA
ENDBRANCH   5   6
ENDBRANCH   1   5
TORSDOF 3
ENDMDL
MODEL 7
REMARK VINA RESULT:    -2.677      2.122      2.912
REMARK INTER + INTRA:          -3.295
REMARK INTER:                  -3.173
REMARK INTRA:                  -0.121
REMARK UNBOUND:                -0.148
REMARK SMILES O=C([O-])CCC(=O)[O-]
REMARK SMILES IDX 4 1 2 2 1 3 3 4 5 5 6 6 7 7 8 8
REMARK H PARENT
REMARK Flexibility Score: inf
ROOT
ATOM      1  C   UNL     1      17.478   8.602  20.984  1.00  0.00     0.059 C 
ENDROOT
BRANCH   1   2
ATOM      2  C   UNL     1      18.614   8.965  21.886  1.00  0.00     0.042 C 
ATOM      3  O   UNL     1      18.547   8.721  23.119  1.00  0.00    -0.550 OA
ATOM      4  O   UNL     1      19.769   9.529  21.357  1.00  0.00    -0.550 OA
ENDBRANCH   1   2
BRANCH   1   5
ATOM      5  C   UNL     1      17.924   7.567  19.951  1.00  0.00     0.059 C 
BRANCH   5   6
ATOM      6  C   UNL     1      17.844   8.136  18.570  1.00  0.00     0.042 C 
ATOM      7  O   UNL     1      17.328   7.467  17.637  1.00  0.00    -0.550 OA
ATOM      8  O   UNL     1      18.386   9.388  18.302  1.00  0.00    -0.550 OA
ENDBRANCH   5   6
ENDBRANCH   1   5
TORSDOF 3
ENDMDL
MODEL 8
REMARK VINA RESULT:    -2.657      1.875      3.309
REMARK INTER + INTRA:          -3.271
REMARK INTER:                  -3.093
REMARK INTRA:                  -0.178
REMARK UNBOUND:                -0.148
REMARK SMILES O=C([O-])CCC(=O)[O-]
REMARK SMILES IDX 4 1 2 2 1 3 3 4 5 5 6 6 7 7 8 8
REMARK H PARENT
REMARK Flexibility Score: inf
ROOT
ATOM      1  C   UNL     1      17.927   8.925  23.850  1.00  0.00     0.059 C 
ENDROOT
BRANCH   1   2
ATOM      2  C   UNL     1      18.065   8.992  22.362  1.00  0.00     0.042 C 
ATOM      3  O   UNL     1      17.042   8.956  21.629  1.00  0.00    -0.550 OA
ATOM      4  O   UNL     1      19.320   9.144  21.785  1.00  0.00    -0.550 OA
ENDBRANCH   1   2
BRANCH   1   5
ATOM      5  C   UNL     1      18.897   7.895  24.432  1.00  0.00     0.059 C 
BRANCH   5   6
ATOM      6  C   UNL     1      18.470   6.509  24.067  1.00  0.00     0.042 C 
ATOM      7  O   UNL     1      19.243   5.760  23.414  1.00  0.00    -0.550 OA
ATOM      8  O   UNL     1      17.199   6.061  24.404  1.00  0.00    -0.550 OA
ENDBRANCH   5   6
ENDBRANCH   1   5
TORSDOF 3
ENDMDL
MODEL 9
REMARK VINA RESULT:    -2.608      1.709      2.164
REMARK INTER + INTRA:          -3.213
REMARK INTER:                  -3.085
REMARK INTRA:                  -0.128
REMARK UNBOUND:                -0.148
REMARK SMILES O=C([O-])CCC(=O)[O-]
REMARK SMILES IDX 4 1 2 2 1 3 3 4 5 5 6 6 7 7 8 8
REMARK H PARENT
REMARK Flexibility Score: inf
ROOT
ATOM      1  C   UNL     1      17.767   8.984  23.918  1.00  0.00     0.059 C 
ENDROOT
BRANCH   1   2
ATOM      2  C   UNL     1      18.450   7.707  24.291  1.00  0.00     0.042 C 
ATOM      3  O   UNL     1      19.685   7.567  24.090  1.00  0.00    -0.550 OA
ATOM      4  O   UNL     1      17.733   6.688  24.906  1.00  0.00    -0.550 OA
ENDBRANCH   1   2
BRANCH   1   5
ATOM      5  C   UNL     1      18.028   9.322  22.450  1.00  0.00     0.059 C 
BRANCH   5   6
ATOM      6  C   UNL     1      17.057   8.605  21.566  1.00  0.00     0.042 C 
ATOM      7  O   UNL     1      17.455   8.047  20.510  1.00  0.00    -0.550 OA
ATOM      8  O   UNL     1      15.704   8.595  21.883  1.00  0.00    -0.550 OA
ENDBRANCH   5   6
ENDBRANCH   1   5
TORSDOF 3
ENDMDL
