MODEL 1
REMARK VINA RESULT:    61.694      0.000      0.000
REMARK INTER + INTRA:          87.348
REMARK INTER:                  83.334
REMARK INTRA:                   4.014
REMARK UNBOUND:                 4.014
REMARK SMILES O=c1c(-c2ccc(O)cc2)coc2c([C@H]3O[C@H](CO)[C@@H](O)[C@@H](O)[C@@H]3O)c(O)ccc12
REMARK SMILES IDX 3 1 11 2 12 3 13 4 30 5 2 6 1 7 29 8 28 9 26 10 14 11 4 12
REMARK SMILES IDX 5 13 6 14 7 15 10 16 9 17 8 18 15 20 24 21 16 22 22 23 17 24
REMARK SMILES IDX 20 25 25 26 23 28 18 30 19 31 21 33 27 35
REMARK H PARENT 8 19 25 27 23 29 19 32 21 34 27 36
REMARK Flexibility Score: inf
ROOT
ATOM      1  C   UNL     1      17.531  98.554   9.054  1.00  0.00     0.065 A 
ATOM      2  C   UNL     1      18.211  97.354   8.823  1.00  0.00     0.208 A 
ATOM      3  O   UNL     1      17.587  96.187   8.924  1.00  0.00    -0.463 OA
ATOM      4  C   UNL     1      16.304  96.058   9.242  1.00  0.00     0.147 A 
ATOM      5  C   UNL     1      15.552  97.226   9.531  1.00  0.00     0.066 A 
ATOM      6  C   UNL     1      16.178  98.483   9.427  1.00  0.00     0.200 A 
ATOM      7  O   UNL     1      15.538  99.539   9.691  1.00  0.00    -0.288 OA
ATOM      8  C   UNL     1      14.218  97.113   9.939  1.00  0.00     0.020 A 
ATOM      9  C   UNL     1      13.646  95.860  10.109  1.00  0.00     0.047 A 
ATOM     10  C   UNL     1      14.373  94.698   9.834  1.00  0.00     0.125 A 
ATOM     11  C   UNL     1      15.693  94.771   9.309  1.00  0.00     0.069 A 
ENDROOT
BRANCH   1  12
ATOM     12  C   UNL     1      18.244  99.849   8.918  1.00  0.00    -0.011 A 
ATOM     13  C   UNL     1      19.084 100.309   9.946  1.00  0.00     0.013 A 
ATOM     14  C   UNL     1      19.764 101.524   9.816  1.00  0.00     0.047 A 
ATOM     15  C   UNL     1      19.616 102.291   8.653  1.00  0.00     0.115 A 
ATOM     16  C   UNL     1      18.106 100.623   7.751  1.00  0.00     0.013 A 
ATOM     17  C   UNL     1      18.787 101.837   7.623  1.00  0.00     0.047 A 
BRANCH  15  18
ATOM     18  O   UNL     1      20.287 103.503   8.512  1.00  0.00    -0.508 OA
ATOM     19  H   UNL     1      19.839 104.314   8.100  1.00  0.00     0.293 HD
ENDBRANCH  15  18
ENDBRANCH   1  12
BRANCH  11  20
ATOM     20  C   UNL     1      16.424  93.442   8.980  1.00  0.00     0.188 C 
ATOM     21  C   UNL     1      17.619  92.961   9.859  1.00  0.00     0.179 C 
ATOM     22  O   UNL     1      16.820  93.382   7.614  1.00  0.00    -0.362 OA
ATOM     23  C   UNL     1      18.873  93.824   9.606  1.00  0.00     0.177 C 
ATOM     24  C   UNL     1      17.876  94.288   7.319  1.00  0.00     0.176 C 
ATOM     25  C   UNL     1      19.159  93.894   8.095  1.00  0.00     0.177 C 
BRANCH  21  26
ATOM     26  O   UNL     1      17.901  91.627   9.509  1.00  0.00    -0.387 OA
ATOM     27  H   UNL     1      17.556  91.051  10.242  1.00  0.00     0.211 HD
ENDBRANCH  21  26
BRANCH  23  28
ATOM     28  O   UNL     1      18.693  95.118  10.124  1.00  0.00    -0.387 OA
ATOM     29  H   UNL     1      19.550  95.377  10.553  1.00  0.00     0.211 HD
ENDBRANCH  23  28
BRANCH  24  30
ATOM     30  C   UNL     1      18.108  94.259   5.801  1.00  0.00     0.191 C 
BRANCH  30  31
ATOM     31  O   UNL     1      17.958  95.541   5.257  1.00  0.00    -0.394 OA
ATOM     32  H   UNL     1      17.084  95.539   4.786  1.00  0.00     0.210 HD
ENDBRANCH  30  31
ENDBRANCH  24  30
BRANCH  25  33
ATOM     33  O   UNL     1      20.230  94.769   7.832  1.00  0.00    -0.388 OA
ATOM     34  H   UNL     1      21.068  94.239   7.837  1.00  0.00     0.211 HD
ENDBRANCH  25  33
ENDBRANCH  11  20
BRANCH  10  35
ATOM     35  O   UNL     1      13.777  93.464  10.097  1.00  0.00    -0.507 OA
ATOM     36  H   UNL     1      13.953  92.954  10.953  1.00  0.00     0.293 HD
ENDBRANCH  10  35
TORSDOF 9
ENDMDL
MODEL 2
REMARK VINA RESULT:    63.570      2.126      6.879
REMARK INTER + INTRA:          89.883
REMARK INTER:                  87.481
REMARK INTRA:                   2.402
REMARK UNBOUND:                 4.014
REMARK SMILES O=c1c(-c2ccc(O)cc2)coc2c([C@H]3O[C@H](CO)[C@@H](O)[C@@H](O)[C@@H]3O)c(O)ccc12
REMARK SMILES IDX 3 1 11 2 12 3 13 4 30 5 2 6 1 7 29 8 28 9 26 10 14 11 4 12
REMARK SMILES IDX 5 13 6 14 7 15 10 16 9 17 8 18 15 20 24 21 16 22 22 23 17 24
REMARK SMILES IDX 20 25 25 26 23 28 18 30 19 31 21 33 27 35
REMARK H PARENT 8 19 25 27 23 29 19 32 21 34 27 36
REMARK Flexibility Score: inf
ROOT
ATOM      1  C   UNL     1      18.020  93.520   9.906  1.00  0.00     0.065 A 
ATOM      2  C   UNL     1      18.795  94.682   9.839  1.00  0.00     0.208 A 
ATOM      3  O   UNL     1      18.224  95.880   9.796  1.00  0.00    -0.463 OA
ATOM      4  C   UNL     1      16.911  96.075   9.813  1.00  0.00     0.147 A 
ATOM      5  C   UNL     1      16.053  94.946   9.842  1.00  0.00     0.066 A 
ATOM      6  C   UNL     1      16.622  93.659   9.895  1.00  0.00     0.200 A 
ATOM      7  O   UNL     1      15.885  92.634   9.907  1.00  0.00    -0.288 OA
ATOM      8  C   UNL     1      14.666  95.123   9.788  1.00  0.00     0.020 A 
ATOM      9  C   UNL     1      14.131  96.397   9.657  1.00  0.00     0.047 A 
ATOM     10  C   UNL     1      14.961  97.521   9.623  1.00  0.00     0.125 A 
ATOM     11  C   UNL     1      16.368  97.394   9.789  1.00  0.00     0.069 A 
ENDROOT
BRANCH   1  12
ATOM     12  C   UNL     1      18.679  92.191   9.971  1.00  0.00    -0.011 A 
ATOM     13  C   UNL     1      17.909  91.020  10.071  1.00  0.00     0.013 A 
ATOM     14  C   UNL     1      18.527  89.767  10.123  1.00  0.00     0.047 A 
ATOM     15  C   UNL     1      19.924  89.670  10.071  1.00  0.00     0.115 A 
ATOM     16  C   UNL     1      20.081  92.083   9.912  1.00  0.00     0.013 A 
ATOM     17  C   UNL     1      20.697  90.830   9.965  1.00  0.00     0.047 A 
BRANCH  15  18
ATOM     18  O   UNL     1      20.552  88.428  10.123  1.00  0.00    -0.508 OA
ATOM     19  H   UNL     1      20.200  87.633   9.599  1.00  0.00     0.293 HD
ENDBRANCH  15  18
ENDBRANCH   1  12
BRANCH  11  20
ATOM     20  C   UNL     1      17.225  98.689   9.790  1.00  0.00     0.188 C 
ATOM     21  C   UNL     1      16.876  99.867   8.830  1.00  0.00     0.179 C 
ATOM     22  O   UNL     1      18.613  98.402   9.661  1.00  0.00    -0.362 OA
ATOM     23  C   UNL     1      17.237  99.515   7.371  1.00  0.00     0.177 C 
ATOM     24  C   UNL     1      18.946  97.923   8.364  1.00  0.00     0.176 C 
ATOM     25  C   UNL     1      18.694  99.024   7.300  1.00  0.00     0.177 C 
BRANCH  21  26
ATOM     26  O   UNL     1      17.627 100.987   9.232  1.00  0.00    -0.387 OA
ATOM     27  H   UNL     1      18.523 100.658   9.508  1.00  0.00     0.211 HD
ENDBRANCH  21  26
BRANCH  23  28
ATOM     28  O   UNL     1      16.369  98.528   6.874  1.00  0.00    -0.387 OA
ATOM     29  H   UNL     1      15.601  99.003   6.461  1.00  0.00     0.211 HD
ENDBRANCH  23  28
BRANCH  24  30
ATOM     30  C   UNL     1      20.420  97.494   8.386  1.00  0.00     0.191 C 
BRANCH  30  31
ATOM     31  O   UNL     1      20.862  97.188   7.092  1.00  0.00    -0.394 OA
ATOM     32  H   UNL     1      20.745  96.208   6.986  1.00  0.00     0.210 HD
ENDBRANCH  30  31
ENDBRANCH  24  30
BRANCH  25  33
ATOM     33  O   UNL     1      19.009  98.589   6.000  1.00  0.00    -0.388 OA
ATOM     34  H   UNL     1      18.160  98.479   5.499  1.00  0.00     0.211 HD
ENDBRANCH  25  33
ENDBRANCH  11  20
BRANCH  10  35
ATOM     35  O   UNL     1      14.377  98.771   9.412  1.00  0.00    -0.507 OA
ATOM     36  H   UNL     1      14.313  99.465  10.146  1.00  0.00     0.293 HD
ENDBRANCH  10  35
TORSDOF 9
ENDMDL
