MODEL 1
REMARK VINA RESULT:    -2.805      0.000      0.000
REMARK INTER + INTRA:          -4.537
REMARK INTER:                  -3.953
REMARK INTRA:                  -0.584
REMARK UNBOUND:                -0.584
REMARK SMILES CCCCCCCC(=O)OC
REMARK SMILES IDX 5 1 4 2 3 3 2 4 1 5 6 6 7 7 8 8 9 9 10 10 11 11
REMARK H PARENT
REMARK Flexibility Score: inf
ROOT
ATOM      1  C   UNL     1     212.500 207.656 219.036  1.00  0.00     0.001 C 
ENDROOT
BRANCH   1   2
ATOM      2  C   UNL     1     213.742 206.772 219.247  1.00  0.00     0.000 C 
BRANCH   2   3
ATOM      3  C   UNL     1     214.447 206.949 220.606  1.00  0.00    -0.000 C 
BRANCH   3   4
ATOM      4  C   UNL     1     214.023 208.196 221.402  1.00  0.00    -0.003 C 
ATOM      5  C   UNL     1     215.001 209.360 221.252  1.00  0.00     0.004 C 
ENDBRANCH   3   4
ENDBRANCH   2   3
ENDBRANCH   1   2
BRANCH   1   6
ATOM      6  C   UNL     1     212.572 208.489 217.748  1.00  0.00     0.012 C 
BRANCH   6   7
ATOM      7  C   UNL     1     213.896 209.253 217.663  1.00  0.00     0.123 C 
BRANCH   7   8
ATOM      8  C   UNL     1     213.683 210.702 217.966  1.00  0.00     0.305 C 
ATOM      9  O   UNL     1     212.511 211.168 218.014  1.00  0.00    -0.252 OA
BRANCH   8  10
ATOM     10  O   UNL     1     214.790 211.536 218.148  1.00  0.00    -0.469 OA
ATOM     11  C   UNL     1     214.759 212.925 217.847  1.00  0.00     0.282 C 
ENDBRANCH   8  10
ENDBRANCH   7   8
ENDBRANCH   6   7
ENDBRANCH   1   6
TORSDOF 7
ENDMDL
MODEL 2
REMARK VINA RESULT:    -2.786     19.744     20.844
REMARK INTER + INTRA:          -4.510
REMARK INTER:                  -3.769
REMARK INTRA:                  -0.741
REMARK UNBOUND:                -0.584
REMARK SMILES CCCCCCCC(=O)OC
REMARK SMILES IDX 5 1 4 2 3 3 2 4 1 5 6 6 7 7 8 8 9 9 10 10 11 11
REMARK H PARENT
REMARK Flexibility Score: inf
ROOT
ATOM      1  C   UNL     1     196.540 200.458 217.633  1.00  0.00     0.001 C 
ENDROOT
BRANCH   1   2
ATOM      2  C   UNL     1     196.272 201.318 218.882  1.00  0.00     0.000 C 
BRANCH   2   3
ATOM      3  C   UNL     1     194.876 201.140 219.511  1.00  0.00    -0.000 C 
BRANCH   3   4
ATOM      4  C   UNL     1     194.875 200.598 220.951  1.00  0.00    -0.003 C 
ATOM      5  C   UNL     1     196.193 199.927 221.335  1.00  0.00     0.004 C 
ENDBRANCH   3   4
ENDBRANCH   2   3
ENDBRANCH   1   2
BRANCH   1   6
ATOM      6  C   UNL     1     195.396 199.483 217.324  1.00  0.00     0.012 C 
BRANCH   6   7
ATOM      7  C   UNL     1     195.911 198.043 217.242  1.00  0.00     0.123 C 
BRANCH   7   8
ATOM      8  C   UNL     1     195.968 197.429 218.604  1.00  0.00     0.305 C 
ATOM      9  O   UNL     1     194.907 197.284 219.272  1.00  0.00    -0.252 OA
BRANCH   8  10
ATOM     10  O   UNL     1     197.205 197.065 219.143  1.00  0.00    -0.469 OA
ATOM     11  C   UNL     1     198.436 197.321 218.478  1.00  0.00     0.282 C 
ENDBRANCH   8  10
ENDBRANCH   7   8
ENDBRANCH   6   7
ENDBRANCH   1   6
TORSDOF 7
ENDMDL
MODEL 3
REMARK VINA RESULT:    -2.784     18.305     19.522
REMARK INTER + INTRA:          -4.507
REMARK INTER:                  -3.972
REMARK INTRA:                  -0.535
REMARK UNBOUND:                -0.584
REMARK SMILES CCCCCCCC(=O)OC
REMARK SMILES IDX 5 1 4 2 3 3 2 4 1 5 6 6 7 7 8 8 9 9 10 10 11 11
REMARK H PARENT
REMARK Flexibility Score: inf
ROOT
ATOM      1  C   UNL     1     197.680 199.835 220.392  1.00  0.00     0.001 C 
ENDROOT
BRANCH   1   2
ATOM      2  C   UNL     1     197.683 200.725 219.136  1.00  0.00     0.000 C 
BRANCH   2   3
ATOM      3  C   UNL     1     196.379 201.511 218.889  1.00  0.00    -0.000 C 
BRANCH   3   4
ATOM      4  C   UNL     1     195.125 200.642 218.688  1.00  0.00    -0.003 C 
ATOM      5  C   UNL     1     195.199 199.768 217.436  1.00  0.00     0.004 C 
ENDBRANCH   3   4
ENDBRANCH   2   3
ENDBRANCH   1   2
BRANCH   1   6
ATOM      6  C   UNL     1     197.688 198.336 220.060  1.00  0.00     0.012 C 
BRANCH   6   7
ATOM      7  C   UNL     1     198.210 198.092 218.641  1.00  0.00     0.123 C 
BRANCH   7   8
ATOM      8  C   UNL     1     199.462 197.275 218.678  1.00  0.00     0.305 C 
ATOM      9  O   UNL     1     200.217 197.329 219.687  1.00  0.00    -0.252 OA
BRANCH   8  10
ATOM     10  O   UNL     1     199.806 196.494 217.571  1.00  0.00    -0.469 OA
ATOM     11  C   UNL     1     201.066 196.599 216.921  1.00  0.00     0.282 C 
ENDBRANCH   8  10
ENDBRANCH   7   8
ENDBRANCH   6   7
ENDBRANCH   1   6
TORSDOF 7
ENDMDL
MODEL 4
REMARK VINA RESULT:    -2.765      8.317      9.910
REMARK INTER + INTRA:          -4.481
REMARK INTER:                  -4.288
REMARK INTRA:                  -0.192
REMARK UNBOUND:                -0.584
REMARK SMILES CCCCCCCC(=O)OC
REMARK SMILES IDX 5 1 4 2 3 3 2 4 1 5 6 6 7 7 8 8 9 9 10 10 11 11
REMARK H PARENT
REMARK Flexibility Score: inf
ROOT
ATOM      1  C   UNL     1     205.702 207.488 216.970  1.00  0.00     0.001 C 
ENDROOT
BRANCH   1   2
ATOM      2  C   UNL     1     204.593 206.427 216.844  1.00  0.00     0.000 C 
BRANCH   2   3
ATOM      3  C   UNL     1     203.772 206.491 215.540  1.00  0.00    -0.000 C 
BRANCH   3   4
ATOM      4  C   UNL     1     203.934 205.277 214.609  1.00  0.00    -0.003 C 
ATOM      5  C   UNL     1     205.332 205.174 214.000  1.00  0.00     0.004 C 
ENDBRANCH   3   4
ENDBRANCH   2   3
ENDBRANCH   1   2
BRANCH   1   6
ATOM      6  C   UNL     1     205.980 207.890 218.425  1.00  0.00     0.012 C 
BRANCH   6   7
ATOM      7  C   UNL     1     205.759 209.391 218.631  1.00  0.00     0.123 C 
BRANCH   7   8
ATOM      8  C   UNL     1     205.601 209.702 220.084  1.00  0.00     0.305 C 
ATOM      9  O   UNL     1     206.052 208.902 220.950  1.00  0.00    -0.252 OA
BRANCH   8  10
ATOM     10  O   UNL     1     204.913 210.856 220.471  1.00  0.00    -0.469 OA
ATOM     11  C   UNL     1     203.520 210.857 220.755  1.00  0.00     0.282 C 
ENDBRANCH   8  10
ENDBRANCH   7   8
ENDBRANCH   6   7
ENDBRANCH   1   6
TORSDOF 7
ENDMDL
MODEL 5
REMARK VINA RESULT:    -2.686     18.312     19.959
REMARK INTER + INTRA:          -4.370
REMARK INTER:                  -3.879
REMARK INTRA:                  -0.491
REMARK UNBOUND:                -0.584
REMARK SMILES CCCCCCCC(=O)OC
REMARK SMILES IDX 5 1 4 2 3 3 2 4 1 5 6 6 7 7 8 8 9 9 10 10 11 11
REMARK H PARENT
REMARK Flexibility Score: inf
ROOT
ATOM      1  C   UNL     1     196.176 198.083 217.442  1.00  0.00     0.001 C 
ENDROOT
BRANCH   1   2
ATOM      2  C   UNL     1     196.014 197.515 218.864  1.00  0.00     0.000 C 
BRANCH   2   3
ATOM      3  C   UNL     1     197.333 197.161 219.580  1.00  0.00    -0.000 C 
BRANCH   3   4
ATOM      4  C   UNL     1     198.327 196.337 218.743  1.00  0.00    -0.003 C 
ATOM      5  C   UNL     1     199.633 197.080 218.466  1.00  0.00     0.004 C 
ENDBRANCH   3   4
ENDBRANCH   2   3
ENDBRANCH   1   2
BRANCH   1   6
ATOM      6  C   UNL     1     195.378 199.375 217.221  1.00  0.00     0.012 C 
BRANCH   6   7
ATOM      7  C   UNL     1     195.029 200.039 218.557  1.00  0.00     0.123 C 
BRANCH   7   8
ATOM      8  C   UNL     1     195.875 201.252 218.774  1.00  0.00     0.305 C 
ATOM      9  O   UNL     1     195.335 202.340 219.120  1.00  0.00    -0.252 OA
BRANCH   8  10
ATOM     10  O   UNL     1     197.252 201.181 218.546  1.00  0.00    -0.469 OA
ATOM     11  C   UNL     1     198.173 200.764 219.546  1.00  0.00     0.282 C 
ENDBRANCH   8  10
ENDBRANCH   7   8
ENDBRANCH   6   7
ENDBRANCH   1   6
TORSDOF 7
ENDMDL
MODEL 6
REMARK VINA RESULT:    -2.677     18.373     20.159
REMARK INTER + INTRA:          -4.356
REMARK INTER:                  -3.858
REMARK INTRA:                  -0.498
REMARK UNBOUND:                -0.584
REMARK SMILES CCCCCCCC(=O)OC
REMARK SMILES IDX 5 1 4 2 3 3 2 4 1 5 6 6 7 7 8 8 9 9 10 10 11 11
REMARK H PARENT
REMARK Flexibility Score: inf
ROOT
ATOM      1  C   UNL     1     196.244 197.427 217.630  1.00  0.00     0.001 C 
ENDROOT
BRANCH   1   2
ATOM      2  C   UNL     1     194.994 198.318 217.757  1.00  0.00     0.000 C 
BRANCH   2   3
ATOM      3  C   UNL     1     195.190 199.784 217.319  1.00  0.00    -0.000 C 
BRANCH   3   4
ATOM      4  C   UNL     1     195.289 200.798 218.472  1.00  0.00    -0.003 C 
ATOM      5  C   UNL     1     196.729 201.189 218.800  1.00  0.00     0.004 C 
ENDBRANCH   3   4
ENDBRANCH   2   3
ENDBRANCH   1   2
BRANCH   1   6
ATOM      6  C   UNL     1     197.020 197.299 218.948  1.00  0.00     0.012 C 
BRANCH   6   7
ATOM      7  C   UNL     1     198.441 197.853 218.803  1.00  0.00     0.123 C 
BRANCH   7   8
ATOM      8  C   UNL     1     199.413 196.744 218.562  1.00  0.00     0.305 C 
ATOM      9  O   UNL     1     199.072 195.550 218.787  1.00  0.00    -0.252 OA
BRANCH   8  10
ATOM     10  O   UNL     1     200.709 197.046 218.134  1.00  0.00    -0.469 OA
ATOM     11  C   UNL     1     201.204 196.657 216.859  1.00  0.00     0.282 C 
ENDBRANCH   8  10
ENDBRANCH   7   8
ENDBRANCH   6   7
ENDBRANCH   1   6
TORSDOF 7
ENDMDL
MODEL 7
REMARK VINA RESULT:    -2.661      1.181      2.029
REMARK INTER + INTRA:          -4.334
REMARK INTER:                  -3.788
REMARK INTRA:                  -0.545
REMARK UNBOUND:                -0.584
REMARK SMILES CCCCCCCC(=O)OC
REMARK SMILES IDX 5 1 4 2 3 3 2 4 1 5 6 6 7 7 8 8 9 9 10 10 11 11
REMARK H PARENT
REMARK Flexibility Score: inf
ROOT
ATOM      1  C   UNL     1     212.562 208.870 217.767  1.00  0.00     0.001 C 
ENDROOT
BRANCH   1   2
ATOM      2  C   UNL     1     212.470 207.982 219.022  1.00  0.00     0.000 C 
BRANCH   2   3
ATOM      3  C   UNL     1     213.532 206.867 219.112  1.00  0.00    -0.000 C 
BRANCH   3   4
ATOM      4  C   UNL     1     214.370 206.871 220.403  1.00  0.00    -0.003 C 
ATOM      5  C   UNL     1     213.897 207.910 221.418  1.00  0.00     0.004 C 
ENDBRANCH   3   4
ENDBRANCH   2   3
ENDBRANCH   1   2
BRANCH   1   6
ATOM      6  C   UNL     1     213.985 209.383 217.502  1.00  0.00     0.012 C 
BRANCH   6   7
ATOM      7  C   UNL     1     214.468 210.275 218.650  1.00  0.00     0.123 C 
BRANCH   7   8
ATOM      8  C   UNL     1     213.890 211.648 218.525  1.00  0.00     0.305 C 
ATOM      9  O   UNL     1     214.290 212.416 217.607  1.00  0.00    -0.252 OA
BRANCH   8  10
ATOM     10  O   UNL     1     212.945 212.083 219.457  1.00  0.00    -0.469 OA
ATOM     11  C   UNL     1     211.545 212.029 219.211  1.00  0.00     0.282 C 
ENDBRANCH   8  10
ENDBRANCH   7   8
ENDBRANCH   6   7
ENDBRANCH   1   6
TORSDOF 7
ENDMDL
MODEL 8
REMARK VINA RESULT:    -2.653     19.130     20.420
REMARK INTER + INTRA:          -4.322
REMARK INTER:                  -3.751
REMARK INTRA:                  -0.571
REMARK UNBOUND:                -0.584
REMARK SMILES CCCCCCCC(=O)OC
REMARK SMILES IDX 5 1 4 2 3 3 2 4 1 5 6 6 7 7 8 8 9 9 10 10 11 11
REMARK H PARENT
REMARK Flexibility Score: inf
ROOT
ATOM      1  C   UNL     1     195.406 198.097 217.543  1.00  0.00     0.001 C 
ENDROOT
BRANCH   1   2
ATOM      2  C   UNL     1     195.301 199.622 217.360  1.00  0.00     0.000 C 
BRANCH   2   3
ATOM      3  C   UNL     1     196.613 200.400 217.587  1.00  0.00    -0.000 C 
BRANCH   3   4
ATOM      4  C   UNL     1     196.647 201.259 218.863  1.00  0.00    -0.003 C 
ATOM      5  C   UNL     1     195.305 201.920 219.173  1.00  0.00     0.004 C 
ENDBRANCH   3   4
ENDBRANCH   2   3
ENDBRANCH   1   2
BRANCH   1   6
ATOM      6  C   UNL     1     195.498 197.679 219.018  1.00  0.00     0.012 C 
BRANCH   6   7
ATOM      7  C   UNL     1     196.645 196.687 219.235  1.00  0.00     0.123 C 
BRANCH   7   8
ATOM      8  C   UNL     1     197.964 197.364 219.043  1.00  0.00     0.305 C 
ATOM      9  O   UNL     1     198.713 197.020 218.087  1.00  0.00    -0.252 OA
BRANCH   8  10
ATOM     10  O   UNL     1     198.375 198.340 219.955  1.00  0.00    -0.469 OA
ATOM     11  C   UNL     1     198.355 198.132 221.361  1.00  0.00     0.282 C 
ENDBRANCH   8  10
ENDBRANCH   7   8
ENDBRANCH   6   7
ENDBRANCH   1   6
TORSDOF 7
ENDMDL
MODEL 9
REMARK VINA RESULT:    -2.652     18.252     20.047
REMARK INTER + INTRA:          -4.321
REMARK INTER:                  -3.653
REMARK INTRA:                  -0.668
REMARK UNBOUND:                -0.584
REMARK SMILES CCCCCCCC(=O)OC
REMARK SMILES IDX 5 1 4 2 3 3 2 4 1 5 6 6 7 7 8 8 9 9 10 10 11 11
REMARK H PARENT
REMARK Flexibility Score: inf
ROOT
ATOM      1  C   UNL     1     196.209 201.591 219.112  1.00  0.00     0.001 C 
ENDROOT
BRANCH   1   2
ATOM      2  C   UNL     1     194.955 200.831 218.641  1.00  0.00     0.000 C 
BRANCH   2   3
ATOM      3  C   UNL     1     195.191 199.829 217.494  1.00  0.00    -0.000 C 
BRANCH   3   4
ATOM      4  C   UNL     1     194.876 198.362 217.837  1.00  0.00    -0.003 C 
ATOM      5  C   UNL     1     196.000 197.404 217.444  1.00  0.00     0.004 C 
ENDBRANCH   3   4
ENDBRANCH   2   3
ENDBRANCH   1   2
BRANCH   1   6
ATOM      6  C   UNL     1     197.515 200.871 218.745  1.00  0.00     0.012 C 
BRANCH   6   7
ATOM      7  C   UNL     1     198.286 200.459 220.002  1.00  0.00     0.123 C 
BRANCH   7   8
ATOM      8  C   UNL     1     198.105 199.000 220.272  1.00  0.00     0.305 C 
ATOM      9  O   UNL     1     196.999 198.574 220.706  1.00  0.00    -0.252 OA
BRANCH   8  10
ATOM     10  O   UNL     1     199.180 198.127 220.084  1.00  0.00    -0.469 OA
ATOM     11  C   UNL     1     199.448 197.499 218.837  1.00  0.00     0.282 C 
ENDBRANCH   8  10
ENDBRANCH   7   8
ENDBRANCH   6   7
ENDBRANCH   1   6
TORSDOF 7
ENDMDL
