MODEL 1
REMARK VINA RESULT:    -2.841      0.000      0.000
REMARK INTER + INTRA:          -6.554
REMARK INTER:                  -5.166
REMARK INTRA:                  -1.388
REMARK UNBOUND:                -1.388
REMARK SMILES CCCCCCCCCCCCCC[C@@H](C)C(=O)[O-]
REMARK SMILES IDX 9 1 10 2 11 3 12 4 13 5 14 6 15 7 16 8 17 9 18 10 19 11 8 12
REMARK SMILES IDX 7 13 6 14 5 15 4 16 3 17 2 18 1 19
REMARK H PARENT
REMARK Flexibility Score: inf
ROOT
ATOM      1  C   UNL     1       8.378 -35.884  13.776  1.00  0.00     0.000 C 
ENDROOT
BRANCH   1   2
ATOM      2  C   UNL     1       7.100 -35.777  12.928  1.00  0.00     0.000 C 
BRANCH   2   3
ATOM      3  C   UNL     1       6.278 -34.519  13.252  1.00  0.00     0.000 C 
BRANCH   3   4
ATOM      4  C   UNL     1       6.192 -34.244  14.764  1.00  0.00     0.000 C 
BRANCH   4   5
ATOM      5  C   UNL     1       6.304 -32.749  15.107  1.00  0.00     0.001 C 
BRANCH   5   6
ATOM      6  C   UNL     1       7.675 -32.282  15.648  1.00  0.00     0.009 C 
BRANCH   6   7
ATOM      7  C   UNL     1       8.086 -32.790  17.055  1.00  0.00     0.032 C 
ATOM      8  C   UNL     1       8.714 -34.191  17.026  1.00  0.00     0.014 C 
BRANCH   7   9
ATOM      9  C   UNL     1       8.939 -31.794  17.802  1.00  0.00     0.044 C 
ATOM     10  O   UNL     1       8.831 -31.692  19.053  1.00  0.00    -0.550 OA
ATOM     11  O   UNL     1       9.868 -31.002  17.137  1.00  0.00    -0.550 OA
ENDBRANCH   7   9
ENDBRANCH   6   7
ENDBRANCH   5   6
ENDBRANCH   4   5
ENDBRANCH   3   4
ENDBRANCH   2   3
ENDBRANCH   1   2
BRANCH   1  12
ATOM     12  C   UNL     1       9.664 -35.826  12.931  1.00  0.00     0.000 C 
BRANCH  12  13
ATOM     13  C   UNL     1      10.362 -34.451  12.896  1.00  0.00    -0.000 C 
BRANCH  13  14
ATOM     14  C   UNL     1       9.412 -33.238  12.880  1.00  0.00    -0.000 C 
BRANCH  14  15
ATOM     15  C   UNL     1      10.062 -31.893  13.257  1.00  0.00    -0.000 C 
BRANCH  15  16
ATOM     16  C   UNL     1      11.209 -31.986  14.280  1.00  0.00    -0.000 C 
BRANCH  16  17
ATOM     17  C   UNL     1      12.171 -30.787  14.211  1.00  0.00    -0.000 C 
BRANCH  17  18
ATOM     18  C   UNL     1      13.632 -31.217  14.010  1.00  0.00    -0.003 C 
ATOM     19  C   UNL     1      14.558 -30.043  13.693  1.00  0.00     0.004 C 
ENDBRANCH  17  18
ENDBRANCH  16  17
ENDBRANCH  15  16
ENDBRANCH  14  15
ENDBRANCH  13  14
ENDBRANCH  12  13
ENDBRANCH   1  12
TORSDOF 14
ENDMDL
MODEL 2
REMARK VINA RESULT:    -2.436      1.303      2.715
REMARK INTER + INTRA:          -5.818
REMARK INTER:                  -4.706
REMARK INTRA:                  -1.111
REMARK UNBOUND:                -1.388
REMARK SMILES CCCCCCCCCCCCCC[C@@H](C)C(=O)[O-]
REMARK SMILES IDX 9 1 10 2 11 3 12 4 13 5 14 6 15 7 16 8 17 9 18 10 19 11 8 12
REMARK SMILES IDX 7 13 6 14 5 15 4 16 3 17 2 18 1 19
REMARK H PARENT
REMARK Flexibility Score: inf
ROOT
ATOM      1  C   UNL     1       9.719 -33.752  12.900  1.00  0.00     0.000 C 
ENDROOT
BRANCH   1   2
ATOM      2  C   UNL     1       9.745 -35.268  13.155  1.00  0.00     0.000 C 
BRANCH   2   3
ATOM      3  C   UNL     1       8.337 -35.863  13.328  1.00  0.00     0.000 C 
BRANCH   3   4
ATOM      4  C   UNL     1       7.357 -34.875  13.986  1.00  0.00     0.000 C 
BRANCH   4   5
ATOM      5  C   UNL     1       7.380 -34.946  15.523  1.00  0.00     0.001 C 
BRANCH   5   6
ATOM      6  C   UNL     1       8.514 -34.158  16.217  1.00  0.00     0.009 C 
BRANCH   6   7
ATOM      7  C   UNL     1       8.423 -32.610  16.177  1.00  0.00     0.032 C 
ATOM      8  C   UNL     1       7.028 -32.103  15.782  1.00  0.00     0.014 C 
BRANCH   7   9
ATOM      9  C   UNL     1       8.930 -31.969  17.445  1.00  0.00     0.044 C 
ATOM     10  O   UNL     1       8.501 -32.366  18.561  1.00  0.00    -0.550 OA
ATOM     11  O   UNL     1       9.887 -30.961  17.408  1.00  0.00    -0.550 OA
ENDBRANCH   7   9
ENDBRANCH   6   7
ENDBRANCH   5   6
ENDBRANCH   4   5
ENDBRANCH   3   4
ENDBRANCH   2   3
ENDBRANCH   1   2
BRANCH   1  12
ATOM     12  C   UNL     1      11.052 -33.064  13.248  1.00  0.00     0.000 C 
BRANCH  12  13
ATOM     13  C   UNL     1      10.922 -31.633  13.809  1.00  0.00    -0.000 C 
BRANCH  13  14
ATOM     14  C   UNL     1      12.167 -31.108  14.550  1.00  0.00    -0.000 C 
BRANCH  14  15
ATOM     15  C   UNL     1      13.516 -31.465  13.895  1.00  0.00    -0.000 C 
BRANCH  15  16
ATOM     16  C   UNL     1      14.461 -30.273  13.654  1.00  0.00    -0.000 C 
BRANCH  16  17
ATOM     17  C   UNL     1      14.850 -29.547  14.953  1.00  0.00    -0.000 C 
BRANCH  17  18
ATOM     18  C   UNL     1      15.224 -28.076  14.714  1.00  0.00    -0.003 C 
ATOM     19  C   UNL     1      15.934 -27.442  15.910  1.00  0.00     0.004 C 
ENDBRANCH  17  18
ENDBRANCH  16  17
ENDBRANCH  15  16
ENDBRANCH  14  15
ENDBRANCH  13  14
ENDBRANCH  12  13
ENDBRANCH   1  12
TORSDOF 14
ENDMDL
MODEL 3
REMARK VINA RESULT:    -2.318      1.432      2.085
REMARK INTER + INTRA:          -5.603
REMARK INTER:                  -3.813
REMARK INTRA:                  -1.791
REMARK UNBOUND:                -1.388
REMARK SMILES CCCCCCCCCCCCCC[C@@H](C)C(=O)[O-]
REMARK SMILES IDX 9 1 10 2 11 3 12 4 13 5 14 6 15 7 16 8 17 9 18 10 19 11 8 12
REMARK SMILES IDX 7 13 6 14 5 15 4 16 3 17 2 18 1 19
REMARK H PARENT
REMARK Flexibility Score: inf
ROOT
ATOM      1  C   UNL     1       7.283 -33.699  12.875  1.00  0.00     0.000 C 
ENDROOT
BRANCH   1   2
ATOM      2  C   UNL     1       5.928 -33.993  13.541  1.00  0.00     0.000 C 
BRANCH   2   3
ATOM      3  C   UNL     1       6.017 -34.026  15.075  1.00  0.00     0.000 C 
BRANCH   3   4
ATOM      4  C   UNL     1       7.055 -35.044  15.583  1.00  0.00     0.000 C 
BRANCH   4   5
ATOM      5  C   UNL     1       8.154 -34.398  16.444  1.00  0.00     0.001 C 
BRANCH   5   6
ATOM      6  C   UNL     1       8.046 -32.868  16.639  1.00  0.00     0.009 C 
BRANCH   6   7
ATOM      7  C   UNL     1       9.174 -32.182  17.453  1.00  0.00     0.032 C 
ATOM      8  C   UNL     1       9.840 -31.025  16.693  1.00  0.00     0.014 C 
BRANCH   7   9
ATOM      9  C   UNL     1       8.725 -31.778  18.835  1.00  0.00     0.044 C 
ATOM     10  O   UNL     1       8.195 -32.632  19.595  1.00  0.00    -0.550 OA
ATOM     11  O   UNL     1       8.910 -30.480  19.301  1.00  0.00    -0.550 OA
ENDBRANCH   7   9
ENDBRANCH   6   7
ENDBRANCH   5   6
ENDBRANCH   4   5
ENDBRANCH   3   4
ENDBRANCH   2   3
ENDBRANCH   1   2
BRANCH   1  12
ATOM     12  C   UNL     1       7.783 -32.268  13.145  1.00  0.00     0.000 C 
BRANCH  12  13
ATOM     13  C   UNL     1       9.296 -32.053  12.930  1.00  0.00    -0.000 C 
BRANCH  13  14
ATOM     14  C   UNL     1      10.206 -33.076  13.637  1.00  0.00    -0.000 C 
BRANCH  14  15
ATOM     15  C   UNL     1      11.554 -33.344  12.939  1.00  0.00    -0.000 C 
BRANCH  15  16
ATOM     16  C   UNL     1      12.766 -32.629  13.564  1.00  0.00    -0.000 C 
BRANCH  16  17
ATOM     17  C   UNL     1      12.364 -31.474  14.497  1.00  0.00    -0.000 C 
BRANCH  17  18
ATOM     18  C   UNL     1      13.356 -30.302  14.444  1.00  0.00    -0.003 C 
ATOM     19  C   UNL     1      14.497 -30.535  13.454  1.00  0.00     0.004 C 
ENDBRANCH  17  18
ENDBRANCH  16  17
ENDBRANCH  15  16
ENDBRANCH  14  15
ENDBRANCH  13  14
ENDBRANCH  12  13
ENDBRANCH   1  12
TORSDOF 14
ENDMDL
MODEL 4
REMARK VINA RESULT:    -1.979      2.298      4.994
REMARK INTER + INTRA:          -4.986
REMARK INTER:                  -3.296
REMARK INTRA:                  -1.690
REMARK UNBOUND:                -1.388
REMARK SMILES CCCCCCCCCCCCCC[C@@H](C)C(=O)[O-]
REMARK SMILES IDX 9 1 10 2 11 3 12 4 13 5 14 6 15 7 16 8 17 9 18 10 19 11 8 12
REMARK SMILES IDX 7 13 6 14 5 15 4 16 3 17 2 18 1 19
REMARK H PARENT
REMARK Flexibility Score: inf
ROOT
ATOM      1  C   UNL     1       6.701 -34.967  13.133  1.00  0.00     0.000 C 
ENDROOT
BRANCH   1   2
ATOM      2  C   UNL     1       8.013 -34.205  12.882  1.00  0.00     0.000 C 
BRANCH   2   3
ATOM      3  C   UNL     1       7.883 -32.697  13.153  1.00  0.00     0.000 C 
BRANCH   3   4
ATOM      4  C   UNL     1       9.237 -31.968  13.087  1.00  0.00     0.000 C 
BRANCH   4   5
ATOM      5  C   UNL     1      10.422 -32.925  12.875  1.00  0.00     0.001 C 
BRANCH   5   6
ATOM      6  C   UNL     1      11.587 -32.790  13.883  1.00  0.00     0.009 C 
BRANCH   6   7
ATOM      7  C   UNL     1      12.041 -31.351  14.245  1.00  0.00     0.032 C 
ATOM      8  C   UNL     1      11.443 -30.849  15.567  1.00  0.00     0.014 C 
BRANCH   7   9
ATOM      9  C   UNL     1      13.540 -31.190  14.195  1.00  0.00     0.044 C 
ATOM     10  O   UNL     1      14.111 -30.404  14.997  1.00  0.00    -0.550 OA
ATOM     11  O   UNL     1      14.312 -31.916  13.294  1.00  0.00    -0.550 OA
ENDBRANCH   7   9
ENDBRANCH   6   7
ENDBRANCH   5   6
ENDBRANCH   4   5
ENDBRANCH   3   4
ENDBRANCH   2   3
ENDBRANCH   1   2
BRANCH   1  12
ATOM     12  C   UNL     1       6.890 -36.206  14.026  1.00  0.00     0.000 C 
BRANCH  12  13
ATOM     13  C   UNL     1       6.140 -36.161  15.373  1.00  0.00    -0.000 C 
BRANCH  13  14
ATOM     14  C   UNL     1       7.005 -36.468  16.612  1.00  0.00    -0.000 C 
BRANCH  14  15
ATOM     15  C   UNL     1       8.048 -35.389  16.965  1.00  0.00    -0.000 C 
BRANCH  15  16
ATOM     16  C   UNL     1       7.670 -33.955  16.549  1.00  0.00    -0.000 C 
BRANCH  16  17
ATOM     17  C   UNL     1       8.830 -32.959  16.719  1.00  0.00    -0.000 C 
BRANCH  17  18
ATOM     18  C   UNL     1       8.399 -31.675  17.445  1.00  0.00    -0.003 C 
ATOM     19  C   UNL     1       8.918 -31.603  18.881  1.00  0.00     0.004 C 
ENDBRANCH  17  18
ENDBRANCH  16  17
ENDBRANCH  15  16
ENDBRANCH  14  15
ENDBRANCH  13  14
ENDBRANCH  12  13
ENDBRANCH   1  12
TORSDOF 14
ENDMDL
MODEL 5
REMARK VINA RESULT:    -1.977      2.666      4.774
REMARK INTER + INTRA:          -4.982
REMARK INTER:                  -3.676
REMARK INTRA:                  -1.307
REMARK UNBOUND:                -1.388
REMARK SMILES CCCCCCCCCCCCCC[C@@H](C)C(=O)[O-]
REMARK SMILES IDX 9 1 10 2 11 3 12 4 13 5 14 6 15 7 16 8 17 9 18 10 19 11 8 12
REMARK SMILES IDX 7 13 6 14 5 15 4 16 3 17 2 18 1 19
REMARK H PARENT
REMARK Flexibility Score: inf
ROOT
ATOM      1  C   UNL     1       9.629 -31.485  18.403  1.00  0.00     0.000 C 
ENDROOT
BRANCH   1   2
ATOM      2  C   UNL     1       8.315 -32.214  18.080  1.00  0.00     0.000 C 
BRANCH   2   3
ATOM      3  C   UNL     1       8.360 -32.942  16.726  1.00  0.00     0.000 C 
BRANCH   3   4
ATOM      4  C   UNL     1       7.305 -32.412  15.737  1.00  0.00     0.000 C 
BRANCH   4   5
ATOM      5  C   UNL     1       7.693 -32.646  14.267  1.00  0.00     0.001 C 
BRANCH   5   6
ATOM      6  C   UNL     1       7.297 -34.018  13.676  1.00  0.00     0.009 C 
BRANCH   6   7
ATOM      7  C   UNL     1       8.413 -34.828  12.965  1.00  0.00     0.032 C 
ATOM      8  C   UNL     1       9.822 -34.301  13.273  1.00  0.00     0.014 C 
BRANCH   7   9
ATOM      9  C   UNL     1       8.291 -36.313  13.204  1.00  0.00     0.044 C 
ATOM     10  O   UNL     1       9.306 -37.050  13.090  1.00  0.00    -0.550 OA
ATOM     11  O   UNL     1       7.079 -36.883  13.577  1.00  0.00    -0.550 OA
ENDBRANCH   7   9
ENDBRANCH   6   7
ENDBRANCH   5   6
ENDBRANCH   4   5
ENDBRANCH   3   4
ENDBRANCH   2   3
ENDBRANCH   1   2
BRANCH   1  12
ATOM     12  C   UNL     1       9.996 -30.418  17.355  1.00  0.00     0.000 C 
BRANCH  12  13
ATOM     13  C   UNL     1      11.242 -30.739  16.505  1.00  0.00    -0.000 C 
BRANCH  13  14
ATOM     14  C   UNL     1      10.946 -31.269  15.088  1.00  0.00    -0.000 C 
BRANCH  14  15
ATOM     15  C   UNL     1      12.160 -31.314  14.140  1.00  0.00    -0.000 C 
BRANCH  15  16
ATOM     16  C   UNL     1      13.486 -30.827  14.752  1.00  0.00    -0.000 C 
BRANCH  16  17
ATOM     17  C   UNL     1      14.492 -30.345  13.694  1.00  0.00    -0.000 C 
BRANCH  17  18
ATOM     18  C   UNL     1      14.808 -28.847  13.823  1.00  0.00    -0.003 C 
ATOM     19  C   UNL     1      15.318 -28.466  15.213  1.00  0.00     0.004 C 
ENDBRANCH  17  18
ENDBRANCH  16  17
ENDBRANCH  15  16
ENDBRANCH  14  15
ENDBRANCH  13  14
ENDBRANCH  12  13
ENDBRANCH   1  12
TORSDOF 14
ENDMDL
MODEL 6
REMARK VINA RESULT:    -1.971      1.840      3.864
REMARK INTER + INTRA:          -4.973
REMARK INTER:                  -3.812
REMARK INTRA:                  -1.161
REMARK UNBOUND:                -1.388
REMARK SMILES CCCCCCCCCCCCCC[C@@H](C)C(=O)[O-]
REMARK SMILES IDX 9 1 10 2 11 3 12 4 13 5 14 6 15 7 16 8 17 9 18 10 19 11 8 12
REMARK SMILES IDX 7 13 6 14 5 15 4 16 3 17 2 18 1 19
REMARK H PARENT
REMARK Flexibility Score: inf
ROOT
ATOM      1  C   UNL     1      10.299 -34.783  13.869  1.00  0.00     0.000 C 
ENDROOT
BRANCH   1   2
ATOM      2  C   UNL     1      10.023 -36.150  13.222  1.00  0.00     0.000 C 
BRANCH   2   3
ATOM      3  C   UNL     1       8.539 -36.352  12.875  1.00  0.00     0.000 C 
BRANCH   3   4
ATOM      4  C   UNL     1       7.697 -36.756  14.099  1.00  0.00     0.000 C 
BRANCH   4   5
ATOM      5  C   UNL     1       6.404 -35.933  14.233  1.00  0.00     0.001 C 
BRANCH   5   6
ATOM      6  C   UNL     1       6.311 -34.673  13.342  1.00  0.00     0.009 C 
BRANCH   6   7
ATOM      7  C   UNL     1       7.218 -33.474  13.723  1.00  0.00     0.032 C 
ATOM      8  C   UNL     1       6.910 -32.208  12.909  1.00  0.00     0.014 C 
BRANCH   7   9
ATOM      9  C   UNL     1       7.235 -33.211  15.209  1.00  0.00     0.044 C 
ATOM     10  O   UNL     1       6.459 -32.349  15.700  1.00  0.00    -0.550 OA
ATOM     11  O   UNL     1       8.075 -33.926  16.056  1.00  0.00    -0.550 OA
ENDBRANCH   7   9
ENDBRANCH   6   7
ENDBRANCH   5   6
ENDBRANCH   4   5
ENDBRANCH   3   4
ENDBRANCH   2   3
ENDBRANCH   1   2
BRANCH   1  12
ATOM     12  C   UNL     1      10.917 -33.771  12.888  1.00  0.00     0.000 C 
BRANCH  12  13
ATOM     13  C   UNL     1      10.792 -32.292  13.309  1.00  0.00    -0.000 C 
BRANCH  13  14
ATOM     14  C   UNL     1      12.023 -31.715  14.037  1.00  0.00    -0.000 C 
BRANCH  14  15
ATOM     15  C   UNL     1      11.708 -30.895  15.304  1.00  0.00    -0.000 C 
BRANCH  15  16
ATOM     16  C   UNL     1      10.326 -31.164  15.929  1.00  0.00    -0.000 C 
BRANCH  16  17
ATOM     17  C   UNL     1      10.250 -30.751  17.409  1.00  0.00    -0.000 C 
BRANCH  17  18
ATOM     18  C   UNL     1       9.317 -31.659  18.224  1.00  0.00    -0.003 C 
ATOM     19  C   UNL     1       9.131 -31.179  19.663  1.00  0.00     0.004 C 
ENDBRANCH  17  18
ENDBRANCH  16  17
ENDBRANCH  15  16
ENDBRANCH  14  15
ENDBRANCH  13  14
ENDBRANCH  12  13
ENDBRANCH   1  12
TORSDOF 14
ENDMDL
MODEL 7
REMARK VINA RESULT:    -1.639      2.381      5.337
REMARK INTER + INTRA:          -4.369
REMARK INTER:                  -3.089
REMARK INTRA:                  -1.279
REMARK UNBOUND:                -1.388
REMARK SMILES CCCCCCCCCCCCCC[C@@H](C)C(=O)[O-]
REMARK SMILES IDX 9 1 10 2 11 3 12 4 13 5 14 6 15 7 16 8 17 9 18 10 19 11 8 12
REMARK SMILES IDX 7 13 6 14 5 15 4 16 3 17 2 18 1 19
REMARK H PARENT
REMARK Flexibility Score: inf
ROOT
ATOM      1  C   UNL     1       8.342 -33.130  17.079  1.00  0.00     0.000 C 
ENDROOT
BRANCH   1   2
ATOM      2  C   UNL     1       8.328 -31.966  16.075  1.00  0.00     0.000 C 
BRANCH   2   3
ATOM      3  C   UNL     1       7.726 -32.362  14.717  1.00  0.00     0.000 C 
BRANCH   3   4
ATOM      4  C   UNL     1       8.765 -32.333  13.581  1.00  0.00     0.000 C 
BRANCH   4   5
ATOM      5  C   UNL     1      10.211 -32.465  14.090  1.00  0.00     0.001 C 
BRANCH   5   6
ATOM      6  C   UNL     1      11.253 -31.552  13.403  1.00  0.00     0.009 C 
BRANCH   6   7
ATOM      7  C   UNL     1      12.179 -30.720  14.329  1.00  0.00     0.032 C 
ATOM      8  C   UNL     1      11.768 -30.793  15.807  1.00  0.00     0.014 C 
BRANCH   7   9
ATOM      9  C   UNL     1      13.639 -31.039  14.123  1.00  0.00     0.044 C 
ATOM     10  O   UNL     1      13.973 -32.154  13.642  1.00  0.00    -0.550 OA
ATOM     11  O   UNL     1      14.628 -30.111  14.430  1.00  0.00    -0.550 OA
ENDBRANCH   7   9
ENDBRANCH   6   7
ENDBRANCH   5   6
ENDBRANCH   4   5
ENDBRANCH   3   4
ENDBRANCH   2   3
ENDBRANCH   1   2
BRANCH   1  12
ATOM     12  C   UNL     1       8.452 -34.506  16.398  1.00  0.00     0.000 C 
BRANCH  12  13
ATOM     13  C   UNL     1       7.130 -35.295  16.300  1.00  0.00    -0.000 C 
BRANCH  13  14
ATOM     14  C   UNL     1       6.387 -35.159  14.957  1.00  0.00    -0.000 C 
BRANCH  14  15
ATOM     15  C   UNL     1       6.152 -36.483  14.202  1.00  0.00    -0.000 C 
BRANCH  15  16
ATOM     16  C   UNL     1       7.416 -37.123  13.599  1.00  0.00    -0.000 C 
BRANCH  16  17
ATOM     17  C   UNL     1       8.364 -36.092  12.964  1.00  0.00    -0.000 C 
BRANCH  17  18
ATOM     18  C   UNL     1       9.811 -36.602  12.875  1.00  0.00    -0.003 C 
ATOM     19  C   UNL     1      10.825 -35.611  13.447  1.00  0.00     0.004 C 
ENDBRANCH  17  18
ENDBRANCH  16  17
ENDBRANCH  15  16
ENDBRANCH  14  15
ENDBRANCH  13  14
ENDBRANCH  12  13
ENDBRANCH   1  12
TORSDOF 14
ENDMDL
MODEL 8
REMARK VINA RESULT:    -1.328      2.215      4.990
REMARK INTER + INTRA:          -3.802
REMARK INTER:                  -3.353
REMARK INTRA:                  -0.449
REMARK UNBOUND:                -1.388
REMARK SMILES CCCCCCCCCCCCCC[C@@H](C)C(=O)[O-]
REMARK SMILES IDX 9 1 10 2 11 3 12 4 13 5 14 6 15 7 16 8 17 9 18 10 19 11 8 12
REMARK SMILES IDX 7 13 6 14 5 15 4 16 3 17 2 18 1 19
REMARK H PARENT
REMARK Flexibility Score: inf
ROOT
ATOM      1  C   UNL     1      10.485 -33.371  13.939  1.00  0.00     0.000 C 
ENDROOT
BRANCH   1   2
ATOM      2  C   UNL     1      11.363 -34.059  12.880  1.00  0.00     0.000 C 
BRANCH   2   3
ATOM      3  C   UNL     1      11.642 -35.534  13.210  1.00  0.00     0.000 C 
BRANCH   3   4
ATOM      4  C   UNL     1      10.437 -36.443  12.909  1.00  0.00     0.000 C 
BRANCH   4   5
ATOM      5  C   UNL     1       9.101 -35.680  12.892  1.00  0.00     0.001 C 
BRANCH   5   6
ATOM      6  C   UNL     1       7.826 -36.551  12.970  1.00  0.00     0.009 C 
BRANCH   6   7
ATOM      7  C   UNL     1       6.684 -36.044  13.890  1.00  0.00     0.032 C 
ATOM      8  C   UNL     1       6.684 -36.719  15.270  1.00  0.00     0.014 C 
BRANCH   7   9
ATOM      9  C   UNL     1       6.644 -34.539  13.986  1.00  0.00     0.044 C 
ATOM     10  O   UNL     1       6.901 -33.976  15.083  1.00  0.00    -0.550 OA
ATOM     11  O   UNL     1       6.355 -33.755  12.875  1.00  0.00    -0.550 OA
ENDBRANCH   7   9
ENDBRANCH   6   7
ENDBRANCH   5   6
ENDBRANCH   4   5
ENDBRANCH   3   4
ENDBRANCH   2   3
ENDBRANCH   1   2
BRANCH   1  12
ATOM     12  C   UNL     1      10.465 -31.838  13.795  1.00  0.00     0.000 C 
BRANCH  12  13
ATOM     13  C   UNL     1      11.768 -31.126  14.213  1.00  0.00    -0.000 C 
BRANCH  13  14
ATOM     14  C   UNL     1      12.012 -31.053  15.733  1.00  0.00    -0.000 C 
BRANCH  14  15
ATOM     15  C   UNL     1      11.103 -30.069  16.495  1.00  0.00    -0.000 C 
BRANCH  15  16
ATOM     16  C   UNL     1      10.127 -30.720  17.493  1.00  0.00    -0.000 C 
BRANCH  16  17
ATOM     17  C   UNL     1       9.151 -31.700  16.821  1.00  0.00    -0.000 C 
BRANCH  17  18
ATOM     18  C   UNL     1       8.482 -32.646  17.830  1.00  0.00    -0.003 C 
ATOM     19  C   UNL     1       8.440 -32.071  19.245  1.00  0.00     0.004 C 
ENDBRANCH  17  18
ENDBRANCH  16  17
ENDBRANCH  15  16
ENDBRANCH  14  15
ENDBRANCH  13  14
ENDBRANCH  12  13
ENDBRANCH   1  12
TORSDOF 14
ENDMDL
