MODEL 1
REMARK VINA RESULT:    -6.792      0.000      0.000
REMARK INTER + INTRA:          -7.600
REMARK INTER:                  -7.388
REMARK INTRA:                  -0.212
REMARK UNBOUND:                -0.212
REMARK SMILES C=C1C[C@@]2(O)O[C@@]3(C[C@@H]2C(C)C)[C@H](C)CC[C@@H]13
REMARK SMILES IDX 14 1 13 2 15 3 16 4 17 5 7 6 8 7 9 8 4 9 6 10 3 11 2 12 1 13
REMARK SMILES IDX 10 14 11 15 12 16 5 17
REMARK H PARENT 5 18
REMARK Flexibility Score: inf
ROOT
ATOM      1  C   UNL     1      -6.165  -7.407   4.475  1.00  0.00     0.011 C 
ATOM      2  C   UNL     1      -5.247  -6.235   4.875  1.00  0.00     0.019 C 
ATOM      3  C   UNL     1      -3.982  -6.757   5.563  1.00  0.00     0.007 C 
ATOM      4  C   UNL     1      -4.250  -6.726   7.071  1.00  0.00     0.011 C 
ATOM      5  C   UNL     1      -5.567  -5.965   7.283  1.00  0.00     0.047 C 
ATOM      6  C   UNL     1      -5.869  -5.293   5.920  1.00  0.00     0.081 C 
ATOM      7  C   UNL     1      -7.346  -4.967   5.713  1.00  0.00     0.046 C 
ATOM      8  C   UNL     1      -7.513  -3.668   6.495  1.00  0.00     0.054 C 
ATOM      9  C   UNL     1      -6.026  -3.220   6.695  1.00  0.00     0.173 C 
ATOM     10  O   UNL     1      -5.227  -4.044   5.872  1.00  0.00    -0.342 OA
ATOM     11  C   UNL     1      -5.581  -3.465   8.154  1.00  0.00     0.096 C 
ATOM     12  C   UNL     1      -5.476  -4.955   8.428  1.00  0.00    -0.066 C 
ATOM     13  C   UNL     1      -5.305  -5.384   9.686  1.00  0.00     0.008 C 
ENDROOT
BRANCH   8  14
ATOM     14  C   UNL     1      -8.457  -2.630   5.808  1.00  0.00    -0.009 C 
ATOM     15  C   UNL     1      -9.372  -1.949   6.844  1.00  0.00     0.008 C 
ATOM     16  C   UNL     1      -9.355  -3.286   4.739  1.00  0.00     0.008 C 
ENDBRANCH   8  14
BRANCH   9  17
ATOM     17  O   UNL     1      -5.824  -1.874   6.342  1.00  0.00    -0.365 OA
ATOM     18  H   UNL     1      -5.344  -1.862   5.473  1.00  0.00     0.214 HD
ENDBRANCH   9  17
TORSDOF 2
ENDMDL
MODEL 2
REMARK VINA RESULT:    -6.523      1.294      4.872
REMARK INTER + INTRA:          -7.308
REMARK INTER:                  -7.090
REMARK INTRA:                  -0.218
REMARK UNBOUND:                -0.212
REMARK SMILES C=C1C[C@@]2(O)O[C@@]3(C[C@@H]2C(C)C)[C@H](C)CC[C@@H]13
REMARK SMILES IDX 14 1 13 2 15 3 16 4 17 5 7 6 8 7 9 8 4 9 6 10 3 11 2 12 1 13
REMARK SMILES IDX 10 14 11 15 12 16 5 17
REMARK H PARENT 5 18
REMARK Flexibility Score: inf
ROOT
ATOM      1  C   UNL     1      -5.640  -3.465   9.979  1.00  0.00     0.011 C 
ATOM      2  C   UNL     1      -5.529  -2.994   8.515  1.00  0.00     0.019 C 
ATOM      3  C   UNL     1      -6.448  -1.795   8.268  1.00  0.00     0.007 C 
ATOM      4  C   UNL     1      -7.767  -2.349   7.721  1.00  0.00     0.011 C 
ATOM      5  C   UNL     1      -7.543  -3.837   7.418  1.00  0.00     0.047 C 
ATOM      6  C   UNL     1      -6.009  -4.039   7.493  1.00  0.00     0.081 C 
ATOM      7  C   UNL     1      -5.595  -5.479   7.783  1.00  0.00     0.046 C 
ATOM      8  C   UNL     1      -5.707  -6.141   6.413  1.00  0.00     0.054 C 
ATOM      9  C   UNL     1      -5.771  -4.898   5.462  1.00  0.00     0.173 C 
ATOM     10  O   UNL     1      -5.447  -3.762   6.235  1.00  0.00    -0.342 OA
ATOM     11  C   UNL     1      -7.210  -4.697   4.936  1.00  0.00     0.096 C 
ATOM     12  C   UNL     1      -8.123  -4.248   6.063  1.00  0.00    -0.066 C 
ATOM     13  C   UNL     1      -9.448  -4.216   5.866  1.00  0.00     0.008 C 
ENDROOT
BRANCH   8  14
ATOM     14  C   UNL     1      -4.577  -7.177   6.114  1.00  0.00    -0.009 C 
ATOM     15  C   UNL     1      -5.167  -8.485   5.552  1.00  0.00     0.008 C 
ATOM     16  C   UNL     1      -3.766  -7.527   7.379  1.00  0.00     0.008 C 
ENDBRANCH   8  14
BRANCH   9  17
ATOM     17  O   UNL     1      -4.869  -5.004   4.388  1.00  0.00    -0.365 OA
ATOM     18  H   UNL     1      -4.459  -5.907   4.432  1.00  0.00     0.214 HD
ENDBRANCH   9  17
TORSDOF 2
ENDMDL
MODEL 3
REMARK VINA RESULT:    -6.457      1.091      1.444
REMARK INTER + INTRA:          -7.235
REMARK INTER:                  -7.009
REMARK INTRA:                  -0.226
REMARK UNBOUND:                -0.212
REMARK SMILES C=C1C[C@@]2(O)O[C@@]3(C[C@@H]2C(C)C)[C@H](C)CC[C@@H]13
REMARK SMILES IDX 14 1 13 2 15 3 16 4 17 5 7 6 8 7 9 8 4 9 6 10 3 11 2 12 1 13
REMARK SMILES IDX 10 14 11 15 12 16 5 17
REMARK H PARENT 5 18
REMARK Flexibility Score: inf
ROOT
ATOM      1  C   UNL     1      -8.114  -6.155   4.254  1.00  0.00     0.011 C 
ATOM      2  C   UNL     1      -6.806  -5.363   4.450  1.00  0.00     0.019 C 
ATOM      3  C   UNL     1      -5.597  -6.300   4.381  1.00  0.00     0.007 C 
ATOM      4  C   UNL     1      -5.266  -6.707   5.820  1.00  0.00     0.011 C 
ATOM      5  C   UNL     1      -6.115  -5.826   6.748  1.00  0.00     0.047 C 
ATOM      6  C   UNL     1      -6.683  -4.709   5.837  1.00  0.00     0.081 C 
ATOM      7  C   UNL     1      -7.960  -4.069   6.377  1.00  0.00     0.046 C 
ATOM      8  C   UNL     1      -7.427  -3.083   7.411  1.00  0.00     0.054 C 
ATOM      9  C   UNL     1      -5.911  -3.003   7.026  1.00  0.00     0.173 C 
ATOM     10  O   UNL     1      -5.761  -3.651   5.780  1.00  0.00    -0.342 OA
ATOM     11  C   UNL     1      -5.054  -3.781   8.050  1.00  0.00     0.096 C 
ATOM     12  C   UNL     1      -5.308  -5.272   7.923  1.00  0.00    -0.066 C 
ATOM     13  C   UNL     1      -4.822  -6.106   8.853  1.00  0.00     0.008 C 
ENDROOT
BRANCH   8  14
ATOM     14  C   UNL     1      -8.198  -1.724   7.449  1.00  0.00    -0.009 C 
ATOM     15  C   UNL     1      -9.312  -1.756   8.514  1.00  0.00     0.008 C 
ATOM     16  C   UNL     1      -8.848  -1.393   6.091  1.00  0.00     0.008 C 
ENDBRANCH   8  14
BRANCH   9  17
ATOM     17  O   UNL     1      -5.458  -1.676   6.919  1.00  0.00    -0.365 OA
ATOM     18  H   UNL     1      -5.599  -1.242   7.801  1.00  0.00     0.214 HD
ENDBRANCH   9  17
TORSDOF 2
ENDMDL
MODEL 4
REMARK VINA RESULT:    -6.167     11.186     12.596
REMARK INTER + INTRA:          -6.921
REMARK INTER:                  -6.700
REMARK INTRA:                  -0.221
REMARK UNBOUND:                -0.212
REMARK SMILES C=C1C[C@@]2(O)O[C@@]3(C[C@@H]2C(C)C)[C@H](C)CC[C@@H]13
REMARK SMILES IDX 14 1 13 2 15 3 16 4 17 5 7 6 8 7 9 8 4 9 6 10 3 11 2 12 1 13
REMARK SMILES IDX 10 14 11 15 12 16 5 17
REMARK H PARENT 5 18
REMARK Flexibility Score: inf
ROOT
ATOM      1  C   UNL     1      -2.647  -5.528  -7.680  1.00  0.00     0.011 C 
ATOM      2  C   UNL     1      -2.838  -4.747  -6.365  1.00  0.00     0.019 C 
ATOM      3  C   UNL     1      -2.450  -5.615  -5.164  1.00  0.00     0.007 C 
ATOM      4  C   UNL     1      -3.735  -6.277  -4.659  1.00  0.00     0.011 C 
ATOM      5  C   UNL     1      -4.907  -5.617  -5.399  1.00  0.00     0.047 C 
ATOM      6  C   UNL     1      -4.301  -4.366  -6.082  1.00  0.00     0.081 C 
ATOM      7  C   UNL     1      -5.099  -3.881  -7.290  1.00  0.00     0.046 C 
ATOM      8  C   UNL     1      -6.235  -3.093  -6.646  1.00  0.00     0.054 C 
ATOM      9  C   UNL     1      -5.699  -2.893  -5.187  1.00  0.00     0.173 C 
ATOM     10  O   UNL     1      -4.343  -3.287  -5.182  1.00  0.00    -0.342 OA
ATOM     11  C   UNL     1      -6.447  -3.824  -4.207  1.00  0.00     0.096 C 
ATOM     12  C   UNL     1      -6.066  -5.272  -4.462  1.00  0.00    -0.066 C 
ATOM     13  C   UNL     1      -6.754  -6.251  -3.860  1.00  0.00     0.008 C 
ENDROOT
BRANCH   8  14
ATOM     14  C   UNL     1      -6.624  -1.792  -7.418  1.00  0.00    -0.009 C 
ATOM     15  C   UNL     1      -8.143  -1.739  -7.673  1.00  0.00     0.008 C 
ATOM     16  C   UNL     1      -5.910  -1.697  -8.782  1.00  0.00     0.008 C 
ENDBRANCH   8  14
BRANCH   9  17
ATOM     17  O   UNL     1      -5.798  -1.556  -4.763  1.00  0.00    -0.365 OA
ATOM     18  H   UNL     1      -5.950  -1.566  -3.782  1.00  0.00     0.214 HD
ENDBRANCH   9  17
TORSDOF 2
ENDMDL
MODEL 5
REMARK VINA RESULT:    -6.033      1.589      3.206
REMARK INTER + INTRA:          -6.774
REMARK INTER:                  -6.579
REMARK INTRA:                  -0.195
REMARK UNBOUND:                -0.212
REMARK SMILES C=C1C[C@@]2(O)O[C@@]3(C[C@@H]2C(C)C)[C@H](C)CC[C@@H]13
REMARK SMILES IDX 14 1 13 2 15 3 16 4 17 5 7 6 8 7 9 8 4 9 6 10 3 11 2 12 1 13
REMARK SMILES IDX 10 14 11 15 12 16 5 17
REMARK H PARENT 5 18
REMARK Flexibility Score: inf
ROOT
ATOM      1  C   UNL     1      -4.537  -6.370   8.151  1.00  0.00     0.011 C 
ATOM      2  C   UNL     1      -4.662  -4.995   7.467  1.00  0.00     0.019 C 
ATOM      3  C   UNL     1      -4.293  -3.875   8.445  1.00  0.00     0.007 C 
ATOM      4  C   UNL     1      -5.598  -3.391   9.083  1.00  0.00     0.011 C 
ATOM      5  C   UNL     1      -6.751  -4.049   8.310  1.00  0.00     0.047 C 
ATOM      6  C   UNL     1      -6.098  -4.647   7.040  1.00  0.00     0.081 C 
ATOM      7  C   UNL     1      -6.895  -5.794   6.423  1.00  0.00     0.046 C 
ATOM      8  C   UNL     1      -7.977  -5.063   5.635  1.00  0.00     0.054 C 
ATOM      9  C   UNL     1      -7.402  -3.607   5.577  1.00  0.00     0.173 C 
ATOM     10  O   UNL     1      -6.067  -3.666   6.034  1.00  0.00    -0.342 OA
ATOM     11  C   UNL     1      -8.175  -2.684   6.545  1.00  0.00     0.096 C 
ATOM     12  C   UNL     1      -7.871  -3.060   7.985  1.00  0.00    -0.066 C 
ATOM     13  C   UNL     1      -8.595  -2.519   8.974  1.00  0.00     0.008 C 
ENDROOT
BRANCH   8  14
ATOM     14  C   UNL     1      -8.316  -5.722   4.260  1.00  0.00    -0.009 C 
ATOM     15  C   UNL     1      -9.821  -5.601   3.950  1.00  0.00     0.008 C 
ATOM     16  C   UNL     1      -7.944  -7.219   4.231  1.00  0.00     0.008 C 
ENDBRANCH   8  14
BRANCH   9  17
ATOM     17  O   UNL     1      -7.425  -3.078   4.274  1.00  0.00    -0.365 OA
ATOM     18  H   UNL     1      -6.772  -3.593   3.732  1.00  0.00     0.214 HD
ENDBRANCH   9  17
TORSDOF 2
ENDMDL
MODEL 6
REMARK VINA RESULT:    -5.962      1.363      5.129
REMARK INTER + INTRA:          -6.697
REMARK INTER:                  -6.658
REMARK INTRA:                  -0.039
REMARK UNBOUND:                -0.212
REMARK SMILES C=C1C[C@@]2(O)O[C@@]3(C[C@@H]2C(C)C)[C@H](C)CC[C@@H]13
REMARK SMILES IDX 14 1 13 2 15 3 16 4 17 5 7 6 8 7 9 8 4 9 6 10 3 11 2 12 1 13
REMARK SMILES IDX 10 14 11 15 12 16 5 17
REMARK H PARENT 5 18
REMARK Flexibility Score: inf
ROOT
ATOM      1  C   UNL     1      -7.655  -1.025   8.366  1.00  0.00     0.011 C 
ATOM      2  C   UNL     1      -7.164  -1.342   6.939  1.00  0.00     0.019 C 
ATOM      3  C   UNL     1      -8.117  -0.743   5.900  1.00  0.00     0.007 C 
ATOM      4  C   UNL     1      -9.116  -1.842   5.526  1.00  0.00     0.011 C 
ATOM      5  C   UNL     1      -8.610  -3.149   6.153  1.00  0.00     0.047 C 
ATOM      6  C   UNL     1      -7.161  -2.844   6.608  1.00  0.00     0.081 C 
ATOM      7  C   UNL     1      -6.665  -3.761   7.724  1.00  0.00     0.046 C 
ATOM      8  C   UNL     1      -6.260  -5.021   6.965  1.00  0.00     0.054 C 
ATOM      9  C   UNL     1      -6.197  -4.500   5.489  1.00  0.00     0.173 C 
ATOM     10  O   UNL     1      -6.283  -3.091   5.539  1.00  0.00    -0.342 OA
ATOM     11  C   UNL     1      -7.418  -5.003   4.688  1.00  0.00     0.096 C 
ATOM     12  C   UNL     1      -8.685  -4.327   5.181  1.00  0.00    -0.066 C 
ATOM     13  C   UNL     1      -9.877  -4.772   4.761  1.00  0.00     0.008 C 
ENDROOT
BRANCH   8  14
ATOM     14  C   UNL     1      -4.963  -5.701   7.510  1.00  0.00    -0.009 C 
ATOM     15  C   UNL     1      -4.880  -7.170   7.050  1.00  0.00     0.008 C 
ATOM     16  C   UNL     1      -4.906  -5.681   9.051  1.00  0.00     0.008 C 
ENDBRANCH   8  14
BRANCH   9  17
ATOM     17  O   UNL     1      -5.003  -4.871   4.846  1.00  0.00    -0.365 OA
ATOM     18  H   UNL     1      -5.125  -4.704   3.874  1.00  0.00     0.214 HD
ENDBRANCH   9  17
TORSDOF 2
ENDMDL
MODEL 7
REMARK VINA RESULT:    -5.686     11.320     13.531
REMARK INTER + INTRA:          -6.398
REMARK INTER:                  -6.186
REMARK INTRA:                  -0.211
REMARK UNBOUND:                -0.212
REMARK SMILES C=C1C[C@@]2(O)O[C@@]3(C[C@@H]2C(C)C)[C@H](C)CC[C@@H]13
REMARK SMILES IDX 14 1 13 2 15 3 16 4 17 5 7 6 8 7 9 8 4 9 6 10 3 11 2 12 1 13
REMARK SMILES IDX 10 14 11 15 12 16 5 17
REMARK H PARENT 5 18
REMARK Flexibility Score: inf
ROOT
ATOM      1  C   UNL     1      -6.749  -4.725  -3.662  1.00  0.00     0.011 C 
ATOM      2  C   UNL     1      -5.776  -3.680  -4.243  1.00  0.00     0.019 C 
ATOM      3  C   UNL     1      -6.551  -2.517  -4.867  1.00  0.00     0.007 C 
ATOM      4  C   UNL     1      -6.702  -2.830  -6.359  1.00  0.00     0.011 C 
ATOM      5  C   UNL     1      -5.814  -4.047  -6.659  1.00  0.00     0.047 C 
ATOM      6  C   UNL     1      -4.921  -4.214  -5.404  1.00  0.00     0.081 C 
ATOM      7  C   UNL     1      -4.378  -5.630  -5.224  1.00  0.00     0.046 C 
ATOM      8  C   UNL     1      -3.194  -5.658  -6.185  1.00  0.00     0.054 C 
ATOM      9  C   UNL     1      -2.977  -4.134  -6.471  1.00  0.00     0.173 C 
ATOM     10  O   UNL     1      -3.772  -3.418  -5.550  1.00  0.00    -0.342 OA
ATOM     11  C   UNL     1      -3.484  -3.775  -7.886  1.00  0.00     0.096 C 
ATOM     12  C   UNL     1      -4.999  -3.869  -7.941  1.00  0.00    -0.066 C 
ATOM     13  C   UNL     1      -5.622  -3.797  -9.125  1.00  0.00     0.008 C 
ENDROOT
BRANCH   8  14
ATOM     14  C   UNL     1      -1.954  -6.438  -5.641  1.00  0.00    -0.009 C 
ATOM     15  C   UNL     1      -2.018  -7.923  -6.049  1.00  0.00     0.008 C 
ATOM     16  C   UNL     1      -1.860  -6.372  -4.103  1.00  0.00     0.008 C 
ENDBRANCH   8  14
BRANCH   9  17
ATOM     17  O   UNL     1      -1.632  -3.751  -6.323  1.00  0.00    -0.365 OA
ATOM     18  H   UNL     1      -1.554  -3.269  -5.458  1.00  0.00     0.214 HD
ENDBRANCH   9  17
TORSDOF 2
ENDMDL
MODEL 8
REMARK VINA RESULT:    -5.673      1.711      3.527
REMARK INTER + INTRA:          -6.383
REMARK INTER:                  -6.155
REMARK INTRA:                  -0.227
REMARK UNBOUND:                -0.212
REMARK SMILES C=C1C[C@@]2(O)O[C@@]3(C[C@@H]2C(C)C)[C@H](C)CC[C@@H]13
REMARK SMILES IDX 14 1 13 2 15 3 16 4 17 5 7 6 8 7 9 8 4 9 6 10 3 11 2 12 1 13
REMARK SMILES IDX 10 14 11 15 12 16 5 17
REMARK H PARENT 5 18
REMARK Flexibility Score: inf
ROOT
ATOM      1  C   UNL     1      -4.418  -3.267   9.625  1.00  0.00     0.011 C 
ATOM      2  C   UNL     1      -5.629  -4.136   9.233  1.00  0.00     0.019 C 
ATOM      3  C   UNL     1      -5.239  -5.617   9.203  1.00  0.00     0.007 C 
ATOM      4  C   UNL     1      -4.857  -5.948   7.757  1.00  0.00     0.011 C 
ATOM      5  C   UNL     1      -5.253  -4.740   6.895  1.00  0.00     0.047 C 
ATOM      6  C   UNL     1      -6.147  -3.866   7.810  1.00  0.00     0.081 C 
ATOM      7  C   UNL     1      -6.194  -2.398   7.396  1.00  0.00     0.046 C 
ATOM      8  C   UNL     1      -7.208  -2.404   6.256  1.00  0.00     0.054 C 
ATOM      9  C   UNL     1      -7.899  -3.796   6.451  1.00  0.00     0.173 C 
ATOM     10  O   UNL     1      -7.479  -4.301   7.701  1.00  0.00    -0.342 OA
ATOM     11  C   UNL     1      -7.417  -4.792   5.372  1.00  0.00     0.096 C 
ATOM     12  C   UNL     1      -5.961  -5.155   5.604  1.00  0.00    -0.066 C 
ATOM     13  C   UNL     1      -5.294  -5.842   4.667  1.00  0.00     0.008 C 
ENDROOT
BRANCH   8  14
ATOM     14  C   UNL     1      -8.156  -1.163   6.242  1.00  0.00    -0.009 C 
ATOM     15  C   UNL     1      -7.957  -0.335   4.957  1.00  0.00     0.008 C 
ATOM     16  C   UNL     1      -7.908  -0.234   7.448  1.00  0.00     0.008 C 
ENDBRANCH   8  14
BRANCH   9  17
ATOM     17  O   UNL     1      -9.302  -3.700   6.435  1.00  0.00    -0.365 OA
ATOM     18  H   UNL     1      -9.560  -3.013   7.103  1.00  0.00     0.214 HD
ENDBRANCH   9  17
TORSDOF 2
ENDMDL
MODEL 9
REMARK VINA RESULT:    -5.576      2.040      3.624
REMARK INTER + INTRA:          -6.277
REMARK INTER:                  -6.049
REMARK INTRA:                  -0.228
REMARK UNBOUND:                -0.212
REMARK SMILES C=C1C[C@@]2(O)O[C@@]3(C[C@@H]2C(C)C)[C@H](C)CC[C@@H]13
REMARK SMILES IDX 14 1 13 2 15 3 16 4 17 5 7 6 8 7 9 8 4 9 6 10 3 11 2 12 1 13
REMARK SMILES IDX 10 14 11 15 12 16 5 17
REMARK H PARENT 5 18
REMARK Flexibility Score: inf
ROOT
ATOM      1  C   UNL     1      -3.372  -6.751   5.933  1.00  0.00     0.011 C 
ATOM      2  C   UNL     1      -4.775  -7.194   6.394  1.00  0.00     0.019 C 
ATOM      3  C   UNL     1      -5.366  -8.208   5.410  1.00  0.00     0.007 C 
ATOM      4  C   UNL     1      -6.222  -7.418   4.416  1.00  0.00     0.011 C 
ATOM      5  C   UNL     1      -6.334  -5.983   4.953  1.00  0.00     0.047 C 
ATOM      6  C   UNL     1      -5.808  -6.054   6.408  1.00  0.00     0.081 C 
ATOM      7  C   UNL     1      -5.302  -4.716   6.942  1.00  0.00     0.046 C 
ATOM      8  C   UNL     1      -6.591  -4.008   7.344  1.00  0.00     0.054 C 
ATOM      9  C   UNL     1      -7.614  -5.194   7.367  1.00  0.00     0.173 C 
ATOM     10  O   UNL     1      -6.871  -6.390   7.264  1.00  0.00    -0.342 OA
ATOM     11  C   UNL     1      -8.543  -5.127   6.133  1.00  0.00     0.096 C 
ATOM     12  C   UNL     1      -7.761  -5.440   4.870  1.00  0.00    -0.066 C 
ATOM     13  C   UNL     1      -8.330  -5.236   3.674  1.00  0.00     0.008 C 
ENDROOT
BRANCH   8  14
ATOM     14  C   UNL     1      -6.475  -3.177   8.662  1.00  0.00    -0.009 C 
ATOM     15  C   UNL     1      -6.709  -1.679   8.388  1.00  0.00     0.008 C 
ATOM     16  C   UNL     1      -5.087  -3.328   9.318  1.00  0.00     0.008 C 
ENDBRANCH   8  14
BRANCH   9  17
ATOM     17  O   UNL     1      -8.374  -5.218   8.550  1.00  0.00    -0.365 OA
ATOM     18  H   UNL     1      -9.323  -5.355   8.291  1.00  0.00     0.214 HD
ENDBRANCH   9  17
TORSDOF 2
ENDMDL
