MODEL 1
REMARK VINA RESULT:    -4.280      0.000      0.000
REMARK INTER + INTRA:          -5.324
REMARK INTER:                  -5.031
REMARK INTRA:                  -0.293
REMARK UNBOUND:                -0.293
REMARK SMILES O=c1c(O)c(-c2ccc(O)cc2)oc2cc(O)cc(O)c12
REMARK SMILES IDX 5 1 3 2 2 3 1 4 21 5 19 6 18 7 16 8 15 9 14 10 13 11 6 12
REMARK SMILES IDX 7 13 8 14 9 15 12 16 11 17 10 18 4 20 20 22 17 24
REMARK H PARENT 10 19 4 21 20 23 17 25
REMARK Flexibility Score: inf
ROOT
ATOM      1  C   UNL     1     -24.818  12.823 -25.870  1.00  0.00     0.180 A 
ATOM      2  C   UNL     1     -23.805  12.589 -24.925  1.00  0.00     0.208 A 
ATOM      3  C   UNL     1     -22.526  12.221 -25.374  1.00  0.00     0.238 A 
ATOM      4  O   UNL     1     -21.609  12.066 -24.527  1.00  0.00    -0.285 OA
ATOM      5  C   UNL     1     -22.283  12.073 -26.761  1.00  0.00     0.111 A 
ATOM      6  C   UNL     1     -21.037  11.664 -27.326  1.00  0.00     0.134 A 
ATOM      7  C   UNL     1     -20.872  11.678 -28.717  1.00  0.00     0.093 A 
ATOM      8  C   UNL     1     -21.924  12.024 -29.564  1.00  0.00     0.123 A 
ATOM      9  C   UNL     1     -23.164  12.368 -29.024  1.00  0.00     0.094 A 
ATOM     10  C   UNL     1     -23.349  12.397 -27.639  1.00  0.00     0.146 A 
ATOM     11  O   UNL     1     -24.542  12.740 -27.166  1.00  0.00    -0.452 OA
ENDROOT
BRANCH   1  12
ATOM     12  C   UNL     1     -26.197  13.190 -25.473  1.00  0.00     0.021 A 
ATOM     13  C   UNL     1     -26.587  14.540 -25.497  1.00  0.00     0.016 A 
ATOM     14  C   UNL     1     -27.890  14.906 -25.146  1.00  0.00     0.047 A 
ATOM     15  C   UNL     1     -28.823  13.927 -24.782  1.00  0.00     0.115 A 
ATOM     16  C   UNL     1     -27.145  12.210 -25.125  1.00  0.00     0.016 A 
ATOM     17  C   UNL     1     -28.447  12.580 -24.776  1.00  0.00     0.047 A 
BRANCH  15  18
ATOM     18  O   UNL     1     -30.124  14.281 -24.431  1.00  0.00    -0.508 OA
ATOM     19  H   UNL     1     -30.803  13.586 -24.143  1.00  0.00     0.293 HD
ENDBRANCH  15  18
ENDBRANCH   1  12
BRANCH   2  20
ATOM     20  O   UNL     1     -24.060  12.762 -23.562  1.00  0.00    -0.502 OA
ATOM     21  H   UNL     1     -24.862  12.349 -23.101  1.00  0.00     0.293 HD
ENDBRANCH   2  20
BRANCH   6  22
ATOM     22  O   UNL     1     -19.950  11.212 -26.573  1.00  0.00    -0.507 OA
ATOM     23  H   UNL     1     -19.027  11.038 -26.942  1.00  0.00     0.293 HD
ENDBRANCH   6  22
BRANCH   8  24
ATOM     24  O   UNL     1     -21.730  12.011 -30.943  1.00  0.00    -0.508 OA
ATOM     25  H   UNL     1     -22.063  12.764 -31.533  1.00  0.00     0.293 HD
ENDBRANCH   8  24
TORSDOF 5
ENDMDL
MODEL 2
REMARK VINA RESULT:    -4.060      2.056      7.057
REMARK INTER + INTRA:          -5.065
REMARK INTER:                  -4.939
REMARK INTRA:                  -0.126
REMARK UNBOUND:                -0.293
REMARK SMILES O=c1c(O)c(-c2ccc(O)cc2)oc2cc(O)cc(O)c12
REMARK SMILES IDX 5 1 3 2 2 3 1 4 21 5 19 6 18 7 16 8 15 9 14 10 13 11 6 12
REMARK SMILES IDX 7 13 8 14 9 15 12 16 11 17 10 18 4 20 20 22 17 24
REMARK H PARENT 10 19 4 21 20 23 17 25
REMARK Flexibility Score: inf
ROOT
ATOM      1  C   UNL     1     -23.866  12.358 -27.778  1.00  0.00     0.180 A 
ATOM      2  C   UNL     1     -24.629  11.657 -28.727  1.00  0.00     0.208 A 
ATOM      3  C   UNL     1     -26.028  11.642 -28.601  1.00  0.00     0.238 A 
ATOM      4  O   UNL     1     -26.708  11.059 -29.484  1.00  0.00    -0.285 OA
ATOM      5  C   UNL     1     -26.644  12.314 -27.518  1.00  0.00     0.111 A 
ATOM      6  C   UNL     1     -28.049  12.331 -27.269  1.00  0.00     0.134 A 
ATOM      7  C   UNL     1     -28.559  13.136 -26.242  1.00  0.00     0.093 A 
ATOM      8  C   UNL     1     -27.711  13.873 -25.416  1.00  0.00     0.123 A 
ATOM      9  C   UNL     1     -26.331  13.817 -25.613  1.00  0.00     0.094 A 
ATOM     10  C   UNL     1     -25.795  13.050 -26.652  1.00  0.00     0.146 A 
ATOM     11  O   UNL     1     -24.477  13.032 -26.811  1.00  0.00    -0.452 OA
ENDROOT
BRANCH   1  12
ATOM     12  C   UNL     1     -22.386  12.398 -27.830  1.00  0.00     0.021 A 
ATOM     13  C   UNL     1     -21.642  11.762 -26.823  1.00  0.00     0.016 A 
ATOM     14  C   UNL     1     -20.243  11.770 -26.864  1.00  0.00     0.047 A 
ATOM     15  C   UNL     1     -19.574  12.400 -27.920  1.00  0.00     0.115 A 
ATOM     16  C   UNL     1     -21.707  13.012 -28.899  1.00  0.00     0.016 A 
ATOM     17  C   UNL     1     -20.310  13.017 -28.937  1.00  0.00     0.047 A 
BRANCH  15  18
ATOM     18  O   UNL     1     -18.182  12.414 -27.972  1.00  0.00    -0.508 OA
ATOM     19  H   UNL     1     -17.623  12.589 -27.146  1.00  0.00     0.293 HD
ENDBRANCH  15  18
ENDBRANCH   1  12
BRANCH   2  20
ATOM     20  O   UNL     1     -24.002  11.019 -29.802  1.00  0.00    -0.502 OA
ATOM     21  H   UNL     1     -23.121  11.339 -30.186  1.00  0.00     0.293 HD
ENDBRANCH   2  20
BRANCH   6  22
ATOM     22  O   UNL     1     -28.976  11.561 -27.977  1.00  0.00    -0.507 OA
ATOM     23  H   UNL     1     -29.833  11.914 -28.375  1.00  0.00     0.293 HD
ENDBRANCH   6  22
BRANCH   8  24
ATOM     24  O   UNL     1     -28.251  14.650 -24.394  1.00  0.00    -0.508 OA
ATOM     25  H   UNL     1     -28.432  14.266 -23.475  1.00  0.00     0.293 HD
ENDBRANCH   8  24
TORSDOF 5
ENDMDL
MODEL 3
REMARK VINA RESULT:    -3.989      1.748      1.997
REMARK INTER + INTRA:          -4.981
REMARK INTER:                  -4.685
REMARK INTRA:                  -0.296
REMARK UNBOUND:                -0.293
REMARK SMILES O=c1c(O)c(-c2ccc(O)cc2)oc2cc(O)cc(O)c12
REMARK SMILES IDX 5 1 3 2 2 3 1 4 21 5 19 6 18 7 16 8 15 9 14 10 13 11 6 12
REMARK SMILES IDX 7 13 8 14 9 15 12 16 11 17 10 18 4 20 20 22 17 24
REMARK H PARENT 10 19 4 21 20 23 17 25
REMARK Flexibility Score: inf
ROOT
ATOM      1  C   UNL     1     -23.754  12.494 -27.012  1.00  0.00     0.180 A 
ATOM      2  C   UNL     1     -23.093  11.753 -26.018  1.00  0.00     0.208 A 
ATOM      3  C   UNL     1     -21.719  11.498 -26.158  1.00  0.00     0.238 A 
ATOM      4  O   UNL     1     -21.122  10.881 -25.238  1.00  0.00    -0.285 OA
ATOM      5  C   UNL     1     -21.028  11.973 -27.299  1.00  0.00     0.111 A 
ATOM      6  C   UNL     1     -19.645  11.739 -27.564  1.00  0.00     0.134 A 
ATOM      7  C   UNL     1     -19.035  12.366 -28.658  1.00  0.00     0.093 A 
ATOM      8  C   UNL     1     -19.771  13.166 -29.531  1.00  0.00     0.123 A 
ATOM      9  C   UNL     1     -21.137  13.353 -29.315  1.00  0.00     0.094 A 
ATOM     10  C   UNL     1     -21.766  12.769 -28.212  1.00  0.00     0.146 A 
ATOM     11  O   UNL     1     -23.065  12.981 -28.038  1.00  0.00    -0.452 OA
ENDROOT
BRANCH   1  12
ATOM     12  C   UNL     1     -25.206  12.781 -26.948  1.00  0.00     0.021 A 
ATOM     13  C   UNL     1     -25.648  13.974 -26.351  1.00  0.00     0.016 A 
ATOM     14  C   UNL     1     -27.013  14.275 -26.298  1.00  0.00     0.047 A 
ATOM     15  C   UNL     1     -27.950  13.395 -26.855  1.00  0.00     0.115 A 
ATOM     16  C   UNL     1     -26.151  11.912 -27.522  1.00  0.00     0.016 A 
ATOM     17  C   UNL     1     -27.514  12.216 -27.469  1.00  0.00     0.047 A 
BRANCH  15  18
ATOM     18  O   UNL     1     -29.312  13.685 -26.809  1.00  0.00    -0.508 OA
ATOM     19  H   UNL     1     -29.682  14.394 -26.187  1.00  0.00     0.293 HD
ENDBRANCH  15  18
ENDBRANCH   1  12
BRANCH   2  20
ATOM     20  O   UNL     1     -23.789  11.313 -24.889  1.00  0.00    -0.502 OA
ATOM     21  H   UNL     1     -23.446  11.456 -23.947  1.00  0.00     0.293 HD
ENDBRANCH   2  20
BRANCH   6  22
ATOM     22  O   UNL     1     -18.840  10.884 -26.806  1.00  0.00    -0.507 OA
ATOM     23  H   UNL     1     -17.831  10.863 -26.839  1.00  0.00     0.293 HD
ENDBRANCH   6  22
BRANCH   8  24
ATOM     24  O   UNL     1     -19.136  13.761 -30.618  1.00  0.00    -0.508 OA
ATOM     25  H   UNL     1     -18.294  14.313 -30.504  1.00  0.00     0.293 HD
ENDBRANCH   8  24
TORSDOF 5
ENDMDL
MODEL 4
REMARK VINA RESULT:    -3.927      2.324      2.831
REMARK INTER + INTRA:          -4.908
REMARK INTER:                  -4.666
REMARK INTRA:                  -0.243
REMARK UNBOUND:                -0.293
REMARK SMILES O=c1c(O)c(-c2ccc(O)cc2)oc2cc(O)cc(O)c12
REMARK SMILES IDX 5 1 3 2 2 3 1 4 21 5 19 6 18 7 16 8 15 9 14 10 13 11 6 12
REMARK SMILES IDX 7 13 8 14 9 15 12 16 11 17 10 18 4 20 20 22 17 24
REMARK H PARENT 10 19 4 21 20 23 17 25
REMARK Flexibility Score: inf
ROOT
ATOM      1  C   UNL     1     -25.602  13.080 -26.860  1.00  0.00     0.180 A 
ATOM      2  C   UNL     1     -25.626  12.758 -25.492  1.00  0.00     0.208 A 
ATOM      3  C   UNL     1     -24.464  12.246 -24.892  1.00  0.00     0.238 A 
ATOM      4  O   UNL     1     -24.476  12.011 -23.656  1.00  0.00    -0.285 OA
ATOM      5  C   UNL     1     -23.299  12.047 -25.671  1.00  0.00     0.111 A 
ATOM      6  C   UNL     1     -22.078  11.497 -25.177  1.00  0.00     0.134 A 
ATOM      7  C   UNL     1     -20.949  11.467 -26.004  1.00  0.00     0.093 A 
ATOM      8  C   UNL     1     -21.013  11.906 -27.326  1.00  0.00     0.123 A 
ATOM      9  C   UNL     1     -22.217  12.391 -27.838  1.00  0.00     0.094 A 
ATOM     10  C   UNL     1     -23.352  12.466 -27.025  1.00  0.00     0.146 A 
ATOM     11  O   UNL     1     -24.475  12.943 -27.548  1.00  0.00    -0.452 OA
ENDROOT
BRANCH   1  12
ATOM     12  C   UNL     1     -26.795  13.600 -27.569  1.00  0.00     0.021 A 
ATOM     13  C   UNL     1     -27.144  14.953 -27.432  1.00  0.00     0.016 A 
ATOM     14  C   UNL     1     -28.254  15.470 -28.109  1.00  0.00     0.047 A 
ATOM     15  C   UNL     1     -29.017  14.643 -28.943  1.00  0.00     0.115 A 
ATOM     16  C   UNL     1     -27.555  12.779 -28.423  1.00  0.00     0.016 A 
ATOM     17  C   UNL     1     -28.662  13.299 -29.100  1.00  0.00     0.047 A 
BRANCH  15  18
ATOM     18  O   UNL     1     -30.124  15.146 -29.622  1.00  0.00    -0.508 OA
ATOM     19  H   UNL     1     -30.095  16.043 -30.092  1.00  0.00     0.293 HD
ENDBRANCH  15  18
ENDBRANCH   1  12
BRANCH   2  20
ATOM     20  O   UNL     1     -26.780  12.983 -24.737  1.00  0.00    -0.502 OA
ATOM     21  H   UNL     1     -27.680  13.175 -25.161  1.00  0.00     0.293 HD
ENDBRANCH   2  20
BRANCH   6  22
ATOM     22  O   UNL     1     -21.931  10.946 -23.900  1.00  0.00    -0.507 OA
ATOM     23  H   UNL     1     -22.131   9.987 -23.661  1.00  0.00     0.293 HD
ENDBRANCH   6  22
BRANCH   8  24
ATOM     24  O   UNL     1     -19.874  11.847 -28.126  1.00  0.00    -0.508 OA
ATOM     25  H   UNL     1     -19.118  12.512 -28.022  1.00  0.00     0.293 HD
ENDBRANCH   8  24
TORSDOF 5
ENDMDL
MODEL 5
REMARK VINA RESULT:    -3.890      2.618      6.250
REMARK INTER + INTRA:          -4.865
REMARK INTER:                  -4.679
REMARK INTRA:                  -0.187
REMARK UNBOUND:                -0.293
REMARK SMILES O=c1c(O)c(-c2ccc(O)cc2)oc2cc(O)cc(O)c12
REMARK SMILES IDX 5 1 3 2 2 3 1 4 21 5 19 6 18 7 16 8 15 9 14 10 13 11 6 12
REMARK SMILES IDX 7 13 8 14 9 15 12 16 11 17 10 18 4 20 20 22 17 24
REMARK H PARENT 10 19 4 21 20 23 17 25
REMARK Flexibility Score: inf
ROOT
ATOM      1  C   UNL     1     -25.064  12.249 -25.405  1.00  0.00     0.180 A 
ATOM      2  C   UNL     1     -24.972  11.669 -26.682  1.00  0.00     0.208 A 
ATOM      3  C   UNL     1     -25.993  11.911 -27.615  1.00  0.00     0.238 A 
ATOM      4  O   UNL     1     -25.879  11.433 -28.773  1.00  0.00    -0.285 OA
ATOM      5  C   UNL     1     -27.101  12.715 -27.254  1.00  0.00     0.111 A 
ATOM      6  C   UNL     1     -28.212  12.993 -28.106  1.00  0.00     0.134 A 
ATOM      7  C   UNL     1     -29.188  13.907 -27.691  1.00  0.00     0.093 A 
ATOM      8  C   UNL     1     -29.128  14.504 -26.432  1.00  0.00     0.123 A 
ATOM      9  C   UNL     1     -28.077  14.194 -25.568  1.00  0.00     0.094 A 
ATOM     10  C   UNL     1     -27.069  13.312 -25.967  1.00  0.00     0.146 A 
ATOM     11  O   UNL     1     -26.082  13.052 -25.119  1.00  0.00    -0.452 OA
ENDROOT
BRANCH   1  12
ATOM     12  C   UNL     1     -24.040  12.020 -24.360  1.00  0.00     0.021 A 
ATOM     13  C   UNL     1     -22.779  12.628 -24.482  1.00  0.00     0.016 A 
ATOM     14  C   UNL     1     -21.805  12.442 -23.495  1.00  0.00     0.047 A 
ATOM     15  C   UNL     1     -22.085  11.660 -22.368  1.00  0.00     0.115 A 
ATOM     16  C   UNL     1     -24.321  11.251 -23.215  1.00  0.00     0.016 A 
ATOM     17  C   UNL     1     -23.345  11.069 -22.230  1.00  0.00     0.047 A 
BRANCH  15  18
ATOM     18  O   UNL     1     -21.123  11.468 -21.379  1.00  0.00    -0.508 OA
ATOM     19  H   UNL     1     -21.265  11.794 -20.431  1.00  0.00     0.293 HD
ENDBRANCH  15  18
ENDBRANCH   1  12
BRANCH   2  20
ATOM     20  O   UNL     1     -23.859  10.896 -27.025  1.00  0.00    -0.502 OA
ATOM     21  H   UNL     1     -23.311  10.394 -26.337  1.00  0.00     0.293 HD
ENDBRANCH   2  20
BRANCH   6  22
ATOM     22  O   UNL     1     -28.416  12.382 -29.346  1.00  0.00    -0.507 OA
ATOM     23  H   UNL     1     -28.904  12.803 -30.122  1.00  0.00     0.293 HD
ENDBRANCH   6  22
BRANCH   8  24
ATOM     24  O   UNL     1     -30.125  15.397 -26.046  1.00  0.00    -0.508 OA
ATOM     25  H   UNL     1     -31.099  15.234 -26.271  1.00  0.00     0.293 HD
ENDBRANCH   8  24
TORSDOF 5
ENDMDL
MODEL 6
REMARK VINA RESULT:    -3.827      1.647      3.356
REMARK INTER + INTRA:          -4.791
REMARK INTER:                  -4.502
REMARK INTRA:                  -0.290
REMARK UNBOUND:                -0.293
REMARK SMILES O=c1c(O)c(-c2ccc(O)cc2)oc2cc(O)cc(O)c12
REMARK SMILES IDX 5 1 3 2 2 3 1 4 21 5 19 6 18 7 16 8 15 9 14 10 13 11 6 12
REMARK SMILES IDX 7 13 8 14 9 15 12 16 11 17 10 18 4 20 20 22 17 24
REMARK H PARENT 10 19 4 21 20 23 17 25
REMARK Flexibility Score: inf
ROOT
ATOM      1  C   UNL     1     -23.931  12.525 -27.599  1.00  0.00     0.180 A 
ATOM      2  C   UNL     1     -24.010  12.534 -29.001  1.00  0.00     0.208 A 
ATOM      3  C   UNL     1     -22.849  12.282 -29.751  1.00  0.00     0.238 A 
ATOM      4  O   UNL     1     -22.938  12.239 -31.005  1.00  0.00    -0.285 OA
ATOM      5  C   UNL     1     -21.622  12.041 -29.088  1.00  0.00     0.111 A 
ATOM      6  C   UNL     1     -20.376  11.816 -29.747  1.00  0.00     0.134 A 
ATOM      7  C   UNL     1     -19.250  11.459 -28.994  1.00  0.00     0.093 A 
ATOM      8  C   UNL     1     -19.310  11.383 -27.603  1.00  0.00     0.123 A 
ATOM      9  C   UNL     1     -20.508  11.660 -26.944  1.00  0.00     0.094 A 
ATOM     10  C   UNL     1     -21.657  11.984 -27.671  1.00  0.00     0.146 A 
ATOM     11  O   UNL     1     -22.779  12.231 -27.006  1.00  0.00    -0.452 OA
ENDROOT
BRANCH   1  12
ATOM     12  C   UNL     1     -25.105  12.806 -26.741  1.00  0.00     0.021 A 
ATOM     13  C   UNL     1     -25.406  14.133 -26.394  1.00  0.00     0.016 A 
ATOM     14  C   UNL     1     -26.522  14.423 -25.602  1.00  0.00     0.047 A 
ATOM     15  C   UNL     1     -27.359  13.391 -25.162  1.00  0.00     0.115 A 
ATOM     16  C   UNL     1     -25.962  11.775 -26.310  1.00  0.00     0.016 A 
ATOM     17  C   UNL     1     -27.077  12.069 -25.521  1.00  0.00     0.047 A 
BRANCH  15  18
ATOM     18  O   UNL     1     -28.474  13.668 -24.373  1.00  0.00    -0.508 OA
ATOM     19  H   UNL     1     -29.390  13.303 -24.604  1.00  0.00     0.293 HD
ENDBRANCH  15  18
ENDBRANCH   1  12
BRANCH   2  20
ATOM     20  O   UNL     1     -25.236  12.752 -29.636  1.00  0.00    -0.502 OA
ATOM     21  H   UNL     1     -25.968  12.051 -29.661  1.00  0.00     0.293 HD
ENDBRANCH   2  20
BRANCH   6  22
ATOM     22  O   UNL     1     -20.186  11.955 -31.125  1.00  0.00    -0.507 OA
ATOM     23  H   UNL     1     -20.016  12.830 -31.597  1.00  0.00     0.293 HD
ENDBRANCH   6  22
BRANCH   8  24
ATOM     24  O   UNL     1     -18.167  11.041 -26.883  1.00  0.00    -0.508 OA
ATOM     25  H   UNL     1     -17.245  11.085 -27.300  1.00  0.00     0.293 HD
ENDBRANCH   8  24
TORSDOF 5
ENDMDL
MODEL 7
REMARK VINA RESULT:    -3.703      2.555      4.311
REMARK INTER + INTRA:          -4.645
REMARK INTER:                  -4.396
REMARK INTRA:                  -0.249
REMARK UNBOUND:                -0.293
REMARK SMILES O=c1c(O)c(-c2ccc(O)cc2)oc2cc(O)cc(O)c12
REMARK SMILES IDX 5 1 3 2 2 3 1 4 21 5 19 6 18 7 16 8 15 9 14 10 13 11 6 12
REMARK SMILES IDX 7 13 8 14 9 15 12 16 11 17 10 18 4 20 20 22 17 24
REMARK H PARENT 10 19 4 21 20 23 17 25
REMARK Flexibility Score: inf
ROOT
ATOM      1  C   UNL     1     -25.650  12.799 -26.867  1.00  0.00     0.180 A 
ATOM      2  C   UNL     1     -24.448  12.534 -27.543  1.00  0.00     0.208 A 
ATOM      3  C   UNL     1     -23.361  12.012 -26.822  1.00  0.00     0.238 A 
ATOM      4  O   UNL     1     -22.305  11.727 -27.443  1.00  0.00    -0.285 OA
ATOM      5  C   UNL     1     -23.487  11.779 -25.431  1.00  0.00     0.111 A 
ATOM      6  C   UNL     1     -22.439  11.291 -24.594  1.00  0.00     0.134 A 
ATOM      7  C   UNL     1     -22.713  10.974 -23.258  1.00  0.00     0.093 A 
ATOM      8  C   UNL     1     -23.979  11.187 -22.712  1.00  0.00     0.123 A 
ATOM      9  C   UNL     1     -24.995  11.719 -23.507  1.00  0.00     0.094 A 
ATOM     10  C   UNL     1     -24.761  12.013 -24.853  1.00  0.00     0.146 A 
ATOM     11  O   UNL     1     -25.758  12.508 -25.576  1.00  0.00    -0.452 OA
ENDROOT
BRANCH   1  12
ATOM     12  C   UNL     1     -26.831  13.373 -27.554  1.00  0.00     0.021 A 
ATOM     13  C   UNL     1     -27.094  14.749 -27.443  1.00  0.00     0.016 A 
ATOM     14  C   UNL     1     -28.191  15.315 -28.100  1.00  0.00     0.047 A 
ATOM     15  C   UNL     1     -29.029  14.516 -28.889  1.00  0.00     0.115 A 
ATOM     16  C   UNL     1     -27.666  12.580 -28.363  1.00  0.00     0.016 A 
ATOM     17  C   UNL     1     -28.760  13.149 -29.020  1.00  0.00     0.047 A 
BRANCH  15  18
ATOM     18  O   UNL     1     -30.124  15.069 -29.548  1.00  0.00    -0.508 OA
ATOM     19  H   UNL     1     -30.015  15.602 -30.402  1.00  0.00     0.293 HD
ENDBRANCH  15  18
ENDBRANCH   1  12
BRANCH   2  20
ATOM     20  O   UNL     1     -24.352  12.751 -28.921  1.00  0.00    -0.502 OA
ATOM     21  H   UNL     1     -23.760  12.189 -29.521  1.00  0.00     0.293 HD
ENDBRANCH   2  20
BRANCH   6  22
ATOM     22  O   UNL     1     -21.116  11.128 -25.015  1.00  0.00    -0.507 OA
ATOM     23  H   UNL     1     -20.834  10.925 -25.962  1.00  0.00     0.293 HD
ENDBRANCH   6  22
BRANCH   8  24
ATOM     24  O   UNL     1     -24.213  10.875 -21.375  1.00  0.00    -0.508 OA
ATOM     25  H   UNL     1     -23.483  10.954 -20.677  1.00  0.00     0.293 HD
ENDBRANCH   8  24
TORSDOF 5
ENDMDL
MODEL 8
REMARK VINA RESULT:    -3.690      1.874      6.608
REMARK INTER + INTRA:          -4.630
REMARK INTER:                  -4.695
REMARK INTRA:                   0.065
REMARK UNBOUND:                -0.293
REMARK SMILES O=c1c(O)c(-c2ccc(O)cc2)oc2cc(O)cc(O)c12
REMARK SMILES IDX 5 1 3 2 2 3 1 4 21 5 19 6 18 7 16 8 15 9 14 10 13 11 6 12
REMARK SMILES IDX 7 13 8 14 9 15 12 16 11 17 10 18 4 20 20 22 17 24
REMARK H PARENT 10 19 4 21 20 23 17 25
REMARK Flexibility Score: inf
ROOT
ATOM      1  C   UNL     1     -25.162  12.679 -26.215  1.00  0.00     0.180 A 
ATOM      2  C   UNL     1     -25.950  11.957 -25.303  1.00  0.00     0.208 A 
ATOM      3  C   UNL     1     -27.306  12.292 -25.158  1.00  0.00     0.238 A 
ATOM      4  O   UNL     1     -28.018  11.607 -24.379  1.00  0.00    -0.285 OA
ATOM      5  C   UNL     1     -27.852  13.356 -25.915  1.00  0.00     0.111 A 
ATOM      6  C   UNL     1     -29.203  13.808 -25.819  1.00  0.00     0.134 A 
ATOM      7  C   UNL     1     -29.669  14.783 -26.710  1.00  0.00     0.093 A 
ATOM      8  C   UNL     1     -28.819  15.367 -27.649  1.00  0.00     0.123 A 
ATOM      9  C   UNL     1     -27.482  14.975 -27.711  1.00  0.00     0.094 A 
ATOM     10  C   UNL     1     -26.996  13.979 -26.859  1.00  0.00     0.146 A 
ATOM     11  O   UNL     1     -25.719  13.628 -26.958  1.00  0.00    -0.452 OA
ENDROOT
BRANCH   1  12
ATOM     12  C   UNL     1     -23.720  12.400 -26.405  1.00  0.00     0.021 A 
ATOM     13  C   UNL     1     -23.186  12.370 -27.704  1.00  0.00     0.016 A 
ATOM     14  C   UNL     1     -21.823  12.130 -27.904  1.00  0.00     0.047 A 
ATOM     15  C   UNL     1     -20.974  11.934 -26.808  1.00  0.00     0.115 A 
ATOM     16  C   UNL     1     -22.857  12.222 -25.307  1.00  0.00     0.016 A 
ATOM     17  C   UNL     1     -21.495  11.984 -25.510  1.00  0.00     0.047 A 
BRANCH  15  18
ATOM     18  O   UNL     1     -19.615  11.694 -26.995  1.00  0.00    -0.508 OA
ATOM     19  H   UNL     1     -19.070  11.173 -26.319  1.00  0.00     0.293 HD
ENDBRANCH  15  18
ENDBRANCH   1  12
BRANCH   2  20
ATOM     20  O   UNL     1     -25.396  10.895 -24.581  1.00  0.00    -0.502 OA
ATOM     21  H   UNL     1     -24.723  11.035 -23.837  1.00  0.00     0.293 HD
ENDBRANCH   2  20
BRANCH   6  22
ATOM     22  O   UNL     1     -30.110  13.356 -24.857  1.00  0.00    -0.507 OA
ATOM     23  H   UNL     1     -30.996  13.793 -24.652  1.00  0.00     0.293 HD
ENDBRANCH   6  22
BRANCH   8  24
ATOM     24  O   UNL     1     -29.313  16.346 -28.508  1.00  0.00    -0.508 OA
ATOM     25  H   UNL     1     -30.168  16.849 -28.304  1.00  0.00     0.293 HD
ENDBRANCH   8  24
TORSDOF 5
ENDMDL
MODEL 9
REMARK VINA RESULT:    -3.689      2.528      6.415
REMARK INTER + INTRA:          -4.629
REMARK INTER:                  -4.610
REMARK INTRA:                  -0.020
REMARK UNBOUND:                -0.293
REMARK SMILES O=c1c(O)c(-c2ccc(O)cc2)oc2cc(O)cc(O)c12
REMARK SMILES IDX 5 1 3 2 2 3 1 4 21 5 19 6 18 7 16 8 15 9 14 10 13 11 6 12
REMARK SMILES IDX 7 13 8 14 9 15 12 16 11 17 10 18 4 20 20 22 17 24
REMARK H PARENT 10 19 4 21 20 23 17 25
REMARK Flexibility Score: inf
ROOT
ATOM      1  C   UNL     1     -24.190  12.762 -27.183  1.00  0.00     0.180 A 
ATOM      2  C   UNL     1     -24.721  13.574 -26.168  1.00  0.00     0.208 A 
ATOM      3  C   UNL     1     -26.081  13.923 -26.216  1.00  0.00     0.238 A 
ATOM      4  O   UNL     1     -26.563  14.606 -25.276  1.00  0.00    -0.285 OA
ATOM      5  C   UNL     1     -26.887  13.468 -27.287  1.00  0.00     0.111 A 
ATOM      6  C   UNL     1     -28.266  13.794 -27.459  1.00  0.00     0.134 A 
ATOM      7  C   UNL     1     -28.998  13.182 -28.484  1.00  0.00     0.093 A 
ATOM      8  C   UNL     1     -28.387  12.309 -29.383  1.00  0.00     0.123 A 
ATOM      9  C   UNL     1     -27.025  12.030 -29.261  1.00  0.00     0.094 A 
ATOM     10  C   UNL     1     -26.276  12.597 -28.226  1.00  0.00     0.146 A 
ATOM     11  O   UNL     1     -24.986  12.298 -28.140  1.00  0.00    -0.452 OA
ENDROOT
BRANCH   1  12
ATOM     12  C   UNL     1     -22.760  12.373 -27.215  1.00  0.00     0.021 A 
ATOM     13  C   UNL     1     -21.979  12.703 -28.335  1.00  0.00     0.016 A 
ATOM     14  C   UNL     1     -20.623  12.364 -28.377  1.00  0.00     0.047 A 
ATOM     15  C   UNL     1     -20.028  11.706 -27.293  1.00  0.00     0.115 A 
ATOM     16  C   UNL     1     -22.152  11.729 -26.122  1.00  0.00     0.016 A 
ATOM     17  C   UNL     1     -20.796  11.393 -26.167  1.00  0.00     0.047 A 
BRANCH  15  18
ATOM     18  O   UNL     1     -18.678  11.364 -27.324  1.00  0.00    -0.508 OA
ATOM     19  H   UNL     1     -18.312  10.714 -28.009  1.00  0.00     0.293 HD
ENDBRANCH  15  18
ENDBRANCH   1  12
BRANCH   2  20
ATOM     20  O   UNL     1     -23.914  13.994 -25.108  1.00  0.00    -0.502 OA
ATOM     21  H   UNL     1     -23.041  14.489 -25.250  1.00  0.00     0.293 HD
ENDBRANCH   2  20
BRANCH   6  22
ATOM     22  O   UNL     1     -28.951  14.724 -26.672  1.00  0.00    -0.507 OA
ATOM     23  H   UNL     1     -29.681  15.335 -27.008  1.00  0.00     0.293 HD
ENDBRANCH   6  22
BRANCH   8  24
ATOM     24  O   UNL     1     -29.141  11.731 -30.401  1.00  0.00    -0.508 OA
ATOM     25  H   UNL     1     -28.771  11.618 -31.337  1.00  0.00     0.293 HD
ENDBRANCH   8  24
TORSDOF 5
ENDMDL
