MODEL 1
REMARK VINA RESULT:    -8.067      0.000      0.000
REMARK INTER + INTRA:          -9.683
REMARK INTER:                  -9.482
REMARK INTRA:                  -0.201
REMARK UNBOUND:                -0.201
REMARK SMILES O=c1c(O)c(-c2ccc(O)c(O)c2)oc2cc(O)ccc12
REMARK SMILES IDX 5 1 3 2 2 3 1 4 21 5 15 6 14 7 16 8 17 9 19 10 20 11 6 12
REMARK SMILES IDX 7 13 8 14 9 15 13 16 11 17 10 18 12 20 4 22 18 24
REMARK H PARENT 10 19 12 21 4 23 18 25
REMARK Flexibility Score: inf
ROOT
ATOM      1  C   UNL     1       0.675 -26.928  -0.066  1.00  0.00     0.180 A 
ATOM      2  C   UNL     1       1.462 -26.939  -1.237  1.00  0.00     0.208 A 
ATOM      3  C   UNL     1       2.707 -27.585  -1.209  1.00  0.00     0.235 A 
ATOM      4  O   UNL     1       3.433 -27.600  -2.241  1.00  0.00    -0.285 OA
ATOM      5  C   UNL     1       3.131 -28.218  -0.029  1.00  0.00     0.069 A 
ATOM      6  C   UNL     1       2.275 -28.183   1.093  1.00  0.00     0.142 A 
ATOM      7  O   UNL     1       1.108 -27.553   1.028  1.00  0.00    -0.452 OA
ATOM      8  C   UNL     1       2.657 -28.810   2.284  1.00  0.00     0.094 A 
ATOM      9  C   UNL     1       3.888 -29.475   2.368  1.00  0.00     0.119 A 
ATOM     10  C   UNL     1       4.738 -29.510   1.257  1.00  0.00     0.047 A 
ATOM     11  C   UNL     1       4.365 -28.887   0.062  1.00  0.00     0.020 A 
ENDROOT
BRANCH   1  12
ATOM     12  C   UNL     1      -0.640 -26.252  -0.010  1.00  0.00     0.025 A 
ATOM     13  C   UNL     1      -1.798 -27.014   0.217  1.00  0.00     0.016 A 
ATOM     14  C   UNL     1      -3.049 -26.395   0.296  1.00  0.00     0.051 A 
ATOM     15  C   UNL     1      -3.158 -25.005   0.163  1.00  0.00     0.157 A 
ATOM     16  C   UNL     1      -0.753 -24.855  -0.121  1.00  0.00     0.062 A 
ATOM     17  C   UNL     1      -2.007 -24.233  -0.042  1.00  0.00     0.158 A 
BRANCH  15  18
ATOM     18  O   UNL     1      -4.403 -24.384   0.238  1.00  0.00    -0.504 OA
ATOM     19  H   UNL     1      -5.200 -24.727  -0.286  1.00  0.00     0.293 HD
ENDBRANCH  15  18
BRANCH  17  20
ATOM     20  O   UNL     1      -2.117 -22.848  -0.159  1.00  0.00    -0.504 OA
ATOM     21  H   UNL     1      -2.315 -22.262   0.644  1.00  0.00     0.293 HD
ENDBRANCH  17  20
ENDBRANCH   1  12
BRANCH   2  22
ATOM     22  O   UNL     1       0.992 -26.344  -2.410  1.00  0.00    -0.502 OA
ATOM     23  H   UNL     1       1.588 -26.189  -3.215  1.00  0.00     0.293 HD
ENDBRANCH   2  22
BRANCH   9  24
ATOM     24  O   UNL     1       4.276 -30.102   3.550  1.00  0.00    -0.508 OA
ATOM     25  H   UNL     1       4.961 -30.848   3.554  1.00  0.00     0.293 HD
ENDBRANCH   9  24
TORSDOF 5
ENDMDL
MODEL 2
REMARK VINA RESULT:    -7.650      2.398      6.736
REMARK INTER + INTRA:          -9.193
REMARK INTER:                  -9.144
REMARK INTRA:                  -0.049
REMARK UNBOUND:                -0.201
REMARK SMILES O=c1c(O)c(-c2ccc(O)c(O)c2)oc2cc(O)ccc12
REMARK SMILES IDX 5 1 3 2 2 3 1 4 21 5 15 6 14 7 16 8 17 9 19 10 20 11 6 12
REMARK SMILES IDX 7 13 8 14 9 15 13 16 11 17 10 18 12 20 4 22 18 24
REMARK H PARENT 10 19 12 21 4 23 18 25
REMARK Flexibility Score: inf
ROOT
ATOM      1  C   UNL     1       3.292 -29.183   1.685  1.00  0.00     0.180 A 
ATOM      2  C   UNL     1       4.362 -29.236   0.768  1.00  0.00     0.208 A 
ATOM      3  C   UNL     1       4.225 -28.589  -0.470  1.00  0.00     0.235 A 
ATOM      4  O   UNL     1       5.164 -28.630  -1.311  1.00  0.00    -0.285 OA
ATOM      5  C   UNL     1       3.040 -27.891  -0.757  1.00  0.00     0.069 A 
ATOM      6  C   UNL     1       2.025 -27.866   0.224  1.00  0.00     0.142 A 
ATOM      7  O   UNL     1       2.191 -28.499   1.379  1.00  0.00    -0.452 OA
ATOM      8  C   UNL     1       0.834 -27.174  -0.020  1.00  0.00     0.094 A 
ATOM      9  C   UNL     1       0.644 -26.504  -1.236  1.00  0.00     0.119 A 
ATOM     10  C   UNL     1       1.647 -26.529  -2.210  1.00  0.00     0.047 A 
ATOM     11  C   UNL     1       2.842 -27.218  -1.976  1.00  0.00     0.020 A 
ENDROOT
BRANCH   1  12
ATOM     12  C   UNL     1       3.353 -29.856   3.002  1.00  0.00     0.025 A 
ATOM     13  C   UNL     1       3.630 -31.232   3.062  1.00  0.00     0.016 A 
ATOM     14  C   UNL     1       3.713 -31.884   4.295  1.00  0.00     0.051 A 
ATOM     15  C   UNL     1       3.535 -31.168   5.486  1.00  0.00     0.157 A 
ATOM     16  C   UNL     1       3.195 -29.138   4.201  1.00  0.00     0.062 A 
ATOM     17  C   UNL     1       3.279 -29.792   5.439  1.00  0.00     0.158 A 
BRANCH  15  18
ATOM     18  O   UNL     1       3.614 -31.815   6.717  1.00  0.00    -0.504 OA
ATOM     19  H   UNL     1       4.452 -32.307   7.006  1.00  0.00     0.293 HD
ENDBRANCH  15  18
BRANCH  17  20
ATOM     20  O   UNL     1       3.117 -29.079   6.625  1.00  0.00    -0.504 OA
ATOM     21  H   UNL     1       3.580 -28.191   6.779  1.00  0.00     0.293 HD
ENDBRANCH  17  20
ENDBRANCH   1  12
BRANCH   2  22
ATOM     22  O   UNL     1       5.548 -29.896   1.100  1.00  0.00    -0.502 OA
ATOM     23  H   UNL     1       5.981 -29.805   2.011  1.00  0.00     0.293 HD
ENDBRANCH   2  22
BRANCH   9  24
ATOM     24  O   UNL     1      -0.540 -25.813  -1.488  1.00  0.00    -0.508 OA
ATOM     25  H   UNL     1      -1.289 -25.779  -0.807  1.00  0.00     0.293 HD
ENDBRANCH   9  24
TORSDOF 5
ENDMDL
MODEL 3
REMARK VINA RESULT:    -7.412      2.456      4.560
REMARK INTER + INTRA:          -8.913
REMARK INTER:                  -9.387
REMARK INTRA:                   0.474
REMARK UNBOUND:                -0.201
REMARK SMILES O=c1c(O)c(-c2ccc(O)c(O)c2)oc2cc(O)ccc12
REMARK SMILES IDX 5 1 3 2 2 3 1 4 21 5 15 6 14 7 16 8 17 9 19 10 20 11 6 12
REMARK SMILES IDX 7 13 8 14 9 15 13 16 11 17 10 18 12 20 4 22 18 24
REMARK H PARENT 10 19 12 21 4 23 18 25
REMARK Flexibility Score: inf
ROOT
ATOM      1  C   UNL     1       3.466 -28.863   1.444  1.00  0.00     0.180 A 
ATOM      2  C   UNL     1       4.744 -29.346   1.091  1.00  0.00     0.208 A 
ATOM      3  C   UNL     1       5.502 -30.022   2.059  1.00  0.00     0.235 A 
ATOM      4  O   UNL     1       6.651 -30.454   1.771  1.00  0.00    -0.285 OA
ATOM      5  C   UNL     1       4.967 -30.218   3.343  1.00  0.00     0.069 A 
ATOM      6  C   UNL     1       3.671 -29.725   3.609  1.00  0.00     0.142 A 
ATOM      7  O   UNL     1       2.990 -29.082   2.668  1.00  0.00    -0.452 OA
ATOM      8  C   UNL     1       3.099 -29.908   4.873  1.00  0.00     0.094 A 
ATOM      9  C   UNL     1       3.809 -30.581   5.877  1.00  0.00     0.119 A 
ATOM     10  C   UNL     1       5.093 -31.069   5.616  1.00  0.00     0.047 A 
ATOM     11  C   UNL     1       5.673 -30.891   4.356  1.00  0.00     0.020 A 
ENDROOT
BRANCH   1  12
ATOM     12  C   UNL     1       2.614 -28.124   0.485  1.00  0.00     0.025 A 
ATOM     13  C   UNL     1       1.398 -27.573   0.924  1.00  0.00     0.016 A 
ATOM     14  C   UNL     1       0.588 -26.853   0.043  1.00  0.00     0.051 A 
ATOM     15  C   UNL     1       0.986 -26.661  -1.286  1.00  0.00     0.157 A 
ATOM     16  C   UNL     1       3.020 -27.910  -0.844  1.00  0.00     0.062 A 
ATOM     17  C   UNL     1       2.207 -27.187  -1.729  1.00  0.00     0.158 A 
BRANCH  15  18
ATOM     18  O   UNL     1       0.179 -25.947  -2.169  1.00  0.00    -0.504 OA
ATOM     19  H   UNL     1       0.576 -25.347  -2.884  1.00  0.00     0.293 HD
ENDBRANCH  15  18
BRANCH  17  20
ATOM     20  O   UNL     1       2.608 -26.981  -3.048  1.00  0.00    -0.504 OA
ATOM     21  H   UNL     1       2.692 -26.050  -3.439  1.00  0.00     0.293 HD
ENDBRANCH  17  20
ENDBRANCH   1  12
BRANCH   2  22
ATOM     22  O   UNL     1       5.230 -29.179  -0.208  1.00  0.00    -0.502 OA
ATOM     23  H   UNL     1       5.474 -29.964  -0.800  1.00  0.00     0.293 HD
ENDBRANCH   2  22
BRANCH   9  24
ATOM     24  O   UNL     1       3.247 -30.768   7.138  1.00  0.00    -0.508 OA
ATOM     25  H   UNL     1       2.837 -29.999   7.655  1.00  0.00     0.293 HD
ENDBRANCH   9  24
TORSDOF 5
ENDMDL
MODEL 4
REMARK VINA RESULT:    -7.369      6.873      8.540
REMARK INTER + INTRA:          -8.862
REMARK INTER:                  -8.581
REMARK INTRA:                  -0.281
REMARK UNBOUND:                -0.201
REMARK SMILES O=c1c(O)c(-c2ccc(O)c(O)c2)oc2cc(O)ccc12
REMARK SMILES IDX 5 1 3 2 2 3 1 4 21 5 15 6 14 7 16 8 17 9 19 10 20 11 6 12
REMARK SMILES IDX 7 13 8 14 9 15 13 16 11 17 10 18 12 20 4 22 18 24
REMARK H PARENT 10 19 12 21 4 23 18 25
REMARK Flexibility Score: inf
ROOT
ATOM      1  C   UNL     1       5.823 -30.360   4.631  1.00  0.00     0.180 A 
ATOM      2  C   UNL     1       6.935 -30.301   5.496  1.00  0.00     0.208 A 
ATOM      3  C   UNL     1       8.193 -29.982   4.961  1.00  0.00     0.235 A 
ATOM      4  O   UNL     1       9.204 -29.934   5.712  1.00  0.00    -0.285 OA
ATOM      5  C   UNL     1       8.310 -29.711   3.588  1.00  0.00     0.069 A 
ATOM      6  C   UNL     1       7.145 -29.768   2.793  1.00  0.00     0.142 A 
ATOM      7  O   UNL     1       5.975 -30.082   3.337  1.00  0.00    -0.452 OA
ATOM      8  C   UNL     1       7.218 -29.495   1.423  1.00  0.00     0.094 A 
ATOM      9  C   UNL     1       8.447 -29.166   0.834  1.00  0.00     0.119 A 
ATOM     10  C   UNL     1       9.603 -29.111   1.619  1.00  0.00     0.047 A 
ATOM     11  C   UNL     1       9.540 -29.381   2.990  1.00  0.00     0.020 A 
ENDROOT
BRANCH   1  12
ATOM     12  C   UNL     1       4.469 -30.707   5.116  1.00  0.00     0.025 A 
ATOM     13  C   UNL     1       3.496 -29.700   5.228  1.00  0.00     0.016 A 
ATOM     14  C   UNL     1       2.204 -30.009   5.663  1.00  0.00     0.051 A 
ATOM     15  C   UNL     1       1.862 -31.330   5.978  1.00  0.00     0.157 A 
ATOM     16  C   UNL     1       4.114 -32.036   5.413  1.00  0.00     0.062 A 
ATOM     17  C   UNL     1       2.818 -32.346   5.849  1.00  0.00     0.158 A 
BRANCH  15  18
ATOM     18  O   UNL     1       0.576 -31.641   6.415  1.00  0.00    -0.504 OA
ATOM     19  H   UNL     1       0.331 -31.623   7.398  1.00  0.00     0.293 HD
ENDBRANCH  15  18
BRANCH  17  20
ATOM     20  O   UNL     1       2.470 -33.662   6.149  1.00  0.00    -0.504 OA
ATOM     21  H   UNL     1       1.702 -34.128   5.681  1.00  0.00     0.293 HD
ENDBRANCH  17  20
ENDBRANCH   1  12
BRANCH   2  22
ATOM     22  O   UNL     1       6.779 -30.527   6.866  1.00  0.00    -0.502 OA
ATOM     23  H   UNL     1       6.301 -31.342   7.230  1.00  0.00     0.293 HD
ENDBRANCH   2  22
BRANCH   9  24
ATOM     24  O   UNL     1       8.530 -28.893  -0.529  1.00  0.00    -0.508 OA
ATOM     25  H   UNL     1       8.188 -28.022  -0.918  1.00  0.00     0.293 HD
ENDBRANCH   9  24
TORSDOF 5
ENDMDL
MODEL 5
REMARK VINA RESULT:    -7.278      5.245      7.277
REMARK INTER + INTRA:          -8.756
REMARK INTER:                  -8.432
REMARK INTRA:                  -0.324
REMARK UNBOUND:                -0.201
REMARK SMILES O=c1c(O)c(-c2ccc(O)c(O)c2)oc2cc(O)ccc12
REMARK SMILES IDX 5 1 3 2 2 3 1 4 21 5 15 6 14 7 16 8 17 9 19 10 20 11 6 12
REMARK SMILES IDX 7 13 8 14 9 15 13 16 11 17 10 18 12 20 4 22 18 24
REMARK H PARENT 10 19 12 21 4 23 18 25
REMARK Flexibility Score: inf
ROOT
ATOM      1  C   UNL     1       4.452 -29.949   3.509  1.00  0.00     0.180 A 
ATOM      2  C   UNL     1       5.830 -30.133   3.745  1.00  0.00     0.208 A 
ATOM      3  C   UNL     1       6.732 -29.910   2.694  1.00  0.00     0.235 A 
ATOM      4  O   UNL     1       7.969 -30.078   2.878  1.00  0.00    -0.285 OA
ATOM      5  C   UNL     1       6.247 -29.493   1.444  1.00  0.00     0.069 A 
ATOM      6  C   UNL     1       4.855 -29.308   1.295  1.00  0.00     0.142 A 
ATOM      7  O   UNL     1       4.034 -29.539   2.313  1.00  0.00    -0.452 OA
ATOM      8  C   UNL     1       4.333 -28.884   0.069  1.00  0.00     0.094 A 
ATOM      9  C   UNL     1       5.187 -28.641  -1.015  1.00  0.00     0.119 A 
ATOM     10  C   UNL     1       6.566 -28.825  -0.871  1.00  0.00     0.047 A 
ATOM     11  C   UNL     1       7.098 -29.248   0.351  1.00  0.00     0.020 A 
ENDROOT
BRANCH   1  12
ATOM     12  C   UNL     1       3.437 -30.182   4.561  1.00  0.00     0.025 A 
ATOM     13  C   UNL     1       3.006 -29.107   5.355  1.00  0.00     0.016 A 
ATOM     14  C   UNL     1       2.033 -29.299   6.340  1.00  0.00     0.051 A 
ATOM     15  C   UNL     1       1.466 -30.565   6.535  1.00  0.00     0.157 A 
ATOM     16  C   UNL     1       2.849 -31.447   4.747  1.00  0.00     0.062 A 
ATOM     17  C   UNL     1       1.873 -31.640   5.734  1.00  0.00     0.158 A 
BRANCH  15  18
ATOM     18  O   UNL     1       0.498 -30.761   7.517  1.00  0.00    -0.504 OA
ATOM     19  H   UNL     1       0.630 -30.430   8.466  1.00  0.00     0.293 HD
ENDBRANCH  15  18
BRANCH  17  20
ATOM     20  O   UNL     1       1.297 -32.895   5.921  1.00  0.00    -0.504 OA
ATOM     21  H   UNL     1       1.058 -33.492   5.137  1.00  0.00     0.293 HD
ENDBRANCH  17  20
ENDBRANCH   1  12
BRANCH   2  22
ATOM     22  O   UNL     1       6.288 -30.501   5.013  1.00  0.00    -0.502 OA
ATOM     23  H   UNL     1       7.126 -30.104   5.423  1.00  0.00     0.293 HD
ENDBRANCH   2  22
BRANCH   9  24
ATOM     24  O   UNL     1       4.676 -28.219  -2.241  1.00  0.00    -0.508 OA
ATOM     25  H   UNL     1       3.815 -27.689  -2.301  1.00  0.00     0.293 HD
ENDBRANCH   9  24
TORSDOF 5
ENDMDL
MODEL 6
REMARK VINA RESULT:    -7.067      5.842      7.260
REMARK INTER + INTRA:          -8.508
REMARK INTER:                  -8.191
REMARK INTRA:                  -0.317
REMARK UNBOUND:                -0.201
REMARK SMILES O=c1c(O)c(-c2ccc(O)c(O)c2)oc2cc(O)ccc12
REMARK SMILES IDX 5 1 3 2 2 3 1 4 21 5 15 6 14 7 16 8 17 9 19 10 20 11 6 12
REMARK SMILES IDX 7 13 8 14 9 15 13 16 11 17 10 18 12 20 4 22 18 24
REMARK H PARENT 10 19 12 21 4 23 18 25
REMARK Flexibility Score: inf
ROOT
ATOM      1  C   UNL     1       4.706 -30.104   3.734  1.00  0.00     0.180 A 
ATOM      2  C   UNL     1       4.466 -29.728   2.396  1.00  0.00     0.208 A 
ATOM      3  C   UNL     1       5.560 -29.559   1.534  1.00  0.00     0.235 A 
ATOM      4  O   UNL     1       5.372 -29.213   0.336  1.00  0.00    -0.285 OA
ATOM      5  C   UNL     1       6.860 -29.786   2.015  1.00  0.00     0.069 A 
ATOM      6  C   UNL     1       7.015 -30.183   3.361  1.00  0.00     0.142 A 
ATOM      7  O   UNL     1       5.953 -30.323   4.146  1.00  0.00    -0.452 OA
ATOM      8  C   UNL     1       8.292 -30.428   3.876  1.00  0.00     0.094 A 
ATOM      9  C   UNL     1       9.422 -30.281   3.059  1.00  0.00     0.119 A 
ATOM     10  C   UNL     1       9.271 -29.886   1.726  1.00  0.00     0.047 A 
ATOM     11  C   UNL     1       7.998 -29.639   1.202  1.00  0.00     0.020 A 
ENDROOT
BRANCH   1  12
ATOM     12  C   UNL     1       3.607 -30.283   4.709  1.00  0.00     0.025 A 
ATOM     13  C   UNL     1       3.160 -29.181   5.456  1.00  0.00     0.016 A 
ATOM     14  C   UNL     1       2.109 -29.321   6.367  1.00  0.00     0.051 A 
ATOM     15  C   UNL     1       1.481 -30.562   6.533  1.00  0.00     0.157 A 
ATOM     16  C   UNL     1       2.958 -31.521   4.864  1.00  0.00     0.062 A 
ATOM     17  C   UNL     1       1.903 -31.663   5.777  1.00  0.00     0.158 A 
BRANCH  15  18
ATOM     18  O   UNL     1       0.435 -30.707   7.442  1.00  0.00    -0.504 OA
ATOM     19  H   UNL     1      -0.418 -31.196   7.196  1.00  0.00     0.293 HD
ENDBRANCH  15  18
BRANCH  17  20
ATOM     20  O   UNL     1       1.266 -32.892   5.934  1.00  0.00    -0.504 OA
ATOM     21  H   UNL     1       0.304 -32.956   6.248  1.00  0.00     0.293 HD
ENDBRANCH  17  20
ENDBRANCH   1  12
BRANCH   2  22
ATOM     22  O   UNL     1       3.159 -29.557   1.932  1.00  0.00    -0.502 OA
ATOM     23  H   UNL     1       2.885 -29.790   0.985  1.00  0.00     0.293 HD
ENDBRANCH   2  22
BRANCH   9  24
ATOM     24  O   UNL     1      10.698 -30.522   3.563  1.00  0.00    -0.508 OA
ATOM     25  H   UNL     1      10.850 -30.732   4.543  1.00  0.00     0.293 HD
ENDBRANCH   9  24
TORSDOF 5
ENDMDL
MODEL 7
REMARK VINA RESULT:    -6.950      1.885      3.634
REMARK INTER + INTRA:          -8.370
REMARK INTER:                  -8.746
REMARK INTRA:                   0.376
REMARK UNBOUND:                -0.201
REMARK SMILES O=c1c(O)c(-c2ccc(O)c(O)c2)oc2cc(O)ccc12
REMARK SMILES IDX 5 1 3 2 2 3 1 4 21 5 15 6 14 7 16 8 17 9 19 10 20 11 6 12
REMARK SMILES IDX 7 13 8 14 9 15 13 16 11 17 10 18 12 20 4 22 18 24
REMARK H PARENT 10 19 12 21 4 23 18 25
REMARK Flexibility Score: inf
ROOT
ATOM      1  C   UNL     1       1.470 -27.089  -0.716  1.00  0.00     0.180 A 
ATOM      2  C   UNL     1       1.988 -27.853   0.350  1.00  0.00     0.208 A 
ATOM      3  C   UNL     1       3.288 -28.372   0.242  1.00  0.00     0.235 A 
ATOM      4  O   UNL     1       3.770 -29.067   1.177  1.00  0.00    -0.285 OA
ATOM      5  C   UNL     1       4.045 -28.103  -0.911  1.00  0.00     0.069 A 
ATOM      6  C   UNL     1       3.463 -27.310  -1.923  1.00  0.00     0.142 A 
ATOM      7  O   UNL     1       2.226 -26.846  -1.785  1.00  0.00    -0.452 OA
ATOM      8  C   UNL     1       4.188 -27.011  -3.081  1.00  0.00     0.094 A 
ATOM      9  C   UNL     1       5.492 -27.498  -3.242  1.00  0.00     0.119 A 
ATOM     10  C   UNL     1       6.071 -28.285  -2.241  1.00  0.00     0.047 A 
ATOM     11  C   UNL     1       5.354 -28.589  -1.079  1.00  0.00     0.020 A 
ENDROOT
BRANCH   1  12
ATOM     12  C   UNL     1       0.102 -26.524  -0.686  1.00  0.00     0.025 A 
ATOM     13  C   UNL     1      -0.248 -25.513  -1.596  1.00  0.00     0.016 A 
ATOM     14  C   UNL     1      -1.539 -24.980  -1.600  1.00  0.00     0.051 A 
ATOM     15  C   UNL     1      -2.504 -25.459  -0.704  1.00  0.00     0.157 A 
ATOM     16  C   UNL     1      -0.876 -27.017   0.197  1.00  0.00     0.062 A 
ATOM     17  C   UNL     1      -2.172 -26.483   0.193  1.00  0.00     0.158 A 
BRANCH  15  18
ATOM     18  O   UNL     1      -3.792 -24.929  -0.703  1.00  0.00    -0.504 OA
ATOM     19  H   UNL     1      -4.551 -25.378  -1.201  1.00  0.00     0.293 HD
ENDBRANCH  15  18
BRANCH  17  20
ATOM     20  O   UNL     1      -3.138 -26.968   1.073  1.00  0.00    -0.504 OA
ATOM     21  H   UNL     1      -3.006 -26.935   2.078  1.00  0.00     0.293 HD
ENDBRANCH  17  20
ENDBRANCH   1  12
BRANCH   2  22
ATOM     22  O   UNL     1       1.230 -28.063   1.505  1.00  0.00    -0.502 OA
ATOM     23  H   UNL     1       0.222 -27.967   1.516  1.00  0.00     0.293 HD
ENDBRANCH   2  22
BRANCH   9  24
ATOM     24  O   UNL     1       6.222 -27.206  -4.393  1.00  0.00    -0.508 OA
ATOM     25  H   UNL     1       6.083 -26.342  -4.903  1.00  0.00     0.293 HD
ENDBRANCH   9  24
TORSDOF 5
ENDMDL
MODEL 8
REMARK VINA RESULT:    -6.935      3.289      6.696
REMARK INTER + INTRA:          -8.352
REMARK INTER:                  -8.763
REMARK INTRA:                   0.411
REMARK UNBOUND:                -0.201
REMARK SMILES O=c1c(O)c(-c2ccc(O)c(O)c2)oc2cc(O)ccc12
REMARK SMILES IDX 5 1 3 2 2 3 1 4 21 5 15 6 14 7 16 8 17 9 19 10 20 11 6 12
REMARK SMILES IDX 7 13 8 14 9 15 13 16 11 17 10 18 12 20 4 22 18 24
REMARK H PARENT 10 19 12 21 4 23 18 25
REMARK Flexibility Score: inf
ROOT
ATOM      1  C   UNL     1       3.577 -28.650   0.923  1.00  0.00     0.180 A 
ATOM      2  C   UNL     1       2.305 -28.129   0.608  1.00  0.00     0.208 A 
ATOM      3  C   UNL     1       2.100 -27.564  -0.660  1.00  0.00     0.235 A 
ATOM      4  O   UNL     1       0.975 -27.082  -0.962  1.00  0.00    -0.285 OA
ATOM      5  C   UNL     1       3.155 -27.550  -1.588  1.00  0.00     0.069 A 
ATOM      6  C   UNL     1       4.391 -28.114  -1.204  1.00  0.00     0.142 A 
ATOM      7  O   UNL     1       4.546 -28.630   0.010  1.00  0.00    -0.452 OA
ATOM      8  C   UNL     1       5.463 -28.127  -2.102  1.00  0.00     0.094 A 
ATOM      9  C   UNL     1       5.315 -27.582  -3.385  1.00  0.00     0.119 A 
ATOM     10  C   UNL     1       4.092 -27.022  -3.767  1.00  0.00     0.047 A 
ATOM     11  C   UNL     1       3.014 -27.004  -2.876  1.00  0.00     0.020 A 
ENDROOT
BRANCH   1  12
ATOM     12  C   UNL     1       3.876 -29.244   2.246  1.00  0.00     0.025 A 
ATOM     13  C   UNL     1       5.065 -29.972   2.422  1.00  0.00     0.016 A 
ATOM     14  C   UNL     1       5.379 -30.524   3.667  1.00  0.00     0.051 A 
ATOM     15  C   UNL     1       4.517 -30.344   4.757  1.00  0.00     0.157 A 
ATOM     16  C   UNL     1       3.025 -29.049   3.348  1.00  0.00     0.062 A 
ATOM     17  C   UNL     1       3.340 -29.602   4.598  1.00  0.00     0.158 A 
BRANCH  15  18
ATOM     18  O   UNL     1       4.825 -30.895   5.999  1.00  0.00    -0.504 OA
ATOM     19  H   UNL     1       4.224 -31.583   6.438  1.00  0.00     0.293 HD
ENDBRANCH  15  18
BRANCH  17  20
ATOM     20  O   UNL     1       2.492 -29.412   5.687  1.00  0.00    -0.504 OA
ATOM     21  H   UNL     1       1.985 -28.544   5.821  1.00  0.00     0.293 HD
ENDBRANCH  17  20
ENDBRANCH   1  12
BRANCH   2  22
ATOM     22  O   UNL     1       1.260 -28.201   1.533  1.00  0.00    -0.502 OA
ATOM     23  H   UNL     1       1.078 -27.464   2.203  1.00  0.00     0.293 HD
ENDBRANCH   2  22
BRANCH   9  24
ATOM     24  O   UNL     1       6.378 -27.591  -4.286  1.00  0.00    -0.508 OA
ATOM     25  H   UNL     1       7.335 -27.713  -3.976  1.00  0.00     0.293 HD
ENDBRANCH   9  24
TORSDOF 5
ENDMDL
MODEL 9
REMARK VINA RESULT:    -6.802      3.381      6.484
REMARK INTER + INTRA:          -8.196
REMARK INTER:                  -8.049
REMARK INTRA:                  -0.147
REMARK UNBOUND:                -0.201
REMARK SMILES O=c1c(O)c(-c2ccc(O)c(O)c2)oc2cc(O)ccc12
REMARK SMILES IDX 5 1 3 2 2 3 1 4 21 5 15 6 14 7 16 8 17 9 19 10 20 11 6 12
REMARK SMILES IDX 7 13 8 14 9 15 13 16 11 17 10 18 12 20 4 22 18 24
REMARK H PARENT 10 19 12 21 4 23 18 25
REMARK Flexibility Score: inf
ROOT
ATOM      1  C   UNL     1       4.388 -30.054   2.753  1.00  0.00     0.180 A 
ATOM      2  C   UNL     1       3.759 -31.161   3.359  1.00  0.00     0.208 A 
ATOM      3  C   UNL     1       4.440 -31.859   4.368  1.00  0.00     0.235 A 
ATOM      4  O   UNL     1       3.902 -32.859   4.917  1.00  0.00    -0.285 OA
ATOM      5  C   UNL     1       5.717 -31.429   4.763  1.00  0.00     0.069 A 
ATOM      6  C   UNL     1       6.269 -30.297   4.125  1.00  0.00     0.142 A 
ATOM      7  O   UNL     1       5.594 -29.671   3.168  1.00  0.00    -0.452 OA
ATOM      8  C   UNL     1       7.534 -29.832   4.497  1.00  0.00     0.094 A 
ATOM      9  C   UNL     1       8.259 -30.486   5.503  1.00  0.00     0.119 A 
ATOM     10  C   UNL     1       7.715 -31.608   6.136  1.00  0.00     0.047 A 
ATOM     11  C   UNL     1       6.450 -32.081   5.771  1.00  0.00     0.020 A 
ENDROOT
BRANCH   1  12
ATOM     12  C   UNL     1       3.743 -29.279   1.670  1.00  0.00     0.025 A 
ATOM     13  C   UNL     1       2.581 -28.541   1.947  1.00  0.00     0.016 A 
ATOM     14  C   UNL     1       1.967 -27.785   0.945  1.00  0.00     0.051 A 
ATOM     15  C   UNL     1       2.513 -27.744  -0.345  1.00  0.00     0.157 A 
ATOM     16  C   UNL     1       4.300 -29.219   0.379  1.00  0.00     0.062 A 
ATOM     17  C   UNL     1       3.684 -28.460  -0.627  1.00  0.00     0.158 A 
BRANCH  15  18
ATOM     18  O   UNL     1       1.903 -26.994  -1.347  1.00  0.00    -0.504 OA
ATOM     19  H   UNL     1       1.374 -27.434  -2.092  1.00  0.00     0.293 HD
ENDBRANCH  15  18
BRANCH  17  20
ATOM     20  O   UNL     1       4.234 -28.406  -1.906  1.00  0.00    -0.504 OA
ATOM     21  H   UNL     1       4.039 -29.121  -2.598  1.00  0.00     0.293 HD
ENDBRANCH  17  20
ENDBRANCH   1  12
BRANCH   2  22
ATOM     22  O   UNL     1       2.467 -31.536   2.979  1.00  0.00    -0.502 OA
ATOM     23  H   UNL     1       1.992 -32.332   3.387  1.00  0.00     0.293 HD
ENDBRANCH   2  22
BRANCH   9  24
ATOM     24  O   UNL     1       9.520 -30.029   5.879  1.00  0.00    -0.508 OA
ATOM     25  H   UNL     1      10.223 -29.785   5.191  1.00  0.00     0.293 HD
ENDBRANCH   9  24
TORSDOF 5
ENDMDL
