MODEL 1
REMARK VINA RESULT:    -3.064      0.000      0.000
REMARK INTER + INTRA:          -4.544
REMARK INTER:                  -4.676
REMARK INTRA:                   0.132
REMARK UNBOUND:                 0.132
REMARK SMILES CC1=CCC[C@H](C)C(=O)C[C@H](C(C)C)C(=O)C1
REMARK SMILES IDX 8 1 9 2 6 3 7 4 5 5 4 6 3 7 2 8 1 9 10 11 11 12 15 13 16 14
REMARK SMILES IDX 17 15 12 17 13 18 14 19
REMARK H PARENT
REMARK Flexibility Score: 70.00
ROOT
ATOM      1  C   UNL     1      28.115  25.177  27.045  1.00  0.00     0.136 C 
ATOM      2  O   UNL     1      28.902  24.298  27.366  1.00  0.00    -0.299 OA
ENDROOT
BRANCH   1   3
ATOM      3  C   UNL     1      26.739  24.807  26.532  1.00  0.00     0.053 C 
ATOM      4  C   UNL     1      26.880  23.925  25.287  1.00  0.00     0.016 C 
BRANCH   3   5
ATOM      5  C   UNL     1      25.889  24.087  27.603  1.00  0.00     0.015 C 
BRANCH   5   6
ATOM      6  C   UNL     1      25.520  24.988  28.790  1.00  0.00     0.028 C 
BRANCH   6   7
ATOM      7  C   UNL     1      24.618  26.121  28.358  1.00  0.00    -0.028 C 
ATOM      8  C   UNL     1      24.787  27.431  28.649  1.00  0.00    -0.070 CG0
ATOM      9  C   UNL     1      23.779  28.408  28.094  1.00  0.00     0.039 C 
ATOM     10  G   UNL     1      25.936  27.975  29.479  1.00  0.00     0.000 G0
ENDBRANCH   6   7
ENDBRANCH   5   6
ENDBRANCH   3   5
ENDBRANCH   1   3
BRANCH   1  11
ATOM     11  C   UNL     1      28.567  26.616  27.053  1.00  0.00     0.087 C 
BRANCH  11  12
ATOM     12  C   UNL     1      27.417  27.639  27.237  1.00  0.00     0.066 C 
BRANCH  12  13
ATOM     13  C   UNL     1      27.255  27.962  28.722  1.00  0.00     0.140 C 
ATOM     14  O   UNL     1      28.271  28.198  29.363  1.00  0.00    -0.299 OA
BRANCH  13  15
ATOM     15  C   UNL     1      25.934  27.981  29.464  1.00  0.00     0.106 CG0
ATOM     16  G   UNL     1      24.807  27.429  28.610  1.00  0.00     0.000 G0
ENDBRANCH  13  15
ENDBRANCH  12  13
BRANCH  12  17
ATOM     17  C   UNL     1      27.476  28.871  26.273  1.00  0.00    -0.006 C 
ATOM     18  C   UNL     1      26.954  28.505  24.869  1.00  0.00     0.008 C 
ATOM     19  C   UNL     1      28.910  29.414  26.117  1.00  0.00     0.008 C 
ENDBRANCH  12  17
ENDBRANCH  11  12
ENDBRANCH   1  11
TORSDOF 1
ENDMDL
MODEL 2
REMARK VINA RESULT:    -2.241      1.914      3.609
REMARK INTER + INTRA:          -3.289
REMARK INTER:                  -3.689
REMARK INTRA:                   0.401
REMARK UNBOUND:                 0.132
REMARK SMILES CC1=CCC[C@H](C)C(=O)C[C@H](C(C)C)C(=O)C1
REMARK SMILES IDX 8 1 9 2 6 3 7 4 5 5 4 6 3 7 2 8 1 9 10 11 11 12 15 13 16 14
REMARK SMILES IDX 17 15 12 17 13 18 14 19
REMARK H PARENT
REMARK Flexibility Score: 70.00
ROOT
ATOM      1  C   UNL     1      27.774  27.855  27.006  1.00  0.00     0.136 C 
ATOM      2  O   UNL     1      28.577  28.778  27.015  1.00  0.00    -0.299 OA
ENDROOT
BRANCH   1   3
ATOM      3  C   UNL     1      28.252  26.444  26.731  1.00  0.00     0.053 C 
ATOM      4  C   UNL     1      29.030  26.418  25.412  1.00  0.00     0.016 C 
BRANCH   3   5
ATOM      5  C   UNL     1      29.125  25.887  27.878  1.00  0.00     0.015 C 
BRANCH   5   6
ATOM      6  C   UNL     1      28.504  24.670  28.577  1.00  0.00     0.028 C 
BRANCH   6   7
ATOM      7  C   UNL     1      27.288  24.171  27.830  1.00  0.00    -0.028 C 
ATOM      8  C   UNL     1      26.001  24.484  28.102  1.00  0.00    -0.070 CG0
ATOM      9  C   UNL     1      24.933  23.896  27.212  1.00  0.00     0.039 C 
ATOM     10  G   UNL     1      25.571  25.405  29.231  1.00  0.00     0.000 G0
ENDBRANCH   6   7
ENDBRANCH   5   6
ENDBRANCH   3   5
ENDBRANCH   1   3
BRANCH   1  11
ATOM     11  C   UNL     1      26.303  28.151  27.152  1.00  0.00     0.087 C 
BRANCH  11  12
ATOM     12  C   UNL     1      25.772  28.015  28.602  1.00  0.00     0.066 C 
BRANCH  12  13
ATOM     13  C   UNL     1      24.993  26.708  28.740  1.00  0.00     0.140 C 
ATOM     14  O   UNL     1      23.804  26.726  28.449  1.00  0.00    -0.299 OA
BRANCH  13  15
ATOM     15  C   UNL     1      25.575  25.402  29.241  1.00  0.00     0.106 CG0
ATOM     16  G   UNL     1      25.980  24.495  28.092  1.00  0.00     0.000 G0
ENDBRANCH  13  15
ENDBRANCH  12  13
BRANCH  12  17
ATOM     17  C   UNL     1      26.834  28.297  29.717  1.00  0.00    -0.006 C 
ATOM     18  C   UNL     1      26.517  27.506  31.002  1.00  0.00     0.008 C 
ATOM     19  C   UNL     1      26.900  29.792  30.087  1.00  0.00     0.008 C 
ENDBRANCH  12  17
ENDBRANCH  11  12
ENDBRANCH   1  11
TORSDOF 1
ENDMDL
MODEL 3
REMARK VINA RESULT:    -0.379     11.960     14.422
REMARK INTER + INTRA:          -0.447
REMARK INTER:                  -1.249
REMARK INTRA:                   0.802
REMARK UNBOUND:                 0.132
REMARK SMILES CC1=CCC[C@H](C)C(=O)C[C@H](C(C)C)C(=O)C1
REMARK SMILES IDX 8 1 9 2 6 3 7 4 5 5 4 6 3 7 2 8 1 9 10 11 11 12 15 13 16 14
REMARK SMILES IDX 17 15 12 17 13 18 14 19
REMARK H PARENT
REMARK Flexibility Score: 70.00
ROOT
ATOM      1  C   UNL     1      27.240  37.736  18.726  1.00  0.00     0.136 C 
ATOM      2  O   UNL     1      26.188  37.911  18.128  1.00  0.00    -0.299 OA
ENDROOT
BRANCH   1   3
ATOM      3  C   UNL     1      28.530  38.291  18.158  1.00  0.00     0.053 C 
ATOM      4  C   UNL     1      28.281  38.807  16.737  1.00  0.00     0.016 C 
BRANCH   3   5
ATOM      5  C   UNL     1      29.122  39.415  19.039  1.00  0.00     0.015 C 
BRANCH   5   6
ATOM      6  C   UNL     1      28.214  40.649  19.139  1.00  0.00     0.028 C 
BRANCH   6   7
ATOM      7  C   UNL     1      28.019  41.070  20.576  1.00  0.00    -0.028 C 
ATOM      8  C   UNL     1      26.959  40.766  21.360  1.00  0.00    -0.070 CG0
ATOM      9  C   UNL     1      26.974  41.266  22.784  1.00  0.00     0.039 C 
ATOM     10  G   UNL     1      25.773  39.938  20.900  1.00  0.00     0.000 G0
ENDBRANCH   6   7
ENDBRANCH   5   6
ENDBRANCH   3   5
ENDBRANCH   1   3
BRANCH   1  11
ATOM     11  C   UNL     1      27.257  36.870  19.961  1.00  0.00     0.087 C 
BRANCH  11  12
ATOM     12  C   UNL     1      27.108  37.658  21.287  1.00  0.00     0.066 C 
BRANCH  12  13
ATOM     13  C   UNL     1      25.815  38.473  21.254  1.00  0.00     0.140 C 
ATOM     14  O   UNL     1      24.770  37.883  21.491  1.00  0.00    -0.299 OA
BRANCH  13  15
ATOM     15  C   UNL     1      25.732  39.948  20.917  1.00  0.00     0.106 CG0
ATOM     16  G   UNL     1      26.969  40.696  21.379  1.00  0.00     0.000 G0
ENDBRANCH  13  15
ENDBRANCH  12  13
BRANCH  12  17
ATOM     17  C   UNL     1      27.347  36.811  22.582  1.00  0.00    -0.006 C 
ATOM     18  C   UNL     1      28.391  35.703  22.338  1.00  0.00     0.008 C 
ATOM     19  C   UNL     1      26.052  36.139  23.080  1.00  0.00     0.008 C 
ENDBRANCH  12  17
ENDBRANCH  11  12
ENDBRANCH   1  11
TORSDOF 1
ENDMDL
MODEL 4
REMARK VINA RESULT:    -0.305      1.870      4.243
REMARK INTER + INTRA:          -0.333
REMARK INTER:                  -3.162
REMARK INTRA:                   2.829
REMARK UNBOUND:                 0.132
REMARK SMILES CC1=CCC[C@H](C)C(=O)C[C@H](C(C)C)C(=O)C1
REMARK SMILES IDX 8 1 9 2 6 3 7 4 5 5 4 6 3 7 2 8 1 9 10 11 11 12 15 13 16 14
REMARK SMILES IDX 17 15 12 17 13 18 14 19
REMARK H PARENT
REMARK Flexibility Score: 70.00
ROOT
ATOM      1  C   UNL     1      27.262  28.382  27.630  1.00  0.00     0.136 C 
ATOM      2  O   UNL     1      27.811  29.232  28.316  1.00  0.00    -0.299 OA
ENDROOT
BRANCH   1   3
ATOM      3  C   UNL     1      27.816  28.044  26.261  1.00  0.00     0.053 C 
ATOM      4  C   UNL     1      28.540  29.267  25.689  1.00  0.00     0.016 C 
BRANCH   3   5
ATOM      5  C   UNL     1      28.769  26.828  26.299  1.00  0.00     0.015 C 
BRANCH   5   6
ATOM      6  C   UNL     1      28.279  25.647  25.450  1.00  0.00     0.028 C 
BRANCH   6   7
ATOM      7  C   UNL     1      27.216  24.855  26.176  1.00  0.00    -0.028 C 
ATOM      8  C   UNL     1      27.031  24.808  27.516  1.00  0.00    -0.070 CG0
ATOM      9  C   UNL     1      25.888  23.971  28.036  1.00  0.00     0.039 C 
ATOM     10  G   UNL     1      27.888  25.561  28.518  1.00  0.00     0.000 G0
ENDBRANCH   6   7
ENDBRANCH   5   6
ENDBRANCH   3   5
ENDBRANCH   1   3
BRANCH   1  11
ATOM     11  C   UNL     1      25.971  27.764  28.108  1.00  0.00     0.087 C 
BRANCH  11  12
ATOM     12  C   UNL     1      26.022  27.245  29.567  1.00  0.00     0.066 C 
BRANCH  12  13
ATOM     13  C   UNL     1      27.039  26.109  29.670  1.00  0.00     0.140 C 
ATOM     14  O   UNL     1      27.222  25.614  30.774  1.00  0.00    -0.299 OA
BRANCH  13  15
ATOM     15  C   UNL     1      27.859  25.575  28.514  1.00  0.00     0.106 CG0
ATOM     16  G   UNL     1      26.996  24.818  27.521  1.00  0.00     0.000 G0
ENDBRANCH  13  15
ENDBRANCH  12  13
BRANCH  12  17
ATOM     17  C   UNL     1      26.136  28.364  30.657  1.00  0.00    -0.006 C 
ATOM     18  C   UNL     1      26.091  27.765  32.077  1.00  0.00     0.008 C 
ATOM     19  C   UNL     1      24.998  29.397  30.544  1.00  0.00     0.008 C 
ENDBRANCH  12  17
ENDBRANCH  11  12
ENDBRANCH   1  11
TORSDOF 1
ENDMDL
