MODEL 1
REMARK VINA RESULT:    -4.783      0.000      0.000
REMARK INTER + INTRA:          -8.155
REMARK INTER:                  -7.300
REMARK INTRA:                  -0.855
REMARK UNBOUND:                -0.855
REMARK SMILES CCCCCCCCCCC(=O)[O-]
REMARK SMILES IDX 7 1 8 2 9 3 10 4 11 5 12 6 13 7 6 8 5 9 4 10 3 11 2 12 1 13
REMARK H PARENT
REMARK Flexibility Score: inf
ROOT
ATOM      1  C   UNL     1     117.323 -82.459  22.057  1.00  0.00     0.000 C 
ENDROOT
BRANCH   1   2
ATOM      2  C   UNL     1     116.491 -83.479  21.271  1.00  0.00     0.000 C 
BRANCH   2   3
ATOM      3  C   UNL     1     115.299 -82.803  20.583  1.00  0.00     0.006 C 
BRANCH   3   4
ATOM      4  C   UNL     1     114.045 -83.677  20.671  1.00  0.00     0.053 C 
BRANCH   4   5
ATOM      5  C   UNL     1     112.989 -83.001  21.487  1.00  0.00     0.041 C 
ATOM      6  O   UNL     1     112.863 -81.749  21.448  1.00  0.00    -0.550 OA
ATOM      7  O   UNL     1     112.177 -83.749  22.331  1.00  0.00    -0.550 OA
ENDBRANCH   4   5
ENDBRANCH   3   4
ENDBRANCH   2   3
ENDBRANCH   1   2
BRANCH   1   8
ATOM      8  C   UNL     1     118.756 -82.380  21.508  1.00  0.00     0.000 C 
BRANCH   8   9
ATOM      9  C   UNL     1     119.201 -80.936  21.224  1.00  0.00    -0.000 C 
BRANCH   9  10
ATOM     10  C   UNL     1     118.032 -80.022  20.829  1.00  0.00    -0.000 C 
BRANCH  10  11
ATOM     11  C   UNL     1     117.906 -78.842  21.798  1.00  0.00    -0.000 C 
BRANCH  11  12
ATOM     12  C   UNL     1     116.435 -78.498  22.059  1.00  0.00    -0.003 C 
ATOM     13  C   UNL     1     115.527 -79.120  21.002  1.00  0.00     0.004 C 
ENDBRANCH  11  12
ENDBRANCH  10  11
ENDBRANCH   9  10
ENDBRANCH   8   9
ENDBRANCH   1   8
TORSDOF 9
ENDMDL
MODEL 2
REMARK VINA RESULT:    -4.754      9.660     11.764
REMARK INTER + INTRA:          -8.110
REMARK INTER:                  -7.121
REMARK INTRA:                  -0.989
REMARK UNBOUND:                -0.855
REMARK SMILES CCCCCCCCCCC(=O)[O-]
REMARK SMILES IDX 7 1 8 2 9 3 10 4 11 5 12 6 13 7 6 8 5 9 4 10 3 11 2 12 1 13
REMARK H PARENT
REMARK Flexibility Score: inf
ROOT
ATOM      1  C   UNL     1     104.316 -82.113  22.733  1.00  0.00     0.000 C 
ENDROOT
BRANCH   1   2
ATOM      2  C   UNL     1     105.624 -81.428  22.318  1.00  0.00     0.000 C 
BRANCH   2   3
ATOM      3  C   UNL     1     106.840 -82.193  22.852  1.00  0.00     0.006 C 
BRANCH   3   4
ATOM      4  C   UNL     1     107.257 -81.672  24.230  1.00  0.00     0.053 C 
BRANCH   4   5
ATOM      5  C   UNL     1     106.877 -82.649  25.297  1.00  0.00     0.041 C 
ATOM      6  O   UNL     1     106.414 -83.778  24.988  1.00  0.00    -0.550 OA
ATOM      7  O   UNL     1     106.986 -82.293  26.636  1.00  0.00    -0.550 OA
ENDBRANCH   4   5
ENDBRANCH   3   4
ENDBRANCH   2   3
ENDBRANCH   1   2
BRANCH   1   8
ATOM      8  C   UNL     1     103.196 -81.814  21.725  1.00  0.00     0.000 C 
BRANCH   8   9
ATOM      9  C   UNL     1     102.783 -83.054  20.915  1.00  0.00    -0.000 C 
BRANCH   9  10
ATOM     10  C   UNL     1     103.345 -83.044  19.486  1.00  0.00    -0.000 C 
BRANCH  10  11
ATOM     11  C   UNL     1     104.727 -83.703  19.435  1.00  0.00    -0.000 C 
BRANCH  11  12
ATOM     12  C   UNL     1     105.728 -82.827  18.673  1.00  0.00    -0.003 C 
ATOM     13  C   UNL     1     105.228 -81.390  18.557  1.00  0.00     0.004 C 
ENDBRANCH  11  12
ENDBRANCH  10  11
ENDBRANCH   9  10
ENDBRANCH   8   9
ENDBRANCH   1   8
TORSDOF 9
ENDMDL
MODEL 3
REMARK VINA RESULT:    -4.676      2.005      3.372
REMARK INTER + INTRA:          -7.991
REMARK INTER:                  -7.341
REMARK INTRA:                  -0.650
REMARK UNBOUND:                -0.855
REMARK SMILES CCCCCCCCCCC(=O)[O-]
REMARK SMILES IDX 7 1 8 2 9 3 10 4 11 5 12 6 13 7 6 8 5 9 4 10 3 11 2 12 1 13
REMARK H PARENT
REMARK Flexibility Score: inf
ROOT
ATOM      1  C   UNL     1     116.526 -81.629  21.842  1.00  0.00     0.000 C 
ENDROOT
BRANCH   1   2
ATOM      2  C   UNL     1     115.999 -83.031  21.514  1.00  0.00     0.000 C 
BRANCH   2   3
ATOM      3  C   UNL     1     115.132 -83.012  20.250  1.00  0.00     0.006 C 
BRANCH   3   4
ATOM      4  C   UNL     1     113.836 -83.801  20.459  1.00  0.00     0.053 C 
BRANCH   4   5
ATOM      5  C   UNL     1     112.954 -83.110  21.450  1.00  0.00     0.041 C 
ATOM      6  O   UNL     1     112.403 -83.764  22.373  1.00  0.00    -0.550 OA
ATOM      7  O   UNL     1     112.699 -81.750  21.323  1.00  0.00    -0.550 OA
ENDBRANCH   4   5
ENDBRANCH   3   4
ENDBRANCH   2   3
ENDBRANCH   1   2
BRANCH   1   8
ATOM      8  C   UNL     1     118.059 -81.630  21.946  1.00  0.00     0.000 C 
BRANCH   8   9
ATOM      9  C   UNL     1     118.645 -83.049  22.026  1.00  0.00    -0.000 C 
BRANCH   9  10
ATOM     10  C   UNL     1     119.582 -83.236  23.229  1.00  0.00    -0.000 C 
BRANCH  10  11
ATOM     11  C   UNL     1     120.123 -81.889  23.719  1.00  0.00    -0.000 C 
BRANCH  11  12
ATOM     12  C   UNL     1     120.341 -81.902  25.236  1.00  0.00    -0.003 C 
ATOM     13  C   UNL     1     119.539 -83.018  25.900  1.00  0.00     0.004 C 
ENDBRANCH  11  12
ENDBRANCH  10  11
ENDBRANCH   9  10
ENDBRANCH   8   9
ENDBRANCH   1   8
TORSDOF 9
ENDMDL
MODEL 4
REMARK VINA RESULT:    -4.667      1.121      3.041
REMARK INTER + INTRA:          -7.977
REMARK INTER:                  -6.956
REMARK INTRA:                  -1.021
REMARK UNBOUND:                -0.855
REMARK SMILES CCCCCCCCCCC(=O)[O-]
REMARK SMILES IDX 7 1 8 2 9 3 10 4 11 5 12 6 13 7 6 8 5 9 4 10 3 11 2 12 1 13
REMARK H PARENT
REMARK Flexibility Score: inf
ROOT
ATOM      1  C   UNL     1     115.627 -78.940  21.165  1.00  0.00     0.000 C 
ENDROOT
BRANCH   1   2
ATOM      2  C   UNL     1     114.585 -80.048  21.356  1.00  0.00     0.000 C 
BRANCH   2   3
ATOM      3  C   UNL     1     114.963 -81.303  20.560  1.00  0.00     0.006 C 
BRANCH   3   4
ATOM      4  C   UNL     1     114.981 -82.542  21.459  1.00  0.00     0.053 C 
BRANCH   4   5
ATOM      5  C   UNL     1     113.860 -83.466  21.104  1.00  0.00     0.041 C 
ATOM      6  O   UNL     1     113.872 -84.085  20.009  1.00  0.00    -0.550 OA
ATOM      7  O   UNL     1     112.774 -83.603  21.961  1.00  0.00    -0.550 OA
ENDBRANCH   4   5
ENDBRANCH   3   4
ENDBRANCH   2   3
ENDBRANCH   1   2
BRANCH   1   8
ATOM      8  C   UNL     1     116.516 -78.803  22.411  1.00  0.00     0.000 C 
BRANCH   8   9
ATOM      9  C   UNL     1     118.012 -78.951  22.090  1.00  0.00    -0.000 C 
BRANCH   9  10
ATOM     10  C   UNL     1     118.263 -79.644  20.742  1.00  0.00    -0.000 C 
BRANCH  10  11
ATOM     11  C   UNL     1     119.285 -80.776  20.890  1.00  0.00    -0.000 C 
BRANCH  11  12
ATOM     12  C   UNL     1     118.871 -81.752  21.997  1.00  0.00    -0.003 C 
ATOM     13  C   UNL     1     118.558 -83.133  21.428  1.00  0.00     0.004 C 
ENDBRANCH  11  12
ENDBRANCH  10  11
ENDBRANCH   9  10
ENDBRANCH   8   9
ENDBRANCH   1   8
TORSDOF 9
ENDMDL
MODEL 5
REMARK VINA RESULT:    -4.610      2.965      4.912
REMARK INTER + INTRA:          -7.890
REMARK INTER:                  -6.909
REMARK INTRA:                  -0.982
REMARK UNBOUND:                -0.855
REMARK SMILES CCCCCCCCCCC(=O)[O-]
REMARK SMILES IDX 7 1 8 2 9 3 10 4 11 5 12 6 13 7 6 8 5 9 4 10 3 11 2 12 1 13
REMARK H PARENT
REMARK Flexibility Score: inf
ROOT
ATOM      1  C   UNL     1     115.094 -83.425  20.191  1.00  0.00     0.000 C 
ENDROOT
BRANCH   1   2
ATOM      2  C   UNL     1     115.924 -83.234  21.467  1.00  0.00     0.000 C 
BRANCH   2   3
ATOM      3  C   UNL     1     117.425 -83.318  21.165  1.00  0.00     0.006 C 
BRANCH   3   4
ATOM      4  C   UNL     1     118.255 -82.979  22.407  1.00  0.00     0.053 C 
BRANCH   4   5
ATOM      5  C   UNL     1     119.149 -81.810  22.138  1.00  0.00     0.041 C 
ATOM      6  O   UNL     1     119.114 -81.229  21.022  1.00  0.00    -0.550 OA
ATOM      7  O   UNL     1     120.059 -81.395  23.102  1.00  0.00    -0.550 OA
ENDBRANCH   4   5
ENDBRANCH   3   4
ENDBRANCH   2   3
ENDBRANCH   1   2
BRANCH   1   8
ATOM      8  C   UNL     1     113.629 -83.737  20.531  1.00  0.00     0.000 C 
BRANCH   8   9
ATOM      9  C   UNL     1     113.032 -82.744  21.541  1.00  0.00    -0.000 C 
BRANCH   9  10
ATOM     10  C   UNL     1     112.702 -81.383  20.909  1.00  0.00    -0.000 C 
BRANCH  10  11
ATOM     11  C   UNL     1     113.594 -80.279  21.487  1.00  0.00    -0.000 C 
BRANCH  11  12
ATOM     12  C   UNL     1     114.475 -79.656  20.398  1.00  0.00    -0.003 C 
ATOM     13  C   UNL     1     115.943 -79.647  20.814  1.00  0.00     0.004 C 
ENDBRANCH  11  12
ENDBRANCH  10  11
ENDBRANCH   9  10
ENDBRANCH   8   9
ENDBRANCH   1   8
TORSDOF 9
ENDMDL
MODEL 6
REMARK VINA RESULT:    -4.597      3.468      5.528
REMARK INTER + INTRA:          -7.871
REMARK INTER:                  -6.841
REMARK INTRA:                  -1.030
REMARK UNBOUND:                -0.855
REMARK SMILES CCCCCCCCCCC(=O)[O-]
REMARK SMILES IDX 7 1 8 2 9 3 10 4 11 5 12 6 13 7 6 8 5 9 4 10 3 11 2 12 1 13
REMARK H PARENT
REMARK Flexibility Score: inf
ROOT
ATOM      1  C   UNL     1     115.341 -80.084  20.337  1.00  0.00     0.000 C 
ENDROOT
BRANCH   1   2
ATOM      2  C   UNL     1     115.195 -79.113  21.516  1.00  0.00     0.000 C 
BRANCH   2   3
ATOM      3  C   UNL     1     116.536 -78.451  21.853  1.00  0.00     0.006 C 
BRANCH   3   4
ATOM      4  C   UNL     1     116.669 -78.212  23.360  1.00  0.00     0.053 C 
BRANCH   4   5
ATOM      5  C   UNL     1     117.226 -76.850  23.629  1.00  0.00     0.041 C 
ATOM      6  O   UNL     1     116.456 -75.859  23.734  1.00  0.00    -0.550 OA
ATOM      7  O   UNL     1     118.600 -76.665  23.712  1.00  0.00    -0.550 OA
ENDBRANCH   4   5
ENDBRANCH   3   4
ENDBRANCH   2   3
ENDBRANCH   1   2
BRANCH   1   8
ATOM      8  C   UNL     1     114.943 -81.509  20.748  1.00  0.00     0.000 C 
BRANCH   8   9
ATOM      9  C   UNL     1     115.840 -82.077  21.860  1.00  0.00    -0.000 C 
BRANCH   9  10
ATOM     10  C   UNL     1     116.619 -83.324  21.414  1.00  0.00    -0.000 C 
BRANCH  10  11
ATOM     11  C   UNL     1     118.131 -83.085  21.497  1.00  0.00    -0.000 C 
BRANCH  11  12
ATOM     12  C   UNL     1     118.438 -81.667  21.991  1.00  0.00    -0.003 C 
ATOM     13  C   UNL     1     119.255 -80.889  20.963  1.00  0.00     0.004 C 
ENDBRANCH  11  12
ENDBRANCH  10  11
ENDBRANCH   9  10
ENDBRANCH   8   9
ENDBRANCH   1   8
TORSDOF 9
ENDMDL
MODEL 7
REMARK VINA RESULT:    -4.579      3.290      4.740
REMARK INTER + INTRA:          -7.842
REMARK INTER:                  -6.946
REMARK INTRA:                  -0.896
REMARK UNBOUND:                -0.855
REMARK SMILES CCCCCCCCCCC(=O)[O-]
REMARK SMILES IDX 7 1 8 2 9 3 10 4 11 5 12 6 13 7 6 8 5 9 4 10 3 11 2 12 1 13
REMARK H PARENT
REMARK Flexibility Score: inf
ROOT
ATOM      1  C   UNL     1     116.288 -82.600  21.953  1.00  0.00     0.000 C 
ENDROOT
BRANCH   1   2
ATOM      2  C   UNL     1     117.436 -83.361  21.280  1.00  0.00     0.000 C 
BRANCH   2   3
ATOM      3  C   UNL     1     118.794 -82.759  21.661  1.00  0.00     0.006 C 
BRANCH   3   4
ATOM      4  C   UNL     1     119.258 -83.269  23.028  1.00  0.00     0.053 C 
BRANCH   4   5
ATOM      5  C   UNL     1     119.804 -82.145  23.850  1.00  0.00     0.041 C 
ATOM      6  O   UNL     1     119.640 -82.135  25.099  1.00  0.00    -0.550 OA
ATOM      7  O   UNL     1     120.449 -81.081  23.233  1.00  0.00    -0.550 OA
ENDBRANCH   4   5
ENDBRANCH   3   4
ENDBRANCH   2   3
ENDBRANCH   1   2
BRANCH   1   8
ATOM      8  C   UNL     1     115.083 -82.476  21.007  1.00  0.00     0.000 C 
BRANCH   8   9
ATOM      9  C   UNL     1     114.489 -81.059  20.989  1.00  0.00    -0.000 C 
BRANCH   9  10
ATOM     10  C   UNL     1     115.446 -80.022  20.381  1.00  0.00    -0.000 C 
BRANCH  10  11
ATOM     11  C   UNL     1     115.421 -78.716  21.181  1.00  0.00    -0.000 C 
BRANCH  11  12
ATOM     12  C   UNL     1     116.622 -78.628  22.130  1.00  0.00    -0.003 C 
ATOM     13  C   UNL     1     117.875 -79.223  21.491  1.00  0.00     0.004 C 
ENDBRANCH  11  12
ENDBRANCH  10  11
ENDBRANCH   9  10
ENDBRANCH   8   9
ENDBRANCH   1   8
TORSDOF 9
ENDMDL
MODEL 8
REMARK VINA RESULT:    -4.573      2.612      4.128
REMARK INTER + INTRA:          -7.833
REMARK INTER:                  -6.862
REMARK INTRA:                  -0.971
REMARK UNBOUND:                -0.855
REMARK SMILES CCCCCCCCCCC(=O)[O-]
REMARK SMILES IDX 7 1 8 2 9 3 10 4 11 5 12 6 13 7 6 8 5 9 4 10 3 11 2 12 1 13
REMARK H PARENT
REMARK Flexibility Score: inf
ROOT
ATOM      1  C   UNL     1     112.956 -83.349  21.454  1.00  0.00     0.000 C 
ENDROOT
BRANCH   1   2
ATOM      2  C   UNL     1     112.022 -82.249  20.936  1.00  0.00     0.000 C 
BRANCH   2   3
ATOM      3  C   UNL     1     111.269 -81.576  22.089  1.00  0.00     0.006 C 
BRANCH   3   4
ATOM      4  C   UNL     1     110.653 -82.619  23.027  1.00  0.00     0.053 C 
BRANCH   4   5
ATOM      5  C   UNL     1     109.207 -82.323  23.265  1.00  0.00     0.041 C 
ATOM      6  O   UNL     1     108.464 -83.184  23.806  1.00  0.00    -0.550 OA
ATOM      7  O   UNL     1     108.665 -81.115  22.842  1.00  0.00    -0.550 OA
ENDBRANCH   4   5
ENDBRANCH   3   4
ENDBRANCH   2   3
ENDBRANCH   1   2
BRANCH   1   8
ATOM      8  C   UNL     1     113.971 -83.759  20.377  1.00  0.00     0.000 C 
BRANCH   8   9
ATOM      9  C   UNL     1     115.274 -82.945  20.452  1.00  0.00    -0.000 C 
BRANCH   9  10
ATOM     10  C   UNL     1     115.503 -82.319  21.836  1.00  0.00    -0.000 C 
BRANCH  10  11
ATOM     11  C   UNL     1     115.714 -80.805  21.725  1.00  0.00    -0.000 C 
BRANCH  11  12
ATOM     12  C   UNL     1     115.307 -80.292  20.339  1.00  0.00    -0.003 C 
ATOM     13  C   UNL     1     114.189 -79.258  20.439  1.00  0.00     0.004 C 
ENDBRANCH  11  12
ENDBRANCH  10  11
ENDBRANCH   9  10
ENDBRANCH   8   9
ENDBRANCH   1   8
TORSDOF 9
ENDMDL
MODEL 9
REMARK VINA RESULT:    -4.544      2.788      4.736
REMARK INTER + INTRA:          -7.790
REMARK INTER:                  -6.584
REMARK INTRA:                  -1.207
REMARK UNBOUND:                -0.855
REMARK SMILES CCCCCCCCCCC(=O)[O-]
REMARK SMILES IDX 7 1 8 2 9 3 10 4 11 5 12 6 13 7 6 8 5 9 4 10 3 11 2 12 1 13
REMARK H PARENT
REMARK Flexibility Score: inf
ROOT
ATOM      1  C   UNL     1     115.284 -81.203  20.568  1.00  0.00     0.000 C 
ENDROOT
BRANCH   1   2
ATOM      2  C   UNL     1     115.420 -79.692  20.791  1.00  0.00     0.000 C 
BRANCH   2   3
ATOM      3  C   UNL     1     116.075 -79.391  22.144  1.00  0.00     0.006 C 
BRANCH   3   4
ATOM      4  C   UNL     1     116.387 -77.899  22.285  1.00  0.00     0.053 C 
BRANCH   4   5
ATOM      5  C   UNL     1     115.314 -77.209  23.065  1.00  0.00     0.041 C 
ATOM      6  O   UNL     1     114.877 -77.718  24.130  1.00  0.00    -0.550 OA
ATOM      7  O   UNL     1     114.758 -76.028  22.588  1.00  0.00    -0.550 OA
ENDBRANCH   4   5
ENDBRANCH   3   4
ENDBRANCH   2   3
ENDBRANCH   1   2
BRANCH   1   8
ATOM      8  C   UNL     1     115.692 -81.982  21.828  1.00  0.00     0.000 C 
BRANCH   8   9
ATOM      9  C   UNL     1     116.494 -83.253  21.504  1.00  0.00    -0.000 C 
BRANCH   9  10
ATOM     10  C   UNL     1     118.001 -82.985  21.373  1.00  0.00    -0.000 C 
BRANCH  10  11
ATOM     11  C   UNL     1     118.531 -82.219  22.590  1.00  0.00    -0.000 C 
BRANCH  11  12
ATOM     12  C   UNL     1     119.454 -81.073  22.161  1.00  0.00    -0.003 C 
ATOM     13  C   UNL     1     119.276 -80.746  20.681  1.00  0.00     0.004 C 
ENDBRANCH  11  12
ENDBRANCH  10  11
ENDBRANCH   9  10
ENDBRANCH   8   9
ENDBRANCH   1   8
TORSDOF 9
ENDMDL
