MODEL 1
REMARK VINA RESULT:    -7.160      0.000      0.000
REMARK INTER + INTRA:          -8.092
REMARK INTER:                  -8.835
REMARK INTRA:                   0.743
REMARK UNBOUND:                 0.743
REMARK SMILES COc1cc(-c2oc3cc(O)cc(O)c3c(=O)c2O)ccc1O
REMARK SMILES IDX 6 1 18 2 16 3 17 4 15 5 13 6 12 7 10 8 9 9 8 10 7 11 5 12
REMARK SMILES IDX 3 13 22 14 4 15 21 16 20 17 2 18 1 19 23 20 19 22 14 24
REMARK SMILES IDX 11 26
REMARK H PARENT 23 21 19 23 14 25 11 27
REMARK Flexibility Score: inf
ROOT
ATOM      1  C   UNL     1      23.401  30.212  18.178  1.00  0.00     0.180 A 
ATOM      2  C   UNL     1      22.642  30.749  17.122  1.00  0.00     0.208 A 
ATOM      3  C   UNL     1      21.869  31.897  17.355  1.00  0.00     0.238 A 
ATOM      4  O   UNL     1      21.150  32.340  16.422  1.00  0.00    -0.285 OA
ATOM      5  C   UNL     1      21.877  32.505  18.634  1.00  0.00     0.111 A 
ATOM      6  C   UNL     1      21.164  33.694  18.971  1.00  0.00     0.134 A 
ATOM      7  C   UNL     1      21.139  34.132  20.301  1.00  0.00     0.093 A 
ATOM      8  C   UNL     1      21.855  33.463  21.292  1.00  0.00     0.123 A 
ATOM      9  C   UNL     1      22.605  32.333  20.963  1.00  0.00     0.094 A 
ATOM     10  C   UNL     1      22.619  31.851  19.652  1.00  0.00     0.146 A 
ATOM     11  O   UNL     1      23.336  30.766  19.382  1.00  0.00    -0.452 OA
ENDROOT
BRANCH   1  12
ATOM     12  C   UNL     1      24.260  29.019  18.002  1.00  0.00     0.025 A 
ATOM     13  C   UNL     1      26.173  27.890  16.977  1.00  0.00     0.161 A 
ATOM     14  C   UNL     1      25.896  26.744  17.744  1.00  0.00     0.157 A 
ATOM     15  C   UNL     1      25.353  29.027  17.118  1.00  0.00     0.062 A 
ATOM     16  C   UNL     1      24.822  26.744  18.640  1.00  0.00     0.051 A 
ATOM     17  C   UNL     1      24.014  27.874  18.775  1.00  0.00     0.016 A 
BRANCH  13  18
ATOM     18  O   UNL     1      27.264  27.865  16.093  1.00  0.00    -0.493 OA
ATOM     19  C   UNL     1      28.101  26.734  15.875  1.00  0.00     0.278 C 
ENDBRANCH  13  18
BRANCH  14  20
ATOM     20  O   UNL     1      26.679  25.595  17.634  1.00  0.00    -0.504 OA
ATOM     21  H   UNL     1      27.375  25.484  16.906  1.00  0.00     0.293 HD
ENDBRANCH  14  20
ENDBRANCH   1  12
BRANCH   2  22
ATOM     22  O   UNL     1      22.632  30.120  15.875  1.00  0.00    -0.502 OA
ATOM     23  H   UNL     1      22.140  29.249  15.708  1.00  0.00     0.293 HD
ENDBRANCH   2  22
BRANCH   6  24
ATOM     24  O   UNL     1      20.490  34.490  18.039  1.00  0.00    -0.507 OA
ATOM     25  H   UNL     1      20.546  34.375  17.039  1.00  0.00     0.293 HD
ENDBRANCH   6  24
BRANCH   8  26
ATOM     26  O   UNL     1      21.821  33.936  22.603  1.00  0.00    -0.508 OA
ATOM     27  H   UNL     1      21.933  33.314  23.393  1.00  0.00     0.293 HD
ENDBRANCH   8  26
TORSDOF 6
ENDMDL
MODEL 2
REMARK VINA RESULT:    -6.441     10.651     14.932
REMARK INTER + INTRA:          -7.205
REMARK INTER:                  -6.823
REMARK INTRA:                  -0.382
REMARK UNBOUND:                 0.743
REMARK SMILES COc1cc(-c2oc3cc(O)cc(O)c3c(=O)c2O)ccc1O
REMARK SMILES IDX 6 1 18 2 16 3 17 4 15 5 13 6 12 7 10 8 9 9 8 10 7 11 5 12
REMARK SMILES IDX 3 13 22 14 4 15 21 16 20 17 2 18 1 19 23 20 19 22 14 24
REMARK SMILES IDX 11 26
REMARK H PARENT 23 21 19 23 14 25 11 27
REMARK Flexibility Score: inf
ROOT
ATOM      1  C   UNL     1      20.785  33.565  31.171  1.00  0.00     0.180 A 
ATOM      2  C   UNL     1      20.254  32.349  31.636  1.00  0.00     0.208 A 
ATOM      3  C   UNL     1      20.455  31.987  32.977  1.00  0.00     0.238 A 
ATOM      4  O   UNL     1      20.024  30.873  33.373  1.00  0.00    -0.285 OA
ATOM      5  C   UNL     1      21.167  32.853  33.842  1.00  0.00     0.111 A 
ATOM      6  C   UNL     1      21.394  32.607  35.229  1.00  0.00     0.134 A 
ATOM      7  C   UNL     1      22.224  33.468  35.957  1.00  0.00     0.093 A 
ATOM      8  C   UNL     1      22.781  34.601  35.366  1.00  0.00     0.123 A 
ATOM      9  C   UNL     1      22.517  34.884  34.025  1.00  0.00     0.094 A 
ATOM     10  C   UNL     1      21.723  34.024  33.264  1.00  0.00     0.146 A 
ATOM     11  O   UNL     1      21.504  34.324  31.989  1.00  0.00    -0.452 OA
ENDROOT
BRANCH   1  12
ATOM     12  C   UNL     1      20.593  34.025  29.777  1.00  0.00     0.025 A 
ATOM     13  C   UNL     1      19.253  35.123  28.049  1.00  0.00     0.161 A 
ATOM     14  C   UNL     1      20.299  34.932  27.129  1.00  0.00     0.157 A 
ATOM     15  C   UNL     1      19.411  34.672  29.375  1.00  0.00     0.062 A 
ATOM     16  C   UNL     1      21.483  34.308  27.535  1.00  0.00     0.051 A 
ATOM     17  C   UNL     1      21.634  33.865  28.850  1.00  0.00     0.016 A 
BRANCH  13  18
ATOM     18  O   UNL     1      18.079  35.761  27.616  1.00  0.00    -0.493 OA
ATOM     19  C   UNL     1      16.996  36.125  28.466  1.00  0.00     0.278 C 
ENDBRANCH  13  18
BRANCH  14  20
ATOM     20  O   UNL     1      20.183  35.358  25.806  1.00  0.00    -0.504 OA
ATOM     21  H   UNL     1      20.280  36.331  25.542  1.00  0.00     0.293 HD
ENDBRANCH  14  20
ENDBRANCH   1  12
BRANCH   2  22
ATOM     22  O   UNL     1      19.573  31.499  30.760  1.00  0.00    -0.502 OA
ATOM     23  H   UNL     1      19.371  30.532  30.987  1.00  0.00     0.293 HD
ENDBRANCH   2  22
BRANCH   6  24
ATOM     24  O   UNL     1      20.811  31.553  35.940  1.00  0.00    -0.507 OA
ATOM     25  H   UNL     1      20.445  31.626  36.877  1.00  0.00     0.293 HD
ENDBRANCH   6  24
BRANCH   8  26
ATOM     26  O   UNL     1      23.589  35.446  36.125  1.00  0.00    -0.508 OA
ATOM     27  H   UNL     1      24.516  35.711  35.815  1.00  0.00     0.293 HD
ENDBRANCH   8  26
TORSDOF 6
ENDMDL
MODEL 3
REMARK VINA RESULT:    -6.362     11.125     14.269
REMARK INTER + INTRA:          -7.107
REMARK INTER:                  -6.713
REMARK INTRA:                  -0.393
REMARK UNBOUND:                 0.743
REMARK SMILES COc1cc(-c2oc3cc(O)cc(O)c3c(=O)c2O)ccc1O
REMARK SMILES IDX 6 1 18 2 16 3 17 4 15 5 13 6 12 7 10 8 9 9 8 10 7 11 5 12
REMARK SMILES IDX 3 13 22 14 4 15 21 16 20 17 2 18 1 19 23 20 19 22 14 24
REMARK SMILES IDX 11 26
REMARK H PARENT 23 21 19 23 14 25 11 27
REMARK Flexibility Score: inf
ROOT
ATOM      1  C   UNL     1      20.642  33.560  30.942  1.00  0.00     0.180 A 
ATOM      2  C   UNL     1      21.585  33.503  29.900  1.00  0.00     0.208 A 
ATOM      3  C   UNL     1      21.251  34.047  28.650  1.00  0.00     0.238 A 
ATOM      4  O   UNL     1      22.078  33.945  27.707  1.00  0.00    -0.285 OA
ATOM      5  C   UNL     1      19.987  34.657  28.462  1.00  0.00     0.111 A 
ATOM      6  C   UNL     1      19.558  35.275  27.249  1.00  0.00     0.134 A 
ATOM      7  C   UNL     1      18.239  35.730  27.134  1.00  0.00     0.093 A 
ATOM      8  C   UNL     1      17.353  35.648  28.207  1.00  0.00     0.123 A 
ATOM      9  C   UNL     1      17.780  35.098  29.418  1.00  0.00     0.094 A 
ATOM     10  C   UNL     1      19.079  34.604  29.551  1.00  0.00     0.146 A 
ATOM     11  O   UNL     1      19.442  34.079  30.715  1.00  0.00    -0.452 OA
ENDROOT
BRANCH   1  12
ATOM     12  C   UNL     1      20.932  33.031  32.295  1.00  0.00     0.025 A 
ATOM     13  C   UNL     1      21.724  33.336  34.589  1.00  0.00     0.161 A 
ATOM     14  C   UNL     1      21.412  31.992  34.866  1.00  0.00     0.157 A 
ATOM     15  C   UNL     1      21.473  33.849  33.301  1.00  0.00     0.062 A 
ATOM     16  C   UNL     1      20.852  31.185  33.870  1.00  0.00     0.051 A 
ATOM     17  C   UNL     1      20.607  31.700  32.597  1.00  0.00     0.016 A 
BRANCH  13  18
ATOM     18  O   UNL     1      22.275  34.126  35.611  1.00  0.00    -0.493 OA
ATOM     19  C   UNL     1      23.357  35.034  35.435  1.00  0.00     0.278 C 
ENDBRANCH  13  18
BRANCH  14  20
ATOM     20  O   UNL     1      21.647  31.441  36.125  1.00  0.00    -0.504 OA
ATOM     21  H   UNL     1      21.095  31.694  36.936  1.00  0.00     0.293 HD
ENDBRANCH  14  20
ENDBRANCH   1  12
BRANCH   2  22
ATOM     22  O   UNL     1      22.818  32.878  30.102  1.00  0.00    -0.502 OA
ATOM     23  H   UNL     1      23.413  33.090  30.895  1.00  0.00     0.293 HD
ENDBRANCH   2  22
BRANCH   6  24
ATOM     24  O   UNL     1      20.390  35.491  26.146  1.00  0.00    -0.507 OA
ATOM     25  H   UNL     1      20.626  34.791  25.459  1.00  0.00     0.293 HD
ENDBRANCH   6  24
BRANCH   8  26
ATOM     26  O   UNL     1      16.052  36.125  28.063  1.00  0.00    -0.508 OA
ATOM     27  H   UNL     1      15.865  37.095  27.838  1.00  0.00     0.293 HD
ENDBRANCH   8  26
TORSDOF 6
ENDMDL
MODEL 4
REMARK VINA RESULT:    -6.092      1.012      1.677
REMARK INTER + INTRA:          -6.774
REMARK INTER:                  -7.673
REMARK INTRA:                   0.899
REMARK UNBOUND:                 0.743
REMARK SMILES COc1cc(-c2oc3cc(O)cc(O)c3c(=O)c2O)ccc1O
REMARK SMILES IDX 6 1 18 2 16 3 17 4 15 5 13 6 12 7 10 8 9 9 8 10 7 11 5 12
REMARK SMILES IDX 3 13 22 14 4 15 21 16 20 17 2 18 1 19 23 20 19 22 14 24
REMARK SMILES IDX 11 26
REMARK H PARENT 23 21 19 23 14 25 11 27
REMARK Flexibility Score: inf
ROOT
ATOM      1  C   UNL     1      23.116  30.760  17.993  1.00  0.00     0.180 A 
ATOM      2  C   UNL     1      22.105  31.264  17.155  1.00  0.00     0.208 A 
ATOM      3  C   UNL     1      21.259  32.273  17.642  1.00  0.00     0.238 A 
ATOM      4  O   UNL     1      20.323  32.682  16.907  1.00  0.00    -0.285 OA
ATOM      5  C   UNL     1      21.446  32.780  18.951  1.00  0.00     0.111 A 
ATOM      6  C   UNL     1      20.674  33.830  19.532  1.00  0.00     0.134 A 
ATOM      7  C   UNL     1      20.860  34.160  20.880  1.00  0.00     0.093 A 
ATOM      8  C   UNL     1      21.833  33.524  21.649  1.00  0.00     0.123 A 
ATOM      9  C   UNL     1      22.634  32.536  21.075  1.00  0.00     0.094 A 
ATOM     10  C   UNL     1      22.448  32.160  19.743  1.00  0.00     0.146 A 
ATOM     11  O   UNL     1      23.223  31.208  19.237  1.00  0.00    -0.452 OA
ENDROOT
BRANCH   1  12
ATOM     12  C   UNL     1      24.061  29.713  17.542  1.00  0.00     0.025 A 
ATOM     13  C   UNL     1      25.132  27.531  17.821  1.00  0.00     0.161 A 
ATOM     14  C   UNL     1      25.828  27.728  16.614  1.00  0.00     0.157 A 
ATOM     15  C   UNL     1      24.244  28.527  18.274  1.00  0.00     0.062 A 
ATOM     16  C   UNL     1      25.628  28.899  15.875  1.00  0.00     0.051 A 
ATOM     17  C   UNL     1      24.747  29.881  16.330  1.00  0.00     0.016 A 
BRANCH  13  18
ATOM     18  O   UNL     1      25.345  26.341  18.536  1.00  0.00    -0.493 OA
ATOM     19  C   UNL     1      26.072  25.221  18.044  1.00  0.00     0.278 C 
ENDBRANCH  13  18
BRANCH  14  20
ATOM     20  O   UNL     1      26.719  26.771  16.130  1.00  0.00    -0.504 OA
ATOM     21  H   UNL     1      27.679  26.997  15.897  1.00  0.00     0.293 HD
ENDBRANCH  14  20
ENDBRANCH   1  12
BRANCH   2  22
ATOM     22  O   UNL     1      21.924  30.735  15.875  1.00  0.00    -0.502 OA
ATOM     23  H   UNL     1      22.509  30.998  15.090  1.00  0.00     0.293 HD
ENDBRANCH   2  22
BRANCH   6  24
ATOM     24  O   UNL     1      19.739  34.593  18.826  1.00  0.00    -0.507 OA
ATOM     25  H   UNL     1      19.895  35.535  18.500  1.00  0.00     0.293 HD
ENDBRANCH   6  24
BRANCH   8  26
ATOM     26  O   UNL     1      22.002  33.888  22.984  1.00  0.00    -0.508 OA
ATOM     27  H   UNL     1      21.343  34.498  23.453  1.00  0.00     0.293 HD
ENDBRANCH   8  26
TORSDOF 6
ENDMDL
MODEL 5
REMARK VINA RESULT:    -5.602     10.013     11.596
REMARK INTER + INTRA:          -6.169
REMARK INTER:                  -6.121
REMARK INTRA:                  -0.048
REMARK UNBOUND:                 0.743
REMARK SMILES COc1cc(-c2oc3cc(O)cc(O)c3c(=O)c2O)ccc1O
REMARK SMILES IDX 6 1 18 2 16 3 17 4 15 5 13 6 12 7 10 8 9 9 8 10 7 11 5 12
REMARK SMILES IDX 3 13 22 14 4 15 21 16 20 17 2 18 1 19 23 20 19 22 14 24
REMARK SMILES IDX 11 26
REMARK H PARENT 23 21 19 23 14 25 11 27
REMARK Flexibility Score: inf
ROOT
ATOM      1  C   UNL     1      17.800  20.402  19.823  1.00  0.00     0.180 A 
ATOM      2  C   UNL     1      17.931  20.285  21.218  1.00  0.00     0.208 A 
ATOM      3  C   UNL     1      17.565  21.371  22.029  1.00  0.00     0.238 A 
ATOM      4  O   UNL     1      17.735  21.280  23.272  1.00  0.00    -0.285 OA
ATOM      5  C   UNL     1      17.056  22.552  21.437  1.00  0.00     0.111 A 
ATOM      6  C   UNL     1      16.617  23.699  22.164  1.00  0.00     0.134 A 
ATOM      7  C   UNL     1      16.256  24.861  21.470  1.00  0.00     0.093 A 
ATOM      8  C   UNL     1      16.256  24.896  20.077  1.00  0.00     0.123 A 
ATOM      9  C   UNL     1      16.627  23.761  19.354  1.00  0.00     0.094 A 
ATOM     10  C   UNL     1      17.027  22.600  20.019  1.00  0.00     0.146 A 
ATOM     11  O   UNL     1      17.383  21.545  19.295  1.00  0.00    -0.452 OA
ENDROOT
BRANCH   1  12
ATOM     12  C   UNL     1      18.142  19.290  18.905  1.00  0.00     0.025 A 
ATOM     13  C   UNL     1      19.350  18.406  16.971  1.00  0.00     0.161 A 
ATOM     14  C   UNL     1      18.804  17.134  17.223  1.00  0.00     0.157 A 
ATOM     15  C   UNL     1      19.019  19.478  17.823  1.00  0.00     0.062 A 
ATOM     16  C   UNL     1      17.949  16.943  18.313  1.00  0.00     0.051 A 
ATOM     17  C   UNL     1      17.626  18.010  19.153  1.00  0.00     0.016 A 
BRANCH  13  18
ATOM     18  O   UNL     1      20.214  18.565  15.875  1.00  0.00    -0.493 OA
ATOM     19  C   UNL     1      21.387  19.373  15.882  1.00  0.00     0.278 C 
ENDBRANCH  13  18
BRANCH  14  20
ATOM     20  O   UNL     1      19.102  16.045  16.404  1.00  0.00    -0.504 OA
ATOM     21  H   UNL     1      18.603  15.867  15.540  1.00  0.00     0.293 HD
ENDBRANCH  14  20
ENDBRANCH   1  12
BRANCH   2  22
ATOM     22  O   UNL     1      18.455  19.118  21.780  1.00  0.00    -0.502 OA
ATOM     23  H   UNL     1      19.107  19.132  22.555  1.00  0.00     0.293 HD
ENDBRANCH   2  22
BRANCH   6  24
ATOM     24  O   UNL     1      16.491  23.739  23.556  1.00  0.00    -0.507 OA
ATOM     25  H   UNL     1      15.754  23.291  24.080  1.00  0.00     0.293 HD
ENDBRANCH   6  24
BRANCH   8  26
ATOM     26  O   UNL     1      15.875  26.065  19.419  1.00  0.00    -0.508 OA
ATOM     27  H   UNL     1      16.556  26.757  19.132  1.00  0.00     0.293 HD
ENDBRANCH   8  26
TORSDOF 6
ENDMDL
