MODEL 1
REMARK VINA RESULT:    -4.246      0.000      0.000
REMARK INTER + INTRA:          -6.955
REMARK INTER:                  -6.232
REMARK INTRA:                  -0.722
REMARK UNBOUND:                -0.722
REMARK SMILES O=C([O-])CCCCCCCC(=O)[O-]
REMARK SMILES IDX 7 1 6 2 5 3 4 4 2 5 1 6 3 7 8 8 9 9 10 10 11 11 12 12 13 13
REMARK H PARENT
REMARK Flexibility Score: inf
ROOT
ATOM      1  C   UNL     1      33.066   7.606  11.352  1.00  0.00     0.000 C 
ENDROOT
BRANCH   1   2
ATOM      2  C   UNL     1      34.307   8.203  12.023  1.00  0.00     0.000 C 
BRANCH   2   3
ATOM      3  C   UNL     1      35.590   7.753  11.308  1.00  0.00     0.006 C 
BRANCH   3   4
ATOM      4  C   UNL     1      35.297   6.859  10.096  1.00  0.00     0.053 C 
BRANCH   4   5
ATOM      5  C   UNL     1      36.243   5.699  10.021  1.00  0.00     0.041 C 
ATOM      6  O   UNL     1      35.902   4.640   9.432  1.00  0.00    -0.550 OA
ATOM      7  O   UNL     1      37.489   5.778  10.629  1.00  0.00    -0.550 OA
ENDBRANCH   4   5
ENDBRANCH   3   4
ENDBRANCH   2   3
ENDBRANCH   1   2
BRANCH   1   8
ATOM      8  C   UNL     1      32.068   7.093  12.397  1.00  0.00     0.000 C 
BRANCH   8   9
ATOM      9  C   UNL     1      31.792   5.594  12.208  1.00  0.00     0.006 C 
BRANCH   9  10
ATOM     10  C   UNL     1      33.082   4.780  12.054  1.00  0.00     0.053 C 
BRANCH  10  11
ATOM     11  C   UNL     1      33.699   4.461  13.383  1.00  0.00     0.041 C 
ATOM     12  O   UNL     1      34.601   5.201  13.858  1.00  0.00    -0.550 OA
ATOM     13  O   UNL     1      33.300   3.328  14.079  1.00  0.00    -0.550 OA
ENDBRANCH  10  11
ENDBRANCH   9  10
ENDBRANCH   8   9
ENDBRANCH   1   8
TORSDOF 8
ENDMDL
MODEL 2
REMARK VINA RESULT:    -4.245      2.891      5.046
REMARK INTER + INTRA:          -6.953
REMARK INTER:                  -6.400
REMARK INTRA:                  -0.553
REMARK UNBOUND:                -0.722
REMARK SMILES O=C([O-])CCCCCCCC(=O)[O-]
REMARK SMILES IDX 7 1 6 2 5 3 4 4 2 5 1 6 3 7 8 8 9 9 10 10 11 11 12 12 13 13
REMARK H PARENT
REMARK Flexibility Score: inf
ROOT
ATOM      1  C   UNL     1      36.651   6.395  11.493  1.00  0.00     0.000 C 
ENDROOT
BRANCH   1   2
ATOM      2  C   UNL     1      35.249   6.524  12.098  1.00  0.00     0.000 C 
BRANCH   2   3
ATOM      3  C   UNL     1      34.682   7.934  11.878  1.00  0.00     0.006 C 
BRANCH   3   4
ATOM      4  C   UNL     1      33.368   7.916  11.084  1.00  0.00     0.053 C 
BRANCH   4   5
ATOM      5  C   UNL     1      32.208   8.365  11.921  1.00  0.00     0.041 C 
ATOM      6  O   UNL     1      31.395   7.521  12.381  1.00  0.00    -0.550 OA
ATOM      7  O   UNL     1      32.009   9.717  12.164  1.00  0.00    -0.550 OA
ENDBRANCH   4   5
ENDBRANCH   3   4
ENDBRANCH   2   3
ENDBRANCH   1   2
BRANCH   1   8
ATOM      8  C   UNL     1      36.578   6.069   9.996  1.00  0.00     0.000 C 
BRANCH   8   9
ATOM      9  C   UNL     1      35.448   5.071   9.704  1.00  0.00     0.006 C 
BRANCH   9  10
ATOM     10  C   UNL     1      35.137   4.967   8.205  1.00  0.00     0.053 C 
BRANCH  10  11
ATOM     11  C   UNL     1      33.835   5.624   7.862  1.00  0.00     0.041 C 
ATOM     12  O   UNL     1      32.796   4.929   7.702  1.00  0.00    -0.550 OA
ATOM     13  O   UNL     1      33.776   7.001   7.685  1.00  0.00    -0.550 OA
ENDBRANCH  10  11
ENDBRANCH   9  10
ENDBRANCH   8   9
ENDBRANCH   1   8
TORSDOF 8
ENDMDL
MODEL 3
REMARK VINA RESULT:    -4.230      2.551      4.026
REMARK INTER + INTRA:          -6.930
REMARK INTER:                  -6.164
REMARK INTRA:                  -0.767
REMARK UNBOUND:                -0.722
REMARK SMILES O=C([O-])CCCCCCCC(=O)[O-]
REMARK SMILES IDX 7 1 6 2 5 3 4 4 2 5 1 6 3 7 8 8 9 9 10 10 11 11 12 12 13 13
REMARK H PARENT
REMARK Flexibility Score: inf
ROOT
ATOM      1  C   UNL     1      36.743   6.587  10.009  1.00  0.00     0.000 C 
ENDROOT
BRANCH   1   2
ATOM      2  C   UNL     1      36.168   5.181  10.214  1.00  0.00     0.000 C 
BRANCH   2   3
ATOM      3  C   UNL     1      35.518   4.659   8.924  1.00  0.00     0.006 C 
BRANCH   3   4
ATOM      4  C   UNL     1      34.003   4.901   8.897  1.00  0.00     0.053 C 
BRANCH   4   5
ATOM      5  C   UNL     1      33.635   6.014   7.963  1.00  0.00     0.041 C 
ATOM      6  O   UNL     1      33.774   7.213   8.320  1.00  0.00    -0.550 OA
ATOM      7  O   UNL     1      33.111   5.725   6.710  1.00  0.00    -0.550 OA
ENDBRANCH   4   5
ENDBRANCH   3   4
ENDBRANCH   2   3
ENDBRANCH   1   2
BRANCH   1   8
ATOM      8  C   UNL     1      36.396   7.502  11.189  1.00  0.00     0.000 C 
BRANCH   8   9
ATOM      9  C   UNL     1      35.115   7.031  11.894  1.00  0.00     0.006 C 
BRANCH   9  10
ATOM     10  C   UNL     1      34.004   8.087  11.848  1.00  0.00     0.053 C 
BRANCH  10  11
ATOM     11  C   UNL     1      32.644   7.467  11.965  1.00  0.00     0.041 C 
ATOM     12  O   UNL     1      32.497   6.226  11.806  1.00  0.00    -0.550 OA
ATOM     13  O   UNL     1      31.536   8.265  12.217  1.00  0.00    -0.550 OA
ENDBRANCH  10  11
ENDBRANCH   9  10
ENDBRANCH   8   9
ENDBRANCH   1   8
TORSDOF 8
ENDMDL
MODEL 4
REMARK VINA RESULT:    -4.222      2.034      2.907
REMARK INTER + INTRA:          -6.918
REMARK INTER:                  -5.997
REMARK INTRA:                  -0.921
REMARK UNBOUND:                -0.722
REMARK SMILES O=C([O-])CCCCCCCC(=O)[O-]
REMARK SMILES IDX 7 1 6 2 5 3 4 4 2 5 1 6 3 7 8 8 9 9 10 10 11 11 12 12 13 13
REMARK H PARENT
REMARK Flexibility Score: inf
ROOT
ATOM      1  C   UNL     1      36.523   6.514  11.568  1.00  0.00     0.000 C 
ENDROOT
BRANCH   1   2
ATOM      2  C   UNL     1      36.896   6.015  10.168  1.00  0.00     0.000 C 
BRANCH   2   3
ATOM      3  C   UNL     1      35.647   5.861   9.287  1.00  0.00     0.006 C 
BRANCH   3   4
ATOM      4  C   UNL     1      35.223   4.395   9.129  1.00  0.00     0.053 C 
BRANCH   4   5
ATOM      5  C   UNL     1      34.014   4.075   9.955  1.00  0.00     0.041 C 
ATOM      6  O   UNL     1      33.983   3.029  10.655  1.00  0.00    -0.550 OA
ATOM      7  O   UNL     1      32.910   4.917   9.925  1.00  0.00    -0.550 OA
ENDBRANCH   4   5
ENDBRANCH   3   4
ENDBRANCH   2   3
ENDBRANCH   1   2
BRANCH   1   8
ATOM      8  C   UNL     1      35.251   7.369  11.528  1.00  0.00     0.000 C 
BRANCH   8   9
ATOM      9  C   UNL     1      34.208   6.852  12.530  1.00  0.00     0.006 C 
BRANCH   9  10
ATOM     10  C   UNL     1      34.745   5.698  13.386  1.00  0.00     0.053 C 
BRANCH  10  11
ATOM     11  C   UNL     1      33.679   4.688  13.687  1.00  0.00     0.041 C 
ATOM     12  O   UNL     1      32.494   4.884  13.308  1.00  0.00    -0.550 OA
ATOM     13  O   UNL     1      33.990   3.548  14.417  1.00  0.00    -0.550 OA
ENDBRANCH  10  11
ENDBRANCH   9  10
ENDBRANCH   8   9
ENDBRANCH   1   8
TORSDOF 8
ENDMDL
MODEL 5
REMARK VINA RESULT:    -4.160      1.647      3.762
REMARK INTER + INTRA:          -6.827
REMARK INTER:                  -6.077
REMARK INTRA:                  -0.751
REMARK UNBOUND:                -0.722
REMARK SMILES O=C([O-])CCCCCCCC(=O)[O-]
REMARK SMILES IDX 7 1 6 2 5 3 4 4 2 5 1 6 3 7 8 8 9 9 10 10 11 11 12 12 13 13
REMARK H PARENT
REMARK Flexibility Score: inf
ROOT
ATOM      1  C   UNL     1      33.734   7.449  10.783  1.00  0.00     0.000 C 
ENDROOT
BRANCH   1   2
ATOM      2  C   UNL     1      35.075   7.530  11.519  1.00  0.00     0.000 C 
BRANCH   2   3
ATOM      3  C   UNL     1      35.185   6.431  12.586  1.00  0.00     0.006 C 
BRANCH   3   4
ATOM      4  C   UNL     1      33.818   5.840  12.955  1.00  0.00     0.053 C 
BRANCH   4   5
ATOM      5  C   UNL     1      33.954   4.629  13.828  1.00  0.00     0.041 C 
ATOM      6  O   UNL     1      33.209   3.630  13.647  1.00  0.00    -0.550 OA
ATOM      7  O   UNL     1      34.882   4.618  14.861  1.00  0.00    -0.550 OA
ENDBRANCH   4   5
ENDBRANCH   3   4
ENDBRANCH   2   3
ENDBRANCH   1   2
BRANCH   1   8
ATOM      8  C   UNL     1      33.910   7.723   9.284  1.00  0.00     0.000 C 
BRANCH   8   9
ATOM      9  C   UNL     1      34.258   6.434   8.525  1.00  0.00     0.006 C 
BRANCH   9  10
ATOM     10  C   UNL     1      33.523   5.211   9.089  1.00  0.00     0.053 C 
BRANCH  10  11
ATOM     11  C   UNL     1      34.477   4.193   9.635  1.00  0.00     0.041 C 
ATOM     12  O   UNL     1      35.702   4.254   9.349  1.00  0.00    -0.550 OA
ATOM     13  O   UNL     1      34.007   3.157  10.432  1.00  0.00    -0.550 OA
ENDBRANCH  10  11
ENDBRANCH   9  10
ENDBRANCH   8   9
ENDBRANCH   1   8
TORSDOF 8
ENDMDL
MODEL 6
REMARK VINA RESULT:    -4.092      1.043      4.622
REMARK INTER + INTRA:          -6.729
REMARK INTER:                  -6.261
REMARK INTRA:                  -0.467
REMARK UNBOUND:                -0.722
REMARK SMILES O=C([O-])CCCCCCCC(=O)[O-]
REMARK SMILES IDX 7 1 6 2 5 3 4 4 2 5 1 6 3 7 8 8 9 9 10 10 11 11 12 12 13 13
REMARK H PARENT
REMARK Flexibility Score: inf
ROOT
ATOM      1  C   UNL     1      32.539   6.902  12.533  1.00  0.00     0.000 C 
ENDROOT
BRANCH   1   2
ATOM      2  C   UNL     1      31.928   5.531  12.226  1.00  0.00     0.000 C 
BRANCH   2   3
ATOM      3  C   UNL     1      33.019   4.456  12.109  1.00  0.00     0.006 C 
BRANCH   3   4
ATOM      4  C   UNL     1      32.844   3.334  13.142  1.00  0.00     0.053 C 
BRANCH   4   5
ATOM      5  C   UNL     1      33.815   3.467  14.275  1.00  0.00     0.041 C 
ATOM      6  O   UNL     1      34.483   4.526  14.416  1.00  0.00    -0.550 OA
ATOM      7  O   UNL     1      34.005   2.410  15.155  1.00  0.00    -0.550 OA
ENDBRANCH   4   5
ENDBRANCH   3   4
ENDBRANCH   2   3
ENDBRANCH   1   2
BRANCH   1   8
ATOM      8  C   UNL     1      33.313   7.443  11.325  1.00  0.00     0.000 C 
BRANCH   8   9
ATOM      9  C   UNL     1      34.740   7.850  11.721  1.00  0.00     0.006 C 
BRANCH   9  10
ATOM     10  C   UNL     1      35.707   6.660  11.715  1.00  0.00     0.053 C 
BRANCH  10  11
ATOM     11  C   UNL     1      36.456   6.561  10.421  1.00  0.00     0.041 C 
ATOM     12  O   UNL     1      35.852   6.252   9.360  1.00  0.00    -0.550 OA
ATOM     13  O   UNL     1      37.828   6.777  10.395  1.00  0.00    -0.550 OA
ENDBRANCH  10  11
ENDBRANCH   9  10
ENDBRANCH   8   9
ENDBRANCH   1   8
TORSDOF 8
ENDMDL
MODEL 7
REMARK VINA RESULT:    -4.084      1.609      2.271
REMARK INTER + INTRA:          -6.717
REMARK INTER:                  -6.134
REMARK INTRA:                  -0.583
REMARK UNBOUND:                -0.722
REMARK SMILES O=C([O-])CCCCCCCC(=O)[O-]
REMARK SMILES IDX 7 1 6 2 5 3 4 4 2 5 1 6 3 7 8 8 9 9 10 10 11 11 12 12 13 13
REMARK H PARENT
REMARK Flexibility Score: inf
ROOT
ATOM      1  C   UNL     1      32.603   7.123  12.289  1.00  0.00     0.000 C 
ENDROOT
BRANCH   1   2
ATOM      2  C   UNL     1      34.132   7.144  12.389  1.00  0.00     0.000 C 
BRANCH   2   3
ATOM      3  C   UNL     1      34.758   7.780  11.139  1.00  0.00     0.006 C 
BRANCH   3   4
ATOM      4  C   UNL     1      33.757   7.891   9.980  1.00  0.00     0.053 C 
BRANCH   4   5
ATOM      5  C   UNL     1      34.090   6.944   8.868  1.00  0.00     0.041 C 
ATOM      6  O   UNL     1      34.692   5.865   9.112  1.00  0.00    -0.550 OA
ATOM      7  O   UNL     1      33.764   7.269   7.558  1.00  0.00    -0.550 OA
ENDBRANCH   4   5
ENDBRANCH   3   4
ENDBRANCH   2   3
ENDBRANCH   1   2
BRANCH   1   8
ATOM      8  C   UNL     1      32.075   5.686  12.207  1.00  0.00     0.000 C 
BRANCH   8   9
ATOM      9  C   UNL     1      33.219   4.670  12.344  1.00  0.00     0.006 C 
BRANCH   9  10
ATOM     10  C   UNL     1      32.864   3.520  13.293  1.00  0.00     0.053 C 
BRANCH  10  11
ATOM     11  C   UNL     1      33.885   3.362  14.380  1.00  0.00     0.041 C 
ATOM     12  O   UNL     1      34.023   2.256  14.966  1.00  0.00    -0.550 OA
ATOM     13  O   UNL     1      34.660   4.448  14.767  1.00  0.00    -0.550 OA
ENDBRANCH  10  11
ENDBRANCH   9  10
ENDBRANCH   8   9
ENDBRANCH   1   8
TORSDOF 8
ENDMDL
MODEL 8
REMARK VINA RESULT:    -4.081      2.464      3.379
REMARK INTER + INTRA:          -6.712
REMARK INTER:                  -5.828
REMARK INTRA:                  -0.884
REMARK UNBOUND:                -0.722
REMARK SMILES O=C([O-])CCCCCCCC(=O)[O-]
REMARK SMILES IDX 7 1 6 2 5 3 4 4 2 5 1 6 3 7 8 8 9 9 10 10 11 11 12 12 13 13
REMARK H PARENT
REMARK Flexibility Score: inf
ROOT
ATOM      1  C   UNL     1      34.259   5.263   8.260  1.00  0.00     0.000 C 
ENDROOT
BRANCH   1   2
ATOM      2  C   UNL     1      33.900   6.742   8.084  1.00  0.00     0.000 C 
BRANCH   2   3
ATOM      3  C   UNL     1      33.939   7.482   9.429  1.00  0.00     0.006 C 
BRANCH   3   4
ATOM      4  C   UNL     1      35.160   7.093  10.272  1.00  0.00     0.053 C 
BRANCH   4   5
ATOM      5  C   UNL     1      34.905   7.278  11.737  1.00  0.00     0.041 C 
ATOM      6  O   UNL     1      35.356   6.448  12.569  1.00  0.00    -0.550 OA
ATOM      7  O   UNL     1      34.143   8.351  12.179  1.00  0.00    -0.550 OA
ENDBRANCH   4   5
ENDBRANCH   3   4
ENDBRANCH   2   3
ENDBRANCH   1   2
BRANCH   1   8
ATOM      8  C   UNL     1      33.048   4.364   7.983  1.00  0.00     0.000 C 
BRANCH   8   9
ATOM      9  C   UNL     1      32.863   3.326   9.099  1.00  0.00     0.006 C 
BRANCH   9  10
ATOM     10  C   UNL     1      33.760   3.610  10.311  1.00  0.00     0.053 C 
BRANCH  10  11
ATOM     11  C   UNL     1      32.963   4.049  11.501  1.00  0.00     0.041 C 
ATOM     12  O   UNL     1      32.163   5.017  11.407  1.00  0.00    -0.550 OA
ATOM     13  O   UNL     1      33.129   3.409  12.723  1.00  0.00    -0.550 OA
ENDBRANCH  10  11
ENDBRANCH   9  10
ENDBRANCH   8   9
ENDBRANCH   1   8
TORSDOF 8
ENDMDL
MODEL 9
REMARK VINA RESULT:    -4.053      2.680      4.296
REMARK INTER + INTRA:          -6.671
REMARK INTER:                  -5.907
REMARK INTRA:                  -0.764
REMARK UNBOUND:                -0.722
REMARK SMILES O=C([O-])CCCCCCCC(=O)[O-]
REMARK SMILES IDX 7 1 6 2 5 3 4 4 2 5 1 6 3 7 8 8 9 9 10 10 11 11 12 12 13 13
REMARK H PARENT
REMARK Flexibility Score: inf
ROOT
ATOM      1  C   UNL     1      36.827   5.951  10.018  1.00  0.00     0.000 C 
ENDROOT
BRANCH   1   2
ATOM      2  C   UNL     1      36.528   6.416  11.448  1.00  0.00     0.000 C 
BRANCH   2   3
ATOM      3  C   UNL     1      35.449   7.510  11.456  1.00  0.00     0.006 C 
BRANCH   3   4
ATOM      4  C   UNL     1      34.319   7.204  12.448  1.00  0.00     0.053 C 
BRANCH   4   5
ATOM      5  C   UNL     1      33.054   7.923  12.087  1.00  0.00     0.041 C 
ATOM      6  O   UNL     1      32.848   8.285  10.899  1.00  0.00    -0.550 OA
ATOM      7  O   UNL     1      32.120   8.221  13.070  1.00  0.00    -0.550 OA
ENDBRANCH   4   5
ENDBRANCH   3   4
ENDBRANCH   2   3
ENDBRANCH   1   2
BRANCH   1   8
ATOM      8  C   UNL     1      35.989   4.720   9.653  1.00  0.00     0.000 C 
BRANCH   8   9
ATOM      9  C   UNL     1      35.108   4.998   8.426  1.00  0.00     0.006 C 
BRANCH   9  10
ATOM     10  C   UNL     1      33.704   5.478   8.814  1.00  0.00     0.053 C 
BRANCH  10  11
ATOM     11  C   UNL     1      32.947   4.427   9.569  1.00  0.00     0.041 C 
ATOM     12  O   UNL     1      32.606   4.625  10.765  1.00  0.00    -0.550 OA
ATOM     13  O   UNL     1      32.649   3.214   8.959  1.00  0.00    -0.550 OA
ENDBRANCH  10  11
ENDBRANCH   9  10
ENDBRANCH   8   9
ENDBRANCH   1   8
TORSDOF 8
ENDMDL
