MODEL 1
REMARK VINA RESULT:    -6.533      0.000      0.000
REMARK INTER + INTRA:         -10.551
REMARK INTER:                  -9.206
REMARK INTRA:                  -1.344
REMARK UNBOUND:                -1.344
REMARK SMILES C=C(CC[C@@H](C(=O)[O-])[C@@H]1[C@H](O)C[C@@]2(C)C3=C(CC[C@@]12C)[C@]1(C)CC[C@H](O)C(C)(C)[C@H]1CC3)C(C)C
REMARK SMILES IDX 4 1 5 2 6 3 7 4 8 5 9 6 10 7 19 8 12 9 13 10 18 11 20 12
REMARK SMILES IDX 14 13 15 14 17 15 16 16 32 17 21 18 31 19 30 20 23 21 22 22
REMARK SMILES IDX 27 23 24 24 25 25 28 26 29 27 11 28 26 30 3 32 2 33 1 34
REMARK SMILES IDX 33 35 34 36 35 37
REMARK H PARENT 11 29 26 31
REMARK Flexibility Score: inf
ROOT
ATOM      1  C   UNL     1     176.388 173.929 185.970  1.00  0.00     0.014 C 
ENDROOT
BRANCH   1   2
ATOM      2  C   UNL     1     177.587 172.954 185.822  1.00  0.00     0.042 C 
BRANCH   2   3
ATOM      3  C   UNL     1     178.863 173.768 185.784  1.00  0.00     0.045 C 
ATOM      4  O   UNL     1     179.711 173.543 184.882  1.00  0.00    -0.550 OA
ATOM      5  O   UNL     1     179.049 174.865 186.616  1.00  0.00    -0.550 OA
ENDBRANCH   2   3
BRANCH   2   6
ATOM      6  C   UNL     1     177.538 171.749 186.843  1.00  0.00     0.033 C 
ATOM      7  C   UNL     1     178.806 171.459 187.683  1.00  0.00     0.119 C 
ATOM      8  C   UNL     1     176.947 170.346 186.394  1.00  0.00    -0.017 C 
ATOM      9  C   UNL     1     178.784 169.957 187.955  1.00  0.00     0.043 C 
ATOM     10  C   UNL     1     178.067 169.302 186.757  1.00  0.00    -0.003 C 
ATOM     11  C   UNL     1     175.695 170.056 187.271  1.00  0.00     0.012 C 
ATOM     12  C   UNL     1     176.502 170.276 184.904  1.00  0.00     0.013 C 
ATOM     13  C   UNL     1     179.095 169.142 185.596  1.00  0.00     0.017 C 
ATOM     14  C   UNL     1     177.556 167.892 187.150  1.00  0.00    -0.064 C 
ATOM     15  C   UNL     1     175.156 168.645 187.103  1.00  0.00     0.032 C 
ATOM     16  C   UNL     1     176.219 167.575 187.209  1.00  0.00    -0.064 C 
ATOM     17  C   UNL     1     178.632 166.816 187.409  1.00  0.00     0.032 C 
ATOM     18  C   UNL     1     175.812 166.089 187.312  1.00  0.00    -0.008 C 
ATOM     19  C   UNL     1     178.177 165.483 188.049  1.00  0.00     0.009 C 
ATOM     20  C   UNL     1     176.698 165.497 188.466  1.00  0.00     0.007 C 
ATOM     21  C   UNL     1     174.292 165.839 187.616  1.00  0.00     0.014 C 
ATOM     22  C   UNL     1     176.084 165.466 185.912  1.00  0.00     0.016 C 
ATOM     23  C   UNL     1     176.142 164.188 189.157  1.00  0.00    -0.006 C 
ATOM     24  C   UNL     1     174.003 165.733 189.113  1.00  0.00     0.033 C 
ATOM     25  C   UNL     1     174.683 164.475 189.721  1.00  0.00     0.120 C 
ATOM     26  C   UNL     1     177.092 163.766 190.311  1.00  0.00     0.014 C 
ATOM     27  C   UNL     1     176.083 162.983 188.183  1.00  0.00     0.014 C 
BRANCH   7  28
ATOM     28  O   UNL     1     179.984 171.802 187.006  1.00  0.00    -0.393 OA
ATOM     29  H   UNL     1     179.736 172.456 186.300  1.00  0.00     0.210 HD
ENDBRANCH   7  28
BRANCH  25  30
ATOM     30  O   UNL     1     174.646 164.554 191.125  1.00  0.00    -0.393 OA
ATOM     31  H   UNL     1     173.841 164.066 191.448  1.00  0.00     0.210 HD
ENDBRANCH  25  30
ENDBRANCH   2   6
ENDBRANCH   1   2
BRANCH   1  32
ATOM     32  C   UNL     1     175.609 173.759 187.286  1.00  0.00     0.031 C 
BRANCH  32  33
ATOM     33  C   UNL     1     175.993 174.840 188.271  1.00  0.00    -0.075 C 
ATOM     34  C   UNL     1     175.900 176.130 187.898  1.00  0.00     0.008 C 
BRANCH  33  35
ATOM     35  C   UNL     1     176.445 174.459 189.673  1.00  0.00     0.008 C 
ATOM     36  C   UNL     1     177.948 174.699 189.854  1.00  0.00     0.012 C 
ATOM     37  C   UNL     1     176.073 173.011 190.008  1.00  0.00     0.012 C 
ENDBRANCH  33  35
ENDBRANCH  32  33
ENDBRANCH   1  32
TORSDOF 8
ENDMDL
MODEL 2
REMARK VINA RESULT:    -6.533      6.427      9.857
REMARK INTER + INTRA:         -10.550
REMARK INTER:                  -9.128
REMARK INTRA:                  -1.423
REMARK UNBOUND:                -1.344
REMARK SMILES C=C(CC[C@@H](C(=O)[O-])[C@@H]1[C@H](O)C[C@@]2(C)C3=C(CC[C@@]12C)[C@]1(C)CC[C@H](O)C(C)(C)[C@H]1CC3)C(C)C
REMARK SMILES IDX 4 1 5 2 6 3 7 4 8 5 9 6 10 7 19 8 12 9 13 10 18 11 20 12
REMARK SMILES IDX 14 13 15 14 17 15 16 16 32 17 21 18 31 19 30 20 23 21 22 22
REMARK SMILES IDX 27 23 24 24 25 25 28 26 29 27 11 28 26 30 3 32 2 33 1 34
REMARK SMILES IDX 33 35 34 36 35 37
REMARK H PARENT 11 29 26 31
REMARK Flexibility Score: inf
ROOT
ATOM      1  C   UNL     1     175.982 164.471 185.993  1.00  0.00     0.014 C 
ENDROOT
BRANCH   1   2
ATOM      2  C   UNL     1     175.392 163.046 185.812  1.00  0.00     0.042 C 
BRANCH   2   3
ATOM      3  C   UNL     1     176.538 162.060 185.740  1.00  0.00     0.045 C 
ATOM      4  O   UNL     1     176.598 161.255 184.774  1.00  0.00    -0.550 OA
ATOM      5  O   UNL     1     177.611 162.127 186.619  1.00  0.00    -0.550 OA
ENDBRANCH   2   3
BRANCH   2   6
ATOM      6  C   UNL     1     174.231 162.720 186.835  1.00  0.00     0.033 C 
ATOM      7  C   UNL     1     174.349 161.425 187.674  1.00  0.00     0.119 C 
ATOM      8  C   UNL     1     172.714 162.848 186.387  1.00  0.00    -0.017 C 
ATOM      9  C   UNL     1     172.914 160.981 187.948  1.00  0.00     0.043 C 
ATOM     10  C   UNL     1     172.068 161.460 186.750  1.00  0.00    -0.003 C 
ATOM     11  C   UNL     1     172.052 163.950 187.264  1.00  0.00     0.012 C 
ATOM     12  C   UNL     1     172.509 163.250 184.897  1.00  0.00     0.013 C 
ATOM     13  C   UNL     1     172.232 160.434 185.590  1.00  0.00     0.017 C 
ATOM     14  C   UNL     1     170.569 161.511 187.145  1.00  0.00    -0.064 C 
ATOM     15  C   UNL     1     170.543 164.026 187.097  1.00  0.00     0.032 C 
ATOM     16  C   UNL     1     169.855 162.684 187.204  1.00  0.00    -0.064 C 
ATOM     17  C   UNL     1     169.879 160.155 187.405  1.00  0.00     0.032 C 
ATOM     18  C   UNL     1     168.316 162.612 187.309  1.00  0.00    -0.008 C 
ATOM     19  C   UNL     1     168.471 160.175 188.046  1.00  0.00     0.009 C 
ATOM     20  C   UNL     1     168.028 161.587 188.463  1.00  0.00     0.007 C 
ATOM     21  C   UNL     1     167.609 163.980 187.613  1.00  0.00     0.014 C 
ATOM     22  C   UNL     1     167.806 162.161 185.909  1.00  0.00     0.016 C 
ATOM     23  C   UNL     1     166.612 161.710 189.155  1.00  0.00    -0.006 C 
ATOM     24  C   UNL     1     167.419 164.222 189.110  1.00  0.00     0.033 C 
ATOM     25  C   UNL     1     166.433 163.187 189.719  1.00  0.00     0.120 C 
ATOM     26  C   UNL     1     166.505 160.677 190.309  1.00  0.00     0.014 C 
ATOM     27  C   UNL     1     165.446 161.394 188.182  1.00  0.00     0.014 C 
BRANCH   7  28
ATOM     28  O   UNL     1     175.038 160.411 186.997  1.00  0.00    -0.393 OA
ATOM     29  H   UNL     1     175.999 160.662 186.993  1.00  0.00     0.210 HD
ENDBRANCH   7  28
BRANCH  25  30
ATOM     30  O   UNL     1     166.498 163.246 191.123  1.00  0.00    -0.393 OA
ATOM     31  H   UNL     1     165.898 163.975 191.437  1.00  0.00     0.210 HD
ENDBRANCH  25  30
ENDBRANCH   2   6
ENDBRANCH   1   2
BRANCH   1  32
ATOM     32  C   UNL     1     175.599 165.136 187.325  1.00  0.00     0.031 C 
BRANCH  32  33
ATOM     33  C   UNL     1     176.723 164.997 188.328  1.00  0.00    -0.075 C 
ATOM     34  C   UNL     1     177.959 165.411 187.991  1.00  0.00     0.008 C 
BRANCH  33  35
ATOM     35  C   UNL     1     176.436 164.425 189.709  1.00  0.00     0.008 C 
ATOM     36  C   UNL     1     177.030 163.019 189.859  1.00  0.00     0.012 C 
ATOM     37  C   UNL     1     174.936 164.426 190.016  1.00  0.00     0.012 C 
ENDBRANCH  33  35
ENDBRANCH  32  33
ENDBRANCH   1  32
TORSDOF 8
ENDMDL
MODEL 3
REMARK VINA RESULT:    -6.108     12.845     16.297
REMARK INTER + INTRA:          -9.951
REMARK INTER:                  -8.769
REMARK INTRA:                  -1.183
REMARK UNBOUND:                -1.344
REMARK SMILES C=C(CC[C@@H](C(=O)[O-])[C@@H]1[C@H](O)C[C@@]2(C)C3=C(CC[C@@]12C)[C@]1(C)CC[C@H](O)C(C)(C)[C@H]1CC3)C(C)C
REMARK SMILES IDX 4 1 5 2 6 3 7 4 8 5 9 6 10 7 19 8 12 9 13 10 18 11 20 12
REMARK SMILES IDX 14 13 15 14 17 15 16 16 32 17 21 18 31 19 30 20 23 21 22 22
REMARK SMILES IDX 27 23 24 24 25 25 28 26 29 27 11 28 26 30 3 32 2 33 1 34
REMARK SMILES IDX 33 35 34 36 35 37
REMARK H PARENT 11 29 26 31
REMARK Flexibility Score: inf
ROOT
ATOM      1  C   UNL     1     166.108 162.024 185.637  1.00  0.00     0.014 C 
ENDROOT
BRANCH   1   2
ATOM      2  C   UNL     1     164.559 162.111 185.579  1.00  0.00     0.042 C 
BRANCH   2   3
ATOM      3  C   UNL     1     164.000 160.704 185.581  1.00  0.00     0.045 C 
ATOM      4  O   UNL     1     164.338 159.909 186.497  1.00  0.00    -0.550 OA
ATOM      5  O   UNL     1     163.000 160.318 184.698  1.00  0.00    -0.550 OA
ENDBRANCH   2   3
BRANCH   2   6
ATOM      6  C   UNL     1     163.954 163.122 186.633  1.00  0.00     0.033 C 
ATOM      7  C   UNL     1     162.743 162.652 187.474  1.00  0.00     0.119 C 
ATOM      8  C   UNL     1     163.679 164.631 186.225  1.00  0.00    -0.017 C 
ATOM      9  C   UNL     1     161.945 163.916 187.788  1.00  0.00     0.043 C 
ATOM     10  C   UNL     1     162.175 164.885 186.611  1.00  0.00    -0.003 C 
ATOM     11  C   UNL     1     164.581 165.535 187.115  1.00  0.00     0.012 C 
ATOM     12  C   UNL     1     163.997 164.970 184.739  1.00  0.00     0.013 C 
ATOM     13  C   UNL     1     161.214 164.489 185.450  1.00  0.00     0.017 C 
ATOM     14  C   UNL     1     161.839 166.336 187.044  1.00  0.00    -0.064 C 
ATOM     15  C   UNL     1     164.261 167.015 186.987  1.00  0.00     0.032 C 
ATOM     16  C   UNL     1     162.788 167.329 187.117  1.00  0.00    -0.064 C 
ATOM     17  C   UNL     1     160.354 166.644 187.327  1.00  0.00     0.032 C 
ATOM     18  C   UNL     1     162.320 168.794 187.263  1.00  0.00    -0.008 C 
ATOM     19  C   UNL     1     160.015 167.993 188.005  1.00  0.00     0.009 C 
ATOM     20  C   UNL     1     161.267 168.777 188.428  1.00  0.00     0.007 C 
ATOM     21  C   UNL     1     163.461 169.824 187.580  1.00  0.00     0.014 C 
ATOM     22  C   UNL     1     161.737 169.202 185.878  1.00  0.00     0.016 C 
ATOM     23  C   UNL     1     161.027 170.160 189.157  1.00  0.00    -0.006 C 
ATOM     24  C   UNL     1     163.662 170.033 189.080  1.00  0.00     0.033 C 
ATOM     25  C   UNL     1     162.413 170.701 189.719  1.00  0.00     0.120 C 
ATOM     26  C   UNL     1     160.013 169.966 190.317  1.00  0.00     0.014 C 
ATOM     27  C   UNL     1     160.409 171.226 188.216  1.00  0.00     0.014 C 
BRANCH   7  28
ATOM     28  O   UNL     1     161.934 161.740 186.783  1.00  0.00    -0.393 OA
ATOM     29  H   UNL     1     161.136 162.239 186.466  1.00  0.00     0.210 HD
ENDBRANCH   7  28
BRANCH  25  30
ATOM     30  O   UNL     1     162.502 170.620 191.121  1.00  0.00    -0.393 OA
ATOM     31  H   UNL     1     162.376 169.670 191.390  1.00  0.00     0.210 HD
ENDBRANCH  25  30
ENDBRANCH   2   6
ENDBRANCH   1   2
BRANCH   1  32
ATOM     32  C   UNL     1     166.719 162.672 186.890  1.00  0.00     0.031 C 
BRANCH  32  33
ATOM     33  C   UNL     1     167.045 161.619 187.925  1.00  0.00    -0.075 C 
ATOM     34  C   UNL     1     167.570 160.446 187.525  1.00  0.00     0.008 C 
BRANCH  33  35
ATOM     35  C   UNL     1     166.807 161.910 189.399  1.00  0.00     0.008 C 
ATOM     36  C   UNL     1     166.360 160.649 190.147  1.00  0.00     0.012 C 
ATOM     37  C   UNL     1     165.803 163.051 189.591  1.00  0.00     0.012 C 
ENDBRANCH  33  35
ENDBRANCH  32  33
ENDBRANCH   1  32
TORSDOF 8
ENDMDL
MODEL 4
REMARK VINA RESULT:    -5.908     14.802     17.531
REMARK INTER + INTRA:          -9.670
REMARK INTER:                  -8.268
REMARK INTRA:                  -1.401
REMARK UNBOUND:                -1.344
REMARK SMILES C=C(CC[C@@H](C(=O)[O-])[C@@H]1[C@H](O)C[C@@]2(C)C3=C(CC[C@@]12C)[C@]1(C)CC[C@H](O)C(C)(C)[C@H]1CC3)C(C)C
REMARK SMILES IDX 4 1 5 2 6 3 7 4 8 5 9 6 10 7 19 8 12 9 13 10 18 11 20 12
REMARK SMILES IDX 14 13 15 14 17 15 16 16 32 17 21 18 31 19 30 20 23 21 22 22
REMARK SMILES IDX 27 23 24 24 25 25 28 26 29 27 11 28 26 30 3 32 2 33 1 34
REMARK SMILES IDX 33 35 34 36 35 37
REMARK H PARENT 11 29 26 31
REMARK Flexibility Score: inf
ROOT
ATOM      1  C   UNL     1     164.513 160.921 178.063  1.00  0.00     0.014 C 
ENDROOT
BRANCH   1   2
ATOM      2  C   UNL     1     165.621 160.902 179.151  1.00  0.00     0.042 C 
BRANCH   2   3
ATOM      3  C   UNL     1     166.949 161.192 178.485  1.00  0.00     0.045 C 
ATOM      4  O   UNL     1     167.777 160.257 178.329  1.00  0.00    -0.550 OA
ATOM      5  O   UNL     1     167.213 162.422 177.895  1.00  0.00    -0.550 OA
ENDBRANCH   2   3
BRANCH   2   6
ATOM      6  C   UNL     1     165.256 161.766 180.423  1.00  0.00     0.033 C 
ATOM      7  C   UNL     1     166.409 162.193 181.364  1.00  0.00     0.119 C 
ATOM      8  C   UNL     1     164.033 161.351 181.346  1.00  0.00    -0.017 C 
ATOM      9  C   UNL     1     165.787 162.301 182.755  1.00  0.00     0.043 C 
ATOM     10  C   UNL     1     164.630 161.282 182.800  1.00  0.00    -0.003 C 
ATOM     11  C   UNL     1     162.986 162.500 181.291  1.00  0.00     0.012 C 
ATOM     12  C   UNL     1     163.312 160.039 180.916  1.00  0.00     0.013 C 
ATOM     13  C   UNL     1     165.225 159.875 183.106  1.00  0.00     0.017 C 
ATOM     14  C   UNL     1     163.643 161.649 183.939  1.00  0.00    -0.064 C 
ATOM     15  C   UNL     1     161.862 162.338 182.301  1.00  0.00     0.032 C 
ATOM     16  C   UNL     1     162.345 162.037 183.702  1.00  0.00    -0.064 C 
ATOM     17  C   UNL     1     164.166 161.490 185.382  1.00  0.00     0.032 C 
ATOM     18  C   UNL     1     161.358 162.091 184.888  1.00  0.00    -0.008 C 
ATOM     19  C   UNL     1     163.312 162.086 186.526  1.00  0.00     0.009 C 
ATOM     20  C   UNL     1     162.107 162.890 186.013  1.00  0.00     0.007 C 
ATOM     21  C   UNL     1     159.978 162.770 184.571  1.00  0.00     0.014 C 
ATOM     22  C   UNL     1     161.041 160.612 185.256  1.00  0.00     0.016 C 
ATOM     23  C   UNL     1     161.186 163.565 187.107  1.00  0.00    -0.006 C 
ATOM     24  C   UNL     1     159.980 164.269 184.867  1.00  0.00     0.033 C 
ATOM     25  C   UNL     1     160.147 164.532 186.389  1.00  0.00     0.120 C 
ATOM     26  C   UNL     1     162.066 164.365 188.106  1.00  0.00     0.014 C 
ATOM     27  C   UNL     1     160.409 162.522 187.953  1.00  0.00     0.014 C 
BRANCH   7  28
ATOM     28  O   UNL     1     167.454 161.260 181.384  1.00  0.00    -0.393 OA
ATOM     29  H   UNL     1     167.743 161.124 180.443  1.00  0.00     0.210 HD
ENDBRANCH   7  28
BRANCH  25  30
ATOM     30  O   UNL     1     160.433 165.893 186.602  1.00  0.00    -0.393 OA
ATOM     31  H   UNL     1     159.595 166.352 186.881  1.00  0.00     0.210 HD
ENDBRANCH  25  30
ENDBRANCH   2   6
ENDBRANCH   1   2
BRANCH   1  32
ATOM     32  C   UNL     1     164.042 162.334 177.681  1.00  0.00     0.031 C 
BRANCH  32  33
ATOM     33  C   UNL     1     162.536 162.370 177.545  1.00  0.00    -0.075 C 
ATOM     34  C   UNL     1     161.935 163.529 177.218  1.00  0.00     0.008 C 
BRANCH  33  35
ATOM     35  C   UNL     1     161.729 161.096 177.747  1.00  0.00     0.008 C 
ATOM     36  C   UNL     1     161.203 160.558 176.411  1.00  0.00     0.012 C 
ATOM     37  C   UNL     1     160.586 161.308 178.745  1.00  0.00     0.012 C 
ENDBRANCH  33  35
ENDBRANCH  32  33
ENDBRANCH   1  32
TORSDOF 8
ENDMDL
MODEL 5
REMARK VINA RESULT:    -5.868      6.356      9.973
REMARK INTER + INTRA:          -9.614
REMARK INTER:                  -8.267
REMARK INTRA:                  -1.347
REMARK UNBOUND:                -1.344
REMARK SMILES C=C(CC[C@@H](C(=O)[O-])[C@@H]1[C@H](O)C[C@@]2(C)C3=C(CC[C@@]12C)[C@]1(C)CC[C@H](O)C(C)(C)[C@H]1CC3)C(C)C
REMARK SMILES IDX 4 1 5 2 6 3 7 4 8 5 9 6 10 7 19 8 12 9 13 10 18 11 20 12
REMARK SMILES IDX 14 13 15 14 17 15 16 16 32 17 21 18 31 19 30 20 23 21 22 22
REMARK SMILES IDX 27 23 24 24 25 25 28 26 29 27 11 28 26 30 3 32 2 33 1 34
REMARK SMILES IDX 33 35 34 36 35 37
REMARK H PARENT 11 29 26 31
REMARK Flexibility Score: inf
ROOT
ATOM      1  C   UNL     1     166.858 178.245 187.107  1.00  0.00     0.014 C 
ENDROOT
BRANCH   1   2
ATOM      2  C   UNL     1     168.161 178.015 186.295  1.00  0.00     0.042 C 
BRANCH   2   3
ATOM      3  C   UNL     1     168.326 179.164 185.322  1.00  0.00     0.045 C 
ATOM      4  O   UNL     1     167.514 180.125 185.360  1.00  0.00    -0.550 OA
ATOM      5  O   UNL     1     169.442 179.266 184.501  1.00  0.00    -0.550 OA
ENDBRANCH   2   3
BRANCH   2   6
ATOM      6  C   UNL     1     169.406 177.664 187.203  1.00  0.00     0.033 C 
ATOM      7  C   UNL     1     170.114 178.826 187.942  1.00  0.00     0.119 C 
ATOM      8  C   UNL     1     170.542 176.696 186.662  1.00  0.00    -0.017 C 
ATOM      9  C   UNL     1     171.574 178.398 188.077  1.00  0.00     0.043 C 
ATOM     10  C   UNL     1     171.882 177.495 186.865  1.00  0.00    -0.003 C 
ATOM     11  C   UNL     1     170.568 175.438 187.576  1.00  0.00     0.012 C 
ATOM     12  C   UNL     1     170.334 176.209 185.198  1.00  0.00     0.013 C 
ATOM     13  C   UNL     1     172.195 178.405 185.640  1.00  0.00     0.017 C 
ATOM     14  C   UNL     1     173.133 176.624 187.156  1.00  0.00    -0.064 C 
ATOM     15  C   UNL     1     171.754 174.526 187.309  1.00  0.00     0.032 C 
ATOM     16  C   UNL     1     173.078 175.255 187.259  1.00  0.00    -0.064 C 
ATOM     17  C   UNL     1     174.481 177.369 187.256  1.00  0.00     0.032 C 
ATOM     18  C   UNL     1     174.400 174.456 187.249  1.00  0.00    -0.008 C 
ATOM     19  C   UNL     1     175.699 176.581 187.795  1.00  0.00     0.009 C 
ATOM     20  C   UNL     1     175.326 175.175 188.293  1.00  0.00     0.007 C 
ATOM     21  C   UNL     1     174.257 172.935 187.611  1.00  0.00     0.014 C 
ATOM     22  C   UNL     1     174.926 174.507 185.784  1.00  0.00     0.016 C 
ATOM     23  C   UNL     1     176.498 174.300 188.891  1.00  0.00    -0.006 C 
ATOM     24  C   UNL     1     174.434 172.669 189.106  1.00  0.00     0.033 C 
ATOM     25  C   UNL     1     175.885 172.992 189.558  1.00  0.00     0.120 C 
ATOM     26  C   UNL     1     177.279 175.128 189.947  1.00  0.00     0.014 C 
ATOM     27  C   UNL     1     177.535 173.883 187.815  1.00  0.00     0.014 C 
BRANCH   7  28
ATOM     28  O   UNL     1     170.038 180.033 187.236  1.00  0.00    -0.393 OA
ATOM     29  H   UNL     1     170.961 180.393 187.171  1.00  0.00     0.210 HD
ENDBRANCH   7  28
BRANCH  25  30
ATOM     30  O   UNL     1     175.944 173.018 190.963  1.00  0.00    -0.393 OA
ATOM     31  H   UNL     1     176.887 173.179 191.236  1.00  0.00     0.210 HD
ENDBRANCH  25  30
ENDBRANCH   2   6
ENDBRANCH   1   2
BRANCH   1  32
ATOM     32  C   UNL     1     166.494 177.077 188.039  1.00  0.00     0.031 C 
BRANCH  32  33
ATOM     33  C   UNL     1     166.966 177.358 189.448  1.00  0.00    -0.075 C 
ATOM     34  C   UNL     1     166.777 178.583 189.972  1.00  0.00     0.008 C 
BRANCH  33  35
ATOM     35  C   UNL     1     167.614 176.248 190.263  1.00  0.00     0.008 C 
ATOM     36  C   UNL     1     169.029 176.639 190.704  1.00  0.00     0.012 C 
ATOM     37  C   UNL     1     167.622 174.921 189.497  1.00  0.00     0.012 C 
ENDBRANCH  33  35
ENDBRANCH  32  33
ENDBRANCH   1  32
TORSDOF 8
ENDMDL
MODEL 6
REMARK VINA RESULT:    -5.847      1.410      2.788
REMARK INTER + INTRA:          -9.584
REMARK INTER:                  -8.385
REMARK INTRA:                  -1.199
REMARK UNBOUND:                -1.344
REMARK SMILES C=C(CC[C@@H](C(=O)[O-])[C@@H]1[C@H](O)C[C@@]2(C)C3=C(CC[C@@]12C)[C@]1(C)CC[C@H](O)C(C)(C)[C@H]1CC3)C(C)C
REMARK SMILES IDX 4 1 5 2 6 3 7 4 8 5 9 6 10 7 19 8 12 9 13 10 18 11 20 12
REMARK SMILES IDX 14 13 15 14 17 15 16 16 32 17 21 18 31 19 30 20 23 21 22 22
REMARK SMILES IDX 27 23 24 24 25 25 28 26 29 27 11 28 26 30 3 32 2 33 1 34
REMARK SMILES IDX 33 35 34 36 35 37
REMARK H PARENT 11 29 26 31
REMARK Flexibility Score: inf
ROOT
ATOM      1  C   UNL     1     176.620 173.473 185.570  1.00  0.00     0.014 C 
ENDROOT
BRANCH   1   2
ATOM      2  C   UNL     1     177.863 173.168 186.449  1.00  0.00     0.042 C 
BRANCH   2   3
ATOM      3  C   UNL     1     178.254 174.436 187.179  1.00  0.00     0.045 C 
ATOM      4  O   UNL     1     179.426 174.880 187.055  1.00  0.00    -0.550 OA
ATOM      5  O   UNL     1     177.314 175.210 187.845  1.00  0.00    -0.550 OA
ENDBRANCH   2   3
BRANCH   2   6
ATOM      6  C   UNL     1     177.699 171.862 187.324  1.00  0.00     0.033 C 
ATOM      7  C   UNL     1     178.783 171.563 188.389  1.00  0.00     0.119 C 
ATOM      8  C   UNL     1     177.332 170.480 186.634  1.00  0.00    -0.017 C 
ATOM      9  C   UNL     1     178.827 170.042 188.515  1.00  0.00     0.043 C 
ATOM     10  C   UNL     1     178.433 169.474 187.136  1.00  0.00    -0.003 C 
ATOM     11  C   UNL     1     175.952 170.025 187.190  1.00  0.00     0.012 C 
ATOM     12  C   UNL     1     177.217 170.540 185.083  1.00  0.00     0.013 C 
ATOM     13  C   UNL     1     179.690 169.499 186.215  1.00  0.00     0.017 C 
ATOM     14  C   UNL     1     177.967 168.002 187.281  1.00  0.00    -0.064 C 
ATOM     15  C   UNL     1     175.578 168.609 186.783  1.00  0.00     0.032 C 
ATOM     16  C   UNL     1     176.678 167.601 187.021  1.00  0.00    -0.064 C 
ATOM     17  C   UNL     1     179.050 166.972 187.670  1.00  0.00     0.032 C 
ATOM     18  C   UNL     1     176.381 166.090 186.900  1.00  0.00    -0.008 C 
ATOM     19  C   UNL     1     178.581 165.554 188.074  1.00  0.00     0.009 C 
ATOM     20  C   UNL     1     177.051 165.435 188.160  1.00  0.00     0.007 C 
ATOM     21  C   UNL     1     174.857 165.718 186.844  1.00  0.00     0.014 C 
ATOM     22  C   UNL     1     176.990 165.635 185.542  1.00  0.00     0.016 C 
ATOM     23  C   UNL     1     176.472 164.029 188.595  1.00  0.00    -0.006 C 
ATOM     24  C   UNL     1     174.270 165.438 188.227  1.00  0.00     0.033 C 
ATOM     25  C   UNL     1     174.908 164.166 188.853  1.00  0.00     0.120 C 
ATOM     26  C   UNL     1     177.190 163.547 189.884  1.00  0.00     0.014 C 
ATOM     27  C   UNL     1     176.717 162.932 187.527  1.00  0.00     0.014 C 
BRANCH   7  28
ATOM     28  O   UNL     1     180.044 172.045 188.016  1.00  0.00    -0.393 OA
ATOM     29  H   UNL     1     180.626 171.254 187.862  1.00  0.00     0.210 HD
ENDBRANCH   7  28
BRANCH  25  30
ATOM     30  O   UNL     1     174.573 164.095 190.217  1.00  0.00    -0.393 OA
ATOM     31  H   UNL     1     175.215 163.484 190.668  1.00  0.00     0.210 HD
ENDBRANCH  25  30
ENDBRANCH   2   6
ENDBRANCH   1   2
BRANCH   1  32
ATOM     32  C   UNL     1     176.898 174.458 184.423  1.00  0.00     0.031 C 
BRANCH  32  33
ATOM     33  C   UNL     1     177.374 173.718 183.193  1.00  0.00    -0.075 C 
ATOM     34  C   UNL     1     176.487 173.012 182.468  1.00  0.00     0.008 C 
BRANCH  33  35
ATOM     35  C   UNL     1     178.835 173.808 182.777  1.00  0.00     0.008 C 
ATOM     36  C   UNL     1     179.642 172.629 183.331  1.00  0.00     0.012 C 
ATOM     37  C   UNL     1     179.455 175.146 183.191  1.00  0.00     0.012 C 
ENDBRANCH  33  35
ENDBRANCH  32  33
ENDBRANCH   1  32
TORSDOF 8
ENDMDL
MODEL 7
REMARK VINA RESULT:    -5.777      5.844      9.604
REMARK INTER + INTRA:          -9.485
REMARK INTER:                  -7.682
REMARK INTRA:                  -1.803
REMARK UNBOUND:                -1.344
REMARK SMILES C=C(CC[C@@H](C(=O)[O-])[C@@H]1[C@H](O)C[C@@]2(C)C3=C(CC[C@@]12C)[C@]1(C)CC[C@H](O)C(C)(C)[C@H]1CC3)C(C)C
REMARK SMILES IDX 4 1 5 2 6 3 7 4 8 5 9 6 10 7 19 8 12 9 13 10 18 11 20 12
REMARK SMILES IDX 14 13 15 14 17 15 16 16 32 17 21 18 31 19 30 20 23 21 22 22
REMARK SMILES IDX 27 23 24 24 25 25 28 26 29 27 11 28 26 30 3 32 2 33 1 34
REMARK SMILES IDX 33 35 34 36 35 37
REMARK H PARENT 11 29 26 31
REMARK Flexibility Score: inf
ROOT
ATOM      1  C   UNL     1     176.591 164.439 187.545  1.00  0.00     0.014 C 
ENDROOT
BRANCH   1   2
ATOM      2  C   UNL     1     175.704 163.400 186.808  1.00  0.00     0.042 C 
BRANCH   2   3
ATOM      3  C   UNL     1     176.588 162.260 186.345  1.00  0.00     0.045 C 
ATOM      4  O   UNL     1     177.680 162.049 186.936  1.00  0.00    -0.550 OA
ATOM      5  O   UNL     1     176.154 161.342 185.398  1.00  0.00    -0.550 OA
ENDBRANCH   2   3
BRANCH   2   6
ATOM      6  C   UNL     1     174.402 163.012 187.614  1.00  0.00     0.033 C 
ATOM      7  C   UNL     1     174.471 161.784 188.555  1.00  0.00     0.119 C 
ATOM      8  C   UNL     1     172.996 162.955 186.879  1.00  0.00    -0.017 C 
ATOM      9  C   UNL     1     173.057 161.209 188.585  1.00  0.00     0.043 C 
ATOM     10  C   UNL     1     172.422 161.529 187.217  1.00  0.00    -0.003 C 
ATOM     11  C   UNL     1     172.077 164.028 187.531  1.00  0.00     0.012 C 
ATOM     12  C   UNL     1     173.050 163.249 185.351  1.00  0.00     0.013 C 
ATOM     13  C   UNL     1     172.904 160.463 186.188  1.00  0.00     0.017 C 
ATOM     14  C   UNL     1     170.876 161.444 187.316  1.00  0.00    -0.064 C 
ATOM     15  C   UNL     1     170.629 163.936 187.076  1.00  0.00     0.032 C 
ATOM     16  C   UNL     1     170.060 162.538 187.151  1.00  0.00    -0.064 C 
ATOM     17  C   UNL     1     170.277 160.040 187.541  1.00  0.00     0.032 C 
ATOM     18  C   UNL     1     168.543 162.311 186.968  1.00  0.00    -0.008 C 
ATOM     19  C   UNL     1     168.775 159.949 187.901  1.00  0.00     0.009 C 
ATOM     20  C   UNL     1     168.130 161.327 188.120  1.00  0.00     0.007 C 
ATOM     21  C   UNL     1     167.667 163.612 187.030  1.00  0.00     0.014 C 
ATOM     22  C   UNL     1     168.361 161.731 185.535  1.00  0.00     0.016 C 
ATOM     23  C   UNL     1     166.601 161.340 188.521  1.00  0.00    -0.006 C 
ATOM     24  C   UNL     1     167.167 163.917 188.442  1.00  0.00     0.033 C 
ATOM     25  C   UNL     1     166.181 162.819 188.929  1.00  0.00     0.120 C 
ATOM     26  C   UNL     1     166.366 160.367 189.708  1.00  0.00     0.014 C 
ATOM     27  C   UNL     1     165.683 160.850 187.371  1.00  0.00     0.014 C 
BRANCH   7  28
ATOM     28  O   UNL     1     175.370 160.811 188.098  1.00  0.00    -0.393 OA
ATOM     29  H   UNL     1     174.853 160.178 187.534  1.00  0.00     0.210 HD
ENDBRANCH   7  28
BRANCH  25  30
ATOM     30  O   UNL     1     165.964 162.963 190.311  1.00  0.00    -0.393 OA
ATOM     31  H   UNL     1     165.788 163.923 190.505  1.00  0.00     0.210 HD
ENDBRANCH  25  30
ENDBRANCH   2   6
ENDBRANCH   1   2
BRANCH   1  32
ATOM     32  C   UNL     1     176.663 165.804 186.841  1.00  0.00     0.031 C 
BRANCH  32  33
ATOM     33  C   UNL     1     175.338 166.526 186.949  1.00  0.00    -0.075 C 
ATOM     34  C   UNL     1     174.798 166.726 188.166  1.00  0.00     0.008 C 
BRANCH  33  35
ATOM     35  C   UNL     1     174.654 167.042 185.692  1.00  0.00     0.008 C 
ATOM     36  C   UNL     1     173.130 167.044 185.852  1.00  0.00     0.012 C 
ATOM     37  C   UNL     1     175.078 166.243 184.455  1.00  0.00     0.012 C 
ENDBRANCH  33  35
ENDBRANCH  32  33
ENDBRANCH   1  32
TORSDOF 8
ENDMDL
MODEL 8
REMARK VINA RESULT:    -5.727      6.289     10.450
REMARK INTER + INTRA:          -9.415
REMARK INTER:                  -8.151
REMARK INTRA:                  -1.263
REMARK UNBOUND:                -1.344
REMARK SMILES C=C(CC[C@@H](C(=O)[O-])[C@@H]1[C@H](O)C[C@@]2(C)C3=C(CC[C@@]12C)[C@]1(C)CC[C@H](O)C(C)(C)[C@H]1CC3)C(C)C
REMARK SMILES IDX 4 1 5 2 6 3 7 4 8 5 9 6 10 7 19 8 12 9 13 10 18 11 20 12
REMARK SMILES IDX 14 13 15 14 17 15 16 16 32 17 21 18 31 19 30 20 23 21 22 22
REMARK SMILES IDX 27 23 24 24 25 25 28 26 29 27 11 28 26 30 3 32 2 33 1 34
REMARK SMILES IDX 33 35 34 36 35 37
REMARK H PARENT 11 29 26 31
REMARK Flexibility Score: inf
ROOT
ATOM      1  C   UNL     1     176.948 162.247 187.301  1.00  0.00     0.014 C 
ENDROOT
BRANCH   1   2
ATOM      2  C   UNL     1     176.459 163.614 186.751  1.00  0.00     0.042 C 
BRANCH   2   3
ATOM      3  C   UNL     1     176.952 164.706 187.678  1.00  0.00     0.045 C 
ATOM      4  O   UNL     1     178.188 164.829 187.883  1.00  0.00    -0.550 OA
ATOM      5  O   UNL     1     176.093 165.676 188.179  1.00  0.00    -0.550 OA
ENDBRANCH   2   3
BRANCH   2   6
ATOM      6  C   UNL     1     176.749 163.802 185.209  1.00  0.00     0.033 C 
ATOM      7  C   UNL     1     176.654 165.232 184.623  1.00  0.00     0.119 C 
ATOM      8  C   UNL     1     176.093 162.821 184.148  1.00  0.00    -0.017 C 
ATOM      9  C   UNL     1     176.231 165.052 183.167  1.00  0.00     0.043 C 
ATOM     10  C   UNL     1     175.382 163.766 183.110  1.00  0.00    -0.003 C 
ATOM     11  C   UNL     1     177.245 162.064 183.426  1.00  0.00     0.012 C 
ATOM     12  C   UNL     1     175.139 161.751 184.757  1.00  0.00     0.013 C 
ATOM     13  C   UNL     1     173.930 164.113 183.556  1.00  0.00     0.017 C 
ATOM     14  C   UNL     1     175.328 163.229 181.656  1.00  0.00    -0.064 C 
ATOM     15  C   UNL     1     176.773 161.252 182.230  1.00  0.00     0.032 C 
ATOM     16  C   UNL     1     175.884 162.027 181.285  1.00  0.00    -0.064 C 
ATOM     17  C   UNL     1     174.546 164.083 180.635  1.00  0.00     0.032 C 
ATOM     18  C   UNL     1     175.526 161.438 179.904  1.00  0.00    -0.008 C 
ATOM     19  C   UNL     1     174.686 163.721 179.138  1.00  0.00     0.009 C 
ATOM     20  C   UNL     1     175.726 162.617 178.886  1.00  0.00     0.007 C 
ATOM     21  C   UNL     1     176.386 160.199 179.470  1.00  0.00     0.014 C 
ATOM     22  C   UNL     1     174.058 160.931 180.016  1.00  0.00     0.016 C 
ATOM     23  C   UNL     1     175.963 162.195 177.382  1.00  0.00    -0.006 C 
ATOM     24  C   UNL     1     177.624 160.596 178.667  1.00  0.00     0.033 C 
ATOM     25  C   UNL     1     177.222 161.226 177.304  1.00  0.00     0.120 C 
ATOM     26  C   UNL     1     176.206 163.462 176.518  1.00  0.00     0.014 C 
ATOM     27  C   UNL     1     174.733 161.480 176.765  1.00  0.00     0.014 C 
BRANCH   7  28
ATOM     28  O   UNL     1     175.713 166.023 185.296  1.00  0.00    -0.393 OA
ATOM     29  H   UNL     1     175.396 166.711 184.652  1.00  0.00     0.210 HD
ENDBRANCH   7  28
BRANCH  25  30
ATOM     30  O   UNL     1     178.346 161.838 176.720  1.00  0.00    -0.393 OA
ATOM     31  H   UNL     1     178.704 161.233 176.015  1.00  0.00     0.210 HD
ENDBRANCH  25  30
ENDBRANCH   2   6
ENDBRANCH   1   2
BRANCH   1  32
ATOM     32  C   UNL     1     176.317 161.860 188.650  1.00  0.00     0.031 C 
BRANCH  32  33
ATOM     33  C   UNL     1     174.973 161.201 188.436  1.00  0.00    -0.075 C 
ATOM     34  C   UNL     1     174.928 159.919 188.027  1.00  0.00     0.008 C 
BRANCH  33  35
ATOM     35  C   UNL     1     173.697 161.981 188.714  1.00  0.00     0.008 C 
ATOM     36  C   UNL     1     172.923 162.257 187.420  1.00  0.00     0.012 C 
ATOM     37  C   UNL     1     173.987 163.281 189.472  1.00  0.00     0.012 C 
ENDBRANCH  33  35
ENDBRANCH  32  33
ENDBRANCH   1  32
TORSDOF 8
ENDMDL
MODEL 9
REMARK VINA RESULT:    -5.720      2.661      8.331
REMARK INTER + INTRA:          -9.404
REMARK INTER:                  -8.335
REMARK INTRA:                  -1.069
REMARK UNBOUND:                -1.344
REMARK SMILES C=C(CC[C@@H](C(=O)[O-])[C@@H]1[C@H](O)C[C@@]2(C)C3=C(CC[C@@]12C)[C@]1(C)CC[C@H](O)C(C)(C)[C@H]1CC3)C(C)C
REMARK SMILES IDX 4 1 5 2 6 3 7 4 8 5 9 6 10 7 19 8 12 9 13 10 18 11 20 12
REMARK SMILES IDX 14 13 15 14 17 15 16 16 32 17 21 18 31 19 30 20 23 21 22 22
REMARK SMILES IDX 27 23 24 24 25 25 28 26 29 27 11 28 26 30 3 32 2 33 1 34
REMARK SMILES IDX 33 35 34 36 35 37
REMARK H PARENT 11 29 26 31
REMARK Flexibility Score: inf
ROOT
ATOM      1  C   UNL     1     174.492 164.398 186.254  1.00  0.00     0.014 C 
ENDROOT
BRANCH   1   2
ATOM      2  C   UNL     1     175.758 164.841 185.472  1.00  0.00     0.042 C 
BRANCH   2   3
ATOM      3  C   UNL     1     175.845 164.020 184.202  1.00  0.00     0.045 C 
ATOM      4  O   UNL     1     176.817 163.236 184.040  1.00  0.00    -0.550 OA
ATOM      5  O   UNL     1     174.801 163.986 183.286  1.00  0.00    -0.550 OA
ENDBRANCH   2   3
BRANCH   2   6
ATOM      6  C   UNL     1     175.877 166.409 185.319  1.00  0.00     0.033 C 
ATOM      7  C   UNL     1     176.315 166.972 183.945  1.00  0.00     0.119 C 
ATOM      8  C   UNL     1     176.620 167.265 186.430  1.00  0.00    -0.017 C 
ATOM      9  C   UNL     1     177.045 168.278 184.249  1.00  0.00     0.043 C 
ATOM     10  C   UNL     1     177.688 168.110 185.641  1.00  0.00    -0.003 C 
ATOM     11  C   UNL     1     175.579 168.237 187.055  1.00  0.00     0.012 C 
ATOM     12  C   UNL     1     177.235 166.428 187.590  1.00  0.00     0.013 C 
ATOM     13  C   UNL     1     179.024 167.327 185.475  1.00  0.00     0.017 C 
ATOM     14  C   UNL     1     178.012 169.500 186.249  1.00  0.00    -0.064 C 
ATOM     15  C   UNL     1     176.201 169.271 187.980  1.00  0.00     0.032 C 
ATOM     16  C   UNL     1     177.393 169.980 187.379  1.00  0.00    -0.064 C 
ATOM     17  C   UNL     1     179.130 170.309 185.559  1.00  0.00     0.032 C 
ATOM     18  C   UNL     1     177.984 171.225 188.077  1.00  0.00    -0.008 C 
ATOM     19  C   UNL     1     179.303 171.791 185.969  1.00  0.00     0.009 C 
ATOM     20  C   UNL     1     178.206 172.275 186.930  1.00  0.00     0.007 C 
ATOM     21  C   UNL     1     177.084 171.840 189.206  1.00  0.00     0.014 C 
ATOM     22  C   UNL     1     179.293 170.751 188.773  1.00  0.00     0.016 C 
ATOM     23  C   UNL     1     178.278 173.786 187.387  1.00  0.00    -0.006 C 
ATOM     24  C   UNL     1     176.145 172.926 188.681  1.00  0.00     0.033 C 
ATOM     25  C   UNL     1     176.948 174.157 188.178  1.00  0.00     0.120 C 
ATOM     26  C   UNL     1     178.436 174.699 186.141  1.00  0.00     0.014 C 
ATOM     27  C   UNL     1     179.504 174.074 188.292  1.00  0.00     0.014 C 
BRANCH   7  28
ATOM     28  O   UNL     1     177.171 166.100 183.259  1.00  0.00    -0.393 OA
ATOM     29  H   UNL     1     177.954 166.633 182.961  1.00  0.00     0.210 HD
ENDBRANCH   7  28
BRANCH  25  30
ATOM     30  O   UNL     1     176.098 175.005 187.446  1.00  0.00    -0.393 OA
ATOM     31  H   UNL     1     176.406 175.944 187.569  1.00  0.00     0.210 HD
ENDBRANCH  25  30
ENDBRANCH   2   6
ENDBRANCH   1   2
BRANCH   1  32
ATOM     32  C   UNL     1     174.675 163.090 187.041  1.00  0.00     0.031 C 
BRANCH  32  33
ATOM     33  C   UNL     1     175.249 163.372 188.411  1.00  0.00    -0.075 C 
ATOM     34  C   UNL     1     174.474 163.967 189.338  1.00  0.00     0.008 C 
BRANCH  33  35
ATOM     35  C   UNL     1     176.676 162.953 188.733  1.00  0.00     0.008 C 
ATOM     36  C   UNL     1     176.812 161.426 188.761  1.00  0.00     0.012 C 
ATOM     37  C   UNL     1     177.161 163.575 190.046  1.00  0.00     0.012 C 
ENDBRANCH  33  35
ENDBRANCH  32  33
ENDBRANCH   1  32
TORSDOF 8
ENDMDL
