MODEL 1
REMARK VINA RESULT:    -6.324      0.000      0.000
REMARK INTER + INTRA:         -12.654
REMARK INTER:                 -11.500
REMARK INTRA:                  -1.155
REMARK UNBOUND:                -1.155
REMARK SMILES CCCCCCCCCCCCCC[C@@H](C)C(=O)[O-]
REMARK SMILES IDX 9 1 10 2 11 3 12 4 13 5 14 6 15 7 16 8 17 9 18 10 19 11 8 12
REMARK SMILES IDX 7 13 6 14 5 15 4 16 3 17 2 18 1 19
REMARK H PARENT
REMARK Flexibility Score: inf
ROOT
ATOM      1  C   UNL     1      92.710 121.820 121.626  1.00  0.00     0.000 C 
ENDROOT
BRANCH   1   2
ATOM      2  C   UNL     1      93.170 123.008 122.487  1.00  0.00     0.000 C 
BRANCH   2   3
ATOM      3  C   UNL     1      92.810 122.835 123.973  1.00  0.00     0.000 C 
BRANCH   3   4
ATOM      4  C   UNL     1      94.043 122.884 124.890  1.00  0.00     0.000 C 
BRANCH   4   5
ATOM      5  C   UNL     1      95.036 123.993 124.494  1.00  0.00     0.001 C 
BRANCH   5   6
ATOM      6  C   UNL     1      96.503 123.521 124.593  1.00  0.00     0.009 C 
BRANCH   6   7
ATOM      7  C   UNL     1      97.162 123.828 125.957  1.00  0.00     0.032 C 
ATOM      8  C   UNL     1      98.496 123.096 126.145  1.00  0.00     0.014 C 
BRANCH   7   9
ATOM      9  C   UNL     1      97.375 125.311 126.095  1.00  0.00     0.044 C 
ATOM     10  O   UNL     1      97.338 125.853 127.231  1.00  0.00    -0.550 OA
ATOM     11  O   UNL     1      97.610 126.094 124.970  1.00  0.00    -0.550 OA
ENDBRANCH   7   9
ENDBRANCH   6   7
ENDBRANCH   5   6
ENDBRANCH   4   5
ENDBRANCH   3   4
ENDBRANCH   2   3
ENDBRANCH   1   2
BRANCH   1  12
ATOM     12  C   UNL     1      93.869 121.153 120.869  1.00  0.00     0.000 C 
BRANCH  12  13
ATOM     13  C   UNL     1      94.825 122.206 120.289  1.00  0.00    -0.000 C 
BRANCH  13  14
ATOM     14  C   UNL     1      94.591 122.451 118.783  1.00  0.00    -0.000 C 
BRANCH  14  15
ATOM     15  C   UNL     1      93.373 123.346 118.482  1.00  0.00    -0.000 C 
BRANCH  15  16
ATOM     16  C   UNL     1      92.087 122.586 118.104  1.00  0.00    -0.000 C 
BRANCH  16  17
ATOM     17  C   UNL     1      92.307 121.289 117.300  1.00  0.00    -0.000 C 
BRANCH  17  18
ATOM     18  C   UNL     1      92.526 121.487 115.790  1.00  0.00    -0.003 C 
ATOM     19  C   UNL     1      92.993 120.215 115.082  1.00  0.00     0.004 C 
ENDBRANCH  17  18
ENDBRANCH  16  17
ENDBRANCH  15  16
ENDBRANCH  14  15
ENDBRANCH  13  14
ENDBRANCH  12  13
ENDBRANCH   1  12
TORSDOF 14
ENDMDL
MODEL 2
REMARK VINA RESULT:    -6.141      1.002      1.694
REMARK INTER + INTRA:         -12.321
REMARK INTER:                 -11.071
REMARK INTRA:                  -1.250
REMARK UNBOUND:                -1.155
REMARK SMILES CCCCCCCCCCCCCC[C@@H](C)C(=O)[O-]
REMARK SMILES IDX 9 1 10 2 11 3 12 4 13 5 14 6 15 7 16 8 17 9 18 10 19 11 8 12
REMARK SMILES IDX 7 13 6 14 5 15 4 16 3 17 2 18 1 19
REMARK H PARENT
REMARK Flexibility Score: inf
ROOT
ATOM      1  C   UNL     1      92.997 121.928 122.322  1.00  0.00     0.000 C 
ENDROOT
BRANCH   1   2
ATOM      2  C   UNL     1      93.150 123.452 122.464  1.00  0.00     0.000 C 
BRANCH   2   3
ATOM      3  C   UNL     1      93.376 123.890 123.922  1.00  0.00     0.000 C 
BRANCH   3   4
ATOM      4  C   UNL     1      93.341 122.710 124.906  1.00  0.00     0.000 C 
BRANCH   4   5
ATOM      5  C   UNL     1      94.603 122.628 125.784  1.00  0.00     0.001 C 
BRANCH   5   6
ATOM      6  C   UNL     1      95.806 123.353 125.141  1.00  0.00     0.009 C 
BRANCH   6   7
ATOM      7  C   UNL     1      96.886 123.782 126.160  1.00  0.00     0.032 C 
ATOM      8  C   UNL     1      98.188 122.985 126.008  1.00  0.00     0.014 C 
BRANCH   7   9
ATOM      9  C   UNL     1      97.173 125.251 126.007  1.00  0.00     0.044 C 
ATOM     10  O   UNL     1      97.292 125.757 124.859  1.00  0.00    -0.550 OA
ATOM     11  O   UNL     1      97.315 126.059 127.129  1.00  0.00    -0.550 OA
ENDBRANCH   7   9
ENDBRANCH   6   7
ENDBRANCH   5   6
ENDBRANCH   4   5
ENDBRANCH   3   4
ENDBRANCH   2   3
ENDBRANCH   1   2
BRANCH   1  12
ATOM     12  C   UNL     1      93.565 121.397 120.997  1.00  0.00     0.000 C 
BRANCH  12  13
ATOM     13  C   UNL     1      94.732 122.268 120.510  1.00  0.00    -0.000 C 
BRANCH  13  14
ATOM     14  C   UNL     1      94.736 122.446 118.976  1.00  0.00    -0.000 C 
BRANCH  14  15
ATOM     15  C   UNL     1      94.537 121.131 118.200  1.00  0.00    -0.000 C 
BRANCH  15  16
ATOM     16  C   UNL     1      93.235 121.051 117.381  1.00  0.00    -0.000 C 
BRANCH  16  17
ATOM     17  C   UNL     1      92.235 122.199 117.629  1.00  0.00    -0.000 C 
BRANCH  17  18
ATOM     18  C   UNL     1      92.069 123.182 116.458  1.00  0.00    -0.003 C 
ATOM     19  C   UNL     1      92.753 124.527 116.705  1.00  0.00     0.004 C 
ENDBRANCH  17  18
ENDBRANCH  16  17
ENDBRANCH  15  16
ENDBRANCH  14  15
ENDBRANCH  13  14
ENDBRANCH  12  13
ENDBRANCH   1  12
TORSDOF 14
ENDMDL
MODEL 3
REMARK VINA RESULT:    -6.001      4.015      8.602
REMARK INTER + INTRA:         -12.067
REMARK INTER:                 -10.969
REMARK INTRA:                  -1.098
REMARK UNBOUND:                -1.155
REMARK SMILES CCCCCCCCCCCCCC[C@@H](C)C(=O)[O-]
REMARK SMILES IDX 9 1 10 2 11 3 12 4 13 5 14 6 15 7 16 8 17 9 18 10 19 11 8 12
REMARK SMILES IDX 7 13 6 14 5 15 4 16 3 17 2 18 1 19
REMARK H PARENT
REMARK Flexibility Score: inf
ROOT
ATOM      1  C   UNL     1      93.238 123.294 122.418  1.00  0.00     0.000 C 
ENDROOT
BRANCH   1   2
ATOM      2  C   UNL     1      92.946 121.804 122.171  1.00  0.00     0.000 C 
BRANCH   2   3
ATOM      3  C   UNL     1      93.837 121.202 121.070  1.00  0.00     0.000 C 
BRANCH   3   4
ATOM      4  C   UNL     1      94.757 122.246 120.417  1.00  0.00     0.000 C 
BRANCH   4   5
ATOM      5  C   UNL     1      94.433 122.479 118.930  1.00  0.00     0.001 C 
BRANCH   5   6
ATOM      6  C   UNL     1      94.121 121.159 118.189  1.00  0.00     0.009 C 
BRANCH   6   7
ATOM      7  C   UNL     1      92.676 121.081 117.647  1.00  0.00     0.032 C 
ATOM      8  C   UNL     1      91.708 121.984 118.421  1.00  0.00     0.014 C 
BRANCH   7   9
ATOM      9  C   UNL     1      92.659 121.454 116.190  1.00  0.00     0.044 C 
ATOM     10  O   UNL     1      92.105 122.521 115.816  1.00  0.00    -0.550 OA
ATOM     11  O   UNL     1      93.250 120.621 115.246  1.00  0.00    -0.550 OA
ENDBRANCH   7   9
ENDBRANCH   6   7
ENDBRANCH   5   6
ENDBRANCH   4   5
ENDBRANCH   3   4
ENDBRANCH   2   3
ENDBRANCH   1   2
BRANCH   1  12
ATOM     12  C   UNL     1      92.978 123.715 123.873  1.00  0.00     0.000 C 
BRANCH  12  13
ATOM     13  C   UNL     1      93.533 122.673 124.855  1.00  0.00    -0.000 C 
BRANCH  13  14
ATOM     14  C   UNL     1      94.930 123.051 125.391  1.00  0.00    -0.000 C 
BRANCH  14  15
ATOM     15  C   UNL     1      95.865 123.645 124.320  1.00  0.00    -0.000 C 
BRANCH  15  16
ATOM     16  C   UNL     1      96.695 124.857 124.783  1.00  0.00    -0.000 C 
BRANCH  16  17
ATOM     17  C   UNL     1      97.244 124.762 126.221  1.00  0.00    -0.000 C 
BRANCH  17  18
ATOM     18  C   UNL     1      98.663 124.180 126.340  1.00  0.00    -0.003 C 
ATOM     19  C   UNL     1      98.688 122.652 126.289  1.00  0.00     0.004 C 
ENDBRANCH  17  18
ENDBRANCH  16  17
ENDBRANCH  15  16
ENDBRANCH  14  15
ENDBRANCH  13  14
ENDBRANCH  12  13
ENDBRANCH   1  12
TORSDOF 14
ENDMDL
MODEL 4
REMARK VINA RESULT:    -5.592      3.922      8.777
REMARK INTER + INTRA:         -11.323
REMARK INTER:                 -10.659
REMARK INTRA:                  -0.664
REMARK UNBOUND:                -1.155
REMARK SMILES CCCCCCCCCCCCCC[C@@H](C)C(=O)[O-]
REMARK SMILES IDX 9 1 10 2 11 3 12 4 13 5 14 6 15 7 16 8 17 9 18 10 19 11 8 12
REMARK SMILES IDX 7 13 6 14 5 15 4 16 3 17 2 18 1 19
REMARK H PARENT
REMARK Flexibility Score: inf
ROOT
ATOM      1  C   UNL     1      94.880 123.711 124.509  1.00  0.00     0.000 C 
ENDROOT
BRANCH   1   2
ATOM      2  C   UNL     1      93.445 123.194 124.710  1.00  0.00     0.000 C 
BRANCH   2   3
ATOM      3  C   UNL     1      92.797 122.724 123.396  1.00  0.00     0.000 C 
BRANCH   3   4
ATOM      4  C   UNL     1      93.796 122.670 122.229  1.00  0.00     0.000 C 
BRANCH   4   5
ATOM      5  C   UNL     1      93.336 121.738 121.093  1.00  0.00     0.001 C 
BRANCH   5   6
ATOM      6  C   UNL     1      92.832 122.525 119.864  1.00  0.00     0.009 C 
BRANCH   6   7
ATOM      7  C   UNL     1      93.598 122.198 118.562  1.00  0.00     0.032 C 
ATOM      8  C   UNL     1      94.794 121.268 118.801  1.00  0.00     0.014 C 
BRANCH   7   9
ATOM      9  C   UNL     1      92.661 121.570 117.566  1.00  0.00     0.044 C 
ATOM     10  O   UNL     1      93.115 121.035 116.520  1.00  0.00    -0.550 OA
ATOM     11  O   UNL     1      91.289 121.580 117.791  1.00  0.00    -0.550 OA
ENDBRANCH   7   9
ENDBRANCH   6   7
ENDBRANCH   5   6
ENDBRANCH   4   5
ENDBRANCH   3   4
ENDBRANCH   2   3
ENDBRANCH   1   2
BRANCH   1  12
ATOM     12  C   UNL     1      95.777 123.459 125.730  1.00  0.00     0.000 C 
BRANCH  12  13
ATOM     13  C   UNL     1      96.870 124.533 125.840  1.00  0.00    -0.000 C 
BRANCH  13  14
ATOM     14  C   UNL     1      98.245 123.941 126.216  1.00  0.00    -0.000 C 
BRANCH  14  15
ATOM     15  C   UNL     1      98.315 122.407 126.086  1.00  0.00    -0.000 C 
BRANCH  15  16
ATOM     16  C   UNL     1      99.735 121.814 126.151  1.00  0.00    -0.000 C 
BRANCH  16  17
ATOM     17  C   UNL     1      99.819 120.381 126.714  1.00  0.00    -0.000 C 
BRANCH  17  18
ATOM     18  C   UNL     1     101.001 119.545 126.193  1.00  0.00    -0.003 C 
ATOM     19  C   UNL     1     101.852 120.290 125.164  1.00  0.00     0.004 C 
ENDBRANCH  17  18
ENDBRANCH  16  17
ENDBRANCH  15  16
ENDBRANCH  14  15
ENDBRANCH  13  14
ENDBRANCH  12  13
ENDBRANCH   1  12
TORSDOF 14
ENDMDL
MODEL 5
REMARK VINA RESULT:    -5.547      3.271      8.447
REMARK INTER + INTRA:         -11.241
REMARK INTER:                 -10.291
REMARK INTRA:                  -0.949
REMARK UNBOUND:                -1.155
REMARK SMILES CCCCCCCCCCCCCC[C@@H](C)C(=O)[O-]
REMARK SMILES IDX 9 1 10 2 11 3 12 4 13 5 14 6 15 7 16 8 17 9 18 10 19 11 8 12
REMARK SMILES IDX 7 13 6 14 5 15 4 16 3 17 2 18 1 19
REMARK H PARENT
REMARK Flexibility Score: inf
ROOT
ATOM      1  C   UNL     1      93.236 122.181 120.800  1.00  0.00     0.000 C 
ENDROOT
BRANCH   1   2
ATOM      2  C   UNL     1      94.656 121.801 120.351  1.00  0.00     0.000 C 
BRANCH   2   3
ATOM      3  C   UNL     1      94.677 120.558 119.444  1.00  0.00     0.000 C 
BRANCH   3   4
ATOM      4  C   UNL     1      94.782 120.915 117.953  1.00  0.00     0.000 C 
BRANCH   4   5
ATOM      5  C   UNL     1      93.583 120.405 117.132  1.00  0.00     0.001 C 
BRANCH   5   6
ATOM      6  C   UNL     1      93.085 121.456 116.116  1.00  0.00     0.009 C 
BRANCH   6   7
ATOM      7  C   UNL     1      91.988 122.389 116.677  1.00  0.00     0.032 C 
ATOM      8  C   UNL     1      91.369 121.854 117.975  1.00  0.00     0.014 C 
BRANCH   7   9
ATOM      9  C   UNL     1      92.562 123.758 116.918  1.00  0.00     0.044 C 
ATOM     10  O   UNL     1      93.307 123.967 117.912  1.00  0.00    -0.550 OA
ATOM     11  O   UNL     1      92.268 124.805 116.050  1.00  0.00    -0.550 OA
ENDBRANCH   7   9
ENDBRANCH   6   7
ENDBRANCH   5   6
ENDBRANCH   4   5
ENDBRANCH   3   4
ENDBRANCH   2   3
ENDBRANCH   1   2
BRANCH   1  12
ATOM     12  C   UNL     1      92.975 121.859 122.279  1.00  0.00     0.000 C 
BRANCH  12  13
ATOM     13  C   UNL     1      93.264 123.078 123.167  1.00  0.00    -0.000 C 
BRANCH  13  14
ATOM     14  C   UNL     1      93.103 122.767 124.670  1.00  0.00    -0.000 C 
BRANCH  14  15
ATOM     15  C   UNL     1      94.409 122.908 125.475  1.00  0.00    -0.000 C 
BRANCH  15  16
ATOM     16  C   UNL     1      95.443 123.877 124.871  1.00  0.00    -0.000 C 
BRANCH  16  17
ATOM     17  C   UNL     1      96.915 123.546 125.192  1.00  0.00    -0.000 C 
BRANCH  17  18
ATOM     18  C   UNL     1      97.681 124.648 125.944  1.00  0.00    -0.003 C 
ATOM     19  C   UNL     1      97.559 126.020 125.279  1.00  0.00     0.004 C 
ENDBRANCH  17  18
ENDBRANCH  16  17
ENDBRANCH  15  16
ENDBRANCH  14  15
ENDBRANCH  13  14
ENDBRANCH  12  13
ENDBRANCH   1  12
TORSDOF 14
ENDMDL
MODEL 6
REMARK VINA RESULT:    -4.918     11.142     12.366
REMARK INTER + INTRA:         -10.098
REMARK INTER:                  -7.606
REMARK INTRA:                  -2.492
REMARK UNBOUND:                -1.155
REMARK SMILES CCCCCCCCCCCCCC[C@@H](C)C(=O)[O-]
REMARK SMILES IDX 9 1 10 2 11 3 12 4 13 5 14 6 15 7 16 8 17 9 18 10 19 11 8 12
REMARK SMILES IDX 7 13 6 14 5 15 4 16 3 17 2 18 1 19
REMARK H PARENT
REMARK Flexibility Score: inf
ROOT
ATOM      1  C   UNL     1      85.417 125.947 128.440  1.00  0.00     0.000 C 
ENDROOT
BRANCH   1   2
ATOM      2  C   UNL     1      84.322 126.425 129.408  1.00  0.00     0.000 C 
BRANCH   2   3
ATOM      3  C   UNL     1      84.671 126.144 130.880  1.00  0.00     0.000 C 
BRANCH   3   4
ATOM      4  C   UNL     1      83.946 124.907 131.433  1.00  0.00     0.000 C 
BRANCH   4   5
ATOM      5  C   UNL     1      84.910 123.754 131.773  1.00  0.00     0.001 C 
BRANCH   5   6
ATOM      6  C   UNL     1      85.204 122.862 130.547  1.00  0.00     0.009 C 
BRANCH   6   7
ATOM      7  C   UNL     1      86.701 122.807 130.166  1.00  0.00     0.032 C 
ATOM      8  C   UNL     1      87.525 123.896 130.862  1.00  0.00     0.014 C 
BRANCH   7   9
ATOM      9  C   UNL     1      87.261 121.453 130.508  1.00  0.00     0.044 C 
ATOM     10  O   UNL     1      88.508 121.279 130.563  1.00  0.00    -0.550 OA
ATOM     11  O   UNL     1      86.409 120.384 130.761  1.00  0.00    -0.550 OA
ENDBRANCH   7   9
ENDBRANCH   6   7
ENDBRANCH   5   6
ENDBRANCH   4   5
ENDBRANCH   3   4
ENDBRANCH   2   3
ENDBRANCH   1   2
BRANCH   1  12
ATOM     12  C   UNL     1      84.924 124.853 127.481  1.00  0.00     0.000 C 
BRANCH  12  13
ATOM     13  C   UNL     1      83.438 124.544 127.716  1.00  0.00    -0.000 C 
BRANCH  13  14
ATOM     14  C   UNL     1      82.644 124.422 126.398  1.00  0.00    -0.000 C 
BRANCH  14  15
ATOM     15  C   UNL     1      83.497 123.955 125.202  1.00  0.00    -0.000 C 
BRANCH  15  16
ATOM     16  C   UNL     1      82.989 122.681 124.501  1.00  0.00    -0.000 C 
BRANCH  16  17
ATOM     17  C   UNL     1      83.112 121.386 125.329  1.00  0.00    -0.000 C 
BRANCH  17  18
ATOM     18  C   UNL     1      84.461 121.195 126.042  1.00  0.00    -0.003 C 
ATOM     19  C   UNL     1      84.309 120.771 127.504  1.00  0.00     0.004 C 
ENDBRANCH  17  18
ENDBRANCH  16  17
ENDBRANCH  15  16
ENDBRANCH  14  15
ENDBRANCH  13  14
ENDBRANCH  12  13
ENDBRANCH   1  12
TORSDOF 14
ENDMDL
MODEL 7
REMARK VINA RESULT:    -4.801     10.989     12.515
REMARK INTER + INTRA:          -9.884
REMARK INTER:                  -7.447
REMARK INTRA:                  -2.437
REMARK UNBOUND:                -1.155
REMARK SMILES CCCCCCCCCCCCCC[C@@H](C)C(=O)[O-]
REMARK SMILES IDX 9 1 10 2 11 3 12 4 13 5 14 6 15 7 16 8 17 9 18 10 19 11 8 12
REMARK SMILES IDX 7 13 6 14 5 15 4 16 3 17 2 18 1 19
REMARK H PARENT
REMARK Flexibility Score: inf
ROOT
ATOM      1  C   UNL     1      83.554 126.125 130.024  1.00  0.00     0.000 C 
ENDROOT
BRANCH   1   2
ATOM      2  C   UNL     1      84.577 126.672 129.015  1.00  0.00     0.000 C 
BRANCH   2   3
ATOM      3  C   UNL     1      85.976 126.056 129.197  1.00  0.00     0.000 C 
BRANCH   3   4
ATOM      4  C   UNL     1      86.204 124.831 128.298  1.00  0.00     0.000 C 
BRANCH   4   5
ATOM      5  C   UNL     1      86.155 123.503 129.076  1.00  0.00     0.001 C 
BRANCH   5   6
ATOM      6  C   UNL     1      86.580 123.678 130.551  1.00  0.00     0.009 C 
BRANCH   6   7
ATOM      7  C   UNL     1      86.360 122.414 131.412  1.00  0.00     0.032 C 
ATOM      8  C   UNL     1      84.875 122.077 131.593  1.00  0.00     0.014 C 
BRANCH   7   9
ATOM      9  C   UNL     1      87.070 121.244 130.788  1.00  0.00     0.044 C 
ATOM     10  O   UNL     1      86.415 120.245 130.388  1.00  0.00    -0.550 OA
ATOM     11  O   UNL     1      88.454 121.254 130.653  1.00  0.00    -0.550 OA
ENDBRANCH   7   9
ENDBRANCH   6   7
ENDBRANCH   5   6
ENDBRANCH   4   5
ENDBRANCH   3   4
ENDBRANCH   2   3
ENDBRANCH   1   2
BRANCH   1  12
ATOM     12  C   UNL     1      82.370 125.420 129.344  1.00  0.00     0.000 C 
BRANCH  12  13
ATOM     13  C   UNL     1      82.570 123.898 129.329  1.00  0.00    -0.000 C 
BRANCH  13  14
ATOM     14  C   UNL     1      82.676 123.329 127.898  1.00  0.00    -0.000 C 
BRANCH  14  15
ATOM     15  C   UNL     1      82.712 124.413 126.803  1.00  0.00    -0.000 C 
BRANCH  15  16
ATOM     16  C   UNL     1      83.470 124.015 125.522  1.00  0.00    -0.000 C 
BRANCH  16  17
ATOM     17  C   UNL     1      84.502 122.883 125.697  1.00  0.00    -0.000 C 
BRANCH  17  18
ATOM     18  C   UNL     1      84.129 121.551 125.025  1.00  0.00    -0.003 C 
ATOM     19  C   UNL     1      83.045 121.704 123.957  1.00  0.00     0.004 C 
ENDBRANCH  17  18
ENDBRANCH  16  17
ENDBRANCH  15  16
ENDBRANCH  14  15
ENDBRANCH  13  14
ENDBRANCH  12  13
ENDBRANCH   1  12
TORSDOF 14
ENDMDL
MODEL 8
REMARK VINA RESULT:    -4.695     11.601     13.768
REMARK INTER + INTRA:          -9.692
REMARK INTER:                  -7.310
REMARK INTRA:                  -2.383
REMARK UNBOUND:                -1.155
REMARK SMILES CCCCCCCCCCCCCC[C@@H](C)C(=O)[O-]
REMARK SMILES IDX 9 1 10 2 11 3 12 4 13 5 14 6 15 7 16 8 17 9 18 10 19 11 8 12
REMARK SMILES IDX 7 13 6 14 5 15 4 16 3 17 2 18 1 19
REMARK H PARENT
REMARK Flexibility Score: inf
ROOT
ATOM      1  C   UNL     1      86.934 124.620 131.609  1.00  0.00     0.000 C 
ENDROOT
BRANCH   1   2
ATOM      2  C   UNL     1      86.392 123.556 130.640  1.00  0.00     0.000 C 
BRANCH   2   3
ATOM      3  C   UNL     1      87.507 122.866 129.836  1.00  0.00     0.000 C 
BRANCH   3   4
ATOM      4  C   UNL     1      87.896 121.498 130.417  1.00  0.00     0.000 C 
BRANCH   4   5
ATOM      5  C   UNL     1      86.730 120.808 131.150  1.00  0.00     0.001 C 
BRANCH   5   6
ATOM      6  C   UNL     1      85.915 119.891 130.211  1.00  0.00     0.009 C 
BRANCH   6   7
ATOM      7  C   UNL     1      84.406 120.222 130.179  1.00  0.00     0.032 C 
ATOM      8  C   UNL     1      83.923 120.893 131.471  1.00  0.00     0.014 C 
BRANCH   7   9
ATOM      9  C   UNL     1      84.107 121.114 129.005  1.00  0.00     0.044 C 
ATOM     10  O   UNL     1      84.908 121.173 128.035  1.00  0.00    -0.550 OA
ATOM     11  O   UNL     1      82.949 121.884 128.985  1.00  0.00    -0.550 OA
ENDBRANCH   7   9
ENDBRANCH   6   7
ENDBRANCH   5   6
ENDBRANCH   4   5
ENDBRANCH   3   4
ENDBRANCH   2   3
ENDBRANCH   1   2
BRANCH   1  12
ATOM     12  C   UNL     1      85.946 124.952 132.738  1.00  0.00     0.000 C 
BRANCH  12  13
ATOM     13  C   UNL     1      84.507 125.023 132.206  1.00  0.00    -0.000 C 
BRANCH  13  14
ATOM     14  C   UNL     1      84.075 126.464 131.858  1.00  0.00    -0.000 C 
BRANCH  14  15
ATOM     15  C   UNL     1      83.835 126.691 130.353  1.00  0.00    -0.000 C 
BRANCH  15  16
ATOM     16  C   UNL     1      85.101 126.998 129.531  1.00  0.00    -0.000 C 
BRANCH  16  17
ATOM     17  C   UNL     1      85.251 126.182 128.232  1.00  0.00    -0.000 C 
BRANCH  17  18
ATOM     18  C   UNL     1      84.240 125.034 128.063  1.00  0.00    -0.003 C 
ATOM     19  C   UNL     1      84.220 124.458 126.647  1.00  0.00     0.004 C 
ENDBRANCH  17  18
ENDBRANCH  16  17
ENDBRANCH  15  16
ENDBRANCH  14  15
ENDBRANCH  13  14
ENDBRANCH  12  13
ENDBRANCH   1  12
TORSDOF 14
ENDMDL
MODEL 9
REMARK VINA RESULT:    -4.680     10.759     12.893
REMARK INTER + INTRA:          -9.665
REMARK INTER:                  -7.627
REMARK INTRA:                  -2.039
REMARK UNBOUND:                -1.155
REMARK SMILES CCCCCCCCCCCCCC[C@@H](C)C(=O)[O-]
REMARK SMILES IDX 9 1 10 2 11 3 12 4 13 5 14 6 15 7 16 8 17 9 18 10 19 11 8 12
REMARK SMILES IDX 7 13 6 14 5 15 4 16 3 17 2 18 1 19
REMARK H PARENT
REMARK Flexibility Score: inf
ROOT
ATOM      1  C   UNL     1      84.472 122.731 125.146  1.00  0.00     0.000 C 
ENDROOT
BRANCH   1   2
ATOM      2  C   UNL     1      83.566 121.540 125.499  1.00  0.00     0.000 C 
BRANCH   2   3
ATOM      3  C   UNL     1      84.144 120.673 126.631  1.00  0.00     0.000 C 
BRANCH   3   4
ATOM      4  C   UNL     1      83.173 120.518 127.813  1.00  0.00     0.000 C 
BRANCH   4   5
ATOM      5  C   UNL     1      83.777 120.994 129.147  1.00  0.00     0.001 C 
BRANCH   5   6
ATOM      6  C   UNL     1      85.255 121.418 128.998  1.00  0.00     0.009 C 
BRANCH   6   7
ATOM      7  C   UNL     1      85.930 121.792 130.337  1.00  0.00     0.032 C 
ATOM      8  C   UNL     1      85.862 120.657 131.366  1.00  0.00     0.014 C 
BRANCH   7   9
ATOM      9  C   UNL     1      87.366 122.167 130.093  1.00  0.00     0.044 C 
ATOM     10  O   UNL     1      88.293 121.399 130.466  1.00  0.00    -0.550 OA
ATOM     11  O   UNL     1      87.681 123.365 129.462  1.00  0.00    -0.550 OA
ENDBRANCH   7   9
ENDBRANCH   6   7
ENDBRANCH   5   6
ENDBRANCH   4   5
ENDBRANCH   3   4
ENDBRANCH   2   3
ENDBRANCH   1   2
BRANCH   1  12
ATOM     12  C   UNL     1      83.775 124.086 125.347  1.00  0.00     0.000 C 
BRANCH  12  13
ATOM     13  C   UNL     1      82.827 124.042 126.555  1.00  0.00    -0.000 C 
BRANCH  13  14
ATOM     14  C   UNL     1      83.368 124.840 127.760  1.00  0.00    -0.000 C 
BRANCH  14  15
ATOM     15  C   UNL     1      84.906 124.875 127.839  1.00  0.00    -0.000 C 
BRANCH  15  16
ATOM     16  C   UNL     1      85.502 126.212 128.321  1.00  0.00    -0.000 C 
BRANCH  16  17
ATOM     17  C   UNL     1      85.173 126.586 129.780  1.00  0.00    -0.000 C 
BRANCH  17  18
ATOM     18  C   UNL     1      84.949 125.392 130.724  1.00  0.00    -0.003 C 
ATOM     19  C   UNL     1      85.953 125.344 131.876  1.00  0.00     0.004 C 
ENDBRANCH  17  18
ENDBRANCH  16  17
ENDBRANCH  15  16
ENDBRANCH  14  15
ENDBRANCH  13  14
ENDBRANCH  12  13
ENDBRANCH   1  12
TORSDOF 14
ENDMDL
