MODEL 1
REMARK VINA RESULT:    -3.412      0.000      0.000
REMARK INTER + INTRA:         -10.954
REMARK INTER:                  -7.800
REMARK INTRA:                  -3.154
REMARK UNBOUND:                -3.154
REMARK SMILES CCCCCCCCCCCCCCCCCCCCCCCC(=O)[O-]
REMARK SMILES IDX 13 1 14 2 15 3 16 4 17 5 18 6 19 7 20 8 21 9 22 10 23 11
REMARK SMILES IDX 24 12 25 13 26 14 12 15 11 16 10 17 9 18 8 19 7 20 6 21 5 22
REMARK SMILES IDX 4 23 3 24 2 25 1 26
REMARK H PARENT
REMARK Flexibility Score: inf
ROOT
ATOM      1  C   UNL     1      11.593  21.043  20.032  1.00  0.00     0.000 C 
ENDROOT
BRANCH   1   2
ATOM      2  C   UNL     1      10.126  20.961  20.484  1.00  0.00     0.000 C 
BRANCH   2   3
ATOM      3  C   UNL     1       9.318  22.204  20.079  1.00  0.00     0.000 C 
BRANCH   3   4
ATOM      4  C   UNL     1       8.190  22.518  21.080  1.00  0.00     0.000 C 
BRANCH   4   5
ATOM      5  C   UNL     1       8.261  21.645  22.343  1.00  0.00     0.000 C 
BRANCH   5   6
ATOM      6  C   UNL     1       7.108  21.930  23.322  1.00  0.00     0.000 C 
BRANCH   6   7
ATOM      7  C   UNL     1       5.727  21.726  22.679  1.00  0.00     0.000 C 
BRANCH   7   8
ATOM      8  C   UNL     1       5.088  20.384  23.062  1.00  0.00     0.000 C 
BRANCH   8   9
ATOM      9  C   UNL     1       3.747  20.189  22.338  1.00  0.00     0.000 C 
BRANCH   9  10
ATOM     10  C   UNL     1       2.828  19.183  23.049  1.00  0.00     0.006 C 
BRANCH  10  11
ATOM     11  C   UNL     1       3.598  18.215  23.957  1.00  0.00     0.053 C 
BRANCH  11  12
ATOM     12  C   UNL     1       3.251  16.797  23.628  1.00  0.00     0.041 C 
ATOM     13  O   UNL     1       2.529  16.534  22.630  1.00  0.00    -0.550 OA
ATOM     14  O   UNL     1       3.707  15.765  24.440  1.00  0.00    -0.550 OA
ENDBRANCH  11  12
ENDBRANCH  10  11
ENDBRANCH   9  10
ENDBRANCH   8   9
ENDBRANCH   7   8
ENDBRANCH   6   7
ENDBRANCH   5   6
ENDBRANCH   4   5
ENDBRANCH   3   4
ENDBRANCH   2   3
ENDBRANCH   1   2
BRANCH   1  15
ATOM     15  C   UNL     1      12.115  22.490  19.964  1.00  0.00     0.000 C 
BRANCH  15  16
ATOM     16  C   UNL     1      12.855  22.855  18.659  1.00  0.00     0.000 C 
BRANCH  16  17
ATOM     17  C   UNL     1      12.063  22.601  17.363  1.00  0.00     0.000 C 
BRANCH  17  18
ATOM     18  C   UNL     1      12.819  21.714  16.364  1.00  0.00    -0.000 C 
BRANCH  18  19
ATOM     19  C   UNL     1      11.973  20.503  15.955  1.00  0.00    -0.000 C 
BRANCH  19  20
ATOM     20  C   UNL     1      10.525  20.652  16.438  1.00  0.00    -0.000 C 
BRANCH  20  21
ATOM     21  C   UNL     1      10.080  19.417  17.231  1.00  0.00    -0.000 C 
BRANCH  21  22
ATOM     22  C   UNL     1       8.596  19.107  16.983  1.00  0.00    -0.000 C 
BRANCH  22  23
ATOM     23  C   UNL     1       7.705  19.436  18.195  1.00  0.00    -0.000 C 
BRANCH  23  24
ATOM     24  C   UNL     1       6.626  20.508  17.941  1.00  0.00    -0.000 C 
BRANCH  24  25
ATOM     25  C   UNL     1       5.663  20.752  19.117  1.00  0.00    -0.003 C 
ATOM     26  C   UNL     1       4.194  20.747  18.695  1.00  0.00     0.004 C 
ENDBRANCH  24  25
ENDBRANCH  23  24
ENDBRANCH  22  23
ENDBRANCH  21  22
ENDBRANCH  20  21
ENDBRANCH  19  20
ENDBRANCH  18  19
ENDBRANCH  17  18
ENDBRANCH  16  17
ENDBRANCH  15  16
ENDBRANCH   1  15
TORSDOF 22
ENDMDL
MODEL 2
REMARK VINA RESULT:    -3.338      2.892      5.079
REMARK INTER + INTRA:         -10.784
REMARK INTER:                  -7.408
REMARK INTRA:                  -3.377
REMARK UNBOUND:                -3.154
REMARK SMILES CCCCCCCCCCCCCCCCCCCCCCCC(=O)[O-]
REMARK SMILES IDX 13 1 14 2 15 3 16 4 17 5 18 6 19 7 20 8 21 9 22 10 23 11
REMARK SMILES IDX 24 12 25 13 26 14 12 15 11 16 10 17 9 18 8 19 7 20 6 21 5 22
REMARK SMILES IDX 4 23 3 24 2 25 1 26
REMARK H PARENT
REMARK Flexibility Score: inf
ROOT
ATOM      1  C   UNL     1       7.538  21.213  21.209  1.00  0.00     0.000 C 
ENDROOT
BRANCH   1   2
ATOM      2  C   UNL     1       6.072  21.154  20.748  1.00  0.00     0.000 C 
BRANCH   2   3
ATOM      3  C   UNL     1       5.923  20.538  19.348  1.00  0.00     0.000 C 
BRANCH   3   4
ATOM      4  C   UNL     1       5.500  21.578  18.294  1.00  0.00     0.000 C 
BRANCH   4   5
ATOM      5  C   UNL     1       5.297  20.959  16.902  1.00  0.00     0.000 C 
BRANCH   5   6
ATOM      6  C   UNL     1       5.193  19.424  16.949  1.00  0.00     0.000 C 
BRANCH   6   7
ATOM      7  C   UNL     1       4.244  18.865  15.877  1.00  0.00     0.000 C 
BRANCH   7   8
ATOM      8  C   UNL     1       3.204  17.895  16.455  1.00  0.00     0.000 C 
BRANCH   8   9
ATOM      9  C   UNL     1       3.272  17.872  17.990  1.00  0.00     0.000 C 
BRANCH   9  10
ATOM     10  C   UNL     1       2.448  16.729  18.604  1.00  0.00     0.006 C 
BRANCH  10  11
ATOM     11  C   UNL     1       1.873  15.777  17.546  1.00  0.00     0.053 C 
BRANCH  11  12
ATOM     12  C   UNL     1       2.530  14.436  17.634  1.00  0.00     0.041 C 
ATOM     13  O   UNL     1       3.777  14.328  17.487  1.00  0.00    -0.550 OA
ATOM     14  O   UNL     1       1.761  13.299  17.854  1.00  0.00    -0.550 OA
ENDBRANCH  11  12
ENDBRANCH  10  11
ENDBRANCH   9  10
ENDBRANCH   8   9
ENDBRANCH   7   8
ENDBRANCH   6   7
ENDBRANCH   5   6
ENDBRANCH   4   5
ENDBRANCH   3   4
ENDBRANCH   2   3
ENDBRANCH   1   2
BRANCH   1  15
ATOM     15  C   UNL     1       8.271  22.468  20.703  1.00  0.00     0.000 C 
BRANCH  15  16
ATOM     16  C   UNL     1       9.387  22.198  19.670  1.00  0.00     0.000 C 
BRANCH  16  17
ATOM     17  C   UNL     1      10.578  21.375  20.191  1.00  0.00     0.000 C 
BRANCH  17  18
ATOM     18  C   UNL     1      11.931  21.886  19.676  1.00  0.00    -0.000 C 
BRANCH  18  19
ATOM     19  C   UNL     1      11.737  22.964  18.603  1.00  0.00    -0.000 C 
BRANCH  19  20
ATOM     20  C   UNL     1      12.783  22.830  17.490  1.00  0.00    -0.000 C 
BRANCH  20  21
ATOM     21  C   UNL     1      12.487  21.615  16.602  1.00  0.00    -0.000 C 
BRANCH  21  22
ATOM     22  C   UNL     1      11.030  21.627  16.117  1.00  0.00    -0.000 C 
BRANCH  22  23
ATOM     23  C   UNL     1      10.398  20.223  16.087  1.00  0.00    -0.000 C 
BRANCH  23  24
ATOM     24  C   UNL     1       9.010  20.116  16.750  1.00  0.00    -0.000 C 
BRANCH  24  25
ATOM     25  C   UNL     1       8.900  19.059  17.863  1.00  0.00    -0.003 C 
ATOM     26  C   UNL     1      10.205  18.296  18.091  1.00  0.00     0.004 C 
ENDBRANCH  24  25
ENDBRANCH  23  24
ENDBRANCH  22  23
ENDBRANCH  21  22
ENDBRANCH  20  21
ENDBRANCH  19  20
ENDBRANCH  18  19
ENDBRANCH  17  18
ENDBRANCH  16  17
ENDBRANCH  15  16
ENDBRANCH   1  15
TORSDOF 22
ENDMDL
MODEL 3
REMARK VINA RESULT:    -3.295      3.437      4.302
REMARK INTER + INTRA:         -10.686
REMARK INTER:                  -7.886
REMARK INTRA:                  -2.800
REMARK UNBOUND:                -3.154
REMARK SMILES CCCCCCCCCCCCCCCCCCCCCCCC(=O)[O-]
REMARK SMILES IDX 13 1 14 2 15 3 16 4 17 5 18 6 19 7 20 8 21 9 22 10 23 11
REMARK SMILES IDX 24 12 25 13 26 14 12 15 11 16 10 17 9 18 8 19 7 20 6 21 5 22
REMARK SMILES IDX 4 23 3 24 2 25 1 26
REMARK H PARENT
REMARK Flexibility Score: inf
ROOT
ATOM      1  C   UNL     1      11.536  21.186  20.355  1.00  0.00     0.000 C 
ENDROOT
BRANCH   1   2
ATOM      2  C   UNL     1      10.027  21.196  20.650  1.00  0.00     0.000 C 
BRANCH   2   3
ATOM      3  C   UNL     1       9.349  22.496  20.191  1.00  0.00     0.000 C 
BRANCH   3   4
ATOM      4  C   UNL     1       8.425  23.086  21.272  1.00  0.00     0.000 C 
BRANCH   4   5
ATOM      5  C   UNL     1       8.732  22.537  22.675  1.00  0.00     0.000 C 
BRANCH   5   6
ATOM      6  C   UNL     1       7.803  23.123  23.753  1.00  0.00     0.000 C 
BRANCH   6   7
ATOM      7  C   UNL     1       7.032  22.036  24.520  1.00  0.00     0.000 C 
BRANCH   7   8
ATOM      8  C   UNL     1       6.168  22.610  25.652  1.00  0.00     0.000 C 
BRANCH   8   9
ATOM      9  C   UNL     1       7.013  22.864  26.910  1.00  0.00     0.000 C 
BRANCH   9  10
ATOM     10  C   UNL     1       7.521  21.566  27.557  1.00  0.00     0.006 C 
BRANCH  10  11
ATOM     11  C   UNL     1       8.854  21.753  28.295  1.00  0.00     0.053 C 
BRANCH  11  12
ATOM     12  C   UNL     1       8.712  21.386  29.738  1.00  0.00     0.041 C 
ATOM     13  O   UNL     1       7.579  21.114  30.217  1.00  0.00    -0.550 OA
ATOM     14  O   UNL     1       9.831  21.366  30.563  1.00  0.00    -0.550 OA
ENDBRANCH  11  12
ENDBRANCH  10  11
ENDBRANCH   9  10
ENDBRANCH   8   9
ENDBRANCH   7   8
ENDBRANCH   6   7
ENDBRANCH   5   6
ENDBRANCH   4   5
ENDBRANCH   3   4
ENDBRANCH   2   3
ENDBRANCH   1   2
BRANCH   1  15
ATOM     15  C   UNL     1      12.099  22.592  20.080  1.00  0.00     0.000 C 
BRANCH  15  16
ATOM     16  C   UNL     1      12.916  22.723  18.777  1.00  0.00     0.000 C 
BRANCH  16  17
ATOM     17  C   UNL     1      12.093  22.659  17.478  1.00  0.00     0.000 C 
BRANCH  17  18
ATOM     18  C   UNL     1      12.647  21.644  16.468  1.00  0.00    -0.000 C 
BRANCH  18  19
ATOM     19  C   UNL     1      11.536  20.726  15.947  1.00  0.00    -0.000 C 
BRANCH  19  20
ATOM     20  C   UNL     1      10.738  20.112  17.103  1.00  0.00    -0.000 C 
BRANCH  20  21
ATOM     21  C   UNL     1       9.363  19.629  16.627  1.00  0.00    -0.000 C 
BRANCH  21  22
ATOM     22  C   UNL     1       8.397  19.461  17.809  1.00  0.00    -0.000 C 
BRANCH  22  23
ATOM     23  C   UNL     1       7.163  20.378  17.708  1.00  0.00    -0.000 C 
BRANCH  23  24
ATOM     24  C   UNL     1       6.023  20.051  18.694  1.00  0.00    -0.000 C 
BRANCH  24  25
ATOM     25  C   UNL     1       5.714  21.157  19.719  1.00  0.00    -0.003 C 
ATOM     26  C   UNL     1       5.833  20.679  21.166  1.00  0.00     0.004 C 
ENDBRANCH  24  25
ENDBRANCH  23  24
ENDBRANCH  22  23
ENDBRANCH  21  22
ENDBRANCH  20  21
ENDBRANCH  19  20
ENDBRANCH  18  19
ENDBRANCH  17  18
ENDBRANCH  16  17
ENDBRANCH  15  16
ENDBRANCH   1  15
TORSDOF 22
ENDMDL
MODEL 4
REMARK VINA RESULT:    -3.294     17.503     20.412
REMARK INTER + INTRA:         -10.684
REMARK INTER:                  -8.240
REMARK INTRA:                  -2.445
REMARK UNBOUND:                -3.154
REMARK SMILES CCCCCCCCCCCCCCCCCCCCCCCC(=O)[O-]
REMARK SMILES IDX 13 1 14 2 15 3 16 4 17 5 18 6 19 7 20 8 21 9 22 10 23 11
REMARK SMILES IDX 24 12 25 13 26 14 12 15 11 16 10 17 9 18 8 19 7 20 6 21 5 22
REMARK SMILES IDX 4 23 3 24 2 25 1 26
REMARK H PARENT
REMARK Flexibility Score: inf
ROOT
ATOM      1  C   UNL     1       8.878   7.003  33.874  1.00  0.00     0.000 C 
ENDROOT
BRANCH   1   2
ATOM      2  C   UNL     1      10.249   6.396  34.215  1.00  0.00     0.000 C 
BRANCH   2   3
ATOM      3  C   UNL     1      10.133   4.974  34.789  1.00  0.00     0.000 C 
BRANCH   3   4
ATOM      4  C   UNL     1      11.507   4.299  34.958  1.00  0.00     0.000 C 
BRANCH   4   5
ATOM      5  C   UNL     1      11.733   3.161  33.950  1.00  0.00     0.000 C 
BRANCH   5   6
ATOM      6  C   UNL     1      12.298   3.664  32.610  1.00  0.00     0.000 C 
BRANCH   6   7
ATOM      7  C   UNL     1      11.372   3.348  31.424  1.00  0.00     0.000 C 
BRANCH   7   8
ATOM      8  C   UNL     1      10.607   4.583  30.926  1.00  0.00     0.000 C 
BRANCH   8   9
ATOM      9  C   UNL     1       9.101   4.437  31.192  1.00  0.00     0.000 C 
BRANCH   9  10
ATOM     10  C   UNL     1       8.313   4.020  29.940  1.00  0.00     0.006 C 
BRANCH  10  11
ATOM     11  C   UNL     1       6.838   3.718  30.241  1.00  0.00     0.053 C 
BRANCH  11  12
ATOM     12  C   UNL     1       5.956   4.783  29.668  1.00  0.00     0.041 C 
ATOM     13  O   UNL     1       6.280   5.371  28.602  1.00  0.00    -0.550 OA
ATOM     14  O   UNL     1       4.786   5.143  30.326  1.00  0.00    -0.550 OA
ENDBRANCH  11  12
ENDBRANCH  10  11
ENDBRANCH   9  10
ENDBRANCH   8   9
ENDBRANCH   7   8
ENDBRANCH   6   7
ENDBRANCH   5   6
ENDBRANCH   4   5
ENDBRANCH   3   4
ENDBRANCH   2   3
ENDBRANCH   1   2
BRANCH   1  15
ATOM     15  C   UNL     1       7.704   6.154  34.395  1.00  0.00     0.000 C 
BRANCH  15  16
ATOM     16  C   UNL     1       6.593   5.873  33.360  1.00  0.00     0.000 C 
BRANCH  16  17
ATOM     17  C   UNL     1       5.446   4.975  33.857  1.00  0.00     0.000 C 
BRANCH  17  18
ATOM     18  C   UNL     1       4.554   5.663  34.899  1.00  0.00    -0.000 C 
BRANCH  18  19
ATOM     19  C   UNL     1       3.908   6.927  34.320  1.00  0.00    -0.000 C 
BRANCH  19  20
ATOM     20  C   UNL     1       3.697   7.988  35.406  1.00  0.00    -0.000 C 
BRANCH  20  21
ATOM     21  C   UNL     1       2.204   8.204  35.680  1.00  0.00    -0.000 C 
BRANCH  21  22
ATOM     22  C   UNL     1       1.823   9.685  35.527  1.00  0.00    -0.000 C 
BRANCH  22  23
ATOM     23  C   UNL     1       2.595  10.387  34.396  1.00  0.00    -0.000 C 
BRANCH  23  24
ATOM     24  C   UNL     1       2.342  11.904  34.275  1.00  0.00    -0.000 C 
BRANCH  24  25
ATOM     25  C   UNL     1       1.113  12.293  33.435  1.00  0.00    -0.003 C 
ATOM     26  C   UNL     1       0.236  13.346  34.113  1.00  0.00     0.004 C 
ENDBRANCH  24  25
ENDBRANCH  23  24
ENDBRANCH  22  23
ENDBRANCH  21  22
ENDBRANCH  20  21
ENDBRANCH  19  20
ENDBRANCH  18  19
ENDBRANCH  17  18
ENDBRANCH  16  17
ENDBRANCH  15  16
ENDBRANCH   1  15
TORSDOF 22
ENDMDL
MODEL 5
REMARK VINA RESULT:    -3.242      1.741      2.372
REMARK INTER + INTRA:         -10.566
REMARK INTER:                  -6.812
REMARK INTRA:                  -3.754
REMARK UNBOUND:                -3.154
REMARK SMILES CCCCCCCCCCCCCCCCCCCCCCCC(=O)[O-]
REMARK SMILES IDX 13 1 14 2 15 3 16 4 17 5 18 6 19 7 20 8 21 9 22 10 23 11
REMARK SMILES IDX 24 12 25 13 26 14 12 15 11 16 10 17 9 18 8 19 7 20 6 21 5 22
REMARK SMILES IDX 4 23 3 24 2 25 1 26
REMARK H PARENT
REMARK Flexibility Score: inf
ROOT
ATOM      1  C   UNL     1      11.330  20.950  20.615  1.00  0.00     0.000 C 
ENDROOT
BRANCH   1   2
ATOM      2  C   UNL     1       9.954  21.240  21.237  1.00  0.00     0.000 C 
BRANCH   2   3
ATOM      3  C   UNL     1       8.863  21.447  20.173  1.00  0.00     0.000 C 
BRANCH   3   4
ATOM      4  C   UNL     1       7.728  22.360  20.671  1.00  0.00     0.000 C 
BRANCH   4   5
ATOM      5  C   UNL     1       7.823  22.652  22.177  1.00  0.00     0.000 C 
BRANCH   5   6
ATOM      6  C   UNL     1       6.525  22.305  22.928  1.00  0.00     0.000 C 
BRANCH   6   7
ATOM      7  C   UNL     1       6.302  20.789  23.049  1.00  0.00     0.000 C 
BRANCH   7   8
ATOM      8  C   UNL     1       4.854  20.378  22.743  1.00  0.00     0.000 C 
BRANCH   8   9
ATOM      9  C   UNL     1       4.286  21.203  21.577  1.00  0.00     0.000 C 
BRANCH   9  10
ATOM     10  C   UNL     1       4.610  20.594  20.204  1.00  0.00     0.006 C 
BRANCH  10  11
ATOM     11  C   UNL     1       3.352  20.263  19.390  1.00  0.00     0.053 C 
BRANCH  11  12
ATOM     12  C   UNL     1       3.103  18.788  19.382  1.00  0.00     0.041 C 
ATOM     13  O   UNL     1       3.428  18.094  18.381  1.00  0.00    -0.550 OA
ATOM     14  O   UNL     1       2.490  18.181  20.472  1.00  0.00    -0.550 OA
ENDBRANCH  11  12
ENDBRANCH  10  11
ENDBRANCH   9  10
ENDBRANCH   8   9
ENDBRANCH   7   8
ENDBRANCH   6   7
ENDBRANCH   5   6
ENDBRANCH   4   5
ENDBRANCH   3   4
ENDBRANCH   2   3
ENDBRANCH   1   2
BRANCH   1  15
ATOM     15  C   UNL     1      12.119  22.230  20.291  1.00  0.00     0.000 C 
BRANCH  15  16
ATOM     16  C   UNL     1      12.618  22.337  18.833  1.00  0.00     0.000 C 
BRANCH  16  17
ATOM     17  C   UNL     1      11.518  22.276  17.758  1.00  0.00     0.000 C 
BRANCH  17  18
ATOM     18  C   UNL     1      11.772  21.189  16.704  1.00  0.00    -0.000 C 
BRANCH  18  19
ATOM     19  C   UNL     1      10.524  20.323  16.497  1.00  0.00    -0.000 C 
BRANCH  19  20
ATOM     20  C   UNL     1      10.383  19.280  17.612  1.00  0.00    -0.000 C 
BRANCH  20  21
ATOM     21  C   UNL     1       9.018  18.586  17.547  1.00  0.00    -0.000 C 
BRANCH  21  22
ATOM     22  C   UNL     1       8.392  18.727  16.151  1.00  0.00    -0.000 C 
BRANCH  22  23
ATOM     23  C   UNL     1       6.893  19.075  16.200  1.00  0.00    -0.000 C 
BRANCH  23  24
ATOM     24  C   UNL     1       6.516  20.208  17.176  1.00  0.00    -0.000 C 
BRANCH  24  25
ATOM     25  C   UNL     1       6.939  21.619  16.729  1.00  0.00    -0.003 C 
ATOM     26  C   UNL     1       6.119  22.725  17.394  1.00  0.00     0.004 C 
ENDBRANCH  24  25
ENDBRANCH  23  24
ENDBRANCH  22  23
ENDBRANCH  21  22
ENDBRANCH  20  21
ENDBRANCH  19  20
ENDBRANCH  18  19
ENDBRANCH  17  18
ENDBRANCH  16  17
ENDBRANCH  15  16
ENDBRANCH   1  15
TORSDOF 22
ENDMDL
MODEL 6
REMARK VINA RESULT:    -3.226      2.238      6.746
REMARK INTER + INTRA:         -10.529
REMARK INTER:                  -7.166
REMARK INTRA:                  -3.362
REMARK UNBOUND:                -3.154
REMARK SMILES CCCCCCCCCCCCCCCCCCCCCCCC(=O)[O-]
REMARK SMILES IDX 13 1 14 2 15 3 16 4 17 5 18 6 19 7 20 8 21 9 22 10 23 11
REMARK SMILES IDX 24 12 25 13 26 14 12 15 11 16 10 17 9 18 8 19 7 20 6 21 5 22
REMARK SMILES IDX 4 23 3 24 2 25 1 26
REMARK H PARENT
REMARK Flexibility Score: inf
ROOT
ATOM      1  C   UNL     1      11.545  21.192  19.987  1.00  0.00     0.000 C 
ENDROOT
BRANCH   1   2
ATOM      2  C   UNL     1      11.618  22.579  19.326  1.00  0.00     0.000 C 
BRANCH   2   3
ATOM      3  C   UNL     1      12.840  22.725  18.405  1.00  0.00     0.000 C 
BRANCH   3   4
ATOM      4  C   UNL     1      12.451  22.723  16.915  1.00  0.00     0.000 C 
BRANCH   4   5
ATOM      5  C   UNL     1      12.721  21.370  16.237  1.00  0.00     0.000 C 
BRANCH   5   6
ATOM      6  C   UNL     1      11.469  20.476  16.188  1.00  0.00     0.000 C 
BRANCH   6   7
ATOM      7  C   UNL     1      10.168  21.290  16.102  1.00  0.00     0.000 C 
BRANCH   7   8
ATOM      8  C   UNL     1       8.915  20.424  16.303  1.00  0.00     0.000 C 
BRANCH   8   9
ATOM      9  C   UNL     1       9.021  19.601  17.597  1.00  0.00     0.000 C 
BRANCH   9  10
ATOM     10  C   UNL     1       7.755  19.688  18.463  1.00  0.00     0.006 C 
BRANCH  10  11
ATOM     11  C   UNL     1       6.926  20.948  18.176  1.00  0.00     0.053 C 
BRANCH  11  12
ATOM     12  C   UNL     1       5.541  20.579  17.746  1.00  0.00     0.041 C 
ATOM     13  O   UNL     1       5.281  19.402  17.378  1.00  0.00    -0.550 OA
ATOM     14  O   UNL     1       4.539  21.544  17.729  1.00  0.00    -0.550 OA
ENDBRANCH  11  12
ENDBRANCH  10  11
ENDBRANCH   9  10
ENDBRANCH   8   9
ENDBRANCH   7   8
ENDBRANCH   6   7
ENDBRANCH   5   6
ENDBRANCH   4   5
ENDBRANCH   3   4
ENDBRANCH   2   3
ENDBRANCH   1   2
BRANCH   1  15
ATOM     15  C   UNL     1      10.275  21.001  20.834  1.00  0.00     0.000 C 
BRANCH  15  16
ATOM     16  C   UNL     1       9.290  22.190  20.809  1.00  0.00     0.000 C 
BRANCH  16  17
ATOM     17  C   UNL     1       8.423  22.350  22.071  1.00  0.00     0.000 C 
BRANCH  17  18
ATOM     18  C   UNL     1       7.388  21.227  22.232  1.00  0.00    -0.000 C 
BRANCH  18  19
ATOM     19  C   UNL     1       5.964  21.762  22.041  1.00  0.00    -0.000 C 
BRANCH  19  20
ATOM     20  C   UNL     1       5.036  20.677  21.482  1.00  0.00    -0.000 C 
BRANCH  20  21
ATOM     21  C   UNL     1       3.648  21.249  21.169  1.00  0.00    -0.000 C 
BRANCH  21  22
ATOM     22  C   UNL     1       2.571  20.599  22.051  1.00  0.00    -0.000 C 
BRANCH  22  23
ATOM     23  C   UNL     1       2.862  19.119  22.358  1.00  0.00    -0.000 C 
BRANCH  23  24
ATOM     24  C   UNL     1       3.063  18.788  23.851  1.00  0.00    -0.000 C 
BRANCH  24  25
ATOM     25  C   UNL     1       4.140  17.727  24.143  1.00  0.00    -0.003 C 
ATOM     26  C   UNL     1       5.484  18.337  24.541  1.00  0.00     0.004 C 
ENDBRANCH  24  25
ENDBRANCH  23  24
ENDBRANCH  22  23
ENDBRANCH  21  22
ENDBRANCH  20  21
ENDBRANCH  19  20
ENDBRANCH  18  19
ENDBRANCH  17  18
ENDBRANCH  16  17
ENDBRANCH  15  16
ENDBRANCH   1  15
TORSDOF 22
ENDMDL
MODEL 7
REMARK VINA RESULT:    -3.220     11.651     16.869
REMARK INTER + INTRA:         -10.515
REMARK INTER:                  -7.298
REMARK INTRA:                  -3.217
REMARK UNBOUND:                -3.154
REMARK SMILES CCCCCCCCCCCCCCCCCCCCCCCC(=O)[O-]
REMARK SMILES IDX 13 1 14 2 15 3 16 4 17 5 18 6 19 7 20 8 21 9 22 10 23 11
REMARK SMILES IDX 24 12 25 13 26 14 12 15 11 16 10 17 9 18 8 19 7 20 6 21 5 22
REMARK SMILES IDX 4 23 3 24 2 25 1 26
REMARK H PARENT
REMARK Flexibility Score: inf
ROOT
ATOM      1  C   UNL     1       2.311  10.436  33.732  1.00  0.00     0.000 C 
ENDROOT
BRANCH   1   2
ATOM      2  C   UNL     1       2.583  11.851  34.270  1.00  0.00     0.000 C 
BRANCH   2   3
ATOM      3  C   UNL     1       1.292  12.578  34.681  1.00  0.00     0.000 C 
BRANCH   3   4
ATOM      4  C   UNL     1       0.121  12.273  33.729  1.00  0.00     0.000 C 
BRANCH   4   5
ATOM      5  C   UNL     1       0.132  13.163  32.477  1.00  0.00     0.000 C 
BRANCH   5   6
ATOM      6  C   UNL     1       0.057  12.348  31.173  1.00  0.00     0.000 C 
BRANCH   6   7
ATOM      7  C   UNL     1       0.401  13.188  29.933  1.00  0.00     0.000 C 
BRANCH   7   8
ATOM      8  C   UNL     1       0.989  12.345  28.792  1.00  0.00     0.000 C 
BRANCH   8   9
ATOM      9  C   UNL     1       0.642  12.956  27.425  1.00  0.00     0.000 C 
BRANCH   9  10
ATOM     10  C   UNL     1       1.861  13.579  26.726  1.00  0.00     0.006 C 
BRANCH  10  11
ATOM     11  C   UNL     1       2.160  12.932  25.367  1.00  0.00     0.053 C 
BRANCH  11  12
ATOM     12  C   UNL     1       2.286  11.448  25.507  1.00  0.00     0.041 C 
ATOM     13  O   UNL     1       3.239  10.950  26.165  1.00  0.00    -0.550 OA
ATOM     14  O   UNL     1       1.362  10.611  24.891  1.00  0.00    -0.550 OA
ENDBRANCH  11  12
ENDBRANCH  10  11
ENDBRANCH   9  10
ENDBRANCH   8   9
ENDBRANCH   7   8
ENDBRANCH   6   7
ENDBRANCH   5   6
ENDBRANCH   4   5
ENDBRANCH   3   4
ENDBRANCH   2   3
ENDBRANCH   1   2
BRANCH   1  15
ATOM     15  C   UNL     1       2.508   9.345  34.800  1.00  0.00     0.000 C 
BRANCH  15  16
ATOM     16  C   UNL     1       2.211   7.907  34.324  1.00  0.00     0.000 C 
BRANCH  16  17
ATOM     17  C   UNL     1       3.281   7.284  33.409  1.00  0.00     0.000 C 
BRANCH  17  18
ATOM     18  C   UNL     1       2.768   7.006  31.989  1.00  0.00    -0.000 C 
BRANCH  18  19
ATOM     19  C   UNL     1       1.239   7.109  31.929  1.00  0.00    -0.000 C 
BRANCH  19  20
ATOM     20  C   UNL     1       0.790   7.971  30.743  1.00  0.00    -0.000 C 
BRANCH  20  21
ATOM     21  C   UNL     1       1.792   9.099  30.472  1.00  0.00    -0.000 C 
BRANCH  21  22
ATOM     22  C   UNL     1       2.243   9.097  29.003  1.00  0.00    -0.000 C 
BRANCH  22  23
ATOM     23  C   UNL     1       1.133   8.641  28.038  1.00  0.00    -0.000 C 
BRANCH  23  24
ATOM     24  C   UNL     1       1.537   7.518  27.061  1.00  0.00    -0.000 C 
BRANCH  24  25
ATOM     25  C   UNL     1       2.614   6.552  27.589  1.00  0.00    -0.003 C 
ATOM     26  C   UNL     1       2.030   5.391  28.394  1.00  0.00     0.004 C 
ENDBRANCH  24  25
ENDBRANCH  23  24
ENDBRANCH  22  23
ENDBRANCH  21  22
ENDBRANCH  20  21
ENDBRANCH  19  20
ENDBRANCH  18  19
ENDBRANCH  17  18
ENDBRANCH  16  17
ENDBRANCH  15  16
ENDBRANCH   1  15
TORSDOF 22
ENDMDL
MODEL 8
REMARK VINA RESULT:    -3.205     18.131     20.287
REMARK INTER + INTRA:         -10.481
REMARK INTER:                  -7.669
REMARK INTRA:                  -2.812
REMARK UNBOUND:                -3.154
REMARK SMILES CCCCCCCCCCCCCCCCCCCCCCCC(=O)[O-]
REMARK SMILES IDX 13 1 14 2 15 3 16 4 17 5 18 6 19 7 20 8 21 9 22 10 23 11
REMARK SMILES IDX 24 12 25 13 26 14 12 15 11 16 10 17 9 18 8 19 7 20 6 21 5 22
REMARK SMILES IDX 4 23 3 24 2 25 1 26
REMARK H PARENT
REMARK Flexibility Score: inf
ROOT
ATOM      1  C   UNL     1       6.341   4.751  29.650  1.00  0.00     0.000 C 
ENDROOT
BRANCH   1   2
ATOM      2  C   UNL     1       5.175   4.280  30.535  1.00  0.00     0.000 C 
BRANCH   2   3
ATOM      3  C   UNL     1       5.012   5.144  31.796  1.00  0.00     0.000 C 
BRANCH   3   4
ATOM      4  C   UNL     1       6.082   4.833  32.859  1.00  0.00     0.000 C 
BRANCH   4   5
ATOM      5  C   UNL     1       5.486   4.665  34.266  1.00  0.00     0.000 C 
BRANCH   5   6
ATOM      6  C   UNL     1       5.866   5.821  35.208  1.00  0.00     0.000 C 
BRANCH   6   7
ATOM      7  C   UNL     1       4.800   6.928  35.243  1.00  0.00     0.000 C 
BRANCH   7   8
ATOM      8  C   UNL     1       3.381   6.390  35.005  1.00  0.00     0.000 C 
BRANCH   8   9
ATOM      9  C   UNL     1       2.332   7.483  35.261  1.00  0.00     0.000 C 
BRANCH   9  10
ATOM     10  C   UNL     1       2.956   8.814  35.708  1.00  0.00     0.006 C 
BRANCH  10  11
ATOM     11  C   UNL     1       1.972   9.989  35.624  1.00  0.00     0.053 C 
BRANCH  11  12
ATOM     12  C   UNL     1       2.302  10.869  34.460  1.00  0.00     0.041 C 
ATOM     13  O   UNL     1       2.784  10.375  33.406  1.00  0.00    -0.550 OA
ATOM     14  O   UNL     1       2.099  12.242  34.549  1.00  0.00    -0.550 OA
ENDBRANCH  11  12
ENDBRANCH  10  11
ENDBRANCH   9  10
ENDBRANCH   8   9
ENDBRANCH   7   8
ENDBRANCH   6   7
ENDBRANCH   5   6
ENDBRANCH   4   5
ENDBRANCH   3   4
ENDBRANCH   2   3
ENDBRANCH   1   2
BRANCH   1  15
ATOM     15  C   UNL     1       7.446   3.689  29.506  1.00  0.00     0.000 C 
BRANCH  15  16
ATOM     16  C   UNL     1       8.880   4.202  29.758  1.00  0.00     0.000 C 
BRANCH  16  17
ATOM     17  C   UNL     1       9.371   4.091  31.213  1.00  0.00     0.000 C 
BRANCH  17  18
ATOM     18  C   UNL     1      10.863   4.414  31.368  1.00  0.00    -0.000 C 
BRANCH  18  19
ATOM     19  C   UNL     1      11.640   3.191  31.869  1.00  0.00    -0.000 C 
BRANCH  19  20
ATOM     20  C   UNL     1      12.427   3.520  33.143  1.00  0.00    -0.000 C 
BRANCH  20  21
ATOM     21  C   UNL     1      11.567   3.301  34.393  1.00  0.00    -0.000 C 
BRANCH  21  22
ATOM     22  C   UNL     1      11.984   4.251  35.525  1.00  0.00    -0.000 C 
BRANCH  22  23
ATOM     23  C   UNL     1      11.021   5.440  35.694  1.00  0.00    -0.000 C 
BRANCH  23  24
ATOM     24  C   UNL     1       9.632   5.253  35.051  1.00  0.00    -0.000 C 
BRANCH  24  25
ATOM     25  C   UNL     1       9.222   6.353  34.057  1.00  0.00    -0.003 C 
ATOM     26  C   UNL     1      10.379   7.278  33.680  1.00  0.00     0.004 C 
ENDBRANCH  24  25
ENDBRANCH  23  24
ENDBRANCH  22  23
ENDBRANCH  21  22
ENDBRANCH  20  21
ENDBRANCH  19  20
ENDBRANCH  18  19
ENDBRANCH  17  18
ENDBRANCH  16  17
ENDBRANCH  15  16
ENDBRANCH   1  15
TORSDOF 22
ENDMDL
MODEL 9
REMARK VINA RESULT:    -3.199      2.030      2.436
REMARK INTER + INTRA:         -10.467
REMARK INTER:                  -7.313
REMARK INTRA:                  -3.154
REMARK UNBOUND:                -3.154
REMARK SMILES CCCCCCCCCCCCCCCCCCCCCCCC(=O)[O-]
REMARK SMILES IDX 13 1 14 2 15 3 16 4 17 5 18 6 19 7 20 8 21 9 22 10 23 11
REMARK SMILES IDX 24 12 25 13 26 14 12 15 11 16 10 17 9 18 8 19 7 20 6 21 5 22
REMARK SMILES IDX 4 23 3 24 2 25 1 26
REMARK H PARENT
REMARK Flexibility Score: inf
ROOT
ATOM      1  C   UNL     1      11.829  22.649  19.884  1.00  0.00     0.000 C 
ENDROOT
BRANCH   1   2
ATOM      2  C   UNL     1      11.551  21.206  20.335  1.00  0.00     0.000 C 
BRANCH   2   3
ATOM      3  C   UNL     1      10.182  21.059  21.017  1.00  0.00     0.000 C 
BRANCH   3   4
ATOM      4  C   UNL     1       9.066  21.795  20.252  1.00  0.00     0.000 C 
BRANCH   4   5
ATOM      5  C   UNL     1       8.044  22.456  21.190  1.00  0.00     0.000 C 
BRANCH   5   6
ATOM      6  C   UNL     1       7.674  21.558  22.385  1.00  0.00     0.000 C 
BRANCH   6   7
ATOM      7  C   UNL     1       6.168  21.576  22.691  1.00  0.00     0.000 C 
BRANCH   7   8
ATOM      8  C   UNL     1       5.326  20.994  21.546  1.00  0.00     0.000 C 
BRANCH   8   9
ATOM      9  C   UNL     1       4.083  20.274  22.092  1.00  0.00     0.000 C 
BRANCH   9  10
ATOM     10  C   UNL     1       4.286  19.737  23.518  1.00  0.00     0.006 C 
BRANCH  10  11
ATOM     11  C   UNL     1       3.110  20.067  24.449  1.00  0.00     0.053 C 
BRANCH  11  12
ATOM     12  C   UNL     1       3.061  21.534  24.735  1.00  0.00     0.041 C 
ATOM     13  O   UNL     1       2.145  22.248  24.246  1.00  0.00    -0.550 OA
ATOM     14  O   UNL     1       4.044  22.120  25.525  1.00  0.00    -0.550 OA
ENDBRANCH  11  12
ENDBRANCH  10  11
ENDBRANCH   9  10
ENDBRANCH   8   9
ENDBRANCH   7   8
ENDBRANCH   6   7
ENDBRANCH   5   6
ENDBRANCH   4   5
ENDBRANCH   3   4
ENDBRANCH   2   3
ENDBRANCH   1   2
BRANCH   1  15
ATOM     15  C   UNL     1      13.013  22.751  18.906  1.00  0.00     0.000 C 
BRANCH  15  16
ATOM     16  C   UNL     1      12.622  22.988  17.431  1.00  0.00     0.000 C 
BRANCH  16  17
ATOM     17  C   UNL     1      12.186  21.730  16.658  1.00  0.00     0.000 C 
BRANCH  17  18
ATOM     18  C   UNL     1      10.669  21.662  16.432  1.00  0.00    -0.000 C 
BRANCH  18  19
ATOM     19  C   UNL     1      10.208  20.213  16.236  1.00  0.00    -0.000 C 
BRANCH  19  20
ATOM     20  C   UNL     1      10.271  19.430  17.553  1.00  0.00    -0.000 C 
BRANCH  20  21
ATOM     21  C   UNL     1       8.923  18.768  17.863  1.00  0.00    -0.000 C 
BRANCH  21  22
ATOM     22  C   UNL     1       7.754  19.652  17.404  1.00  0.00    -0.000 C 
BRANCH  22  23
ATOM     23  C   UNL     1       6.643  19.772  18.463  1.00  0.00    -0.000 C 
BRANCH  23  24
ATOM     24  C   UNL     1       5.229  20.028  17.901  1.00  0.00    -0.000 C 
BRANCH  24  25
ATOM     25  C   UNL     1       4.127  19.119  18.474  1.00  0.00    -0.003 C 
ATOM     26  C   UNL     1       2.777  19.824  18.597  1.00  0.00     0.004 C 
ENDBRANCH  24  25
ENDBRANCH  23  24
ENDBRANCH  22  23
ENDBRANCH  21  22
ENDBRANCH  20  21
ENDBRANCH  19  20
ENDBRANCH  18  19
ENDBRANCH  17  18
ENDBRANCH  16  17
ENDBRANCH  15  16
ENDBRANCH   1  15
TORSDOF 22
ENDMDL
