MODEL 1
REMARK VINA RESULT:    -2.449      0.000      0.000
REMARK INTER + INTRA:          -2.449
REMARK INTER:                  -2.449
REMARK INTRA:                   0.000
REMARK UNBOUND:                 0.000
REMARK SMILES CC(=O)[O-]
REMARK SMILES IDX 1 1 2 2 3 3 4 4
REMARK H PARENT
REMARK Flexibility Score: inf
ROOT
ATOM      1  C   UNL     1      26.676  38.672  -0.232  1.00  0.00     0.063 C 
ATOM      2  C   UNL     1      26.572  37.193  -0.077  1.00  0.00     0.038 C 
ATOM      3  O   UNL     1      26.077  36.700   0.971  1.00  0.00    -0.550 OA
ATOM      4  O   UNL     1      26.971  36.356  -1.110  1.00  0.00    -0.550 OA
ENDROOT
TORSDOF 0
ENDMDL
MODEL 2
REMARK VINA RESULT:    -2.431      0.108      1.623
REMARK INTER + INTRA:          -2.431
REMARK INTER:                  -2.431
REMARK INTRA:                   0.000
REMARK UNBOUND:                 0.000
REMARK SMILES CC(=O)[O-]
REMARK SMILES IDX 1 1 2 2 3 3 4 4
REMARK H PARENT
REMARK Flexibility Score: inf
ROOT
ATOM      1  C   UNL     1      26.804  38.692  -0.312  1.00  0.00     0.063 C 
ATOM      2  C   UNL     1      26.622  37.220  -0.164  1.00  0.00     0.038 C 
ATOM      3  O   UNL     1      27.020  36.440  -1.068  1.00  0.00    -0.550 OA
ATOM      4  O   UNL     1      26.061  36.702   0.996  1.00  0.00    -0.550 OA
ENDROOT
TORSDOF 0
ENDMDL
MODEL 3
REMARK VINA RESULT:    -2.303      1.910      2.305
REMARK INTER + INTRA:          -2.303
REMARK INTER:                  -2.303
REMARK INTRA:                   0.000
REMARK UNBOUND:                 0.000
REMARK SMILES CC(=O)[O-]
REMARK SMILES IDX 1 1 2 2 3 3 4 4
REMARK H PARENT
REMARK Flexibility Score: inf
ROOT
ATOM      1  C   UNL     1      27.788  35.415  -1.895  1.00  0.00     0.063 C 
ATOM      2  C   UNL     1      27.520  36.465  -0.871  1.00  0.00     0.038 C 
ATOM      3  O   UNL     1      27.009  36.153   0.236  1.00  0.00    -0.550 OA
ATOM      4  O   UNL     1      27.884  37.783  -1.116  1.00  0.00    -0.550 OA
ENDROOT
TORSDOF 0
ENDMDL
MODEL 4
REMARK VINA RESULT:    -2.210      1.758      1.842
REMARK INTER + INTRA:          -2.210
REMARK INTER:                  -2.210
REMARK INTRA:                   0.000
REMARK UNBOUND:                 0.000
REMARK SMILES CC(=O)[O-]
REMARK SMILES IDX 1 1 2 2 3 3 4 4
REMARK H PARENT
REMARK Flexibility Score: inf
ROOT
ATOM      1  C   UNL     1      26.498  36.879   0.717  1.00  0.00     0.063 C 
ATOM      2  C   UNL     1      27.166  36.942  -0.615  1.00  0.00     0.038 C 
ATOM      3  O   UNL     1      27.705  38.012  -1.002  1.00  0.00    -0.550 OA
ATOM      4  O   UNL     1      27.241  35.806  -1.409  1.00  0.00    -0.550 OA
ENDROOT
TORSDOF 0
ENDMDL
MODEL 5
REMARK VINA RESULT:    -2.074     11.524     11.911
REMARK INTER + INTRA:          -2.074
REMARK INTER:                  -2.074
REMARK INTRA:                   0.000
REMARK UNBOUND:                 0.000
REMARK SMILES CC(=O)[O-]
REMARK SMILES IDX 1 1 2 2 3 3 4 4
REMARK H PARENT
REMARK Flexibility Score: inf
ROOT
ATOM      1  C   UNL     1      24.721  31.171   9.341  1.00  0.00     0.063 C 
ATOM      2  C   UNL     1      24.902  32.191  10.413  1.00  0.00     0.038 C 
ATOM      3  O   UNL     1      25.736  31.998  11.335  1.00  0.00    -0.550 OA
ATOM      4  O   UNL     1      24.190  33.383  10.365  1.00  0.00    -0.550 OA
ENDROOT
TORSDOF 0
ENDMDL
MODEL 6
REMARK VINA RESULT:    -2.070     12.059     12.515
REMARK INTER + INTRA:          -2.070
REMARK INTER:                  -2.070
REMARK INTRA:                   0.000
REMARK UNBOUND:                 0.000
REMARK SMILES CC(=O)[O-]
REMARK SMILES IDX 1 1 2 2 3 3 4 4
REMARK H PARENT
REMARK Flexibility Score: inf
ROOT
ATOM      1  C   UNL     1      26.629  48.990  -1.882  1.00  0.00     0.063 C 
ATOM      2  C   UNL     1      26.703  49.580  -0.514  1.00  0.00     0.038 C 
ATOM      3  O   UNL     1      27.488  49.095   0.342  1.00  0.00    -0.550 OA
ATOM      4  O   UNL     1      25.946  50.701  -0.199  1.00  0.00    -0.550 OA
ENDROOT
TORSDOF 0
ENDMDL
MODEL 7
REMARK VINA RESULT:    -2.070     11.504     11.949
REMARK INTER + INTRA:          -2.070
REMARK INTER:                  -2.070
REMARK INTRA:                   0.000
REMARK UNBOUND:                 0.000
REMARK SMILES CC(=O)[O-]
REMARK SMILES IDX 1 1 2 2 3 3 4 4
REMARK H PARENT
REMARK Flexibility Score: inf
ROOT
ATOM      1  C   UNL     1      24.722  31.202   9.341  1.00  0.00     0.063 C 
ATOM      2  C   UNL     1      24.884  32.233  10.406  1.00  0.00     0.038 C 
ATOM      3  O   UNL     1      24.254  33.319  10.336  1.00  0.00    -0.550 OA
ATOM      4  O   UNL     1      25.692  31.974  11.507  1.00  0.00    -0.550 OA
ENDROOT
TORSDOF 0
ENDMDL
MODEL 8
REMARK VINA RESULT:    -1.996     18.159     18.612
REMARK INTER + INTRA:          -1.996
REMARK INTER:                  -1.996
REMARK INTRA:                   0.000
REMARK UNBOUND:                 0.000
REMARK SMILES CC(=O)[O-]
REMARK SMILES IDX 1 1 2 2 3 3 4 4
REMARK H PARENT
REMARK Flexibility Score: inf
ROOT
ATOM      1  C   UNL     1       8.433  32.021   5.342  1.00  0.00     0.063 C 
ATOM      2  C   UNL     1       9.339  32.007   4.158  1.00  0.00     0.038 C 
ATOM      3  O   UNL     1       9.004  31.391   3.113  1.00  0.00    -0.550 OA
ATOM      4  O   UNL     1      10.531  32.720   4.186  1.00  0.00    -0.550 OA
ENDROOT
TORSDOF 0
ENDMDL
MODEL 9
REMARK VINA RESULT:    -1.961     11.632     11.863
REMARK INTER + INTRA:          -1.961
REMARK INTER:                  -1.961
REMARK INTRA:                   0.000
REMARK UNBOUND:                 0.000
REMARK SMILES CC(=O)[O-]
REMARK SMILES IDX 1 1 2 2 3 3 4 4
REMARK H PARENT
REMARK Flexibility Score: inf
ROOT
ATOM      1  C   UNL     1      25.893  33.448  11.716  1.00  0.00     0.063 C 
ATOM      2  C   UNL     1      24.754  33.148  10.801  1.00  0.00     0.038 C 
ATOM      3  O   UNL     1      23.737  33.890  10.793  1.00  0.00    -0.550 OA
ATOM      4  O   UNL     1      24.836  32.081   9.916  1.00  0.00    -0.550 OA
ENDROOT
TORSDOF 0
ENDMDL
