MODEL 1
REMARK VINA RESULT:    -2.641      0.000      0.000
REMARK INTER + INTRA:          -2.641
REMARK INTER:                  -2.641
REMARK INTRA:                   0.000
REMARK UNBOUND:                 0.000
REMARK SMILES CC(=O)[O-]
REMARK SMILES IDX 1 1 2 2 3 3 4 4
REMARK H PARENT
REMARK Flexibility Score: inf
ROOT
ATOM      1  C   UNL     1      25.002  -2.666 -20.106  1.00  0.00     0.063 C 
ATOM      2  C   UNL     1      24.961  -3.616 -18.957  1.00  0.00     0.038 C 
ATOM      3  O   UNL     1      24.539  -4.790 -19.122  1.00  0.00    -0.550 OA
ATOM      4  O   UNL     1      25.340  -3.192 -17.690  1.00  0.00    -0.550 OA
ENDROOT
TORSDOF 0
ENDMDL
MODEL 2
REMARK VINA RESULT:    -2.631      0.126      1.621
REMARK INTER + INTRA:          -2.631
REMARK INTER:                  -2.631
REMARK INTRA:                   0.000
REMARK UNBOUND:                 0.000
REMARK SMILES CC(=O)[O-]
REMARK SMILES IDX 1 1 2 2 3 3 4 4
REMARK H PARENT
REMARK Flexibility Score: inf
ROOT
ATOM      1  C   UNL     1      25.010  -2.577 -20.118  1.00  0.00     0.063 C 
ATOM      2  C   UNL     1      24.987  -3.484 -18.934  1.00  0.00     0.038 C 
ATOM      3  O   UNL     1      25.364  -3.064 -17.809  1.00  0.00    -0.550 OA
ATOM      4  O   UNL     1      24.598  -4.810 -19.080  1.00  0.00    -0.550 OA
ENDROOT
TORSDOF 0
ENDMDL
MODEL 3
REMARK VINA RESULT:    -2.617      1.926      2.199
REMARK INTER + INTRA:          -2.617
REMARK INTER:                  -2.617
REMARK INTRA:                   0.000
REMARK UNBOUND:                 0.000
REMARK SMILES CC(=O)[O-]
REMARK SMILES IDX 1 1 2 2 3 3 4 4
REMARK H PARENT
REMARK Flexibility Score: inf
ROOT
ATOM      1  C   UNL     1      25.031  -3.964 -18.329  1.00  0.00     0.063 C 
ATOM      2  C   UNL     1      25.078  -3.077 -19.527  1.00  0.00     0.038 C 
ATOM      3  O   UNL     1      24.049  -2.447 -19.886  1.00  0.00    -0.550 OA
ATOM      4  O   UNL     1      26.241  -2.984 -20.280  1.00  0.00    -0.550 OA
ENDROOT
TORSDOF 0
ENDMDL
MODEL 4
REMARK VINA RESULT:    -2.366     13.907     14.178
REMARK INTER + INTRA:          -2.366
REMARK INTER:                  -2.366
REMARK INTRA:                   0.000
REMARK UNBOUND:                 0.000
REMARK SMILES CC(=O)[O-]
REMARK SMILES IDX 1 1 2 2 3 3 4 4
REMARK H PARENT
REMARK Flexibility Score: inf
ROOT
ATOM      1  C   UNL     1      18.328   4.721 -10.924  1.00  0.00     0.063 C 
ATOM      2  C   UNL     1      18.713   6.161 -10.893  1.00  0.00     0.038 C 
ATOM      3  O   UNL     1      18.402   6.919 -11.848  1.00  0.00    -0.550 OA
ATOM      4  O   UNL     1      19.462   6.660  -9.834  1.00  0.00    -0.550 OA
ENDROOT
TORSDOF 0
ENDMDL
MODEL 5
REMARK VINA RESULT:    -2.240     13.539     13.890
REMARK INTER + INTRA:          -2.240
REMARK INTER:                  -2.240
REMARK INTRA:                   0.000
REMARK UNBOUND:                 0.000
REMARK SMILES CC(=O)[O-]
REMARK SMILES IDX 1 1 2 2 3 3 4 4
REMARK H PARENT
REMARK Flexibility Score: inf
ROOT
ATOM      1  C   UNL     1      20.094   6.046  -9.978  1.00  0.00     0.063 C 
ATOM      2  C   UNL     1      18.891   5.730 -10.801  1.00  0.00     0.038 C 
ATOM      3  O   UNL     1      18.437   4.556 -10.830  1.00  0.00    -0.550 OA
ATOM      4  O   UNL     1      18.300   6.717 -11.578  1.00  0.00    -0.550 OA
ENDROOT
TORSDOF 0
ENDMDL
MODEL 6
REMARK VINA RESULT:    -2.186     11.947     12.331
REMARK INTER + INTRA:          -2.186
REMARK INTER:                  -2.186
REMARK INTRA:                   0.000
REMARK UNBOUND:                 0.000
REMARK SMILES CC(=O)[O-]
REMARK SMILES IDX 1 1 2 2 3 3 4 4
REMARK H PARENT
REMARK Flexibility Score: inf
ROOT
ATOM      1  C   UNL     1      28.432 -12.922 -26.480  1.00  0.00     0.063 C 
ATOM      2  C   UNL     1      29.747 -12.325 -26.108  1.00  0.00     0.038 C 
ATOM      3  O   UNL     1      30.817 -12.868 -26.488  1.00  0.00    -0.550 OA
ATOM      4  O   UNL     1      29.796 -11.199 -25.296  1.00  0.00    -0.550 OA
ENDROOT
TORSDOF 0
ENDMDL
MODEL 7
REMARK VINA RESULT:    -2.152     12.034     12.487
REMARK INTER + INTRA:          -2.152
REMARK INTER:                  -2.152
REMARK INTRA:                   0.000
REMARK UNBOUND:                 0.000
REMARK SMILES CC(=O)[O-]
REMARK SMILES IDX 1 1 2 2 3 3 4 4
REMARK H PARENT
REMARK Flexibility Score: inf
ROOT
ATOM      1  C   UNL     1      29.826 -11.266 -25.248  1.00  0.00     0.063 C 
ATOM      2  C   UNL     1      29.816 -12.431 -26.178  1.00  0.00     0.038 C 
ATOM      3  O   UNL     1      28.723 -12.893 -26.600  1.00  0.00    -0.550 OA
ATOM      4  O   UNL     1      31.008 -13.044 -26.541  1.00  0.00    -0.550 OA
ENDROOT
TORSDOF 0
ENDMDL
MODEL 8
REMARK VINA RESULT:    -2.080      1.854      2.368
REMARK INTER + INTRA:          -2.080
REMARK INTER:                  -2.080
REMARK INTRA:                   0.000
REMARK UNBOUND:                 0.000
REMARK SMILES CC(=O)[O-]
REMARK SMILES IDX 1 1 2 2 3 3 4 4
REMARK H PARENT
REMARK Flexibility Score: inf
ROOT
ATOM      1  C   UNL     1      24.417  -1.801 -16.975  1.00  0.00     0.063 C 
ATOM      2  C   UNL     1      24.945  -2.643 -18.087  1.00  0.00     0.038 C 
ATOM      3  O   UNL     1      26.011  -3.295 -17.934  1.00  0.00    -0.550 OA
ATOM      4  O   UNL     1      24.292  -2.669 -19.312  1.00  0.00    -0.550 OA
ENDROOT
TORSDOF 0
ENDMDL
MODEL 9
REMARK VINA RESULT:    -2.009     12.938     13.344
REMARK INTER + INTRA:          -2.009
REMARK INTER:                  -2.009
REMARK INTRA:                   0.000
REMARK UNBOUND:                 0.000
REMARK SMILES CC(=O)[O-]
REMARK SMILES IDX 1 1 2 2 3 3 4 4
REMARK H PARENT
REMARK Flexibility Score: inf
ROOT
ATOM      1  C   UNL     1      21.742   6.048 -11.591  1.00  0.00     0.063 C 
ATOM      2  C   UNL     1      20.412   5.995 -10.917  1.00  0.00     0.038 C 
ATOM      3  O   UNL     1      19.383   5.691 -11.575  1.00  0.00    -0.550 OA
ATOM      4  O   UNL     1      20.297   6.333  -9.575  1.00  0.00    -0.550 OA
ENDROOT
TORSDOF 0
ENDMDL
