MODEL 1
REMARK VINA RESULT:    -2.709      0.000      0.000
REMARK INTER + INTRA:          -2.709
REMARK INTER:                  -2.709
REMARK INTRA:                   0.000
REMARK UNBOUND:                 0.000
REMARK SMILES CC(=O)[O-]
REMARK SMILES IDX 1 1 2 2 3 3 4 4
REMARK H PARENT
REMARK Flexibility Score: inf
ROOT
ATOM      1  C   UNL     1       6.968  16.193  46.896  1.00  0.00     0.063 C 
ATOM      2  C   UNL     1       7.189  15.826  45.468  1.00  0.00     0.038 C 
ATOM      3  O   UNL     1       8.349  15.562  45.057  1.00  0.00    -0.550 OA
ATOM      4  O   UNL     1       6.110  15.721  44.600  1.00  0.00    -0.550 OA
ENDROOT
TORSDOF 0
ENDMDL
MODEL 2
REMARK VINA RESULT:    -2.630      1.432      1.778
REMARK INTER + INTRA:          -2.630
REMARK INTER:                  -2.630
REMARK INTRA:                   0.000
REMARK UNBOUND:                 0.000
REMARK SMILES CC(=O)[O-]
REMARK SMILES IDX 1 1 2 2 3 3 4 4
REMARK H PARENT
REMARK Flexibility Score: inf
ROOT
ATOM      1  C   UNL     1       5.592  15.351  44.658  1.00  0.00     0.063 C 
ATOM      2  C   UNL     1       6.934  15.675  45.221  1.00  0.00     0.038 C 
ATOM      3  O   UNL     1       7.975  15.260  44.650  1.00  0.00    -0.550 OA
ATOM      4  O   UNL     1       7.040  16.480  46.348  1.00  0.00    -0.550 OA
ENDROOT
TORSDOF 0
ENDMDL
MODEL 3
REMARK VINA RESULT:    -2.594     16.687     17.080
REMARK INTER + INTRA:          -2.594
REMARK INTER:                  -2.594
REMARK INTRA:                   0.000
REMARK UNBOUND:                 0.000
REMARK SMILES CC(=O)[O-]
REMARK SMILES IDX 1 1 2 2 3 3 4 4
REMARK H PARENT
REMARK Flexibility Score: inf
ROOT
ATOM      1  C   UNL     1      23.074  15.309  54.697  1.00  0.00     0.063 C 
ATOM      2  C   UNL     1      21.866  14.931  53.908  1.00  0.00     0.038 C 
ATOM      3  O   UNL     1      20.733  14.923  54.455  1.00  0.00    -0.550 OA
ATOM      4  O   UNL     1      21.981  14.638  52.555  1.00  0.00    -0.550 OA
ENDROOT
TORSDOF 0
ENDMDL
MODEL 4
REMARK VINA RESULT:    -2.590      1.368      2.001
REMARK INTER + INTRA:          -2.590
REMARK INTER:                  -2.590
REMARK INTRA:                   0.000
REMARK UNBOUND:                 0.000
REMARK SMILES CC(=O)[O-]
REMARK SMILES IDX 1 1 2 2 3 3 4 4
REMARK H PARENT
REMARK Flexibility Score: inf
ROOT
ATOM      1  C   UNL     1       8.344  15.762  45.273  1.00  0.00     0.063 C 
ATOM      2  C   UNL     1       6.901  15.992  45.570  1.00  0.00     0.038 C 
ATOM      3  O   UNL     1       6.030  15.752  44.693  1.00  0.00    -0.550 OA
ATOM      4  O   UNL     1       6.509  16.420  46.832  1.00  0.00    -0.550 OA
ENDROOT
TORSDOF 0
ENDMDL
MODEL 5
REMARK VINA RESULT:    -2.557     16.622     17.051
REMARK INTER + INTRA:          -2.557
REMARK INTER:                  -2.557
REMARK INTRA:                   0.000
REMARK UNBOUND:                 0.000
REMARK SMILES CC(=O)[O-]
REMARK SMILES IDX 1 1 2 2 3 3 4 4
REMARK H PARENT
REMARK Flexibility Score: inf
ROOT
ATOM      1  C   UNL     1      23.054  15.382  54.745  1.00  0.00     0.063 C 
ATOM      2  C   UNL     1      21.892  15.023  53.882  1.00  0.00     0.038 C 
ATOM      3  O   UNL     1      22.077  14.664  52.691  1.00  0.00    -0.550 OA
ATOM      4  O   UNL     1      20.606  15.033  54.407  1.00  0.00    -0.550 OA
ENDROOT
TORSDOF 0
ENDMDL
MODEL 6
REMARK VINA RESULT:    -2.469     12.275     12.925
REMARK INTER + INTRA:          -2.469
REMARK INTER:                  -2.469
REMARK INTRA:                   0.000
REMARK UNBOUND:                 0.000
REMARK SMILES CC(=O)[O-]
REMARK SMILES IDX 1 1 2 2 3 3 4 4
REMARK H PARENT
REMARK Flexibility Score: inf
ROOT
ATOM      1  C   UNL     1      18.492  15.712  53.968  1.00  0.00     0.063 C 
ATOM      2  C   UNL     1      17.049  15.569  53.621  1.00  0.00     0.038 C 
ATOM      3  O   UNL     1      16.179  15.564  54.530  1.00  0.00    -0.550 OA
ATOM      4  O   UNL     1      16.656  15.497  52.290  1.00  0.00    -0.550 OA
ENDROOT
TORSDOF 0
ENDMDL
MODEL 7
REMARK VINA RESULT:    -2.456     12.634     13.357
REMARK INTER + INTRA:          -2.456
REMARK INTER:                  -2.456
REMARK INTRA:                   0.000
REMARK UNBOUND:                 0.000
REMARK SMILES CC(=O)[O-]
REMARK SMILES IDX 1 1 2 2 3 3 4 4
REMARK H PARENT
REMARK Flexibility Score: inf
ROOT
ATOM      1  C   UNL     1      16.483  15.465  54.224  1.00  0.00     0.063 C 
ATOM      2  C   UNL     1      17.732  15.733  53.454  1.00  0.00     0.038 C 
ATOM      3  O   UNL     1      17.668  16.031  52.233  1.00  0.00    -0.550 OA
ATOM      4  O   UNL     1      18.964  15.708  54.094  1.00  0.00    -0.550 OA
ENDROOT
TORSDOF 0
ENDMDL
MODEL 8
REMARK VINA RESULT:    -2.430     11.686     12.106
REMARK INTER + INTRA:          -2.430
REMARK INTER:                  -2.430
REMARK INTRA:                   0.000
REMARK UNBOUND:                 0.000
REMARK SMILES CC(=O)[O-]
REMARK SMILES IDX 1 1 2 2 3 3 4 4
REMARK H PARENT
REMARK Flexibility Score: inf
ROOT
ATOM      1  C   UNL     1      14.969  13.943  53.979  1.00  0.00     0.063 C 
ATOM      2  C   UNL     1      16.004  14.943  53.592  1.00  0.00     0.038 C 
ATOM      3  O   UNL     1      16.403  15.794  54.428  1.00  0.00    -0.550 OA
ATOM      4  O   UNL     1      16.569  14.905  52.324  1.00  0.00    -0.550 OA
ENDROOT
TORSDOF 0
ENDMDL
MODEL 9
REMARK VINA RESULT:    -2.385     12.724     13.318
REMARK INTER + INTRA:          -2.385
REMARK INTER:                  -2.385
REMARK INTRA:                   0.000
REMARK UNBOUND:                 0.000
REMARK SMILES CC(=O)[O-]
REMARK SMILES IDX 1 1 2 2 3 3 4 4
REMARK H PARENT
REMARK Flexibility Score: inf
ROOT
ATOM      1  C   UNL     1      17.516  16.047  52.137  1.00  0.00     0.063 C 
ATOM      2  C   UNL     1      17.642  15.816  53.605  1.00  0.00     0.038 C 
ATOM      3  O   UNL     1      18.780  15.753  54.138  1.00  0.00    -0.550 OA
ATOM      4  O   UNL     1      16.504  15.723  54.395  1.00  0.00    -0.550 OA
ENDROOT
TORSDOF 0
ENDMDL
