MODEL 1
REMARK VINA RESULT:    -3.066      0.000      0.000
REMARK INTER + INTRA:          -3.912
REMARK INTER:                  -3.783
REMARK INTRA:                  -0.128
REMARK UNBOUND:                -0.128
REMARK SMILES CCCCCC(=O)[O-]
REMARK SMILES IDX 4 1 5 2 6 3 7 4 8 5 3 6 2 7 1 8
REMARK H PARENT
REMARK Flexibility Score: inf
ROOT
ATOM      1  C   UNL     1      56.701  28.577  50.450  1.00  0.00     0.006 C 
ENDROOT
BRANCH   1   2
ATOM      2  C   UNL     1      57.905  27.633  50.330  1.00  0.00     0.053 C 
BRANCH   2   3
ATOM      3  C   UNL     1      58.936  28.162  49.381  1.00  0.00     0.041 C 
ATOM      4  O   UNL     1      58.813  29.315  48.891  1.00  0.00    -0.550 OA
ATOM      5  O   UNL     1      60.048  27.392  49.062  1.00  0.00    -0.550 OA
ENDBRANCH   2   3
ENDBRANCH   1   2
BRANCH   1   6
ATOM      6  C   UNL     1      55.363  27.826  50.350  1.00  0.00     0.000 C 
BRANCH   6   7
ATOM      7  C   UNL     1      55.542  26.356  49.940  1.00  0.00    -0.003 C 
ATOM      8  C   UNL     1      54.328  25.795  49.199  1.00  0.00     0.004 C 
ENDBRANCH   6   7
ENDBRANCH   1   6
TORSDOF 4
ENDMDL
MODEL 2
REMARK VINA RESULT:    -3.055     13.326     14.388
REMARK INTER + INTRA:          -3.897
REMARK INTER:                  -3.801
REMARK INTRA:                  -0.096
REMARK UNBOUND:                -0.128
REMARK SMILES CCCCCC(=O)[O-]
REMARK SMILES IDX 4 1 5 2 6 3 7 4 8 5 3 6 2 7 1 8
REMARK H PARENT
REMARK Flexibility Score: inf
ROOT
ATOM      1  C   UNL     1      61.791  34.171  60.473  1.00  0.00     0.006 C 
ENDROOT
BRANCH   1   2
ATOM      2  C   UNL     1      62.313  32.782  60.865  1.00  0.00     0.053 C 
BRANCH   2   3
ATOM      3  C   UNL     1      61.212  31.768  60.924  1.00  0.00     0.041 C 
ATOM      4  O   UNL     1      60.909  31.227  62.020  1.00  0.00    -0.550 OA
ATOM      5  O   UNL     1      60.502  31.443  59.775  1.00  0.00    -0.550 OA
ENDBRANCH   2   3
ENDBRANCH   1   2
BRANCH   1   6
ATOM      6  C   UNL     1      62.687  35.300  61.010  1.00  0.00     0.000 C 
BRANCH   6   7
ATOM      7  C   UNL     1      64.093  34.807  61.385  1.00  0.00    -0.003 C 
ATOM      8  C   UNL     1      64.943  35.891  62.048  1.00  0.00     0.004 C 
ENDBRANCH   6   7
ENDBRANCH   1   6
TORSDOF 4
ENDMDL
MODEL 3
REMARK VINA RESULT:    -2.974      1.447      2.129
REMARK INTER + INTRA:          -3.797
REMARK INTER:                  -3.716
REMARK INTRA:                  -0.081
REMARK UNBOUND:                -0.128
REMARK SMILES CCCCCC(=O)[O-]
REMARK SMILES IDX 4 1 5 2 6 3 7 4 8 5 3 6 2 7 1 8
REMARK H PARENT
REMARK Flexibility Score: inf
ROOT
ATOM      1  C   UNL     1      56.025  26.488  50.065  1.00  0.00     0.006 C 
ENDROOT
BRANCH   1   2
ATOM      2  C   UNL     1      57.395  27.155  50.248  1.00  0.00     0.053 C 
BRANCH   2   3
ATOM      3  C   UNL     1      58.519  26.222  49.914  1.00  0.00     0.041 C 
ATOM      4  O   UNL     1      58.472  25.018  50.281  1.00  0.00    -0.550 OA
ATOM      5  O   UNL     1      59.603  26.674  49.172  1.00  0.00    -0.550 OA
ENDBRANCH   2   3
ENDBRANCH   1   2
BRANCH   1   6
ATOM      6  C   UNL     1      54.868  27.491  50.212  1.00  0.00     0.000 C 
BRANCH   6   7
ATOM      7  C   UNL     1      53.595  27.031  49.485  1.00  0.00    -0.003 C 
ATOM      8  C   UNL     1      53.665  25.572  49.034  1.00  0.00     0.004 C 
ENDBRANCH   6   7
ENDBRANCH   1   6
TORSDOF 4
ENDMDL
MODEL 4
REMARK VINA RESULT:    -2.946     13.437     14.158
REMARK INTER + INTRA:          -3.764
REMARK INTER:                  -3.694
REMARK INTRA:                  -0.070
REMARK UNBOUND:                -0.128
REMARK SMILES CCCCCC(=O)[O-]
REMARK SMILES IDX 4 1 5 2 6 3 7 4 8 5 3 6 2 7 1 8
REMARK H PARENT
REMARK Flexibility Score: inf
ROOT
ATOM      1  C   UNL     1      62.442  32.796  60.860  1.00  0.00     0.006 C 
ENDROOT
BRANCH   1   2
ATOM      2  C   UNL     1      62.288  34.290  60.549  1.00  0.00     0.053 C 
BRANCH   2   3
ATOM      3  C   UNL     1      63.283  35.122  61.298  1.00  0.00     0.041 C 
ATOM      4  O   UNL     1      64.408  34.643  61.601  1.00  0.00    -0.550 OA
ATOM      5  O   UNL     1      62.981  36.436  61.634  1.00  0.00    -0.550 OA
ENDBRANCH   2   3
ENDBRANCH   1   2
BRANCH   1   6
ATOM      6  C   UNL     1      61.093  32.057  60.843  1.00  0.00     0.000 C 
BRANCH   6   7
ATOM      7  C   UNL     1      61.035  30.913  61.866  1.00  0.00    -0.003 C 
ATOM      8  C   UNL     1      62.317  30.081  61.896  1.00  0.00     0.004 C 
ENDBRANCH   6   7
ENDBRANCH   1   6
TORSDOF 4
ENDMDL
MODEL 5
REMARK VINA RESULT:    -2.943     13.378     14.422
REMARK INTER + INTRA:          -3.760
REMARK INTER:                  -3.638
REMARK INTRA:                  -0.122
REMARK UNBOUND:                -0.128
REMARK SMILES CCCCCC(=O)[O-]
REMARK SMILES IDX 4 1 5 2 6 3 7 4 8 5 3 6 2 7 1 8
REMARK H PARENT
REMARK Flexibility Score: inf
ROOT
ATOM      1  C   UNL     1      61.791  33.188  60.629  1.00  0.00     0.006 C 
ENDROOT
BRANCH   1   2
ATOM      2  C   UNL     1      62.659  31.923  60.619  1.00  0.00     0.053 C 
BRANCH   2   3
ATOM      3  C   UNL     1      62.158  30.894  61.585  1.00  0.00     0.041 C 
ATOM      4  O   UNL     1      62.915  29.963  61.967  1.00  0.00    -0.550 OA
ATOM      5  O   UNL     1      60.865  30.980  62.086  1.00  0.00    -0.550 OA
ENDBRANCH   2   3
ENDBRANCH   1   2
BRANCH   1   6
ATOM      6  C   UNL     1      62.632  34.468  60.769  1.00  0.00     0.000 C 
BRANCH   6   7
ATOM      7  C   UNL     1      64.065  34.181  61.245  1.00  0.00    -0.003 C 
ATOM      8  C   UNL     1      64.745  35.410  61.848  1.00  0.00     0.004 C 
ENDBRANCH   6   7
ENDBRANCH   1   6
TORSDOF 4
ENDMDL
MODEL 6
REMARK VINA RESULT:    -2.937      2.888      4.423
REMARK INTER + INTRA:          -3.751
REMARK INTER:                  -3.678
REMARK INTRA:                  -0.074
REMARK UNBOUND:                -0.128
REMARK SMILES CCCCCC(=O)[O-]
REMARK SMILES IDX 4 1 5 2 6 3 7 4 8 5 3 6 2 7 1 8
REMARK H PARENT
REMARK Flexibility Score: inf
ROOT
ATOM      1  C   UNL     1      56.894  27.660  50.317  1.00  0.00     0.006 C 
ENDROOT
BRANCH   1   2
ATOM      2  C   UNL     1      55.395  27.971  50.435  1.00  0.00     0.053 C 
BRANCH   2   3
ATOM      3  C   UNL     1      54.560  26.986  49.676  1.00  0.00     0.041 C 
ATOM      4  O   UNL     1      55.047  25.879  49.326  1.00  0.00    -0.550 OA
ATOM      5  O   UNL     1      53.234  27.280  49.381  1.00  0.00    -0.550 OA
ENDBRANCH   2   3
ENDBRANCH   1   2
BRANCH   1   6
ATOM      6  C   UNL     1      57.751  28.937  50.301  1.00  0.00     0.000 C 
BRANCH   6   7
ATOM      7  C   UNL     1      58.870  28.882  49.249  1.00  0.00    -0.003 C 
ATOM      8  C   UNL     1      59.612  27.545  49.244  1.00  0.00     0.004 C 
ENDBRANCH   6   7
ENDBRANCH   1   6
TORSDOF 4
ENDMDL
MODEL 7
REMARK VINA RESULT:    -2.909      1.489      1.810
REMARK INTER + INTRA:          -3.717
REMARK INTER:                  -3.574
REMARK INTRA:                  -0.143
REMARK UNBOUND:                -0.128
REMARK SMILES CCCCCC(=O)[O-]
REMARK SMILES IDX 4 1 5 2 6 3 7 4 8 5 3 6 2 7 1 8
REMARK H PARENT
REMARK Flexibility Score: inf
ROOT
ATOM      1  C   UNL     1      58.315  28.902  50.565  1.00  0.00     0.006 C 
ENDROOT
BRANCH   1   2
ATOM      2  C   UNL     1      59.032  28.751  49.217  1.00  0.00     0.053 C 
BRANCH   2   3
ATOM      3  C   UNL     1      59.923  27.547  49.189  1.00  0.00     0.041 C 
ATOM      4  O   UNL     1      61.174  27.686  49.183  1.00  0.00    -0.550 OA
ATOM      5  O   UNL     1      59.371  26.272  49.202  1.00  0.00    -0.550 OA
ENDBRANCH   2   3
ENDBRANCH   1   2
BRANCH   1   6
ATOM      6  C   UNL     1      56.785  28.865  50.415  1.00  0.00     0.000 C 
BRANCH   6   7
ATOM      7  C   UNL     1      56.231  27.432  50.373  1.00  0.00    -0.003 C 
ATOM      8  C   UNL     1      54.745  27.382  50.018  1.00  0.00     0.004 C 
ENDBRANCH   6   7
ENDBRANCH   1   6
TORSDOF 4
ENDMDL
MODEL 8
REMARK VINA RESULT:    -2.670      2.571      3.447
REMARK INTER + INTRA:          -3.422
REMARK INTER:                  -3.199
REMARK INTRA:                  -0.223
REMARK UNBOUND:                -0.128
REMARK SMILES CCCCCC(=O)[O-]
REMARK SMILES IDX 4 1 5 2 6 3 7 4 8 5 3 6 2 7 1 8
REMARK H PARENT
REMARK Flexibility Score: inf
ROOT
ATOM      1  C   UNL     1      60.025  28.060  49.681  1.00  0.00     0.006 C 
ENDROOT
BRANCH   1   2
ATOM      2  C   UNL     1      59.812  26.581  49.331  1.00  0.00     0.053 C 
BRANCH   2   3
ATOM      3  C   UNL     1      59.291  25.800  50.497  1.00  0.00     0.041 C 
ATOM      4  O   UNL     1      58.191  25.193  50.412  1.00  0.00    -0.550 OA
ATOM      5  O   UNL     1      60.034  25.717  51.668  1.00  0.00    -0.550 OA
ENDBRANCH   2   3
ENDBRANCH   1   2
BRANCH   1   6
ATOM      6  C   UNL     1      58.804  28.922  49.321  1.00  0.00     0.000 C 
BRANCH   6   7
ATOM      7  C   UNL     1      57.883  29.171  50.526  1.00  0.00    -0.003 C 
ATOM      8  C   UNL     1      56.566  28.399  50.433  1.00  0.00     0.004 C 
ENDBRANCH   6   7
ENDBRANCH   1   6
TORSDOF 4
ENDMDL
MODEL 9
REMARK VINA RESULT:    -0.721     11.352     12.006
REMARK INTER + INTRA:          -1.017
REMARK INTER:                  -0.980
REMARK INTRA:                  -0.037
REMARK UNBOUND:                -0.128
REMARK SMILES CCCCCC(=O)[O-]
REMARK SMILES IDX 4 1 5 2 6 3 7 4 8 5 3 6 2 7 1 8
REMARK H PARENT
REMARK Flexibility Score: inf
ROOT
ATOM      1  C   UNL     1      62.673  27.290  60.690  1.00  0.00     0.006 C 
ENDROOT
BRANCH   1   2
ATOM      2  C   UNL     1      64.156  27.050  60.378  1.00  0.00     0.053 C 
BRANCH   2   3
ATOM      3  C   UNL     1      64.351  26.455  59.017  1.00  0.00     0.041 C 
ATOM      4  O   UNL     1      64.347  25.205  58.867  1.00  0.00    -0.550 OA
ATOM      5  O   UNL     1      64.506  27.282  57.911  1.00  0.00    -0.550 OA
ENDBRANCH   2   3
ENDBRANCH   1   2
BRANCH   1   6
ATOM      6  C   UNL     1      61.960  26.004  61.144  1.00  0.00     0.000 C 
BRANCH   6   7
ATOM      7  C   UNL     1      60.655  26.291  61.902  1.00  0.00    -0.003 C 
ATOM      8  C   UNL     1      59.410  25.900  61.106  1.00  0.00     0.004 C 
ENDBRANCH   6   7
ENDBRANCH   1   6
TORSDOF 4
ENDMDL
