MODEL 1
REMARK VINA RESULT:    10.128      0.000      0.000
REMARK INTER + INTRA:          12.243
REMARK INTER:                  12.792
REMARK INTRA:                  -0.549
REMARK UNBOUND:                -0.549
REMARK SMILES O=C(C=Cc1ccc(O)cc1)c1ccc(O)cc1O
REMARK SMILES IDX 4 1 3 2 5 3 6 4 7 5 8 6 11 7 10 8 9 9 2 11 1 12 12 13 18 14
REMARK SMILES IDX 13 15 17 16 14 17 15 18 19 19 16 21
REMARK H PARENT 9 10 19 20 16 22
REMARK Flexibility Score: inf
ROOT
ATOM      1  C   UNL     1      12.155  -2.289  10.574  1.00  0.00     0.012 C 
ATOM      2  C   UNL     1      11.553  -3.338   9.993  1.00  0.00     0.053 C 
ENDROOT
BRANCH   1   3
ATOM      3  C   UNL     1      13.150  -2.408  11.669  1.00  0.00    -0.025 A 
ATOM      4  C   UNL     1      14.020  -1.356  12.024  1.00  0.00     0.012 A 
ATOM      5  C   UNL     1      14.947  -1.525  13.058  1.00  0.00     0.047 A 
ATOM      6  C   UNL     1      15.025  -2.743  13.744  1.00  0.00     0.115 A 
ATOM      7  C   UNL     1      13.249  -3.630  12.355  1.00  0.00     0.012 A 
ATOM      8  C   UNL     1      14.176  -3.794  13.388  1.00  0.00     0.047 A 
BRANCH   6   9
ATOM      9  O   UNL     1      15.944  -2.919  14.777  1.00  0.00    -0.508 OA
ATOM     10  H   UNL     1      16.725  -2.287  14.904  1.00  0.00     0.293 HD
ENDBRANCH   6   9
ENDBRANCH   1   3
BRANCH   2  11
ATOM     11  C   UNL     1      10.562  -3.192   8.906  1.00  0.00     0.189 C 
ATOM     12  O   UNL     1       9.379  -2.889   9.217  1.00  0.00    -0.289 OA
BRANCH  11  13
ATOM     13  C   UNL     1      10.894  -3.413   7.476  1.00  0.00     0.064 A 
ATOM     14  C   UNL     1       9.915  -3.877   6.573  1.00  0.00     0.130 A 
ATOM     15  C   UNL     1      12.207  -3.204   7.017  1.00  0.00     0.020 A 
ATOM     16  C   UNL     1      10.254  -4.106   5.231  1.00  0.00     0.093 A 
ATOM     17  C   UNL     1      12.535  -3.432   5.679  1.00  0.00     0.047 A 
ATOM     18  C   UNL     1      11.559  -3.884   4.782  1.00  0.00     0.119 A 
BRANCH  14  19
ATOM     19  O   UNL     1       8.607  -4.094   7.004  1.00  0.00    -0.507 OA
ATOM     20  H   UNL     1       8.346  -4.933   7.511  1.00  0.00     0.293 HD
ENDBRANCH  14  19
BRANCH  18  21
ATOM     21  O   UNL     1      11.875  -4.115   3.445  1.00  0.00    -0.508 OA
ATOM     22  H   UNL     1      12.537  -4.834   3.175  1.00  0.00     0.293 HD
ENDBRANCH  18  21
ENDBRANCH  11  13
ENDBRANCH   2  11
TORSDOF 6
ENDMDL
