MODEL 1
REMARK VINA RESULT:    -3.529      0.000      0.000
REMARK INTER + INTRA:          -4.034
REMARK INTER:                  -3.839
REMARK INTRA:                  -0.196
REMARK UNBOUND:                -0.196
REMARK SMILES C=C(C)[C@H]1CC[C@H](C)C[C@@H]1O
REMARK SMILES IDX 8 1 7 2 6 3 5 4 4 5 10 6 9 7 11 8 2 10 1 11 3 12
REMARK H PARENT 11 9
REMARK Flexibility Score: inf
ROOT
ATOM      1  C   UNL     1       8.171   1.678   1.426  1.00  0.00     0.008 C 
ATOM      2  C   UNL     1       7.414   2.016   0.137  1.00  0.00    -0.012 C 
ATOM      3  C   UNL     1       6.102   2.755   0.460  1.00  0.00     0.004 C 
ATOM      4  C   UNL     1       5.338   3.111  -0.822  1.00  0.00     0.011 C 
ATOM      5  C   UNL     1       6.212   3.960  -1.768  1.00  0.00     0.043 C 
ATOM      6  C   UNL     1       7.539   3.227  -2.093  1.00  0.00     0.121 C 
ATOM      7  C   UNL     1       8.296   2.864  -0.801  1.00  0.00     0.035 C 
ENDROOT
BRANCH   6   8
ATOM      8  O   UNL     1       8.355   4.009  -2.931  1.00  0.00    -0.392 OA
ATOM      9  H   UNL     1       9.203   4.189  -2.445  1.00  0.00     0.210 HD
ENDBRANCH   6   8
BRANCH   5  10
ATOM     10  C   UNL     1       5.449   4.333  -3.034  1.00  0.00    -0.075 C 
ATOM     11  C   UNL     1       4.956   3.389  -3.856  1.00  0.00     0.008 C 
ATOM     12  C   UNL     1       5.238   5.782  -3.390  1.00  0.00     0.039 C 
ENDBRANCH   5  10
TORSDOF 2
ENDMDL
MODEL 2
REMARK VINA RESULT:    -3.470      1.868      4.693
REMARK INTER + INTRA:          -3.970
REMARK INTER:                  -3.777
REMARK INTRA:                  -0.193
REMARK UNBOUND:                -0.196
REMARK SMILES C=C(C)[C@H]1CC[C@H](C)C[C@@H]1O
REMARK SMILES IDX 8 1 7 2 6 3 5 4 4 5 10 6 9 7 11 8 2 10 1 11 3 12
REMARK H PARENT 11 9
REMARK Flexibility Score: inf
ROOT
ATOM      1  C   UNL     1       6.668   4.830  -3.865  1.00  0.00     0.008 C 
ATOM      2  C   UNL     1       6.796   3.720  -2.817  1.00  0.00    -0.012 C 
ATOM      3  C   UNL     1       8.175   3.781  -2.132  1.00  0.00     0.004 C 
ATOM      4  C   UNL     1       8.313   2.682  -1.070  1.00  0.00     0.011 C 
ATOM      5  C   UNL     1       7.188   2.782  -0.020  1.00  0.00     0.043 C 
ATOM      6  C   UNL     1       5.797   2.730  -0.701  1.00  0.00     0.121 C 
ATOM      7  C   UNL     1       5.667   3.830  -1.773  1.00  0.00     0.035 C 
ENDROOT
BRANCH   6   8
ATOM      8  O   UNL     1       4.765   2.852   0.248  1.00  0.00    -0.392 OA
ATOM      9  H   UNL     1       5.175   3.157   1.100  1.00  0.00     0.210 HD
ENDBRANCH   6   8
BRANCH   5  10
ATOM     10  C   UNL     1       7.335   1.704   1.047  1.00  0.00    -0.075 C 
ATOM     11  C   UNL     1       7.611   2.020   2.325  1.00  0.00     0.008 C 
ATOM     12  C   UNL     1       7.177   0.251   0.680  1.00  0.00     0.039 C 
ENDBRANCH   5  10
TORSDOF 2
ENDMDL
MODEL 3
REMARK VINA RESULT:    -3.453     10.954     12.115
REMARK INTER + INTRA:          -3.951
REMARK INTER:                  -3.760
REMARK INTRA:                  -0.191
REMARK UNBOUND:                -0.196
REMARK SMILES C=C(C)[C@H]1CC[C@H](C)C[C@@H]1O
REMARK SMILES IDX 8 1 7 2 6 3 5 4 4 5 10 6 9 7 11 8 2 10 1 11 3 12
REMARK H PARENT 11 9
REMARK Flexibility Score: inf
ROOT
ATOM      1  C   UNL     1       1.115  -7.284  -4.425  1.00  0.00     0.008 C 
ATOM      2  C   UNL     1       0.260  -6.334  -5.270  1.00  0.00    -0.012 C 
ATOM      3  C   UNL     1      -1.215  -6.780  -5.257  1.00  0.00     0.004 C 
ATOM      4  C   UNL     1      -2.086  -5.831  -6.090  1.00  0.00     0.011 C 
ATOM      5  C   UNL     1      -1.961  -4.378  -5.585  1.00  0.00     0.043 C 
ATOM      6  C   UNL     1      -0.479  -3.924  -5.587  1.00  0.00     0.121 C 
ATOM      7  C   UNL     1       0.393  -4.886  -4.757  1.00  0.00     0.035 C 
ENDROOT
BRANCH   6   8
ATOM      8  O   UNL     1      -0.354  -2.610  -5.098  1.00  0.00    -0.392 OA
ATOM      9  H   UNL     1      -0.253  -2.006  -5.881  1.00  0.00     0.210 HD
ENDBRANCH   6   8
BRANCH   5  10
ATOM     10  C   UNL     1      -2.842  -3.437  -6.397  1.00  0.00    -0.075 C 
ATOM     11  C   UNL     1      -2.636  -3.249  -7.713  1.00  0.00     0.008 C 
ATOM     12  C   UNL     1      -3.966  -2.689  -5.729  1.00  0.00     0.039 C 
ENDBRANCH   5  10
TORSDOF 2
ENDMDL
MODEL 4
REMARK VINA RESULT:    -3.362     11.235     13.272
REMARK INTER + INTRA:          -3.853
REMARK INTER:                  -3.730
REMARK INTRA:                  -0.122
REMARK UNBOUND:                -0.196
REMARK SMILES C=C(C)[C@H]1CC[C@H](C)C[C@@H]1O
REMARK SMILES IDX 8 1 7 2 6 3 5 4 4 5 10 6 9 7 11 8 2 10 1 11 3 12
REMARK H PARENT 11 9
REMARK Flexibility Score: inf
ROOT
ATOM      1  C   UNL     1      -5.217  -1.751  -7.853  1.00  0.00     0.008 C 
ATOM      2  C   UNL     1      -4.424  -2.823  -7.099  1.00  0.00    -0.012 C 
ATOM      3  C   UNL     1      -3.562  -3.645  -8.078  1.00  0.00     0.004 C 
ATOM      4  C   UNL     1      -2.752  -4.715  -7.335  1.00  0.00     0.011 C 
ATOM      5  C   UNL     1      -1.866  -4.080  -6.244  1.00  0.00     0.043 C 
ATOM      6  C   UNL     1      -2.723  -3.245  -5.259  1.00  0.00     0.121 C 
ATOM      7  C   UNL     1      -3.542  -2.178  -6.012  1.00  0.00     0.035 C 
ENDROOT
BRANCH   6   8
ATOM      8  O   UNL     1      -1.917  -2.638  -4.279  1.00  0.00    -0.392 OA
ATOM      9  H   UNL     1      -1.669  -3.336  -3.618  1.00  0.00     0.210 HD
ENDBRANCH   6   8
BRANCH   5  10
ATOM     10  C   UNL     1      -1.044  -5.139  -5.519  1.00  0.00    -0.075 C 
ATOM     11  C   UNL     1      -1.579  -6.325  -5.177  1.00  0.00     0.008 C 
ATOM     12  C   UNL     1       0.396  -4.869  -5.167  1.00  0.00     0.039 C 
ENDBRANCH   5  10
TORSDOF 2
ENDMDL
MODEL 5
REMARK VINA RESULT:    -3.311      2.212      2.767
REMARK INTER + INTRA:          -3.797
REMARK INTER:                  -3.634
REMARK INTRA:                  -0.163
REMARK UNBOUND:                -0.196
REMARK SMILES C=C(C)[C@H]1CC[C@H](C)C[C@@H]1O
REMARK SMILES IDX 8 1 7 2 6 3 5 4 4 5 10 6 9 7 11 8 2 10 1 11 3 12
REMARK H PARENT 11 9
REMARK Flexibility Score: inf
ROOT
ATOM      1  C   UNL     1       5.533  -0.876  -0.522  1.00  0.00     0.008 C 
ATOM      2  C   UNL     1       6.039   0.419  -1.168  1.00  0.00    -0.012 C 
ATOM      3  C   UNL     1       5.419   0.601  -2.567  1.00  0.00     0.004 C 
ATOM      4  C   UNL     1       5.907   1.900  -3.222  1.00  0.00     0.011 C 
ATOM      5  C   UNL     1       5.590   3.120  -2.333  1.00  0.00     0.043 C 
ATOM      6  C   UNL     1       6.203   2.942  -0.920  1.00  0.00     0.121 C 
ATOM      7  C   UNL     1       5.717   1.631  -0.272  1.00  0.00     0.035 C 
ENDROOT
BRANCH   6   8
ATOM      8  O   UNL     1       5.892   4.038  -0.094  1.00  0.00    -0.392 OA
ATOM      9  H   UNL     1       6.115   4.866  -0.596  1.00  0.00     0.210 HD
ENDBRANCH   6   8
BRANCH   5  10
ATOM     10  C   UNL     1       6.055   4.414  -2.991  1.00  0.00    -0.075 C 
ATOM     11  C   UNL     1       5.220   5.456  -3.150  1.00  0.00     0.008 C 
ATOM     12  C   UNL     1       7.473   4.544  -3.484  1.00  0.00     0.039 C 
ENDBRANCH   5  10
TORSDOF 2
ENDMDL
MODEL 6
REMARK VINA RESULT:    -3.300      8.605      9.464
REMARK INTER + INTRA:          -3.785
REMARK INTER:                  -3.591
REMARK INTRA:                  -0.193
REMARK UNBOUND:                -0.196
REMARK SMILES C=C(C)[C@H]1CC[C@H](C)C[C@@H]1O
REMARK SMILES IDX 8 1 7 2 6 3 5 4 4 5 10 6 9 7 11 8 2 10 1 11 3 12
REMARK H PARENT 11 9
REMARK Flexibility Score: inf
ROOT
ATOM      1  C   UNL     1      -1.235   6.758   0.162  1.00  0.00     0.008 C 
ATOM      2  C   UNL     1      -1.996   6.061  -0.970  1.00  0.00    -0.012 C 
ATOM      3  C   UNL     1      -1.831   6.839  -2.290  1.00  0.00     0.004 C 
ATOM      4  C   UNL     1      -2.579   6.146  -3.437  1.00  0.00     0.011 C 
ATOM      5  C   UNL     1      -2.100   4.690  -3.610  1.00  0.00     0.043 C 
ATOM      6  C   UNL     1      -2.255   3.902  -2.284  1.00  0.00     0.121 C 
ATOM      7  C   UNL     1      -1.510   4.607  -1.135  1.00  0.00     0.035 C 
ENDROOT
BRANCH   6   8
ATOM      8  O   UNL     1      -1.791   2.581  -2.427  1.00  0.00    -0.392 OA
ATOM      9  H   UNL     1      -0.828   2.624  -2.667  1.00  0.00     0.210 HD
ENDBRANCH   6   8
BRANCH   5  10
ATOM     10  C   UNL     1      -2.826   4.006  -4.762  1.00  0.00    -0.075 C 
ATOM     11  C   UNL     1      -2.168   3.609  -5.866  1.00  0.00     0.008 C 
ATOM     12  C   UNL     1      -4.312   3.767  -4.683  1.00  0.00     0.039 C 
ENDBRANCH   5  10
TORSDOF 2
ENDMDL
MODEL 7
REMARK VINA RESULT:    -3.240     11.639     12.782
REMARK INTER + INTRA:          -3.719
REMARK INTER:                  -3.566
REMARK INTRA:                  -0.153
REMARK UNBOUND:                -0.196
REMARK SMILES C=C(C)[C@H]1CC[C@H](C)C[C@@H]1O
REMARK SMILES IDX 8 1 7 2 6 3 5 4 4 5 10 6 9 7 11 8 2 10 1 11 3 12
REMARK H PARENT 11 9
REMARK Flexibility Score: inf
ROOT
ATOM      1  C   UNL     1       1.921  -7.674  -4.334  1.00  0.00     0.008 C 
ATOM      2  C   UNL     1       0.676  -6.791  -4.470  1.00  0.00    -0.012 C 
ATOM      3  C   UNL     1       1.050  -5.419  -5.064  1.00  0.00     0.004 C 
ATOM      4  C   UNL     1      -0.189  -4.528  -5.217  1.00  0.00     0.011 C 
ATOM      5  C   UNL     1      -1.260  -5.215  -6.089  1.00  0.00     0.043 C 
ATOM      6  C   UNL     1      -1.637  -6.600  -5.503  1.00  0.00     0.121 C 
ATOM      7  C   UNL     1      -0.387  -7.487  -5.342  1.00  0.00     0.035 C 
ENDROOT
BRANCH   6   8
ATOM      8  O   UNL     1      -2.591  -7.246  -6.311  1.00  0.00    -0.392 OA
ATOM      9  H   UNL     1      -3.423  -7.343  -5.775  1.00  0.00     0.210 HD
ENDBRANCH   6   8
BRANCH   5  10
ATOM     10  C   UNL     1      -2.484  -4.323  -6.261  1.00  0.00    -0.075 C 
ATOM     11  C   UNL     1      -3.029  -3.676  -5.215  1.00  0.00     0.008 C 
ATOM     12  C   UNL     1      -3.112  -4.155  -7.620  1.00  0.00     0.039 C 
ENDBRANCH   5  10
TORSDOF 2
ENDMDL
MODEL 8
REMARK VINA RESULT:    -3.210     11.719     13.272
REMARK INTER + INTRA:          -3.688
REMARK INTER:                  -3.495
REMARK INTRA:                  -0.193
REMARK UNBOUND:                -0.196
REMARK SMILES C=C(C)[C@H]1CC[C@H](C)C[C@@H]1O
REMARK SMILES IDX 8 1 7 2 6 3 5 4 4 5 10 6 9 7 11 8 2 10 1 11 3 12
REMARK H PARENT 11 9
REMARK Flexibility Score: inf
ROOT
ATOM      1  C   UNL     1      -2.152  -2.672  -5.283  1.00  0.00     0.008 C 
ATOM      2  C   UNL     1      -1.385  -3.942  -5.665  1.00  0.00    -0.012 C 
ATOM      3  C   UNL     1      -0.191  -4.156  -4.716  1.00  0.00     0.004 C 
ATOM      4  C   UNL     1       0.581  -5.432  -5.078  1.00  0.00     0.011 C 
ATOM      5  C   UNL     1      -0.347  -6.664  -5.059  1.00  0.00     0.043 C 
ATOM      6  C   UNL     1      -1.557  -6.454  -6.006  1.00  0.00     0.121 C 
ATOM      7  C   UNL     1      -2.322  -5.166  -5.643  1.00  0.00     0.035 C 
ENDROOT
BRANCH   6   8
ATOM      8  O   UNL     1      -2.424  -7.562  -5.970  1.00  0.00    -0.392 OA
ATOM      9  H   UNL     1      -1.883  -8.360  -5.731  1.00  0.00     0.210 HD
ENDBRANCH   6   8
BRANCH   5  10
ATOM     10  C   UNL     1       0.421  -7.936  -5.399  1.00  0.00    -0.075 C 
ATOM     11  C   UNL     1       0.530  -8.943  -4.515  1.00  0.00     0.008 C 
ATOM     12  C   UNL     1       1.083  -8.082  -6.745  1.00  0.00     0.039 C 
ENDBRANCH   5  10
TORSDOF 2
ENDMDL
MODEL 9
REMARK VINA RESULT:    -3.171      9.930     11.411
REMARK INTER + INTRA:          -3.645
REMARK INTER:                  -3.449
REMARK INTRA:                  -0.196
REMARK UNBOUND:                -0.196
REMARK SMILES C=C(C)[C@H]1CC[C@H](C)C[C@@H]1O
REMARK SMILES IDX 8 1 7 2 6 3 5 4 4 5 10 6 9 7 11 8 2 10 1 11 3 12
REMARK H PARENT 11 9
REMARK Flexibility Score: inf
ROOT
ATOM      1  C   UNL     1      -2.211  -6.760  -6.312  1.00  0.00     0.008 C 
ATOM      2  C   UNL     1      -1.203  -6.115  -5.356  1.00  0.00    -0.012 C 
ATOM      3  C   UNL     1       0.126  -6.894  -5.367  1.00  0.00     0.004 C 
ATOM      4  C   UNL     1       1.151  -6.252  -4.423  1.00  0.00     0.011 C 
ATOM      5  C   UNL     1       1.393  -4.774  -4.792  1.00  0.00     0.043 C 
ATOM      6  C   UNL     1       0.060  -3.984  -4.791  1.00  0.00     0.121 C 
ATOM      7  C   UNL     1      -0.968  -4.639  -5.733  1.00  0.00     0.035 C 
ENDROOT
BRANCH   6   8
ATOM      8  O   UNL     1       0.269  -2.641  -5.156  1.00  0.00    -0.392 OA
ATOM      9  H   UNL     1      -0.589  -2.157  -5.031  1.00  0.00     0.210 HD
ENDBRANCH   6   8
BRANCH   5  10
ATOM     10  C   UNL     1       2.426  -4.140  -3.868  1.00  0.00    -0.075 C 
ATOM     11  C   UNL     1       2.252  -4.120  -2.534  1.00  0.00     0.008 C 
ATOM     12  C   UNL     1       3.671  -3.514  -4.443  1.00  0.00     0.039 C 
ENDBRANCH   5  10
TORSDOF 2
ENDMDL
