MODEL 1
REMARK VINA RESULT:    -5.142      0.000      0.000
REMARK INTER + INTRA:          -6.703
REMARK INTER:                  -6.344
REMARK INTRA:                  -0.359
REMARK UNBOUND:                -0.359
REMARK SMILES O=c1c(O)c(-c2cc(O)c(O)c(O)c2)oc2cc(O)cc(O)c12
REMARK SMILES IDX 5 1 3 2 2 3 1 4 23 5 21 6 20 7 18 8 17 9 16 10 15 11 6 12
REMARK SMILES IDX 7 13 8 14 14 15 10 16 12 17 9 18 11 20 13 22 4 24 22 26
REMARK SMILES IDX 19 28
REMARK H PARENT 9 19 11 21 13 23 4 25 22 27 19 29
REMARK Flexibility Score: inf
ROOT
ATOM      1  C   UNL     1      14.256  33.892  53.973  1.00  0.00     0.180 A 
ATOM      2  C   UNL     1      12.922  34.038  54.390  1.00  0.00     0.208 A 
ATOM      3  C   UNL     1      12.533  33.502  55.629  1.00  0.00     0.238 A 
ATOM      4  O   UNL     1      11.322  33.569  55.962  1.00  0.00    -0.285 OA
ATOM      5  C   UNL     1      13.496  32.879  56.461  1.00  0.00     0.111 A 
ATOM      6  C   UNL     1      13.224  32.341  57.755  1.00  0.00     0.134 A 
ATOM      7  C   UNL     1      14.232  31.652  58.443  1.00  0.00     0.093 A 
ATOM      8  C   UNL     1      15.518  31.538  57.911  1.00  0.00     0.123 A 
ATOM      9  C   UNL     1      15.807  32.107  56.673  1.00  0.00     0.094 A 
ATOM     10  C   UNL     1      14.813  32.766  55.946  1.00  0.00     0.146 A 
ATOM     11  O   UNL     1      15.128  33.275  54.761  1.00  0.00    -0.452 OA
ENDROOT
BRANCH   1  12
ATOM     12  C   UNL     1      14.738  34.417  52.675  1.00  0.00     0.029 A 
ATOM     13  C   UNL     1      14.587  33.682  51.487  1.00  0.00     0.062 A 
ATOM     14  C   UNL     1      15.071  34.185  50.272  1.00  0.00     0.162 A 
ATOM     15  C   UNL     1      15.411  35.648  52.636  1.00  0.00     0.062 A 
ATOM     16  C   UNL     1      15.724  35.430  50.239  1.00  0.00     0.200 A 
ATOM     17  C   UNL     1      15.896  36.158  51.423  1.00  0.00     0.162 A 
BRANCH  14  18
ATOM     18  O   UNL     1      14.912  33.450  49.098  1.00  0.00    -0.504 OA
ATOM     19  H   UNL     1      15.702  33.204  48.514  1.00  0.00     0.293 HD
ENDBRANCH  14  18
BRANCH  16  20
ATOM     20  O   UNL     1      16.211  35.952  49.041  1.00  0.00    -0.502 OA
ATOM     21  H   UNL     1      16.616  35.366  48.322  1.00  0.00     0.293 HD
ENDBRANCH  16  20
BRANCH  17  22
ATOM     22  O   UNL     1      16.550  37.387  51.387  1.00  0.00    -0.504 OA
ATOM     23  H   UNL     1      16.832  37.863  52.237  1.00  0.00     0.293 HD
ENDBRANCH  17  22
ENDBRANCH   1  12
BRANCH   2  24
ATOM     24  O   UNL     1      12.005  34.723  53.588  1.00  0.00    -0.502 OA
ATOM     25  H   UNL     1      11.930  35.733  53.589  1.00  0.00     0.293 HD
ENDBRANCH   2  24
BRANCH   6  26
ATOM     26  O   UNL     1      12.000  32.475  58.417  1.00  0.00    -0.507 OA
ATOM     27  H   UNL     1      11.817  33.121  59.170  1.00  0.00     0.293 HD
ENDBRANCH   6  26
BRANCH   8  28
ATOM     28  O   UNL     1      16.518  30.866  58.609  1.00  0.00    -0.508 OA
ATOM     29  H   UNL     1      17.110  31.344  59.279  1.00  0.00     0.293 HD
ENDBRANCH   8  28
TORSDOF 7
ENDMDL
MODEL 2
REMARK VINA RESULT:    -5.124      0.110      1.751
REMARK INTER + INTRA:          -6.681
REMARK INTER:                  -6.353
REMARK INTRA:                  -0.328
REMARK UNBOUND:                -0.359
REMARK SMILES O=c1c(O)c(-c2cc(O)c(O)c(O)c2)oc2cc(O)cc(O)c12
REMARK SMILES IDX 5 1 3 2 2 3 1 4 23 5 21 6 20 7 18 8 17 9 16 10 15 11 6 12
REMARK SMILES IDX 7 13 8 14 14 15 10 16 12 17 9 18 11 20 13 22 4 24 22 26
REMARK SMILES IDX 19 28
REMARK H PARENT 9 19 11 21 13 23 4 25 22 27 19 29
REMARK Flexibility Score: inf
ROOT
ATOM      1  C   UNL     1      14.246  33.883  54.030  1.00  0.00     0.180 A 
ATOM      2  C   UNL     1      12.915  34.045  54.450  1.00  0.00     0.208 A 
ATOM      3  C   UNL     1      12.519  33.503  55.684  1.00  0.00     0.238 A 
ATOM      4  O   UNL     1      11.309  33.587  56.020  1.00  0.00    -0.285 OA
ATOM      5  C   UNL     1      13.473  32.856  56.508  1.00  0.00     0.111 A 
ATOM      6  C   UNL     1      13.193  32.310  57.798  1.00  0.00     0.134 A 
ATOM      7  C   UNL     1      14.191  31.598  58.476  1.00  0.00     0.093 A 
ATOM      8  C   UNL     1      15.474  31.468  57.941  1.00  0.00     0.123 A 
ATOM      9  C   UNL     1      15.771  32.045  56.708  1.00  0.00     0.094 A 
ATOM     10  C   UNL     1      14.787  32.727  55.990  1.00  0.00     0.146 A 
ATOM     11  O   UNL     1      15.108  33.243  54.809  1.00  0.00    -0.452 OA
ENDROOT
BRANCH   1  12
ATOM     12  C   UNL     1      14.734  34.413  52.736  1.00  0.00     0.029 A 
ATOM     13  C   UNL     1      15.413  35.640  52.658  1.00  0.00     0.062 A 
ATOM     14  C   UNL     1      15.846  36.137  51.421  1.00  0.00     0.162 A 
ATOM     15  C   UNL     1      14.462  33.706  51.555  1.00  0.00     0.062 A 
ATOM     16  C   UNL     1      15.589  35.411  50.245  1.00  0.00     0.200 A 
ATOM     17  C   UNL     1      14.894  34.197  50.315  1.00  0.00     0.162 A 
BRANCH  14  18
ATOM     18  O   UNL     1      16.525  37.353  51.355  1.00  0.00    -0.504 OA
ATOM     19  H   UNL     1      16.167  38.133  50.815  1.00  0.00     0.293 HD
ENDBRANCH  14  18
BRANCH  16  20
ATOM     20  O   UNL     1      16.013  35.883  49.004  1.00  0.00    -0.502 OA
ATOM     21  H   UNL     1      15.562  36.663  48.540  1.00  0.00     0.293 HD
ENDBRANCH  16  20
BRANCH  17  22
ATOM     22  O   UNL     1      14.635  33.484  49.146  1.00  0.00    -0.504 OA
ATOM     23  H   UNL     1      14.047  33.863  48.412  1.00  0.00     0.293 HD
ENDBRANCH  17  22
ENDBRANCH   1  12
BRANCH   2  24
ATOM     24  O   UNL     1      12.008  34.754  53.657  1.00  0.00    -0.502 OA
ATOM     25  H   UNL     1      11.684  34.410  52.761  1.00  0.00     0.293 HD
ENDBRANCH   2  24
BRANCH   6  26
ATOM     26  O   UNL     1      11.973  32.457  58.463  1.00  0.00    -0.507 OA
ATOM     27  H   UNL     1      11.710  31.967  59.304  1.00  0.00     0.293 HD
ENDBRANCH   6  26
BRANCH   8  28
ATOM     28  O   UNL     1      16.465  30.772  58.630  1.00  0.00    -0.508 OA
ATOM     29  H   UNL     1      16.689  30.987  59.596  1.00  0.00     0.293 HD
ENDBRANCH   8  28
TORSDOF 7
ENDMDL
MODEL 3
REMARK VINA RESULT:    -5.022      2.696      5.460
REMARK INTER + INTRA:          -6.555
REMARK INTER:                  -6.997
REMARK INTRA:                   0.442
REMARK UNBOUND:                -0.359
REMARK SMILES O=c1c(O)c(-c2cc(O)c(O)c(O)c2)oc2cc(O)cc(O)c12
REMARK SMILES IDX 5 1 3 2 2 3 1 4 23 5 21 6 20 7 18 8 17 9 16 10 15 11 6 12
REMARK SMILES IDX 7 13 8 14 14 15 10 16 12 17 9 18 11 20 13 22 4 24 22 26
REMARK SMILES IDX 19 28
REMARK H PARENT 9 19 11 21 13 23 4 25 22 27 19 29
REMARK Flexibility Score: inf
ROOT
ATOM      1  C   UNL     1      14.303  32.203  57.797  1.00  0.00     0.180 A 
ATOM      2  C   UNL     1      15.702  32.115  57.888  1.00  0.00     0.208 A 
ATOM      3  C   UNL     1      16.274  31.483  59.004  1.00  0.00     0.238 A 
ATOM      4  O   UNL     1      17.528  31.474  59.116  1.00  0.00    -0.285 OA
ATOM      5  C   UNL     1      15.439  30.895  59.986  1.00  0.00     0.111 A 
ATOM      6  C   UNL     1      15.910  30.190  61.135  1.00  0.00     0.134 A 
ATOM      7  C   UNL     1      14.992  29.744  62.094  1.00  0.00     0.093 A 
ATOM      8  C   UNL     1      13.618  29.921  61.915  1.00  0.00     0.123 A 
ATOM      9  C   UNL     1      13.147  30.559  60.770  1.00  0.00     0.094 A 
ATOM     10  C   UNL     1      14.039  31.050  59.814  1.00  0.00     0.146 A 
ATOM     11  O   UNL     1      13.547  31.671  58.749  1.00  0.00    -0.452 OA
ENDROOT
BRANCH   1  12
ATOM     12  C   UNL     1      13.627  32.867  56.658  1.00  0.00     0.029 A 
ATOM     13  C   UNL     1      14.361  33.452  55.612  1.00  0.00     0.062 A 
ATOM     14  C   UNL     1      13.704  34.097  54.556  1.00  0.00     0.162 A 
ATOM     15  C   UNL     1      12.228  32.966  56.650  1.00  0.00     0.062 A 
ATOM     16  C   UNL     1      12.300  34.172  54.545  1.00  0.00     0.200 A 
ATOM     17  C   UNL     1      11.565  33.609  55.595  1.00  0.00     0.162 A 
BRANCH  14  18
ATOM     18  O   UNL     1      14.441  34.669  53.520  1.00  0.00    -0.504 OA
ATOM     19  H   UNL     1      15.321  35.142  53.691  1.00  0.00     0.293 HD
ENDBRANCH  14  18
BRANCH  16  20
ATOM     20  O   UNL     1      11.624  34.805  53.502  1.00  0.00    -0.502 OA
ATOM     21  H   UNL     1      10.873  34.355  52.994  1.00  0.00     0.293 HD
ENDBRANCH  16  20
BRANCH  17  22
ATOM     22  O   UNL     1      10.174  33.692  55.584  1.00  0.00    -0.504 OA
ATOM     23  H   UNL     1       9.635  33.468  54.755  1.00  0.00     0.293 HD
ENDBRANCH  17  22
ENDBRANCH   1  12
BRANCH   2  24
ATOM     24  O   UNL     1      16.508  32.634  56.870  1.00  0.00    -0.502 OA
ATOM     25  H   UNL     1      17.105  32.049  56.297  1.00  0.00     0.293 HD
ENDBRANCH   2  24
BRANCH   6  26
ATOM     26  O   UNL     1      17.253  29.881  61.368  1.00  0.00    -0.507 OA
ATOM     27  H   UNL     1      17.699  29.884  62.273  1.00  0.00     0.293 HD
ENDBRANCH   6  26
BRANCH   8  28
ATOM     28  O   UNL     1      12.712  29.459  62.866  1.00  0.00    -0.508 OA
ATOM     29  H   UNL     1      12.193  30.098  63.459  1.00  0.00     0.293 HD
ENDBRANCH   8  28
TORSDOF 7
ENDMDL
MODEL 4
REMARK VINA RESULT:    -4.942      5.844      7.993
REMARK INTER + INTRA:          -6.457
REMARK INTER:                  -6.102
REMARK INTRA:                  -0.355
REMARK UNBOUND:                -0.359
REMARK SMILES O=c1c(O)c(-c2cc(O)c(O)c(O)c2)oc2cc(O)cc(O)c12
REMARK SMILES IDX 5 1 3 2 2 3 1 4 23 5 21 6 20 7 18 8 17 9 16 10 15 11 6 12
REMARK SMILES IDX 7 13 8 14 14 15 10 16 12 17 9 18 11 20 13 22 4 24 22 26
REMARK SMILES IDX 19 28
REMARK H PARENT 9 19 11 21 13 23 4 25 22 27 19 29
REMARK Flexibility Score: inf
ROOT
ATOM      1  C   UNL     1      12.057  35.852  49.170  1.00  0.00     0.180 A 
ATOM      2  C   UNL     1      11.870  34.460  49.126  1.00  0.00     0.208 A 
ATOM      3  C   UNL     1      10.572  33.952  48.959  1.00  0.00     0.238 A 
ATOM      4  O   UNL     1      10.402  32.705  48.996  1.00  0.00    -0.285 OA
ATOM      5  C   UNL     1       9.484  34.841  48.780  1.00  0.00     0.111 A 
ATOM      6  C   UNL     1       8.133  34.437  48.557  1.00  0.00     0.134 A 
ATOM      7  C   UNL     1       7.123  35.407  48.500  1.00  0.00     0.093 A 
ATOM      8  C   UNL     1       7.424  36.767  48.594  1.00  0.00     0.123 A 
ATOM      9  C   UNL     1       8.746  37.173  48.757  1.00  0.00     0.094 A 
ATOM     10  C   UNL     1       9.771  36.229  48.856  1.00  0.00     0.146 A 
ATOM     11  O   UNL     1      11.014  36.660  49.032  1.00  0.00    -0.452 OA
ENDROOT
BRANCH   1  12
ATOM     12  C   UNL     1      13.393  36.462  49.358  1.00  0.00     0.029 A 
ATOM     13  C   UNL     1      14.244  36.712  48.268  1.00  0.00     0.062 A 
ATOM     14  C   UNL     1      15.514  37.267  48.468  1.00  0.00     0.162 A 
ATOM     15  C   UNL     1      13.846  36.743  50.656  1.00  0.00     0.062 A 
ATOM     16  C   UNL     1      15.951  37.567  49.770  1.00  0.00     0.200 A 
ATOM     17  C   UNL     1      15.116  37.301  50.863  1.00  0.00     0.162 A 
BRANCH  14  18
ATOM     18  O   UNL     1      16.348  37.517  47.379  1.00  0.00    -0.504 OA
ATOM     19  H   UNL     1      17.161  38.117  47.458  1.00  0.00     0.293 HD
ENDBRANCH  14  18
BRANCH  16  20
ATOM     20  O   UNL     1      17.210  38.124  49.994  1.00  0.00    -0.502 OA
ATOM     21  H   UNL     1      18.048  37.558  50.049  1.00  0.00     0.293 HD
ENDBRANCH  16  20
BRANCH  17  22
ATOM     22  O   UNL     1      15.555  37.592  52.153  1.00  0.00    -0.504 OA
ATOM     23  H   UNL     1      16.535  37.757  52.355  1.00  0.00     0.293 HD
ENDBRANCH  17  22
ENDBRANCH   1  12
BRANCH   2  24
ATOM     24  O   UNL     1      12.967  33.599  49.228  1.00  0.00    -0.502 OA
ATOM     25  H   UNL     1      13.285  33.028  48.453  1.00  0.00     0.293 HD
ENDBRANCH   2  24
BRANCH   6  26
ATOM     26  O   UNL     1       7.734  33.112  48.361  1.00  0.00    -0.507 OA
ATOM     27  H   UNL     1       8.299  32.395  47.931  1.00  0.00     0.293 HD
ENDBRANCH   6  26
BRANCH   8  28
ATOM     28  O   UNL     1       6.415  37.725  48.520  1.00  0.00    -0.508 OA
ATOM     29  H   UNL     1       6.407  38.432  47.793  1.00  0.00     0.293 HD
ENDBRANCH   8  28
TORSDOF 7
ENDMDL
MODEL 5
REMARK VINA RESULT:    -4.936      1.465      3.519
REMARK INTER + INTRA:          -6.449
REMARK INTER:                  -6.084
REMARK INTRA:                  -0.365
REMARK UNBOUND:                -0.359
REMARK SMILES O=c1c(O)c(-c2cc(O)c(O)c(O)c2)oc2cc(O)cc(O)c12
REMARK SMILES IDX 5 1 3 2 2 3 1 4 23 5 21 6 20 7 18 8 17 9 16 10 15 11 6 12
REMARK SMILES IDX 7 13 8 14 14 15 10 16 12 17 9 18 11 20 13 22 4 24 22 26
REMARK SMILES IDX 19 28
REMARK H PARENT 9 19 11 21 13 23 4 25 22 27 19 29
REMARK Flexibility Score: inf
ROOT
ATOM      1  C   UNL     1      15.118  34.198  53.132  1.00  0.00     0.180 A 
ATOM      2  C   UNL     1      16.029  33.475  53.922  1.00  0.00     0.208 A 
ATOM      3  C   UNL     1      15.579  32.885  55.114  1.00  0.00     0.238 A 
ATOM      4  O   UNL     1      16.416  32.305  55.853  1.00  0.00    -0.285 OA
ATOM      5  C   UNL     1      14.211  32.976  55.473  1.00  0.00     0.111 A 
ATOM      6  C   UNL     1      13.636  32.378  56.635  1.00  0.00     0.134 A 
ATOM      7  C   UNL     1      12.292  32.624  56.944  1.00  0.00     0.093 A 
ATOM      8  C   UNL     1      11.488  33.393  56.100  1.00  0.00     0.123 A 
ATOM      9  C   UNL     1      12.026  33.935  54.936  1.00  0.00     0.094 A 
ATOM     10  C   UNL     1      13.373  33.740  54.620  1.00  0.00     0.146 A 
ATOM     11  O   UNL     1      13.850  34.292  53.511  1.00  0.00    -0.452 OA
ENDROOT
BRANCH   1  12
ATOM     12  C   UNL     1      15.521  34.859  51.870  1.00  0.00     0.029 A 
ATOM     13  C   UNL     1      15.975  36.189  51.854  1.00  0.00     0.062 A 
ATOM     14  C   UNL     1      16.329  36.806  50.646  1.00  0.00     0.162 A 
ATOM     15  C   UNL     1      15.392  34.167  50.657  1.00  0.00     0.062 A 
ATOM     16  C   UNL     1      16.218  36.096  49.438  1.00  0.00     0.200 A 
ATOM     17  C   UNL     1      15.745  34.778  49.446  1.00  0.00     0.162 A 
BRANCH  14  18
ATOM     18  O   UNL     1      16.784  38.124  50.642  1.00  0.00    -0.504 OA
ATOM     19  H   UNL     1      16.187  38.891  50.357  1.00  0.00     0.293 HD
ENDBRANCH  14  18
BRANCH  16  20
ATOM     20  O   UNL     1      16.567  36.688  48.224  1.00  0.00    -0.502 OA
ATOM     21  H   UNL     1      16.232  37.605  47.955  1.00  0.00     0.293 HD
ENDBRANCH  16  20
BRANCH  17  22
ATOM     22  O   UNL     1      15.630  34.080  48.245  1.00  0.00    -0.504 OA
ATOM     23  H   UNL     1      14.867  34.256  47.601  1.00  0.00     0.293 HD
ENDBRANCH  17  22
ENDBRANCH   1  12
BRANCH   2  24
ATOM     24  O   UNL     1      17.358  33.333  53.511  1.00  0.00    -0.502 OA
ATOM     25  H   UNL     1      18.112  33.880  53.910  1.00  0.00     0.293 HD
ENDBRANCH   2  24
BRANCH   6  26
ATOM     26  O   UNL     1      14.325  31.522  57.498  1.00  0.00    -0.507 OA
ATOM     27  H   UNL     1      15.329  31.482  57.595  1.00  0.00     0.293 HD
ENDBRANCH   6  26
BRANCH   8  28
ATOM     28  O   UNL     1      10.148  33.618  56.407  1.00  0.00    -0.508 OA
ATOM     29  H   UNL     1       9.870  34.071  57.271  1.00  0.00     0.293 HD
ENDBRANCH   8  28
TORSDOF 7
ENDMDL
MODEL 6
REMARK VINA RESULT:    -4.935      1.477      3.066
REMARK INTER + INTRA:          -6.448
REMARK INTER:                  -6.090
REMARK INTRA:                  -0.357
REMARK UNBOUND:                -0.359
REMARK SMILES O=c1c(O)c(-c2cc(O)c(O)c(O)c2)oc2cc(O)cc(O)c12
REMARK SMILES IDX 5 1 3 2 2 3 1 4 23 5 21 6 20 7 18 8 17 9 16 10 15 11 6 12
REMARK SMILES IDX 7 13 8 14 14 15 10 16 12 17 9 18 11 20 13 22 4 24 22 26
REMARK SMILES IDX 19 28
REMARK H PARENT 9 19 11 21 13 23 4 25 22 27 19 29
REMARK Flexibility Score: inf
ROOT
ATOM      1  C   UNL     1      15.074  34.207  53.078  1.00  0.00     0.180 A 
ATOM      2  C   UNL     1      15.997  33.495  53.863  1.00  0.00     0.208 A 
ATOM      3  C   UNL     1      15.563  32.912  55.065  1.00  0.00     0.238 A 
ATOM      4  O   UNL     1      16.411  32.341  55.799  1.00  0.00    -0.285 OA
ATOM      5  C   UNL     1      14.200  32.999  55.438  1.00  0.00     0.111 A 
ATOM      6  C   UNL     1      13.640  32.408  56.611  1.00  0.00     0.134 A 
ATOM      7  C   UNL     1      12.299  32.650  56.934  1.00  0.00     0.093 A 
ATOM      8  C   UNL     1      11.481  33.409  56.093  1.00  0.00     0.123 A 
ATOM      9  C   UNL     1      12.004  33.944  54.919  1.00  0.00     0.094 A 
ATOM     10  C   UNL     1      13.348  33.753  54.589  1.00  0.00     0.146 A 
ATOM     11  O   UNL     1      13.810  34.299  53.471  1.00  0.00    -0.452 OA
ENDROOT
BRANCH   1  12
ATOM     12  C   UNL     1      15.460  34.861  51.807  1.00  0.00     0.029 A 
ATOM     13  C   UNL     1      15.406  34.172  50.584  1.00  0.00     0.062 A 
ATOM     14  C   UNL     1      15.798  34.800  49.394  1.00  0.00     0.162 A 
ATOM     15  C   UNL     1      15.945  36.177  51.829  1.00  0.00     0.062 A 
ATOM     16  C   UNL     1      16.261  36.127  49.422  1.00  0.00     0.200 A 
ATOM     17  C   UNL     1      16.338  36.812  50.641  1.00  0.00     0.162 A 
BRANCH  14  18
ATOM     18  O   UNL     1      15.735  34.109  48.185  1.00  0.00    -0.504 OA
ATOM     19  H   UNL     1      15.746  33.096  48.150  1.00  0.00     0.293 HD
ENDBRANCH  14  18
BRANCH  16  20
ATOM     20  O   UNL     1      16.654  36.774  48.251  1.00  0.00    -0.502 OA
ATOM     21  H   UNL     1      16.600  37.780  48.146  1.00  0.00     0.293 HD
ENDBRANCH  16  20
BRANCH  17  22
ATOM     22  O   UNL     1      16.805  38.125  50.666  1.00  0.00    -0.504 OA
ATOM     23  H   UNL     1      17.774  38.339  50.871  1.00  0.00     0.293 HD
ENDBRANCH  17  22
ENDBRANCH   1  12
BRANCH   2  24
ATOM     24  O   UNL     1      17.322  33.356  53.438  1.00  0.00    -0.502 OA
ATOM     25  H   UNL     1      18.074  33.928  53.804  1.00  0.00     0.293 HD
ENDBRANCH   2  24
BRANCH   6  26
ATOM     26  O   UNL     1      14.343  31.561  57.473  1.00  0.00    -0.507 OA
ATOM     27  H   UNL     1      15.321  31.330  57.387  1.00  0.00     0.293 HD
ENDBRANCH   6  26
BRANCH   8  28
ATOM     28  O   UNL     1      10.144  33.631  56.413  1.00  0.00    -0.508 OA
ATOM     29  H   UNL     1       9.583  32.921  56.871  1.00  0.00     0.293 HD
ENDBRANCH   8  28
TORSDOF 7
ENDMDL
MODEL 7
REMARK VINA RESULT:    -4.929      2.777      5.360
REMARK INTER + INTRA:          -6.441
REMARK INTER:                  -6.319
REMARK INTRA:                  -0.122
REMARK UNBOUND:                -0.359
REMARK SMILES O=c1c(O)c(-c2cc(O)c(O)c(O)c2)oc2cc(O)cc(O)c12
REMARK SMILES IDX 5 1 3 2 2 3 1 4 23 5 21 6 20 7 18 8 17 9 16 10 15 11 6 12
REMARK SMILES IDX 7 13 8 14 14 15 10 16 12 17 9 18 11 20 13 22 4 24 22 26
REMARK SMILES IDX 19 28
REMARK H PARENT 9 19 11 21 13 23 4 25 22 27 19 29
REMARK Flexibility Score: inf
ROOT
ATOM      1  C   UNL     1      14.669  31.770  57.647  1.00  0.00     0.180 A 
ATOM      2  C   UNL     1      14.270  30.510  58.124  1.00  0.00     0.208 A 
ATOM      3  C   UNL     1      15.069  29.859  59.078  1.00  0.00     0.238 A 
ATOM      4  O   UNL     1      14.746  28.699  59.444  1.00  0.00    -0.285 OA
ATOM      5  C   UNL     1      16.225  30.500  59.587  1.00  0.00     0.111 A 
ATOM      6  C   UNL     1      17.082  29.954  60.589  1.00  0.00     0.134 A 
ATOM      7  C   UNL     1      18.257  30.633  60.938  1.00  0.00     0.093 A 
ATOM      8  C   UNL     1      18.571  31.868  60.367  1.00  0.00     0.123 A 
ATOM      9  C   UNL     1      17.713  32.435  59.429  1.00  0.00     0.094 A 
ATOM     10  C   UNL     1      16.554  31.764  59.032  1.00  0.00     0.146 A 
ATOM     11  O   UNL     1      15.775  32.332  58.119  1.00  0.00    -0.452 OA
ENDROOT
BRANCH   1  12
ATOM     12  C   UNL     1      13.888  32.512  56.631  1.00  0.00     0.029 A 
ATOM     13  C   UNL     1      14.464  32.911  55.413  1.00  0.00     0.062 A 
ATOM     14  C   UNL     1      13.716  33.633  54.474  1.00  0.00     0.162 A 
ATOM     15  C   UNL     1      12.563  32.876  56.912  1.00  0.00     0.062 A 
ATOM     16  C   UNL     1      12.381  33.974  54.754  1.00  0.00     0.200 A 
ATOM     17  C   UNL     1      11.808  33.597  55.975  1.00  0.00     0.162 A 
BRANCH  14  18
ATOM     18  O   UNL     1      14.294  34.019  53.266  1.00  0.00    -0.504 OA
ATOM     19  H   UNL     1      15.287  33.907  53.092  1.00  0.00     0.293 HD
ENDBRANCH  14  18
BRANCH  16  20
ATOM     20  O   UNL     1      11.615  34.689  53.834  1.00  0.00    -0.502 OA
ATOM     21  H   UNL     1      10.615  34.810  53.942  1.00  0.00     0.293 HD
ENDBRANCH  16  20
BRANCH  17  22
ATOM     22  O   UNL     1      10.487  33.943  56.252  1.00  0.00    -0.504 OA
ATOM     23  H   UNL     1       9.735  33.267  56.183  1.00  0.00     0.293 HD
ENDBRANCH  17  22
ENDBRANCH   1  12
BRANCH   2  24
ATOM     24  O   UNL     1      13.085  29.927  57.666  1.00  0.00    -0.502 OA
ATOM     25  H   UNL     1      13.074  29.202  56.958  1.00  0.00     0.293 HD
ENDBRANCH   2  24
BRANCH   6  26
ATOM     26  O   UNL     1      16.818  28.771  61.286  1.00  0.00    -0.507 OA
ATOM     27  H   UNL     1      17.495  28.048  61.477  1.00  0.00     0.293 HD
ENDBRANCH   6  26
BRANCH   8  28
ATOM     28  O   UNL     1      19.733  32.544  60.732  1.00  0.00    -0.508 OA
ATOM     29  H   UNL     1      20.123  32.464  61.665  1.00  0.00     0.293 HD
ENDBRANCH   8  28
TORSDOF 7
ENDMDL
MODEL 8
REMARK VINA RESULT:    -4.925      6.254      8.797
REMARK INTER + INTRA:          -6.435
REMARK INTER:                  -6.097
REMARK INTRA:                  -0.338
REMARK UNBOUND:                -0.359
REMARK SMILES O=c1c(O)c(-c2cc(O)c(O)c(O)c2)oc2cc(O)cc(O)c12
REMARK SMILES IDX 5 1 3 2 2 3 1 4 23 5 21 6 20 7 18 8 17 9 16 10 15 11 6 12
REMARK SMILES IDX 7 13 8 14 14 15 10 16 12 17 9 18 11 20 13 22 4 24 22 26
REMARK SMILES IDX 19 28
REMARK H PARENT 9 19 11 21 13 23 4 25 22 27 19 29
REMARK Flexibility Score: inf
ROOT
ATOM      1  C   UNL     1      11.930  36.248  48.254  1.00  0.00     0.180 A 
ATOM      2  C   UNL     1      12.596  36.280  47.017  1.00  0.00     0.208 A 
ATOM      3  C   UNL     1      13.939  36.690  46.976  1.00  0.00     0.238 A 
ATOM      4  O   UNL     1      14.505  36.788  45.857  1.00  0.00    -0.285 OA
ATOM      5  C   UNL     1      14.615  37.007  48.179  1.00  0.00     0.111 A 
ATOM      6  C   UNL     1      15.988  37.390  48.261  1.00  0.00     0.134 A 
ATOM      7  C   UNL     1      16.523  37.784  49.495  1.00  0.00     0.093 A 
ATOM      8  C   UNL     1      15.751  37.747  50.659  1.00  0.00     0.123 A 
ATOM      9  C   UNL     1      14.427  37.322  50.597  1.00  0.00     0.094 A 
ATOM     10  C   UNL     1      13.854  36.961  49.376  1.00  0.00     0.146 A 
ATOM     11  O   UNL     1      12.582  36.582  49.360  1.00  0.00    -0.452 OA
ENDROOT
BRANCH   1  12
ATOM     12  C   UNL     1      10.511  35.841  48.375  1.00  0.00     0.029 A 
ATOM     13  C   UNL     1      10.138  34.487  48.398  1.00  0.00     0.062 A 
ATOM     14  C   UNL     1       8.788  34.122  48.489  1.00  0.00     0.162 A 
ATOM     15  C   UNL     1       9.512  36.826  48.408  1.00  0.00     0.062 A 
ATOM     16  C   UNL     1       7.795  35.115  48.545  1.00  0.00     0.200 A 
ATOM     17  C   UNL     1       8.160  36.467  48.500  1.00  0.00     0.162 A 
BRANCH  14  18
ATOM     18  O   UNL     1       8.429  32.775  48.517  1.00  0.00    -0.504 OA
ATOM     19  H   UNL     1       8.555  32.209  49.349  1.00  0.00     0.293 HD
ENDBRANCH  14  18
BRANCH  16  20
ATOM     20  O   UNL     1       6.446  34.776  48.639  1.00  0.00    -0.502 OA
ATOM     21  H   UNL     1       5.916  34.447  47.841  1.00  0.00     0.293 HD
ENDBRANCH  16  20
BRANCH  17  22
ATOM     22  O   UNL     1       7.172  37.449  48.548  1.00  0.00    -0.504 OA
ATOM     23  H   UNL     1       7.222  38.280  47.970  1.00  0.00     0.293 HD
ENDBRANCH  17  22
ENDBRANCH   1  12
BRANCH   2  24
ATOM     24  O   UNL     1      11.932  35.890  45.850  1.00  0.00    -0.502 OA
ATOM     25  H   UNL     1      12.426  35.606  45.012  1.00  0.00     0.293 HD
ENDBRANCH   2  24
BRANCH   6  26
ATOM     26  O   UNL     1      16.871  37.378  47.177  1.00  0.00    -0.507 OA
ATOM     27  H   UNL     1      17.002  36.602  46.546  1.00  0.00     0.293 HD
ENDBRANCH   6  26
BRANCH   8  28
ATOM     28  O   UNL     1      16.296  38.125  51.884  1.00  0.00    -0.508 OA
ATOM     29  H   UNL     1      16.620  37.437  52.555  1.00  0.00     0.293 HD
ENDBRANCH   8  28
TORSDOF 7
ENDMDL
MODEL 9
REMARK VINA RESULT:    -4.908      2.672      7.172
REMARK INTER + INTRA:          -6.414
REMARK INTER:                  -6.061
REMARK INTRA:                  -0.353
REMARK UNBOUND:                -0.359
REMARK SMILES O=c1c(O)c(-c2cc(O)c(O)c(O)c2)oc2cc(O)cc(O)c12
REMARK SMILES IDX 5 1 3 2 2 3 1 4 23 5 21 6 20 7 18 8 17 9 16 10 15 11 6 12
REMARK SMILES IDX 7 13 8 14 14 15 10 16 12 17 9 18 11 20 13 22 4 24 22 26
REMARK SMILES IDX 19 28
REMARK H PARENT 9 19 11 21 13 23 4 25 22 27 19 29
REMARK Flexibility Score: inf
ROOT
ATOM      1  C   UNL     1      15.814  31.818  57.956  1.00  0.00     0.180 A 
ATOM      2  C   UNL     1      14.626  31.659  58.690  1.00  0.00     0.208 A 
ATOM      3  C   UNL     1      13.423  32.151  58.155  1.00  0.00     0.238 A 
ATOM      4  O   UNL     1      12.378  32.072  58.850  1.00  0.00    -0.285 OA
ATOM      5  C   UNL     1      13.414  32.743  56.868  1.00  0.00     0.111 A 
ATOM      6  C   UNL     1      12.247  33.235  56.210  1.00  0.00     0.134 A 
ATOM      7  C   UNL     1      12.375  33.898  54.982  1.00  0.00     0.093 A 
ATOM      8  C   UNL     1      13.618  34.030  54.361  1.00  0.00     0.123 A 
ATOM      9  C   UNL     1      14.755  33.506  54.970  1.00  0.00     0.094 A 
ATOM     10  C   UNL     1      14.666  32.873  56.213  1.00  0.00     0.146 A 
ATOM     11  O   UNL     1      15.778  32.407  56.767  1.00  0.00    -0.452 OA
ENDROOT
BRANCH   1  12
ATOM     12  C   UNL     1      17.121  31.340  58.459  1.00  0.00     0.029 A 
ATOM     13  C   UNL     1      17.601  30.057  58.145  1.00  0.00     0.062 A 
ATOM     14  C   UNL     1      18.830  29.612  58.652  1.00  0.00     0.162 A 
ATOM     15  C   UNL     1      17.872  32.159  59.316  1.00  0.00     0.062 A 
ATOM     16  C   UNL     1      19.586  30.450  59.491  1.00  0.00     0.200 A 
ATOM     17  C   UNL     1      19.103  31.721  59.825  1.00  0.00     0.162 A 
BRANCH  14  18
ATOM     18  O   UNL     1      19.300  28.340  58.329  1.00  0.00    -0.504 OA
ATOM     19  H   UNL     1      18.787  27.504  58.583  1.00  0.00     0.293 HD
ENDBRANCH  14  18
BRANCH  16  20
ATOM     20  O   UNL     1      20.814  30.031  60.004  1.00  0.00    -0.502 OA
ATOM     21  H   UNL     1      20.957  29.094  60.361  1.00  0.00     0.293 HD
ENDBRANCH  16  20
BRANCH  17  22
ATOM     22  O   UNL     1      19.852  32.544  60.663  1.00  0.00    -0.504 OA
ATOM     23  H   UNL     1      20.110  33.486  60.389  1.00  0.00     0.293 HD
ENDBRANCH  17  22
ENDBRANCH   1  12
BRANCH   2  24
ATOM     24  O   UNL     1      14.644  31.003  59.924  1.00  0.00    -0.502 OA
ATOM     25  H   UNL     1      14.813  30.007  60.008  1.00  0.00     0.293 HD
ENDBRANCH   2  24
BRANCH   6  26
ATOM     26  O   UNL     1      10.947  33.077  56.699  1.00  0.00    -0.507 OA
ATOM     27  H   UNL     1      10.466  33.740  57.288  1.00  0.00     0.293 HD
ENDBRANCH   6  26
BRANCH   8  28
ATOM     28  O   UNL     1      13.734  34.677  53.132  1.00  0.00    -0.508 OA
ATOM     29  H   UNL     1      14.638  34.858  52.711  1.00  0.00     0.293 HD
ENDBRANCH   8  28
TORSDOF 7
ENDMDL
