MODEL 1
REMARK VINA RESULT:    -5.402      0.000      0.000
REMARK INTER + INTRA:          -5.402
REMARK INTER:                  -5.402
REMARK INTRA:                   0.000
REMARK UNBOUND:                 0.000
REMARK SMILES CC1=CC(=O)[C@H]2C[C@@H]1C2(C)C
REMARK SMILES IDX 1 1 2 2 3 3 4 4 5 5 6 6 7 7 8 8 9 9 10 10 11 11
REMARK H PARENT
REMARK Flexibility Score: inf
ROOT
ATOM      1  C   UNL     1      -2.642  29.785  32.294  1.00  0.00     0.040 C 
ATOM      2  C   UNL     1      -3.004  29.025  31.056  1.00  0.00    -0.066 C 
ATOM      3  C   UNL     1      -2.074  28.367  30.309  1.00  0.00     0.047 C 
ATOM      4  C   UNL     1      -2.587  27.651  29.095  1.00  0.00     0.159 C 
ATOM      5  O   UNL     1      -1.823  27.043  28.302  1.00  0.00    -0.295 OA
ATOM      6  C   UNL     1      -4.101  27.712  28.889  1.00  0.00     0.067 C 
ATOM      7  C   UNL     1      -4.684  27.412  30.288  1.00  0.00     0.021 C 
ATOM      8  C   UNL     1      -4.473  28.910  30.602  1.00  0.00     0.022 C 
ATOM      9  C   UNL     1      -4.566  29.185  29.073  1.00  0.00    -0.019 C 
ATOM     10  C   UNL     1      -3.683  30.318  28.476  1.00  0.00     0.012 C 
ATOM     11  C   UNL     1      -6.026  29.406  28.600  1.00  0.00     0.012 C 
ENDROOT
TORSDOF 0
ENDMDL
MODEL 2
REMARK VINA RESULT:    -5.246      1.435      1.696
REMARK INTER + INTRA:          -5.246
REMARK INTER:                  -5.246
REMARK INTRA:                   0.000
REMARK UNBOUND:                 0.000
REMARK SMILES CC1=CC(=O)[C@H]2C[C@@H]1C2(C)C
REMARK SMILES IDX 1 1 2 2 3 3 4 4 5 5 6 6 7 7 8 8 9 9 10 10 11 11
REMARK H PARENT
REMARK Flexibility Score: inf
ROOT
ATOM      1  C   UNL     1      -2.609  29.692  32.073  1.00  0.00     0.040 C 
ATOM      2  C   UNL     1      -3.490  29.069  31.037  1.00  0.00    -0.066 C 
ATOM      3  C   UNL     1      -3.572  27.719  30.869  1.00  0.00     0.047 C 
ATOM      4  C   UNL     1      -4.497  27.241  29.789  1.00  0.00     0.159 C 
ATOM      5  O   UNL     1      -4.628  26.021  29.509  1.00  0.00    -0.295 OA
ATOM      6  C   UNL     1      -5.267  28.338  29.055  1.00  0.00     0.067 C 
ATOM      7  C   UNL     1      -5.782  29.259  30.183  1.00  0.00     0.021 C 
ATOM      8  C   UNL     1      -4.395  29.939  30.141  1.00  0.00     0.022 C 
ATOM      9  C   UNL     1      -4.271  29.466  28.664  1.00  0.00    -0.019 C 
ATOM     10  C   UNL     1      -2.864  29.060  28.138  1.00  0.00     0.012 C 
ATOM     11  C   UNL     1      -4.888  30.479  27.666  1.00  0.00     0.012 C 
ENDROOT
TORSDOF 0
ENDMDL
MODEL 3
REMARK VINA RESULT:    -5.060      1.649      3.114
REMARK INTER + INTRA:          -5.060
REMARK INTER:                  -5.060
REMARK INTRA:                   0.000
REMARK UNBOUND:                 0.000
REMARK SMILES CC1=CC(=O)[C@H]2C[C@@H]1C2(C)C
REMARK SMILES IDX 1 1 2 2 3 3 4 4 5 5 6 6 7 7 8 8 9 9 10 10 11 11
REMARK H PARENT
REMARK Flexibility Score: inf
ROOT
ATOM      1  C   UNL     1      -6.124  29.750  28.626  1.00  0.00     0.040 C 
ATOM      2  C   UNL     1      -4.941  29.204  29.362  1.00  0.00    -0.066 C 
ATOM      3  C   UNL     1      -4.375  29.857  30.416  1.00  0.00     0.047 C 
ATOM      4  C   UNL     1      -3.194  29.187  31.052  1.00  0.00     0.159 C 
ATOM      5  O   UNL     1      -2.560  29.710  32.005  1.00  0.00    -0.295 OA
ATOM      6  C   UNL     1      -2.816  27.828  30.464  1.00  0.00     0.067 C 
ATOM      7  C   UNL     1      -4.165  27.087  30.329  1.00  0.00     0.021 C 
ATOM      8  C   UNL     1      -4.341  27.834  28.987  1.00  0.00     0.022 C 
ATOM      9  C   UNL     1      -2.791  27.949  28.914  1.00  0.00    -0.019 C 
ATOM     10  C   UNL     1      -2.179  29.233  28.284  1.00  0.00     0.012 C 
ATOM     11  C   UNL     1      -2.139  26.717  28.236  1.00  0.00     0.012 C 
ENDROOT
TORSDOF 0
ENDMDL
MODEL 4
REMARK VINA RESULT:    -4.936      1.550      2.994
REMARK INTER + INTRA:          -4.936
REMARK INTER:                  -4.936
REMARK INTRA:                   0.000
REMARK UNBOUND:                 0.000
REMARK SMILES CC1=CC(=O)[C@H]2C[C@@H]1C2(C)C
REMARK SMILES IDX 1 1 2 2 3 3 4 4 5 5 6 6 7 7 8 8 9 9 10 10 11 11
REMARK H PARENT
REMARK Flexibility Score: inf
ROOT
ATOM      1  C   UNL     1      -1.713  26.757  27.871  1.00  0.00     0.040 C 
ATOM      2  C   UNL     1      -2.425  27.740  28.747  1.00  0.00    -0.066 C 
ATOM      3  C   UNL     1      -2.015  28.012  30.018  1.00  0.00     0.047 C 
ATOM      4  C   UNL     1      -2.829  29.018  30.774  1.00  0.00     0.159 C 
ATOM      5  O   UNL     1      -2.578  29.323  31.969  1.00  0.00    -0.295 OA
ATOM      6  C   UNL     1      -3.982  29.648  29.993  1.00  0.00     0.067 C 
ATOM      7  C   UNL     1      -3.362  30.004  28.624  1.00  0.00     0.021 C 
ATOM      8  C   UNL     1      -3.634  28.538  28.218  1.00  0.00     0.022 C 
ATOM      9  C   UNL     1      -4.773  28.516  29.278  1.00  0.00    -0.019 C 
ATOM     10  C   UNL     1      -5.029  27.191  30.053  1.00  0.00     0.012 C 
ATOM     11  C   UNL     1      -6.124  29.011  28.704  1.00  0.00     0.012 C 
ENDROOT
TORSDOF 0
ENDMDL
MODEL 5
REMARK VINA RESULT:    -4.706      1.560      3.505
REMARK INTER + INTRA:          -4.706
REMARK INTER:                  -4.706
REMARK INTRA:                   0.000
REMARK UNBOUND:                 0.000
REMARK SMILES CC1=CC(=O)[C@H]2C[C@@H]1C2(C)C
REMARK SMILES IDX 1 1 2 2 3 3 4 4 5 5 6 6 7 7 8 8 9 9 10 10 11 11
REMARK H PARENT
REMARK Flexibility Score: inf
ROOT
ATOM      1  C   UNL     1      -3.840  30.816  27.992  1.00  0.00     0.040 C 
ATOM      2  C   UNL     1      -3.587  29.403  28.419  1.00  0.00    -0.066 C 
ATOM      3  C   UNL     1      -4.552  28.636  29.000  1.00  0.00     0.047 C 
ATOM      4  C   UNL     1      -4.151  27.241  29.376  1.00  0.00     0.159 C 
ATOM      5  O   UNL     1      -4.938  26.450  29.957  1.00  0.00    -0.295 OA
ATOM      6  C   UNL     1      -2.721  26.848  29.003  1.00  0.00     0.067 C 
ATOM      7  C   UNL     1      -2.557  27.353  27.552  1.00  0.00     0.021 C 
ATOM      8  C   UNL     1      -2.222  28.733  28.163  1.00  0.00     0.022 C 
ATOM      9  C   UNL     1      -1.762  27.988  29.449  1.00  0.00    -0.019 C 
ATOM     10  C   UNL     1      -2.016  28.671  30.824  1.00  0.00     0.012 C 
ATOM     11  C   UNL     1      -0.272  27.565  29.385  1.00  0.00     0.012 C 
ENDROOT
TORSDOF 0
ENDMDL
MODEL 6
REMARK VINA RESULT:    -4.559      1.770      3.055
REMARK INTER + INTRA:          -4.559
REMARK INTER:                  -4.559
REMARK INTRA:                   0.000
REMARK UNBOUND:                 0.000
REMARK SMILES CC1=CC(=O)[C@H]2C[C@@H]1C2(C)C
REMARK SMILES IDX 1 1 2 2 3 3 4 4 5 5 6 6 7 7 8 8 9 9 10 10 11 11
REMARK H PARENT
REMARK Flexibility Score: inf
ROOT
ATOM      1  C   UNL     1      -2.818  29.400  32.127  1.00  0.00     0.040 C 
ATOM      2  C   UNL     1      -3.347  29.186  30.743  1.00  0.00    -0.066 C 
ATOM      3  C   UNL     1      -4.594  29.588  30.371  1.00  0.00     0.047 C 
ATOM      4  C   UNL     1      -4.985  29.303  28.952  1.00  0.00     0.159 C 
ATOM      5  O   UNL     1      -6.125  29.588  28.500  1.00  0.00    -0.295 OA
ATOM      6  C   UNL     1      -3.905  28.646  28.094  1.00  0.00     0.067 C 
ATOM      7  C   UNL     1      -2.626  29.452  28.413  1.00  0.00     0.021 C 
ATOM      8  C   UNL     1      -2.467  28.541  29.653  1.00  0.00     0.022 C 
ATOM      9  C   UNL     1      -3.291  27.461  28.893  1.00  0.00    -0.019 C 
ATOM     10  C   UNL     1      -4.247  26.553  29.718  1.00  0.00     0.012 C 
ATOM     11  C   UNL     1      -2.400  26.551  28.010  1.00  0.00     0.012 C 
ENDROOT
TORSDOF 0
ENDMDL
MODEL 7
REMARK VINA RESULT:    -4.183      2.090      3.951
REMARK INTER + INTRA:          -4.183
REMARK INTER:                  -4.183
REMARK INTRA:                   0.000
REMARK UNBOUND:                 0.000
REMARK SMILES CC1=CC(=O)[C@H]2C[C@@H]1C2(C)C
REMARK SMILES IDX 1 1 2 2 3 3 4 4 5 5 6 6 7 7 8 8 9 9 10 10 11 11
REMARK H PARENT
REMARK Flexibility Score: inf
ROOT
ATOM      1  C   UNL     1      -4.615  26.501  29.890  1.00  0.00     0.040 C 
ATOM      2  C   UNL     1      -3.415  27.191  29.321  1.00  0.00    -0.066 C 
ATOM      3  C   UNL     1      -3.518  28.292  28.525  1.00  0.00     0.047 C 
ATOM      4  C   UNL     1      -2.228  28.873  28.028  1.00  0.00     0.159 C 
ATOM      5  O   UNL     1      -2.193  29.863  27.253  1.00  0.00    -0.295 OA
ATOM      6  C   UNL     1      -0.962  28.180  28.530  1.00  0.00     0.067 C 
ATOM      7  C   UNL     1      -1.210  27.988  30.043  1.00  0.00     0.021 C 
ATOM      8  C   UNL     1      -1.990  26.709  29.663  1.00  0.00     0.022 C 
ATOM      9  C   UNL     1      -1.139  26.643  28.363  1.00  0.00    -0.019 C 
ATOM     10  C   UNL     1      -1.817  26.116  27.066  1.00  0.00     0.012 C 
ATOM     11  C   UNL     1       0.189  25.871  28.565  1.00  0.00     0.012 C 
ENDROOT
TORSDOF 0
ENDMDL
MODEL 8
REMARK VINA RESULT:    -4.124      1.764      3.444
REMARK INTER + INTRA:          -4.124
REMARK INTER:                  -4.124
REMARK INTRA:                   0.000
REMARK UNBOUND:                 0.000
REMARK SMILES CC1=CC(=O)[C@H]2C[C@@H]1C2(C)C
REMARK SMILES IDX 1 1 2 2 3 3 4 4 5 5 6 6 7 7 8 8 9 9 10 10 11 11
REMARK H PARENT
REMARK Flexibility Score: inf
ROOT
ATOM      1  C   UNL     1      -1.604  25.934  27.375  1.00  0.00     0.040 C 
ATOM      2  C   UNL     1      -2.367  27.030  28.051  1.00  0.00    -0.066 C 
ATOM      3  C   UNL     1      -2.488  28.274  27.507  1.00  0.00     0.047 C 
ATOM      4  C   UNL     1      -3.281  29.269  28.300  1.00  0.00     0.159 C 
ATOM      5  O   UNL     1      -3.430  30.461  27.925  1.00  0.00    -0.295 OA
ATOM      6  C   UNL     1      -3.896  28.735  29.594  1.00  0.00     0.067 C 
ATOM      7  C   UNL     1      -4.513  27.378  29.186  1.00  0.00     0.021 C 
ATOM      8  C   UNL     1      -3.103  26.776  29.382  1.00  0.00     0.022 C 
ATOM      9  C   UNL     1      -2.805  27.942  30.369  1.00  0.00    -0.019 C 
ATOM     10  C   UNL     1      -1.361  28.519  30.410  1.00  0.00     0.012 C 
ATOM     11  C   UNL     1      -3.237  27.610  31.821  1.00  0.00     0.012 C 
ENDROOT
TORSDOF 0
ENDMDL
MODEL 9
REMARK VINA RESULT:    -3.656      1.253      3.006
REMARK INTER + INTRA:          -3.656
REMARK INTER:                  -3.656
REMARK INTRA:                   0.000
REMARK UNBOUND:                 0.000
REMARK SMILES CC1=CC(=O)[C@H]2C[C@@H]1C2(C)C
REMARK SMILES IDX 1 1 2 2 3 3 4 4 5 5 6 6 7 7 8 8 9 9 10 10 11 11
REMARK H PARENT
REMARK Flexibility Score: inf
ROOT
ATOM      1  C   UNL     1      -6.125  30.292  29.645  1.00  0.00     0.040 C 
ATOM      2  C   UNL     1      -4.827  29.571  29.458  1.00  0.00    -0.066 C 
ATOM      3  C   UNL     1      -4.260  29.399  28.231  1.00  0.00     0.047 C 
ATOM      4  C   UNL     1      -2.959  28.655  28.200  1.00  0.00     0.159 C 
ATOM      5  O   UNL     1      -2.359  28.396  27.125  1.00  0.00    -0.295 OA
ATOM      6  C   UNL     1      -2.414  28.233  29.565  1.00  0.00     0.067 C 
ATOM      7  C   UNL     1      -2.582  29.493  30.444  1.00  0.00     0.021 C 
ATOM      8  C   UNL     1      -4.040  29.033  30.671  1.00  0.00     0.022 C 
ATOM      9  C   UNL     1      -3.567  27.580  30.379  1.00  0.00    -0.019 C 
ATOM     10  C   UNL     1      -4.545  26.624  29.636  1.00  0.00     0.012 C 
ATOM     11  C   UNL     1      -3.056  26.858  31.651  1.00  0.00     0.012 C 
ENDROOT
TORSDOF 0
ENDMDL
