MODEL 1
REMARK VINA RESULT:    -4.482      0.000      0.000
REMARK INTER + INTRA:          -4.976
REMARK INTER:                  -4.875
REMARK INTRA:                  -0.101
REMARK UNBOUND:                -0.101
REMARK SMILES Cc1ccc(C(C)C)cc1O
REMARK SMILES IDX 1 1 2 2 10 3 9 4 5 5 4 6 3 7 11 8 6 10 7 11 8 12
REMARK H PARENT 11 9
REMARK Flexibility Score: inf
ROOT
ATOM      1  C   UNL     1     108.911 107.443 102.106  1.00  0.00     0.048 C 
ATOM      2  C   UNL     1     107.623 106.714 102.371  1.00  0.00    -0.009 A 
ATOM      3  C   UNL     1     106.375 107.365 102.248  1.00  0.00     0.118 A 
ATOM      4  C   UNL     1     105.194 106.658 102.501  1.00  0.00     0.050 A 
ATOM      5  C   UNL     1     105.227 105.306 102.879  1.00  0.00    -0.042 A 
ATOM      6  C   UNL     1     106.473 104.665 103.000  1.00  0.00     0.004 A 
ATOM      7  C   UNL     1     107.656 105.363 102.749  1.00  0.00     0.007 A 
ENDROOT
BRANCH   3   8
ATOM      8  O   UNL     1     106.276 108.707 101.875  1.00  0.00    -0.508 OA
ATOM      9  H   UNL     1     106.865 109.129 101.168  1.00  0.00     0.293 HD
ENDBRANCH   3   8
BRANCH   5  10
ATOM     10  C   UNL     1     103.933 104.560 103.149  1.00  0.00     0.013 C 
ATOM     11  C   UNL     1     103.347 104.948 104.511  1.00  0.00     0.012 C 
ATOM     12  C   UNL     1     102.917 104.791 102.025  1.00  0.00     0.012 C 
ENDBRANCH   5  10
TORSDOF 2
ENDMDL
MODEL 2
REMARK VINA RESULT:    -4.467      1.388      3.160
REMARK INTER + INTRA:          -4.960
REMARK INTER:                  -4.857
REMARK INTRA:                  -0.103
REMARK UNBOUND:                -0.101
REMARK SMILES Cc1ccc(C(C)C)cc1O
REMARK SMILES IDX 1 1 2 2 10 3 9 4 5 5 4 6 3 7 11 8 6 10 7 11 8 12
REMARK H PARENT 11 9
REMARK Flexibility Score: inf
ROOT
ATOM      1  C   UNL     1     104.838 108.972 102.023  1.00  0.00     0.048 C 
ATOM      2  C   UNL     1     105.306 107.593 102.399  1.00  0.00    -0.009 A 
ATOM      3  C   UNL     1     106.675 107.245 102.350  1.00  0.00     0.118 A 
ATOM      4  C   UNL     1     107.077 105.953 102.706  1.00  0.00     0.050 A 
ATOM      5  C   UNL     1     106.140 104.990 103.114  1.00  0.00    -0.042 A 
ATOM      6  C   UNL     1     104.780 105.343 103.160  1.00  0.00     0.004 A 
ATOM      7  C   UNL     1     104.369 106.629 102.806  1.00  0.00     0.007 A 
ENDROOT
BRANCH   3   8
ATOM      8  O   UNL     1     107.654 108.158 101.954  1.00  0.00    -0.508 OA
ATOM      9  H   UNL     1     107.602 108.686 101.092  1.00  0.00     0.293 HD
ENDBRANCH   3   8
BRANCH   5  10
ATOM     10  C   UNL     1     106.601 103.595 103.495  1.00  0.00     0.013 C 
ATOM     11  C   UNL     1     107.735 103.118 102.580  1.00  0.00     0.012 C 
ATOM     12  C   UNL     1     107.019 103.535 104.969  1.00  0.00     0.012 C 
ENDBRANCH   5  10
TORSDOF 2
ENDMDL
MODEL 3
REMARK VINA RESULT:    -4.353      2.184      4.415
REMARK INTER + INTRA:          -4.836
REMARK INTER:                  -4.709
REMARK INTRA:                  -0.127
REMARK UNBOUND:                -0.101
REMARK SMILES Cc1ccc(C(C)C)cc1O
REMARK SMILES IDX 1 1 2 2 10 3 9 4 5 5 4 6 3 7 11 8 6 10 7 11 8 12
REMARK H PARENT 11 9
REMARK Flexibility Score: inf
ROOT
ATOM      1  C   UNL     1     102.659 104.143 102.638  1.00  0.00     0.048 C 
ATOM      2  C   UNL     1     103.891 104.948 102.946  1.00  0.00    -0.009 A 
ATOM      3  C   UNL     1     104.106 105.495 104.232  1.00  0.00     0.118 A 
ATOM      4  C   UNL     1     105.263 106.239 104.487  1.00  0.00     0.050 A 
ATOM      5  C   UNL     1     106.220 106.455 103.482  1.00  0.00    -0.042 A 
ATOM      6  C   UNL     1     106.000 105.909 102.205  1.00  0.00     0.004 A 
ATOM      7  C   UNL     1     104.848 105.165 101.942  1.00  0.00     0.007 A 
ENDROOT
BRANCH   3   8
ATOM      8  O   UNL     1     103.192 105.314 105.272  1.00  0.00    -0.508 OA
ATOM      9  H   UNL     1     102.214 105.106 105.118  1.00  0.00     0.293 HD
ENDBRANCH   3   8
BRANCH   5  10
ATOM     10  C   UNL     1     107.467 107.266 103.782  1.00  0.00     0.013 C 
ATOM     11  C   UNL     1     108.201 106.718 105.012  1.00  0.00     0.012 C 
ATOM     12  C   UNL     1     108.397 107.322 102.565  1.00  0.00     0.012 C 
ENDBRANCH   5  10
TORSDOF 2
ENDMDL
MODEL 4
REMARK VINA RESULT:    -4.343      1.745      2.017
REMARK INTER + INTRA:          -4.825
REMARK INTER:                  -4.698
REMARK INTRA:                  -0.127
REMARK UNBOUND:                -0.101
REMARK SMILES Cc1ccc(C(C)C)cc1O
REMARK SMILES IDX 1 1 2 2 10 3 9 4 5 5 4 6 3 7 11 8 6 10 7 11 8 12
REMARK H PARENT 11 9
REMARK Flexibility Score: inf
ROOT
ATOM      1  C   UNL     1     109.346 107.873 102.627  1.00  0.00     0.048 C 
ATOM      2  C   UNL     1     108.119 107.049 102.907  1.00  0.00    -0.009 A 
ATOM      3  C   UNL     1     107.874 106.515 104.193  1.00  0.00     0.118 A 
ATOM      4  C   UNL     1     106.724 105.753 104.422  1.00  0.00     0.050 A 
ATOM      5  C   UNL     1     105.802 105.507 103.391  1.00  0.00    -0.042 A 
ATOM      6  C   UNL     1     106.052 106.041 102.114  1.00  0.00     0.004 A 
ATOM      7  C   UNL     1     107.198 106.803 101.877  1.00  0.00     0.007 A 
ENDROOT
BRANCH   3   8
ATOM      8  O   UNL     1     108.752 106.725 105.259  1.00  0.00    -0.508 OA
ATOM      9  H   UNL     1     109.377 107.520 105.311  1.00  0.00     0.293 HD
ENDBRANCH   3   8
BRANCH   5  10
ATOM     10  C   UNL     1     104.561 104.677 103.663  1.00  0.00     0.013 C 
ATOM     11  C   UNL     1     103.805 105.200 104.890  1.00  0.00     0.012 C 
ATOM     12  C   UNL     1     103.648 104.629 102.432  1.00  0.00     0.012 C 
ENDBRANCH   5  10
TORSDOF 2
ENDMDL
MODEL 5
REMARK VINA RESULT:    -4.340      2.384      3.285
REMARK INTER + INTRA:          -4.821
REMARK INTER:                  -4.695
REMARK INTRA:                  -0.127
REMARK UNBOUND:                -0.101
REMARK SMILES Cc1ccc(C(C)C)cc1O
REMARK SMILES IDX 1 1 2 2 10 3 9 4 5 5 4 6 3 7 11 8 6 10 7 11 8 12
REMARK H PARENT 11 9
REMARK Flexibility Score: inf
ROOT
ATOM      1  C   UNL     1     104.179 109.347 102.650  1.00  0.00     0.048 C 
ATOM      2  C   UNL     1     104.977 108.110 102.961  1.00  0.00    -0.009 A 
ATOM      3  C   UNL     1     105.506 107.885 104.252  1.00  0.00     0.118 A 
ATOM      4  C   UNL     1     106.243 106.724 104.509  1.00  0.00     0.050 A 
ATOM      5  C   UNL     1     106.469 105.773 103.501  1.00  0.00    -0.042 A 
ATOM      6  C   UNL     1     105.940 106.003 102.218  1.00  0.00     0.004 A 
ATOM      7  C   UNL     1     105.203 107.159 101.953  1.00  0.00     0.007 A 
ENDROOT
BRANCH   3   8
ATOM      8  O   UNL     1     105.314 108.792 105.296  1.00  0.00    -0.508 OA
ATOM      9  H   UNL     1     104.632 108.653 106.032  1.00  0.00     0.293 HD
ENDBRANCH   3   8
BRANCH   5  10
ATOM     10  C   UNL     1     107.272 104.521 103.803  1.00  0.00     0.013 C 
ATOM     11  C   UNL     1     106.756 103.825 105.068  1.00  0.00     0.012 C 
ATOM     12  C   UNL     1     107.273 103.562 102.607  1.00  0.00     0.012 C 
ENDBRANCH   5  10
TORSDOF 2
ENDMDL
MODEL 6
REMARK VINA RESULT:    -4.309      2.775      3.572
REMARK INTER + INTRA:          -4.787
REMARK INTER:                  -4.660
REMARK INTRA:                  -0.127
REMARK UNBOUND:                -0.101
REMARK SMILES Cc1ccc(C(C)C)cc1O
REMARK SMILES IDX 1 1 2 2 10 3 9 4 5 5 4 6 3 7 11 8 6 10 7 11 8 12
REMARK H PARENT 11 9
REMARK Flexibility Score: inf
ROOT
ATOM      1  C   UNL     1     107.869 102.654 102.622  1.00  0.00     0.048 C 
ATOM      2  C   UNL     1     107.047 103.876 102.927  1.00  0.00    -0.009 A 
ATOM      3  C   UNL     1     106.522 104.101 104.220  1.00  0.00     0.118 A 
ATOM      4  C   UNL     1     105.760 105.247 104.472  1.00  0.00     0.050 A 
ATOM      5  C   UNL     1     105.507 106.184 103.457  1.00  0.00    -0.042 A 
ATOM      6  C   UNL     1     106.033 105.954 102.173  1.00  0.00     0.004 A 
ATOM      7  C   UNL     1     106.793 104.812 101.913  1.00  0.00     0.007 A 
ENDROOT
BRANCH   3   8
ATOM      8  O   UNL     1     106.739 103.207 105.271  1.00  0.00    -0.508 OA
ATOM      9  H   UNL     1     106.256 103.269 106.158  1.00  0.00     0.293 HD
ENDBRANCH   3   8
BRANCH   5  10
ATOM     10  C   UNL     1     104.679 107.421 103.754  1.00  0.00     0.013 C 
ATOM     11  C   UNL     1     105.136 108.094 105.053  1.00  0.00     0.012 C 
ATOM     12  C   UNL     1     104.715 108.405 102.579  1.00  0.00     0.012 C 
ENDBRANCH   5  10
TORSDOF 2
ENDMDL
MODEL 7
REMARK VINA RESULT:    -4.085      3.016      3.899
REMARK INTER + INTRA:          -4.544
REMARK INTER:                  -4.443
REMARK INTRA:                  -0.100
REMARK UNBOUND:                -0.101
REMARK SMILES Cc1ccc(C(C)C)cc1O
REMARK SMILES IDX 1 1 2 2 10 3 9 4 5 5 4 6 3 7 11 8 6 10 7 11 8 12
REMARK H PARENT 11 9
REMARK Flexibility Score: inf
ROOT
ATOM      1  C   UNL     1     108.411 107.374 106.807  1.00  0.00     0.048 C 
ATOM      2  C   UNL     1     108.039 106.554 105.602  1.00  0.00    -0.009 A 
ATOM      3  C   UNL     1     107.479 105.265 105.738  1.00  0.00     0.118 A 
ATOM      4  C   UNL     1     107.144 104.527 104.597  1.00  0.00     0.050 A 
ATOM      5  C   UNL     1     107.356 105.049 103.311  1.00  0.00    -0.042 A 
ATOM      6  C   UNL     1     107.914 106.333 103.182  1.00  0.00     0.004 A 
ATOM      7  C   UNL     1     108.252 107.076 104.316  1.00  0.00     0.007 A 
ENDROOT
BRANCH   3   8
ATOM      8  O   UNL     1     107.242 104.691 106.990  1.00  0.00    -0.508 OA
ATOM      9  H   UNL     1     106.328 104.379 107.291  1.00  0.00     0.293 HD
ENDBRANCH   3   8
BRANCH   5  10
ATOM     10  C   UNL     1     106.985 104.230 102.088  1.00  0.00     0.013 C 
ATOM     11  C   UNL     1     107.546 102.807 102.185  1.00  0.00     0.012 C 
ATOM     12  C   UNL     1     105.467 104.212 101.875  1.00  0.00     0.012 C 
ENDBRANCH   5  10
TORSDOF 2
ENDMDL
MODEL 8
REMARK VINA RESULT:    -4.067      2.550      4.739
REMARK INTER + INTRA:          -4.525
REMARK INTER:                  -4.424
REMARK INTRA:                  -0.101
REMARK UNBOUND:                -0.101
REMARK SMILES Cc1ccc(C(C)C)cc1O
REMARK SMILES IDX 1 1 2 2 10 3 9 4 5 5 4 6 3 7 11 8 6 10 7 11 8 12
REMARK H PARENT 11 9
REMARK Flexibility Score: inf
ROOT
ATOM      1  C   UNL     1     103.398 105.054 106.820  1.00  0.00     0.048 C 
ATOM      2  C   UNL     1     104.274 104.817 105.621  1.00  0.00    -0.009 A 
ATOM      3  C   UNL     1     105.629 104.446 105.766  1.00  0.00     0.118 A 
ATOM      4  C   UNL     1     106.418 104.233 104.630  1.00  0.00     0.050 A 
ATOM      5  C   UNL     1     105.884 104.383 103.340  1.00  0.00    -0.042 A 
ATOM      6  C   UNL     1     104.534 104.754 103.203  1.00  0.00     0.004 A 
ATOM      7  C   UNL     1     103.740 104.968 104.331  1.00  0.00     0.007 A 
ENDROOT
BRANCH   3   8
ATOM      8  O   UNL     1     106.219 104.280 107.022  1.00  0.00    -0.508 OA
ATOM      9  H   UNL     1     106.151 103.422 107.555  1.00  0.00     0.293 HD
ENDBRANCH   3   8
BRANCH   5  10
ATOM     10  C   UNL     1     106.759 104.147 102.123  1.00  0.00     0.013 C 
ATOM     11  C   UNL     1     107.693 105.337 101.875  1.00  0.00     0.012 C 
ATOM     12  C   UNL     1     107.552 102.842 102.257  1.00  0.00     0.012 C 
ENDBRANCH   5  10
TORSDOF 2
ENDMDL
MODEL 9
REMARK VINA RESULT:    -3.536      2.671      4.501
REMARK INTER + INTRA:          -3.947
REMARK INTER:                  -3.821
REMARK INTRA:                  -0.126
REMARK UNBOUND:                -0.101
REMARK SMILES Cc1ccc(C(C)C)cc1O
REMARK SMILES IDX 1 1 2 2 10 3 9 4 5 5 4 6 3 7 11 8 6 10 7 11 8 12
REMARK H PARENT 11 9
REMARK Flexibility Score: inf
ROOT
ATOM      1  C   UNL     1     104.664 104.672 107.747  1.00  0.00     0.048 C 
ATOM      2  C   UNL     1     105.170 104.539 106.337  1.00  0.00    -0.009 A 
ATOM      3  C   UNL     1     104.338 104.827 105.231  1.00  0.00     0.118 A 
ATOM      4  C   UNL     1     104.838 104.694 103.931  1.00  0.00     0.050 A 
ATOM      5  C   UNL     1     106.160 104.277 103.704  1.00  0.00    -0.042 A 
ATOM      6  C   UNL     1     106.981 103.992 104.809  1.00  0.00     0.004 A 
ATOM      7  C   UNL     1     106.490 104.122 106.109  1.00  0.00     0.007 A 
ENDROOT
BRANCH   3   8
ATOM      8  O   UNL     1     103.015 105.247 105.392  1.00  0.00    -0.508 OA
ATOM      9  H   UNL     1     102.737 105.950 106.065  1.00  0.00     0.293 HD
ENDBRANCH   3   8
BRANCH   5  10
ATOM     10  C   UNL     1     106.680 104.139 102.285  1.00  0.00     0.013 C 
ATOM     11  C   UNL     1     107.498 105.369 101.875  1.00  0.00     0.012 C 
ATOM     12  C   UNL     1     107.496 102.853 102.118  1.00  0.00     0.012 C 
ENDBRANCH   5  10
TORSDOF 2
ENDMDL
