MODEL 1
REMARK VINA RESULT:    -5.869      0.000      0.000
REMARK INTER + INTRA:          -7.177
REMARK INTER:                  -6.898
REMARK INTRA:                  -0.278
REMARK UNBOUND:                -0.278
REMARK SMILES O=c1cc(-c2ccc(O)c(O)c2)oc2cc(O)cc(O)c12
REMARK SMILES IDX 4 1 3 2 2 3 1 4 21 5 19 6 18 7 16 8 15 9 14 10 13 11 5 12
REMARK SMILES IDX 6 13 7 14 8 15 12 16 10 17 9 18 11 20 20 22 17 24
REMARK H PARENT 9 19 11 21 20 23 17 25
REMARK Flexibility Score: inf
ROOT
ATOM      1  C   UNL     1       3.562  21.220 -15.671  1.00  0.00     0.138 A 
ATOM      2  C   UNL     1       2.747  22.009 -16.493  1.00  0.00     0.100 A 
ATOM      3  C   UNL     1       3.002  23.375 -16.613  1.00  0.00     0.197 A 
ATOM      4  O   UNL     1       2.287  24.045 -17.402  1.00  0.00    -0.289 OA
ATOM      5  C   UNL     1       4.058  23.962 -15.874  1.00  0.00     0.107 A 
ATOM      6  C   UNL     1       4.391  25.350 -15.891  1.00  0.00     0.134 A 
ATOM      7  C   UNL     1       5.521  25.797 -15.195  1.00  0.00     0.093 A 
ATOM      8  C   UNL     1       6.296  24.920 -14.439  1.00  0.00     0.123 A 
ATOM      9  C   UNL     1       5.952  23.570 -14.375  1.00  0.00     0.094 A 
ATOM     10  C   UNL     1       4.851  23.086 -15.086  1.00  0.00     0.146 A 
ATOM     11  O   UNL     1       4.568  21.789 -15.013  1.00  0.00    -0.456 OA
ENDROOT
BRANCH   1  12
ATOM     12  C   UNL     1       3.335  19.763 -15.503  1.00  0.00     0.021 A 
ATOM     13  C   UNL     1       2.111  19.309 -14.984  1.00  0.00     0.016 A 
ATOM     14  C   UNL     1       1.875  17.944 -14.809  1.00  0.00     0.051 A 
ATOM     15  C   UNL     1       2.862  17.008 -15.142  1.00  0.00     0.157 A 
ATOM     16  C   UNL     1       4.330  18.817 -15.822  1.00  0.00     0.062 A 
ATOM     17  C   UNL     1       4.093  17.446 -15.645  1.00  0.00     0.158 A 
BRANCH  15  18
ATOM     18  O   UNL     1       2.630  15.644 -14.970  1.00  0.00    -0.504 OA
ATOM     19  H   UNL     1       3.383  14.969 -15.018  1.00  0.00     0.293 HD
ENDBRANCH  15  18
BRANCH  17  20
ATOM     20  O   UNL     1       5.078  16.512 -15.965  1.00  0.00    -0.504 OA
ATOM     21  H   UNL     1       5.960  16.481 -15.467  1.00  0.00     0.293 HD
ENDBRANCH  17  20
ENDBRANCH   1  12
BRANCH   6  22
ATOM     22  O   UNL     1       3.638  26.329 -16.549  1.00  0.00    -0.507 OA
ATOM     23  H   UNL     1       3.987  27.228 -16.842  1.00  0.00     0.293 HD
ENDBRANCH   6  22
BRANCH   8  24
ATOM     24  O   UNL     1       7.404  25.404 -13.747  1.00  0.00    -0.508 OA
ATOM     25  H   UNL     1       7.371  25.581 -12.750  1.00  0.00     0.293 HD
ENDBRANCH   8  24
TORSDOF 5
ENDMDL
MODEL 2
REMARK VINA RESULT:    -5.768      6.930      7.567
REMARK INTER + INTRA:          -7.058
REMARK INTER:                  -6.774
REMARK INTRA:                  -0.284
REMARK UNBOUND:                -0.278
REMARK SMILES O=c1cc(-c2ccc(O)c(O)c2)oc2cc(O)cc(O)c12
REMARK SMILES IDX 4 1 3 2 2 3 1 4 21 5 19 6 18 7 16 8 15 9 14 10 13 11 5 12
REMARK SMILES IDX 6 13 7 14 8 15 12 16 10 17 9 18 11 20 20 22 17 24
REMARK H PARENT 9 19 11 21 20 23 17 25
REMARK Flexibility Score: inf
ROOT
ATOM      1  C   UNL     1       5.571  20.902  -8.359  1.00  0.00     0.138 A 
ATOM      2  C   UNL     1       6.854  21.423  -8.144  1.00  0.00     0.100 A 
ATOM      3  C   UNL     1       7.074  22.793  -8.277  1.00  0.00     0.197 A 
ATOM      4  O   UNL     1       8.225  23.236  -8.024  1.00  0.00    -0.289 OA
ATOM      5  C   UNL     1       6.011  23.644  -8.664  1.00  0.00     0.107 A 
ATOM      6  C   UNL     1       6.125  25.053  -8.863  1.00  0.00     0.134 A 
ATOM      7  C   UNL     1       4.979  25.805  -9.150  1.00  0.00     0.093 A 
ATOM      8  C   UNL     1       3.735  25.194  -9.299  1.00  0.00     0.123 A 
ATOM      9  C   UNL     1       3.620  23.811  -9.155  1.00  0.00     0.094 A 
ATOM     10  C   UNL     1       4.738  23.038  -8.836  1.00  0.00     0.146 A 
ATOM     11  O   UNL     1       4.581  21.726  -8.690  1.00  0.00    -0.456 OA
ENDROOT
BRANCH   1  12
ATOM     12  C   UNL     1       5.280  19.452  -8.235  1.00  0.00     0.021 A 
ATOM     13  C   UNL     1       4.048  19.037  -7.701  1.00  0.00     0.016 A 
ATOM     14  C   UNL     1       3.752  17.679  -7.566  1.00  0.00     0.051 A 
ATOM     15  C   UNL     1       4.686  16.711  -7.955  1.00  0.00     0.157 A 
ATOM     16  C   UNL     1       6.221  18.472  -8.612  1.00  0.00     0.062 A 
ATOM     17  C   UNL     1       5.923  17.108  -8.475  1.00  0.00     0.158 A 
BRANCH  15  18
ATOM     18  O   UNL     1       4.394  15.354  -7.824  1.00  0.00    -0.504 OA
ATOM     19  H   UNL     1       4.462  14.719  -8.610  1.00  0.00     0.293 HD
ENDBRANCH  15  18
BRANCH  17  20
ATOM     20  O   UNL     1       6.856  16.142  -8.851  1.00  0.00    -0.504 OA
ATOM     21  H   UNL     1       7.843  16.251  -8.650  1.00  0.00     0.293 HD
ENDBRANCH  17  20
ENDBRANCH   1  12
BRANCH   6  22
ATOM     22  O   UNL     1       7.334  25.756  -8.817  1.00  0.00    -0.507 OA
ATOM     23  H   UNL     1       7.643  26.423  -9.506  1.00  0.00     0.293 HD
ENDBRANCH   6  22
BRANCH   8  24
ATOM     24  O   UNL     1       2.619  25.972  -9.599  1.00  0.00    -0.508 OA
ATOM     25  H   UNL     1       2.187  26.570  -8.904  1.00  0.00     0.293 HD
ENDBRANCH   8  24
TORSDOF 5
ENDMDL
MODEL 3
REMARK VINA RESULT:    -5.753      5.847      8.845
REMARK INTER + INTRA:          -7.040
REMARK INTER:                  -6.777
REMARK INTRA:                  -0.263
REMARK UNBOUND:                -0.278
REMARK SMILES O=c1cc(-c2ccc(O)c(O)c2)oc2cc(O)cc(O)c12
REMARK SMILES IDX 4 1 3 2 2 3 1 4 21 5 19 6 18 7 16 8 15 9 14 10 13 11 5 12
REMARK SMILES IDX 6 13 7 14 8 15 12 16 10 17 9 18 11 20 20 22 17 24
REMARK H PARENT 9 19 11 21 20 23 17 25
REMARK Flexibility Score: inf
ROOT
ATOM      1  C   UNL     1       5.433  23.600  -9.990  1.00  0.00     0.138 A 
ATOM      2  C   UNL     1       4.104  23.929  -9.691  1.00  0.00     0.100 A 
ATOM      3  C   UNL     1       3.350  23.086  -8.876  1.00  0.00     0.197 A 
ATOM      4  O   UNL     1       2.178  23.438  -8.582  1.00  0.00    -0.289 OA
ATOM      5  C   UNL     1       3.919  21.886  -8.385  1.00  0.00     0.107 A 
ATOM      6  C   UNL     1       3.236  20.932  -7.572  1.00  0.00     0.134 A 
ATOM      7  C   UNL     1       3.935  19.830  -7.065  1.00  0.00     0.093 A 
ATOM      8  C   UNL     1       5.274  19.616  -7.386  1.00  0.00     0.123 A 
ATOM      9  C   UNL     1       5.939  20.515  -8.219  1.00  0.00     0.094 A 
ATOM     10  C   UNL     1       5.280  21.643  -8.714  1.00  0.00     0.146 A 
ATOM     11  O   UNL     1       5.955  22.484  -9.490  1.00  0.00    -0.456 OA
ENDROOT
BRANCH   1  12
ATOM     12  C   UNL     1       6.281  24.458 -10.855  1.00  0.00     0.021 A 
ATOM     13  C   UNL     1       7.061  25.472 -10.273  1.00  0.00     0.016 A 
ATOM     14  C   UNL     1       7.861  26.297 -11.065  1.00  0.00     0.051 A 
ATOM     15  C   UNL     1       7.889  26.131 -12.455  1.00  0.00     0.157 A 
ATOM     16  C   UNL     1       6.303  24.305 -12.256  1.00  0.00     0.062 A 
ATOM     17  C   UNL     1       7.106  25.136 -13.051  1.00  0.00     0.158 A 
BRANCH  15  18
ATOM     18  O   UNL     1       8.688  26.952 -13.249  1.00  0.00    -0.504 OA
ATOM     19  H   UNL     1       8.448  27.921 -13.417  1.00  0.00     0.293 HD
ENDBRANCH  15  18
BRANCH  17  20
ATOM     20  O   UNL     1       7.127  24.979 -14.437  1.00  0.00    -0.504 OA
ATOM     21  H   UNL     1       6.277  25.011 -14.987  1.00  0.00     0.293 HD
ENDBRANCH  17  20
ENDBRANCH   1  12
BRANCH   6  22
ATOM     22  O   UNL     1       1.875  21.005  -7.255  1.00  0.00    -0.507 OA
ATOM     23  H   UNL     1       1.429  20.510  -6.499  1.00  0.00     0.293 HD
ENDBRANCH   6  22
BRANCH   8  24
ATOM     24  O   UNL     1       5.933  18.500  -6.875  1.00  0.00    -0.508 OA
ATOM     25  H   UNL     1       6.804  18.169  -7.274  1.00  0.00     0.293 HD
ENDBRANCH   8  24
TORSDOF 5
ENDMDL
MODEL 4
REMARK VINA RESULT:    -5.742      5.875      7.157
REMARK INTER + INTRA:          -7.027
REMARK INTER:                  -6.762
REMARK INTRA:                  -0.265
REMARK UNBOUND:                -0.278
REMARK SMILES O=c1cc(-c2ccc(O)c(O)c2)oc2cc(O)cc(O)c12
REMARK SMILES IDX 4 1 3 2 2 3 1 4 21 5 19 6 18 7 16 8 15 9 14 10 13 11 5 12
REMARK SMILES IDX 6 13 7 14 8 15 12 16 10 17 9 18 11 20 20 22 17 24
REMARK H PARENT 9 19 11 21 20 23 17 25
REMARK Flexibility Score: inf
ROOT
ATOM      1  C   UNL     1       6.381  22.434  -9.096  1.00  0.00     0.138 A 
ATOM      2  C   UNL     1       6.395  23.530  -8.223  1.00  0.00     0.100 A 
ATOM      3  C   UNL     1       6.649  24.808  -8.723  1.00  0.00     0.197 A 
ATOM      4  O   UNL     1       6.599  25.778  -7.923  1.00  0.00    -0.289 OA
ATOM      5  C   UNL     1       6.928  24.983 -10.100  1.00  0.00     0.107 A 
ATOM      6  C   UNL     1       7.234  26.233 -10.716  1.00  0.00     0.134 A 
ATOM      7  C   UNL     1       7.395  26.297 -12.106  1.00  0.00     0.093 A 
ATOM      8  C   UNL     1       7.317  25.149 -12.894  1.00  0.00     0.123 A 
ATOM      9  C   UNL     1       7.067  23.914 -12.297  1.00  0.00     0.094 A 
ATOM     10  C   UNL     1       6.868  23.822 -10.917  1.00  0.00     0.146 A 
ATOM     11  O   UNL     1       6.614  22.629 -10.390  1.00  0.00    -0.456 OA
ENDROOT
BRANCH   1  12
ATOM     12  C   UNL     1       6.121  21.052  -8.619  1.00  0.00     0.021 A 
ATOM     13  C   UNL     1       7.121  20.075  -8.751  1.00  0.00     0.016 A 
ATOM     14  C   UNL     1       6.899  18.766  -8.318  1.00  0.00     0.051 A 
ATOM     15  C   UNL     1       5.669  18.409  -7.753  1.00  0.00     0.157 A 
ATOM     16  C   UNL     1       4.880  20.683  -8.063  1.00  0.00     0.062 A 
ATOM     17  C   UNL     1       4.656  19.367  -7.629  1.00  0.00     0.158 A 
BRANCH  15  18
ATOM     18  O   UNL     1       5.443  17.103  -7.318  1.00  0.00    -0.504 OA
ATOM     19  H   UNL     1       4.589  16.845  -6.840  1.00  0.00     0.293 HD
ENDBRANCH  15  18
BRANCH  17  20
ATOM     20  O   UNL     1       3.428  19.006  -7.077  1.00  0.00    -0.504 OA
ATOM     21  H   UNL     1       3.259  19.058  -6.079  1.00  0.00     0.293 HD
ENDBRANCH  17  20
ENDBRANCH   1  12
BRANCH   6  22
ATOM     22  O   UNL     1       7.414  27.430 -10.015  1.00  0.00    -0.507 OA
ATOM     23  H   UNL     1       7.702  28.305 -10.425  1.00  0.00     0.293 HD
ENDBRANCH   6  22
BRANCH   8  24
ATOM     24  O   UNL     1       7.497  25.248 -14.272  1.00  0.00    -0.508 OA
ATOM     25  H   UNL     1       6.710  25.308 -14.907  1.00  0.00     0.293 HD
ENDBRANCH   8  24
TORSDOF 5
ENDMDL
MODEL 5
REMARK VINA RESULT:    -5.677      1.129      1.458
REMARK INTER + INTRA:          -6.950
REMARK INTER:                  -6.679
REMARK INTRA:                  -0.271
REMARK UNBOUND:                -0.278
REMARK SMILES O=c1cc(-c2ccc(O)c(O)c2)oc2cc(O)cc(O)c12
REMARK SMILES IDX 4 1 3 2 2 3 1 4 21 5 19 6 18 7 16 8 15 9 14 10 13 11 5 12
REMARK SMILES IDX 6 13 7 14 8 15 12 16 10 17 9 18 11 20 20 22 17 24
REMARK H PARENT 9 19 11 21 20 23 17 25
REMARK Flexibility Score: inf
ROOT
ATOM      1  C   UNL     1       4.167  22.240 -15.358  1.00  0.00     0.138 A 
ATOM      2  C   UNL     1       3.714  23.198 -16.275  1.00  0.00     0.100 A 
ATOM      3  C   UNL     1       4.235  24.492 -16.236  1.00  0.00     0.197 A 
ATOM      4  O   UNL     1       3.849  25.312 -17.108  1.00  0.00    -0.289 OA
ATOM      5  C   UNL     1       5.189  24.838 -15.248  1.00  0.00     0.107 A 
ATOM      6  C   UNL     1       5.765  26.134 -15.091  1.00  0.00     0.134 A 
ATOM      7  C   UNL     1       6.773  26.331 -14.139  1.00  0.00     0.093 A 
ATOM      8  C   UNL     1       7.186  25.296 -13.302  1.00  0.00     0.123 A 
ATOM      9  C   UNL     1       6.595  24.037 -13.413  1.00  0.00     0.094 A 
ATOM     10  C   UNL     1       5.611  23.799 -14.376  1.00  0.00     0.146 A 
ATOM     11  O   UNL     1       5.087  22.581 -14.461  1.00  0.00    -0.456 OA
ENDROOT
BRANCH   1  12
ATOM     12  C   UNL     1       3.645  20.850 -15.350  1.00  0.00     0.021 A 
ATOM     13  C   UNL     1       2.385  20.587 -14.786  1.00  0.00     0.016 A 
ATOM     14  C   UNL     1       1.875  19.288 -14.759  1.00  0.00     0.051 A 
ATOM     15  C   UNL     1       2.619  18.226 -15.288  1.00  0.00     0.157 A 
ATOM     16  C   UNL     1       4.395  19.775 -15.868  1.00  0.00     0.062 A 
ATOM     17  C   UNL     1       3.882  18.470 -15.839  1.00  0.00     0.158 A 
BRANCH  15  18
ATOM     18  O   UNL     1       2.112  16.927 -15.265  1.00  0.00    -0.504 OA
ATOM     19  H   UNL     1       2.724  16.120 -15.279  1.00  0.00     0.293 HD
ENDBRANCH  15  18
BRANCH  17  20
ATOM     20  O   UNL     1       4.626  17.408 -16.355  1.00  0.00    -0.504 OA
ATOM     21  H   UNL     1       5.160  16.793 -15.752  1.00  0.00     0.293 HD
ENDBRANCH  17  20
ENDBRANCH   1  12
BRANCH   6  22
ATOM     22  O   UNL     1       5.371  27.261 -15.821  1.00  0.00    -0.507 OA
ATOM     23  H   UNL     1       5.511  28.216 -15.532  1.00  0.00     0.293 HD
ENDBRANCH   6  22
BRANCH   8  24
ATOM     24  O   UNL     1       8.181  25.532 -12.356  1.00  0.00    -0.508 OA
ATOM     25  H   UNL     1       7.976  25.982 -11.472  1.00  0.00     0.293 HD
ENDBRANCH   8  24
TORSDOF 5
ENDMDL
MODEL 6
REMARK VINA RESULT:    -5.663      1.163      2.654
REMARK INTER + INTRA:          -6.934
REMARK INTER:                  -6.670
REMARK INTRA:                  -0.263
REMARK UNBOUND:                -0.278
REMARK SMILES O=c1cc(-c2ccc(O)c(O)c2)oc2cc(O)cc(O)c12
REMARK SMILES IDX 4 1 3 2 2 3 1 4 21 5 19 6 18 7 16 8 15 9 14 10 13 11 5 12
REMARK SMILES IDX 6 13 7 14 8 15 12 16 10 17 9 18 11 20 20 22 17 24
REMARK H PARENT 9 19 11 21 20 23 17 25
REMARK Flexibility Score: inf
ROOT
ATOM      1  C   UNL     1       4.053  20.897 -15.561  1.00  0.00     0.138 A 
ATOM      2  C   UNL     1       5.173  21.271 -14.807  1.00  0.00     0.100 A 
ATOM      3  C   UNL     1       5.549  22.613 -14.746  1.00  0.00     0.197 A 
ATOM      4  O   UNL     1       6.526  22.922 -14.016  1.00  0.00    -0.289 OA
ATOM      5  C   UNL     1       4.819  23.582 -15.475  1.00  0.00     0.107 A 
ATOM      6  C   UNL     1       5.129  24.975 -15.515  1.00  0.00     0.134 A 
ATOM      7  C   UNL     1       4.274  25.853 -16.193  1.00  0.00     0.093 A 
ATOM      8  C   UNL     1       3.154  25.384 -16.878  1.00  0.00     0.123 A 
ATOM      9  C   UNL     1       2.868  24.019 -16.887  1.00  0.00     0.094 A 
ATOM     10  C   UNL     1       3.682  23.121 -16.192  1.00  0.00     0.146 A 
ATOM     11  O   UNL     1       3.365  21.830 -16.210  1.00  0.00    -0.456 OA
ENDROOT
BRANCH   1  12
ATOM     12  C   UNL     1       3.610  19.484 -15.664  1.00  0.00     0.021 A 
ATOM     13  C   UNL     1       2.383  19.100 -15.098  1.00  0.00     0.016 A 
ATOM     14  C   UNL     1       1.947  17.776 -15.174  1.00  0.00     0.051 A 
ATOM     15  C   UNL     1       2.734  16.809 -15.811  1.00  0.00     0.157 A 
ATOM     16  C   UNL     1       4.405  18.503 -16.291  1.00  0.00     0.062 A 
ATOM     17  C   UNL     1       3.967  17.172 -16.366  1.00  0.00     0.158 A 
BRANCH  15  18
ATOM     18  O   UNL     1       2.302  15.486 -15.891  1.00  0.00    -0.504 OA
ATOM     19  H   UNL     1       1.671  15.093 -15.203  1.00  0.00     0.293 HD
ENDBRANCH  15  18
BRANCH  17  20
ATOM     20  O   UNL     1       4.755  16.204 -16.989  1.00  0.00    -0.504 OA
ATOM     21  H   UNL     1       5.408  16.446 -17.725  1.00  0.00     0.293 HD
ENDBRANCH  17  20
ENDBRANCH   1  12
BRANCH   6  22
ATOM     22  O   UNL     1       6.267  25.542 -14.933  1.00  0.00    -0.507 OA
ATOM     23  H   UNL     1       7.202  25.174 -15.010  1.00  0.00     0.293 HD
ENDBRANCH   6  22
BRANCH   8  24
ATOM     24  O   UNL     1       2.335  26.285 -17.554  1.00  0.00    -0.508 OA
ATOM     25  H   UNL     1       1.941  26.066 -18.462  1.00  0.00     0.293 HD
ENDBRANCH   8  24
TORSDOF 5
ENDMDL
MODEL 7
REMARK VINA RESULT:    -5.656      5.361     10.240
REMARK INTER + INTRA:          -6.927
REMARK INTER:                  -6.645
REMARK INTRA:                  -0.282
REMARK UNBOUND:                -0.278
REMARK SMILES O=c1cc(-c2ccc(O)c(O)c2)oc2cc(O)cc(O)c12
REMARK SMILES IDX 4 1 3 2 2 3 1 4 21 5 19 6 18 7 16 8 15 9 14 10 13 11 5 12
REMARK SMILES IDX 6 13 7 14 8 15 12 16 10 17 9 18 11 20 20 22 17 24
REMARK H PARENT 9 19 11 21 20 23 17 25
REMARK Flexibility Score: inf
ROOT
ATOM      1  C   UNL     1       7.530  28.114 -12.831  1.00  0.00     0.138 A 
ATOM      2  C   UNL     1       6.965  27.637 -14.022  1.00  0.00     0.100 A 
ATOM      3  C   UNL     1       6.747  26.268 -14.183  1.00  0.00     0.197 A 
ATOM      4  O   UNL     1       6.187  25.878 -15.240  1.00  0.00    -0.289 OA
ATOM      5  C   UNL     1       7.131  25.368 -13.161  1.00  0.00     0.107 A 
ATOM      6  C   UNL     1       6.989  23.950 -13.228  1.00  0.00     0.134 A 
ATOM      7  C   UNL     1       7.315  23.169 -12.111  1.00  0.00     0.093 A 
ATOM      8  C   UNL     1       7.830  23.748 -10.953  1.00  0.00     0.123 A 
ATOM      9  C   UNL     1       8.020  25.129 -10.893  1.00  0.00     0.094 A 
ATOM     10  C   UNL     1       7.673  25.938 -11.977  1.00  0.00     0.146 A 
ATOM     11  O   UNL     1       7.853  27.251 -11.873  1.00  0.00    -0.456 OA
ENDROOT
BRANCH   1  12
ATOM     12  C   UNL     1       7.788  29.558 -12.607  1.00  0.00     0.021 A 
ATOM     13  C   UNL     1       7.541  30.116 -11.341  1.00  0.00     0.016 A 
ATOM     14  C   UNL     1       7.768  31.474 -11.105  1.00  0.00     0.051 A 
ATOM     15  C   UNL     1       8.238  32.300 -12.133  1.00  0.00     0.157 A 
ATOM     16  C   UNL     1       8.247  30.398 -13.641  1.00  0.00     0.062 A 
ATOM     17  C   UNL     1       8.473  31.762 -13.404  1.00  0.00     0.158 A 
BRANCH  15  18
ATOM     18  O   UNL     1       8.467  33.655 -11.902  1.00  0.00    -0.504 OA
ATOM     19  H   UNL     1       7.707  34.323 -11.869  1.00  0.00     0.293 HD
ENDBRANCH  15  18
BRANCH  17  20
ATOM     20  O   UNL     1       8.930  32.590 -14.429  1.00  0.00    -0.504 OA
ATOM     21  H   UNL     1       9.288  33.519 -14.241  1.00  0.00     0.293 HD
ENDBRANCH  17  20
ENDBRANCH   1  12
BRANCH   6  22
ATOM     22  O   UNL     1       6.558  23.258 -14.365  1.00  0.00    -0.507 OA
ATOM     23  H   UNL     1       7.164  22.830 -15.047  1.00  0.00     0.293 HD
ENDBRANCH   6  22
BRANCH   8  24
ATOM     24  O   UNL     1       8.157  22.939  -9.867  1.00  0.00    -0.508 OA
ATOM     25  H   UNL     1       8.636  22.054  -9.991  1.00  0.00     0.293 HD
ENDBRANCH   8  24
TORSDOF 5
ENDMDL
MODEL 8
REMARK VINA RESULT:    -5.626      5.004      7.127
REMARK INTER + INTRA:          -6.890
REMARK INTER:                  -6.600
REMARK INTRA:                  -0.290
REMARK UNBOUND:                -0.278
REMARK SMILES O=c1cc(-c2ccc(O)c(O)c2)oc2cc(O)cc(O)c12
REMARK SMILES IDX 4 1 3 2 2 3 1 4 21 5 19 6 18 7 16 8 15 9 14 10 13 11 5 12
REMARK SMILES IDX 6 13 7 14 8 15 12 16 10 17 9 18 11 20 20 22 17 24
REMARK H PARENT 9 19 11 21 20 23 17 25
REMARK Flexibility Score: inf
ROOT
ATOM      1  C   UNL     1       6.845  27.041 -13.516  1.00  0.00     0.138 A 
ATOM      2  C   UNL     1       5.818  27.335 -14.423  1.00  0.00     0.100 A 
ATOM      3  C   UNL     1       5.614  28.653 -14.832  1.00  0.00     0.197 A 
ATOM      4  O   UNL     1       4.720  28.876 -15.689  1.00  0.00    -0.289 OA
ATOM      5  C   UNL     1       6.420  29.689 -14.301  1.00  0.00     0.107 A 
ATOM      6  C   UNL     1       6.282  31.073 -14.620  1.00  0.00     0.134 A 
ATOM      7  C   UNL     1       7.204  31.994 -14.107  1.00  0.00     0.093 A 
ATOM      8  C   UNL     1       8.222  31.592 -13.244  1.00  0.00     0.123 A 
ATOM      9  C   UNL     1       8.336  30.248 -12.887  1.00  0.00     0.094 A 
ATOM     10  C   UNL     1       7.454  29.299 -13.408  1.00  0.00     0.146 A 
ATOM     11  O   UNL     1       7.609  28.027 -13.057  1.00  0.00    -0.456 OA
ENDROOT
BRANCH   1  12
ATOM     12  C   UNL     1       7.105  25.658 -13.043  1.00  0.00     0.021 A 
ATOM     13  C   UNL     1       7.744  25.458 -11.808  1.00  0.00     0.016 A 
ATOM     14  C   UNL     1       8.007  24.168 -11.344  1.00  0.00     0.051 A 
ATOM     15  C   UNL     1       7.645  23.054 -12.110  1.00  0.00     0.157 A 
ATOM     16  C   UNL     1       6.755  24.533 -13.817  1.00  0.00     0.062 A 
ATOM     17  C   UNL     1       7.021  23.237 -13.350  1.00  0.00     0.158 A 
BRANCH  15  18
ATOM     18  O   UNL     1       7.904  21.764 -11.650  1.00  0.00    -0.504 OA
ATOM     19  H   UNL     1       8.000  21.564 -10.662  1.00  0.00     0.293 HD
ENDBRANCH  15  18
BRANCH  17  20
ATOM     20  O   UNL     1       6.672  22.126 -14.117  1.00  0.00    -0.504 OA
ATOM     21  H   UNL     1       7.350  21.649 -14.700  1.00  0.00     0.293 HD
ENDBRANCH  17  20
ENDBRANCH   1  12
BRANCH   6  22
ATOM     22  O   UNL     1       5.252  31.597 -15.408  1.00  0.00    -0.507 OA
ATOM     23  H   UNL     1       4.268  31.508 -15.211  1.00  0.00     0.293 HD
ENDBRANCH   6  22
BRANCH   8  24
ATOM     24  O   UNL     1       9.111  32.539 -12.741  1.00  0.00    -0.508 OA
ATOM     25  H   UNL     1       8.785  33.381 -12.281  1.00  0.00     0.293 HD
ENDBRANCH   8  24
TORSDOF 5
ENDMDL
MODEL 9
REMARK VINA RESULT:    -5.593      6.821      7.498
REMARK INTER + INTRA:          -6.852
REMARK INTER:                  -6.563
REMARK INTRA:                  -0.289
REMARK UNBOUND:                -0.278
REMARK SMILES O=c1cc(-c2ccc(O)c(O)c2)oc2cc(O)cc(O)c12
REMARK SMILES IDX 4 1 3 2 2 3 1 4 21 5 19 6 18 7 16 8 15 9 14 10 13 11 5 12
REMARK SMILES IDX 6 13 7 14 8 15 12 16 10 17 9 18 11 20 20 22 17 24
REMARK H PARENT 9 19 11 21 20 23 17 25
REMARK Flexibility Score: inf
ROOT
ATOM      1  C   UNL     1       5.174  21.037  -8.205  1.00  0.00     0.138 A 
ATOM      2  C   UNL     1       4.381  21.890  -7.427  1.00  0.00     0.100 A 
ATOM      3  C   UNL     1       4.530  23.272  -7.547  1.00  0.00     0.197 A 
ATOM      4  O   UNL     1       3.764  24.011  -6.875  1.00  0.00    -0.289 OA
ATOM      5  C   UNL     1       5.506  23.802  -8.425  1.00  0.00     0.107 A 
ATOM      6  C   UNL     1       5.770  25.193  -8.605  1.00  0.00     0.134 A 
ATOM      7  C   UNL     1       6.693  25.600  -9.576  1.00  0.00     0.093 A 
ATOM      8  C   UNL     1       7.401  24.668 -10.333  1.00  0.00     0.123 A 
ATOM      9  C   UNL     1       7.187  23.304 -10.132  1.00  0.00     0.094 A 
ATOM     10  C   UNL     1       6.248  22.867  -9.195  1.00  0.00     0.146 A 
ATOM     11  O   UNL     1       6.061  21.559  -9.046  1.00  0.00    -0.456 OA
ENDROOT
BRANCH   1  12
ATOM     12  C   UNL     1       5.061  19.559  -8.116  1.00  0.00     0.021 A 
ATOM     13  C   UNL     1       6.173  18.760  -8.431  1.00  0.00     0.016 A 
ATOM     14  C   UNL     1       6.090  17.368  -8.363  1.00  0.00     0.051 A 
ATOM     15  C   UNL     1       4.892  16.749  -7.987  1.00  0.00     0.157 A 
ATOM     16  C   UNL     1       3.854  18.930  -7.752  1.00  0.00     0.062 A 
ATOM     17  C   UNL     1       3.771  17.531  -7.686  1.00  0.00     0.158 A 
BRANCH  15  18
ATOM     18  O   UNL     1       4.807  15.359  -7.917  1.00  0.00    -0.504 OA
ATOM     19  H   UNL     1       4.668  14.881  -7.035  1.00  0.00     0.293 HD
ENDBRANCH  15  18
BRANCH  17  20
ATOM     20  O   UNL     1       2.576  16.911  -7.323  1.00  0.00    -0.504 OA
ATOM     21  H   UNL     1       1.688  17.198  -7.718  1.00  0.00     0.293 HD
ENDBRANCH  17  20
ENDBRANCH   1  12
BRANCH   6  22
ATOM     22  O   UNL     1       5.178  26.208  -7.846  1.00  0.00    -0.507 OA
ATOM     23  H   UNL     1       5.640  27.054  -7.549  1.00  0.00     0.293 HD
ENDBRANCH   6  22
BRANCH   8  24
ATOM     24  O   UNL     1       8.323  25.109 -11.280  1.00  0.00    -0.508 OA
ATOM     25  H   UNL     1       9.149  25.632 -11.013  1.00  0.00     0.293 HD
ENDBRANCH   8  24
TORSDOF 5
ENDMDL
