MODEL 1
REMARK VINA RESULT:    -3.116      0.000      0.000
REMARK INTER + INTRA:          -9.672
REMARK INTER:                  -6.760
REMARK INTRA:                  -2.912
REMARK UNBOUND:                -2.912
REMARK SMILES CCCCCCCCCCCCCCCCCCCCCC(=O)[O-]
REMARK SMILES IDX 12 1 11 2 10 3 9 4 8 5 7 6 6 7 5 8 4 9 3 10 2 11 1 12 13 13
REMARK SMILES IDX 14 14 15 15 16 16 17 17 18 18 19 19 20 20 21 21 22 22 23 23
REMARK SMILES IDX 24 24
REMARK H PARENT
REMARK Flexibility Score: inf
ROOT
ATOM      1  C   UNL     1       0.498   6.606   3.349  1.00  0.00     0.000 C 
ENDROOT
BRANCH   1   2
ATOM      2  C   UNL     1      -0.660   6.823   4.340  1.00  0.00     0.000 C 
BRANCH   2   3
ATOM      3  C   UNL     1      -1.423   5.547   4.745  1.00  0.00     0.000 C 
BRANCH   3   4
ATOM      4  C   UNL     1      -2.619   5.213   3.827  1.00  0.00    -0.000 C 
BRANCH   4   5
ATOM      5  C   UNL     1      -3.155   6.448   3.081  1.00  0.00    -0.000 C 
BRANCH   5   6
ATOM      6  C   UNL     1      -3.039   6.318   1.555  1.00  0.00    -0.000 C 
BRANCH   6   7
ATOM      7  C   UNL     1      -2.319   5.027   1.122  1.00  0.00    -0.000 C 
BRANCH   7   8
ATOM      8  C   UNL     1      -2.677   4.618  -0.318  1.00  0.00    -0.000 C 
BRANCH   8   9
ATOM      9  C   UNL     1      -3.060   5.811  -1.213  1.00  0.00    -0.000 C 
BRANCH   9  10
ATOM     10  C   UNL     1      -1.979   6.120  -2.265  1.00  0.00    -0.000 C 
BRANCH  10  11
ATOM     11  C   UNL     1      -0.712   6.723  -1.637  1.00  0.00    -0.003 C 
ATOM     12  C   UNL     1      -0.878   8.203  -1.293  1.00  0.00     0.004 C 
ENDBRANCH  10  11
ENDBRANCH   9  10
ENDBRANCH   8   9
ENDBRANCH   7   8
ENDBRANCH   6   7
ENDBRANCH   5   6
ENDBRANCH   4   5
ENDBRANCH   3   4
ENDBRANCH   2   3
ENDBRANCH   1   2
BRANCH   1  13
ATOM     13  C   UNL     1       0.504   7.551   2.129  1.00  0.00     0.000 C 
BRANCH  13  14
ATOM     14  C   UNL     1       1.827   7.602   1.346  1.00  0.00     0.000 C 
BRANCH  14  15
ATOM     15  C   UNL     1       3.043   7.216   2.205  1.00  0.00     0.000 C 
BRANCH  15  16
ATOM     16  C   UNL     1       4.161   6.553   1.384  1.00  0.00     0.000 C 
BRANCH  16  17
ATOM     17  C   UNL     1       4.520   5.146   1.894  1.00  0.00     0.000 C 
BRANCH  17  18
ATOM     18  C   UNL     1       3.880   4.845   3.267  1.00  0.00     0.000 C 
BRANCH  18  19
ATOM     19  C   UNL     1       3.230   3.453   3.351  1.00  0.00     0.000 C 
BRANCH  19  20
ATOM     20  C   UNL     1       2.930   3.019   4.795  1.00  0.00     0.006 C 
BRANCH  20  21
ATOM     21  C   UNL     1       1.646   3.661   5.338  1.00  0.00     0.053 C 
BRANCH  21  22
ATOM     22  C   UNL     1       0.864   2.705   6.185  1.00  0.00     0.041 C 
ATOM     23  O   UNL     1       0.925   1.466   5.966  1.00  0.00    -0.550 OA
ATOM     24  O   UNL     1       0.089   3.180   7.235  1.00  0.00    -0.550 OA
ENDBRANCH  21  22
ENDBRANCH  20  21
ENDBRANCH  19  20
ENDBRANCH  18  19
ENDBRANCH  17  18
ENDBRANCH  16  17
ENDBRANCH  15  16
ENDBRANCH  14  15
ENDBRANCH  13  14
ENDBRANCH   1  13
TORSDOF 20
ENDMDL
MODEL 2
REMARK VINA RESULT:    -3.082      2.961      5.270
REMARK INTER + INTRA:          -9.598
REMARK INTER:                  -6.834
REMARK INTRA:                  -2.764
REMARK UNBOUND:                -2.912
REMARK SMILES CCCCCCCCCCCCCCCCCCCCCC(=O)[O-]
REMARK SMILES IDX 12 1 11 2 10 3 9 4 8 5 7 6 6 7 5 8 4 9 3 10 2 11 1 12 13 13
REMARK SMILES IDX 14 14 15 15 16 16 17 17 18 18 19 19 20 20 21 21 22 22 23 23
REMARK SMILES IDX 24 24
REMARK H PARENT
REMARK Flexibility Score: inf
ROOT
ATOM      1  C   UNL     1       1.701   7.824   1.183  1.00  0.00     0.000 C 
ENDROOT
BRANCH   1   2
ATOM      2  C   UNL     1       1.379   8.115  -0.294  1.00  0.00     0.000 C 
BRANCH   2   3
ATOM      3  C   UNL     1      -0.112   8.016  -0.670  1.00  0.00     0.000 C 
BRANCH   3   4
ATOM      4  C   UNL     1      -0.364   7.497  -2.103  1.00  0.00    -0.000 C 
BRANCH   4   5
ATOM      5  C   UNL     1      -0.987   6.090  -2.123  1.00  0.00    -0.000 C 
BRANCH   5   6
ATOM      6  C   UNL     1      -2.331   6.024  -1.382  1.00  0.00    -0.000 C 
BRANCH   6   7
ATOM      7  C   UNL     1      -2.522   4.701  -0.617  1.00  0.00    -0.000 C 
BRANCH   7   8
ATOM      8  C   UNL     1      -2.472   4.901   0.909  1.00  0.00    -0.000 C 
BRANCH   8   9
ATOM      9  C   UNL     1      -2.959   6.292   1.357  1.00  0.00    -0.000 C 
BRANCH   9  10
ATOM     10  C   UNL     1      -2.883   6.471   2.883  1.00  0.00    -0.000 C 
BRANCH  10  11
ATOM     11  C   UNL     1      -3.286   5.194   3.639  1.00  0.00    -0.003 C 
ATOM     12  C   UNL     1      -4.257   5.476   4.786  1.00  0.00     0.004 C 
ENDBRANCH  10  11
ENDBRANCH   9  10
ENDBRANCH   8   9
ENDBRANCH   7   8
ENDBRANCH   6   7
ENDBRANCH   5   6
ENDBRANCH   4   5
ENDBRANCH   3   4
ENDBRANCH   2   3
ENDBRANCH   1   2
BRANCH   1  13
ATOM     13  C   UNL     1       0.520   7.288   2.019  1.00  0.00     0.000 C 
BRANCH  13  14
ATOM     14  C   UNL     1       0.861   6.921   3.474  1.00  0.00     0.000 C 
BRANCH  14  15
ATOM     15  C   UNL     1       0.461   5.481   3.834  1.00  0.00     0.000 C 
BRANCH  15  16
ATOM     16  C   UNL     1       1.619   4.683   4.456  1.00  0.00     0.000 C 
BRANCH  16  17
ATOM     17  C   UNL     1       2.268   3.703   3.463  1.00  0.00     0.000 C 
BRANCH  17  18
ATOM     18  C   UNL     1       3.765   4.011   3.238  1.00  0.00     0.000 C 
BRANCH  18  19
ATOM     19  C   UNL     1       4.015   5.321   2.472  1.00  0.00     0.000 C 
BRANCH  19  20
ATOM     20  C   UNL     1       5.171   5.215   1.465  1.00  0.00     0.006 C 
BRANCH  20  21
ATOM     21  C   UNL     1       5.192   6.391   0.480  1.00  0.00     0.053 C 
BRANCH  21  22
ATOM     22  C   UNL     1       5.690   7.647   1.126  1.00  0.00     0.041 C 
ATOM     23  O   UNL     1       6.690   7.614   1.891  1.00  0.00    -0.550 OA
ATOM     24  O   UNL     1       5.067   8.859   0.860  1.00  0.00    -0.550 OA
ENDBRANCH  21  22
ENDBRANCH  20  21
ENDBRANCH  19  20
ENDBRANCH  18  19
ENDBRANCH  17  18
ENDBRANCH  16  17
ENDBRANCH  15  16
ENDBRANCH  14  15
ENDBRANCH  13  14
ENDBRANCH   1  13
TORSDOF 20
ENDMDL
MODEL 3
REMARK VINA RESULT:    -3.081     10.340     13.149
REMARK INTER + INTRA:          -9.595
REMARK INTER:                  -7.405
REMARK INTRA:                  -2.191
REMARK UNBOUND:                -2.912
REMARK SMILES CCCCCCCCCCCCCCCCCCCCCC(=O)[O-]
REMARK SMILES IDX 12 1 11 2 10 3 9 4 8 5 7 6 6 7 5 8 4 9 3 10 2 11 1 12 13 13
REMARK SMILES IDX 14 14 15 15 16 16 17 17 18 18 19 19 20 20 21 21 22 22 23 23
REMARK SMILES IDX 24 24
REMARK H PARENT
REMARK Flexibility Score: inf
ROOT
ATOM      1  C   UNL     1       9.964  -1.340  -3.792  1.00  0.00     0.000 C 
ENDROOT
BRANCH   1   2
ATOM      2  C   UNL     1       8.615  -2.067  -3.938  1.00  0.00     0.000 C 
BRANCH   2   3
ATOM      3  C   UNL     1       8.528  -3.053  -5.119  1.00  0.00     0.000 C 
BRANCH   3   4
ATOM      4  C   UNL     1       7.154  -3.743  -5.260  1.00  0.00    -0.000 C 
BRANCH   4   5
ATOM      5  C   UNL     1       6.071  -3.093  -4.380  1.00  0.00    -0.000 C 
BRANCH   5   6
ATOM      6  C   UNL     1       4.714  -2.983  -5.090  1.00  0.00    -0.000 C 
BRANCH   6   7
ATOM      7  C   UNL     1       3.857  -4.253  -4.931  1.00  0.00    -0.000 C 
BRANCH   7   8
ATOM      8  C   UNL     1       4.109  -4.959  -3.586  1.00  0.00    -0.000 C 
BRANCH   8   9
ATOM      9  C   UNL     1       2.834  -5.563  -2.967  1.00  0.00    -0.000 C 
BRANCH   9  10
ATOM     10  C   UNL     1       3.117  -6.880  -2.224  1.00  0.00    -0.000 C 
BRANCH  10  11
ATOM     11  C   UNL     1       4.393  -6.805  -1.370  1.00  0.00    -0.003 C 
ATOM     12  C   UNL     1       4.131  -7.127   0.102  1.00  0.00     0.004 C 
ENDBRANCH  10  11
ENDBRANCH   9  10
ENDBRANCH   8   9
ENDBRANCH   7   8
ENDBRANCH   6   7
ENDBRANCH   5   6
ENDBRANCH   4   5
ENDBRANCH   3   4
ENDBRANCH   2   3
ENDBRANCH   1   2
BRANCH   1  13
ATOM     13  C   UNL     1      10.494  -0.675  -5.079  1.00  0.00     0.000 C 
BRANCH  13  14
ATOM     14  C   UNL     1       9.918   0.719  -5.383  1.00  0.00     0.000 C 
BRANCH  14  15
ATOM     15  C   UNL     1       9.313   0.818  -6.793  1.00  0.00     0.000 C 
BRANCH  15  16
ATOM     16  C   UNL     1       7.828   1.215  -6.773  1.00  0.00     0.000 C 
BRANCH  16  17
ATOM     17  C   UNL     1       6.890   0.006  -6.601  1.00  0.00     0.000 C 
BRANCH  17  18
ATOM     18  C   UNL     1       5.526   0.410  -5.999  1.00  0.00     0.000 C 
BRANCH  18  19
ATOM     19  C   UNL     1       4.343   0.191  -6.957  1.00  0.00     0.000 C 
BRANCH  19  20
ATOM     20  C   UNL     1       3.062   0.908  -6.499  1.00  0.00     0.006 C 
BRANCH  20  21
ATOM     21  C   UNL     1       3.318   2.377  -6.136  1.00  0.00     0.053 C 
BRANCH  21  22
ATOM     22  C   UNL     1       2.785   2.713  -4.777  1.00  0.00     0.041 C 
ATOM     23  O   UNL     1       2.142   3.780  -4.592  1.00  0.00    -0.550 OA
ATOM     24  O   UNL     1       2.972   1.831  -3.720  1.00  0.00    -0.550 OA
ENDBRANCH  21  22
ENDBRANCH  20  21
ENDBRANCH  19  20
ENDBRANCH  18  19
ENDBRANCH  17  18
ENDBRANCH  16  17
ENDBRANCH  15  16
ENDBRANCH  14  15
ENDBRANCH  13  14
ENDBRANCH   1  13
TORSDOF 20
ENDMDL
MODEL 4
REMARK VINA RESULT:    -3.063      3.265      5.222
REMARK INTER + INTRA:          -9.557
REMARK INTER:                  -6.807
REMARK INTRA:                  -2.750
REMARK UNBOUND:                -2.912
REMARK SMILES CCCCCCCCCCCCCCCCCCCCCC(=O)[O-]
REMARK SMILES IDX 12 1 11 2 10 3 9 4 8 5 7 6 6 7 5 8 4 9 3 10 2 11 1 12 13 13
REMARK SMILES IDX 14 14 15 15 16 16 17 17 18 18 19 19 20 20 21 21 22 22 23 23
REMARK SMILES IDX 24 24
REMARK H PARENT
REMARK Flexibility Score: inf
ROOT
ATOM      1  C   UNL     1       0.483   5.018   5.504  1.00  0.00     0.000 C 
ENDROOT
BRANCH   1   2
ATOM      2  C   UNL     1       0.634   5.101   3.974  1.00  0.00     0.000 C 
BRANCH   2   3
ATOM      3  C   UNL     1       1.078   6.474   3.433  1.00  0.00     0.000 C 
BRANCH   3   4
ATOM      4  C   UNL     1       0.943   7.623   4.456  1.00  0.00    -0.000 C 
BRANCH   4   5
ATOM      5  C   UNL     1      -0.184   8.607   4.095  1.00  0.00    -0.000 C 
BRANCH   5   6
ATOM      6  C   UNL     1      -1.565   8.129   4.567  1.00  0.00    -0.000 C 
BRANCH   6   7
ATOM      7  C   UNL     1      -2.460   7.661   3.405  1.00  0.00    -0.000 C 
BRANCH   7   8
ATOM      8  C   UNL     1      -3.063   6.267   3.662  1.00  0.00    -0.000 C 
BRANCH   8   9
ATOM      9  C   UNL     1      -2.683   5.232   2.586  1.00  0.00    -0.000 C 
BRANCH   9  10
ATOM     10  C   UNL     1      -2.585   5.859   1.184  1.00  0.00    -0.000 C 
BRANCH  10  11
ATOM     11  C   UNL     1      -2.621   4.800   0.070  1.00  0.00    -0.003 C 
ATOM     12  C   UNL     1      -2.145   5.351  -1.275  1.00  0.00     0.004 C 
ENDBRANCH  10  11
ENDBRANCH   9  10
ENDBRANCH   8   9
ENDBRANCH   7   8
ENDBRANCH   6   7
ENDBRANCH   5   6
ENDBRANCH   4   5
ENDBRANCH   3   4
ENDBRANCH   2   3
ENDBRANCH   1   2
BRANCH   1  13
ATOM     13  C   UNL     1       1.368   3.960   6.195  1.00  0.00     0.000 C 
BRANCH  13  14
ATOM     14  C   UNL     1       1.903   2.850   5.274  1.00  0.00     0.000 C 
BRANCH  14  15
ATOM     15  C   UNL     1       3.437   2.851   5.169  1.00  0.00     0.000 C 
BRANCH  15  16
ATOM     16  C   UNL     1       3.952   3.746   4.029  1.00  0.00     0.000 C 
BRANCH  16  17
ATOM     17  C   UNL     1       4.406   5.132   4.518  1.00  0.00     0.000 C 
BRANCH  17  18
ATOM     18  C   UNL     1       4.870   6.036   3.354  1.00  0.00     0.000 C 
BRANCH  18  19
ATOM     19  C   UNL     1       4.566   5.451   1.964  1.00  0.00     0.000 C 
BRANCH  19  20
ATOM     20  C   UNL     1       5.439   6.060   0.855  1.00  0.00     0.006 C 
BRANCH  20  21
ATOM     21  C   UNL     1       6.163   4.986   0.032  1.00  0.00     0.053 C 
BRANCH  21  22
ATOM     22  C   UNL     1       7.638   4.988   0.292  1.00  0.00     0.041 C 
ATOM     23  O   UNL     1       8.386   4.152  -0.280  1.00  0.00    -0.550 OA
ATOM     24  O   UNL     1       8.190   5.935   1.145  1.00  0.00    -0.550 OA
ENDBRANCH  21  22
ENDBRANCH  20  21
ENDBRANCH  19  20
ENDBRANCH  18  19
ENDBRANCH  17  18
ENDBRANCH  16  17
ENDBRANCH  15  16
ENDBRANCH  14  15
ENDBRANCH  13  14
ENDBRANCH   1  13
TORSDOF 20
ENDMDL
MODEL 5
REMARK VINA RESULT:    -3.057      4.646      8.140
REMARK INTER + INTRA:          -9.544
REMARK INTER:                  -6.318
REMARK INTRA:                  -3.226
REMARK UNBOUND:                -2.912
REMARK SMILES CCCCCCCCCCCCCCCCCCCCCC(=O)[O-]
REMARK SMILES IDX 12 1 11 2 10 3 9 4 8 5 7 6 6 7 5 8 4 9 3 10 2 11 1 12 13 13
REMARK SMILES IDX 14 14 15 15 16 16 17 17 18 18 19 19 20 20 21 21 22 22 23 23
REMARK SMILES IDX 24 24
REMARK H PARENT
REMARK Flexibility Score: inf
ROOT
ATOM      1  C   UNL     1       4.742   1.450   6.721  1.00  0.00     0.000 C 
ENDROOT
BRANCH   1   2
ATOM      2  C   UNL     1       3.630   0.386   6.748  1.00  0.00     0.000 C 
BRANCH   2   3
ATOM      3  C   UNL     1       3.861  -0.778   7.731  1.00  0.00     0.000 C 
BRANCH   3   4
ATOM      4  C   UNL     1       2.575  -1.279   8.423  1.00  0.00    -0.000 C 
BRANCH   4   5
ATOM      5  C   UNL     1       1.472  -0.207   8.471  1.00  0.00    -0.000 C 
BRANCH   5   6
ATOM      6  C   UNL     1       0.178  -0.653   7.775  1.00  0.00    -0.000 C 
BRANCH   6   7
ATOM      7  C   UNL     1      -0.037   0.043   6.419  1.00  0.00    -0.000 C 
BRANCH   7   8
ATOM      8  C   UNL     1       0.398  -0.844   5.237  1.00  0.00    -0.000 C 
BRANCH   8   9
ATOM      9  C   UNL     1       0.421  -2.346   5.578  1.00  0.00    -0.000 C 
BRANCH   9  10
ATOM     10  C   UNL     1       0.268  -3.229   4.327  1.00  0.00    -0.000 C 
BRANCH  10  11
ATOM     11  C   UNL     1      -1.157  -3.181   3.753  1.00  0.00    -0.003 C 
ATOM     12  C   UNL     1      -2.228  -3.341   4.832  1.00  0.00     0.004 C 
ENDBRANCH  10  11
ENDBRANCH   9  10
ENDBRANCH   8   9
ENDBRANCH   7   8
ENDBRANCH   6   7
ENDBRANCH   5   6
ENDBRANCH   4   5
ENDBRANCH   3   4
ENDBRANCH   2   3
ENDBRANCH   1   2
BRANCH   1  13
ATOM     13  C   UNL     1       4.279   2.892   7.018  1.00  0.00     0.000 C 
BRANCH  13  14
ATOM     14  C   UNL     1       3.319   3.039   8.211  1.00  0.00     0.000 C 
BRANCH  14  15
ATOM     15  C   UNL     1       1.993   3.716   7.828  1.00  0.00     0.000 C 
BRANCH  15  16
ATOM     16  C   UNL     1       1.422   3.191   6.500  1.00  0.00     0.000 C 
BRANCH  16  17
ATOM     17  C   UNL     1       0.802   4.304   5.636  1.00  0.00     0.000 C 
BRANCH  17  18
ATOM     18  C   UNL     1       1.469   4.400   4.247  1.00  0.00     0.000 C 
BRANCH  18  19
ATOM     19  C   UNL     1       2.254   3.137   3.853  1.00  0.00     0.000 C 
BRANCH  19  20
ATOM     20  C   UNL     1       3.563   3.452   3.111  1.00  0.00     0.006 C 
BRANCH  20  21
ATOM     21  C   UNL     1       4.328   4.617   3.755  1.00  0.00     0.053 C 
BRANCH  21  22
ATOM     22  C   UNL     1       4.979   5.488   2.725  1.00  0.00     0.041 C 
ATOM     23  O   UNL     1       4.408   5.705   1.624  1.00  0.00    -0.550 OA
ATOM     24  O   UNL     1       6.204   6.084   2.995  1.00  0.00    -0.550 OA
ENDBRANCH  21  22
ENDBRANCH  20  21
ENDBRANCH  19  20
ENDBRANCH  18  19
ENDBRANCH  17  18
ENDBRANCH  16  17
ENDBRANCH  15  16
ENDBRANCH  14  15
ENDBRANCH  13  14
ENDBRANCH   1  13
TORSDOF 20
ENDMDL
MODEL 6
REMARK VINA RESULT:    -3.048      3.637      7.461
REMARK INTER + INTRA:          -9.523
REMARK INTER:                  -7.467
REMARK INTRA:                  -2.056
REMARK UNBOUND:                -2.912
REMARK SMILES CCCCCCCCCCCCCCCCCCCCCC(=O)[O-]
REMARK SMILES IDX 12 1 11 2 10 3 9 4 8 5 7 6 6 7 5 8 4 9 3 10 2 11 1 12 13 13
REMARK SMILES IDX 14 14 15 15 16 16 17 17 18 18 19 19 20 20 21 21 22 22 23 23
REMARK SMILES IDX 24 24
REMARK H PARENT
REMARK Flexibility Score: inf
ROOT
ATOM      1  C   UNL     1       0.030   6.141   5.081  1.00  0.00     0.000 C 
ENDROOT
BRANCH   1   2
ATOM      2  C   UNL     1      -0.052   5.085   6.199  1.00  0.00     0.000 C 
BRANCH   2   3
ATOM      3  C   UNL     1       1.206   4.211   6.367  1.00  0.00     0.000 C 
BRANCH   3   4
ATOM      4  C   UNL     1       1.039   2.766   5.848  1.00  0.00    -0.000 C 
BRANCH   4   5
ATOM      5  C   UNL     1       2.258   2.282   5.043  1.00  0.00    -0.000 C 
BRANCH   5   6
ATOM      6  C   UNL     1       2.337   2.913   3.645  1.00  0.00    -0.000 C 
BRANCH   6   7
ATOM      7  C   UNL     1       3.613   3.750   3.444  1.00  0.00    -0.000 C 
BRANCH   7   8
ATOM      8  C   UNL     1       3.309   5.256   3.339  1.00  0.00    -0.000 C 
BRANCH   8   9
ATOM      9  C   UNL     1       3.954   5.923   2.109  1.00  0.00    -0.000 C 
BRANCH   9  10
ATOM     10  C   UNL     1       5.450   5.587   1.983  1.00  0.00    -0.000 C 
BRANCH  10  11
ATOM     11  C   UNL     1       5.834   5.164   0.556  1.00  0.00    -0.003 C 
ATOM     12  C   UNL     1       6.021   6.359  -0.378  1.00  0.00     0.004 C 
ENDBRANCH  10  11
ENDBRANCH   9  10
ENDBRANCH   8   9
ENDBRANCH   7   8
ENDBRANCH   6   7
ENDBRANCH   5   6
ENDBRANCH   4   5
ENDBRANCH   3   4
ENDBRANCH   2   3
ENDBRANCH   1   2
BRANCH   1  13
ATOM     13  C   UNL     1      -0.298   5.625   3.665  1.00  0.00     0.000 C 
BRANCH  13  14
ATOM     14  C   UNL     1      -1.789   5.651   3.287  1.00  0.00     0.000 C 
BRANCH  14  15
ATOM     15  C   UNL     1      -2.145   6.817   2.349  1.00  0.00     0.000 C 
BRANCH  15  16
ATOM     16  C   UNL     1      -2.779   6.343   1.031  1.00  0.00     0.000 C 
BRANCH  16  17
ATOM     17  C   UNL     1      -2.641   4.826   0.814  1.00  0.00     0.000 C 
BRANCH  17  18
ATOM     18  C   UNL     1      -2.408   4.470  -0.671  1.00  0.00     0.000 C 
BRANCH  18  19
ATOM     19  C   UNL     1      -1.998   5.675  -1.535  1.00  0.00     0.000 C 
BRANCH  19  20
ATOM     20  C   UNL     1      -2.874   5.840  -2.787  1.00  0.00     0.006 C 
BRANCH  20  21
ATOM     21  C   UNL     1      -4.232   5.141  -2.640  1.00  0.00     0.053 C 
BRANCH  21  22
ATOM     22  C   UNL     1      -5.344   6.126  -2.448  1.00  0.00     0.041 C 
ATOM     23  O   UNL     1      -6.281   6.198  -3.286  1.00  0.00    -0.550 OA
ATOM     24  O   UNL     1      -5.360   6.944  -1.325  1.00  0.00    -0.550 OA
ENDBRANCH  21  22
ENDBRANCH  20  21
ENDBRANCH  19  20
ENDBRANCH  18  19
ENDBRANCH  17  18
ENDBRANCH  16  17
ENDBRANCH  15  16
ENDBRANCH  14  15
ENDBRANCH  13  14
ENDBRANCH   1  13
TORSDOF 20
ENDMDL
MODEL 7
REMARK VINA RESULT:    -3.032      3.217      4.603
REMARK INTER + INTRA:          -9.488
REMARK INTER:                  -7.584
REMARK INTRA:                  -1.904
REMARK UNBOUND:                -2.912
REMARK SMILES CCCCCCCCCCCCCCCCCCCCCC(=O)[O-]
REMARK SMILES IDX 12 1 11 2 10 3 9 4 8 5 7 6 6 7 5 8 4 9 3 10 2 11 1 12 13 13
REMARK SMILES IDX 14 14 15 15 16 16 17 17 18 18 19 19 20 20 21 21 22 22 23 23
REMARK SMILES IDX 24 24
REMARK H PARENT
REMARK Flexibility Score: inf
ROOT
ATOM      1  C   UNL     1       0.340   6.257   5.190  1.00  0.00     0.000 C 
ENDROOT
BRANCH   1   2
ATOM      2  C   UNL     1      -1.048   6.142   4.535  1.00  0.00     0.000 C 
BRANCH   2   3
ATOM      3  C   UNL     1      -1.039   5.739   3.048  1.00  0.00     0.000 C 
BRANCH   3   4
ATOM      4  C   UNL     1      -1.686   6.782   2.112  1.00  0.00    -0.000 C 
BRANCH   4   5
ATOM      5  C   UNL     1      -2.758   6.169   1.193  1.00  0.00    -0.000 C 
BRANCH   5   6
ATOM      6  C   UNL     1      -2.438   4.723   0.788  1.00  0.00    -0.000 C 
BRANCH   6   7
ATOM      7  C   UNL     1      -2.738   4.441  -0.696  1.00  0.00    -0.000 C 
BRANCH   7   8
ATOM      8  C   UNL     1      -3.235   5.697  -1.436  1.00  0.00    -0.000 C 
BRANCH   8   9
ATOM      9  C   UNL     1      -2.278   6.167  -2.548  1.00  0.00    -0.000 C 
BRANCH   9  10
ATOM     10  C   UNL     1      -0.805   6.112  -2.109  1.00  0.00    -0.000 C 
BRANCH  10  11
ATOM     11  C   UNL     1      -0.192   7.512  -1.949  1.00  0.00    -0.003 C 
ATOM     12  C   UNL     1       0.476   7.706  -0.587  1.00  0.00     0.004 C 
ENDBRANCH  10  11
ENDBRANCH   9  10
ENDBRANCH   8   9
ENDBRANCH   7   8
ENDBRANCH   6   7
ENDBRANCH   5   6
ENDBRANCH   4   5
ENDBRANCH   3   4
ENDBRANCH   2   3
ENDBRANCH   1   2
BRANCH   1  13
ATOM     13  C   UNL     1       0.832   4.987   5.915  1.00  0.00     0.000 C 
BRANCH  13  14
ATOM     14  C   UNL     1       2.278   5.047   6.436  1.00  0.00     0.000 C 
BRANCH  14  15
ATOM     15  C   UNL     1       3.175   3.954   5.833  1.00  0.00     0.000 C 
BRANCH  15  16
ATOM     16  C   UNL     1       2.389   2.955   4.968  1.00  0.00     0.000 C 
BRANCH  16  17
ATOM     17  C   UNL     1       2.574   3.200   3.459  1.00  0.00     0.000 C 
BRANCH  17  18
ATOM     18  C   UNL     1       3.988   3.724   3.125  1.00  0.00     0.000 C 
BRANCH  18  19
ATOM     19  C   UNL     1       3.983   5.044   2.335  1.00  0.00     0.000 C 
BRANCH  19  20
ATOM     20  C   UNL     1       5.398   5.555   2.015  1.00  0.00     0.006 C 
BRANCH  20  21
ATOM     21  C   UNL     1       5.816   5.239   0.573  1.00  0.00     0.053 C 
BRANCH  21  22
ATOM     22  C   UNL     1       7.305   5.247   0.414  1.00  0.00     0.041 C 
ATOM     23  O   UNL     1       7.892   4.273  -0.129  1.00  0.00    -0.550 OA
ATOM     24  O   UNL     1       8.043   6.344   0.840  1.00  0.00    -0.550 OA
ENDBRANCH  21  22
ENDBRANCH  20  21
ENDBRANCH  19  20
ENDBRANCH  18  19
ENDBRANCH  17  18
ENDBRANCH  16  17
ENDBRANCH  15  16
ENDBRANCH  14  15
ENDBRANCH  13  14
ENDBRANCH   1  13
TORSDOF 20
ENDMDL
MODEL 8
REMARK VINA RESULT:    -2.992      2.334      4.826
REMARK INTER + INTRA:          -9.402
REMARK INTER:                  -6.410
REMARK INTRA:                  -2.991
REMARK UNBOUND:                -2.912
REMARK SMILES CCCCCCCCCCCCCCCCCCCCCC(=O)[O-]
REMARK SMILES IDX 12 1 11 2 10 3 9 4 8 5 7 6 6 7 5 8 4 9 3 10 2 11 1 12 13 13
REMARK SMILES IDX 14 14 15 15 16 16 17 17 18 18 19 19 20 20 21 21 22 22 23 23
REMARK SMILES IDX 24 24
REMARK H PARENT
REMARK Flexibility Score: inf
ROOT
ATOM      1  C   UNL     1      -0.588   1.602   7.205  1.00  0.00     0.000 C 
ENDROOT
BRANCH   1   2
ATOM      2  C   UNL     1      -0.245   3.027   6.731  1.00  0.00     0.000 C 
BRANCH   2   3
ATOM      3  C   UNL     1      -1.441   3.852   6.221  1.00  0.00     0.000 C 
BRANCH   3   4
ATOM      4  C   UNL     1      -2.773   3.071   6.187  1.00  0.00    -0.000 C 
BRANCH   4   5
ATOM      5  C   UNL     1      -3.791   3.680   5.207  1.00  0.00    -0.000 C 
BRANCH   5   6
ATOM      6  C   UNL     1      -3.921   5.203   5.352  1.00  0.00    -0.000 C 
BRANCH   6   7
ATOM      7  C   UNL     1      -3.761   5.943   4.012  1.00  0.00    -0.000 C 
BRANCH   7   8
ATOM      8  C   UNL     1      -2.335   6.492   3.819  1.00  0.00    -0.000 C 
BRANCH   8   9
ATOM      9  C   UNL     1      -1.565   5.799   2.678  1.00  0.00    -0.000 C 
BRANCH   9  10
ATOM     10  C   UNL     1      -2.501   5.034   1.726  1.00  0.00    -0.000 C 
BRANCH  10  11
ATOM     11  C   UNL     1      -2.544   5.663   0.323  1.00  0.00    -0.003 C 
ATOM     12  C   UNL     1      -3.476   6.873   0.254  1.00  0.00     0.004 C 
ENDBRANCH  10  11
ENDBRANCH   9  10
ENDBRANCH   8   9
ENDBRANCH   7   8
ENDBRANCH   6   7
ENDBRANCH   5   6
ENDBRANCH   4   5
ENDBRANCH   3   4
ENDBRANCH   2   3
ENDBRANCH   1   2
BRANCH   1  13
ATOM     13  C   UNL     1       0.005   0.465   6.349  1.00  0.00     0.000 C 
BRANCH  13  14
ATOM     14  C   UNL     1       1.387   0.757   5.736  1.00  0.00     0.000 C 
BRANCH  14  15
ATOM     15  C   UNL     1       2.538   0.531   6.730  1.00  0.00     0.000 C 
BRANCH  15  16
ATOM     16  C   UNL     1       3.742   1.449   6.459  1.00  0.00     0.000 C 
BRANCH  16  17
ATOM     17  C   UNL     1       3.325   2.875   6.058  1.00  0.00     0.000 C 
BRANCH  17  18
ATOM     18  C   UNL     1       3.856   3.263   4.660  1.00  0.00     0.000 C 
BRANCH  18  19
ATOM     19  C   UNL     1       2.768   3.275   3.571  1.00  0.00     0.000 C 
BRANCH  19  20
ATOM     20  C   UNL     1       1.666   4.313   3.838  1.00  0.00     0.006 C 
BRANCH  20  21
ATOM     21  C   UNL     1       2.154   5.749   3.606  1.00  0.00     0.053 C 
BRANCH  21  22
ATOM     22  C   UNL     1       1.781   6.652   4.741  1.00  0.00     0.041 C 
ATOM     23  O   UNL     1       0.920   6.289   5.585  1.00  0.00    -0.550 OA
ATOM     24  O   UNL     1       2.408   7.883   4.884  1.00  0.00    -0.550 OA
ENDBRANCH  21  22
ENDBRANCH  20  21
ENDBRANCH  19  20
ENDBRANCH  18  19
ENDBRANCH  17  18
ENDBRANCH  16  17
ENDBRANCH  15  16
ENDBRANCH  14  15
ENDBRANCH  13  14
ENDBRANCH   1  13
TORSDOF 20
ENDMDL
MODEL 9
REMARK VINA RESULT:    -2.983      5.368      8.499
REMARK INTER + INTRA:          -9.383
REMARK INTER:                  -7.602
REMARK INTRA:                  -1.781
REMARK UNBOUND:                -2.912
REMARK SMILES CCCCCCCCCCCCCCCCCCCCCC(=O)[O-]
REMARK SMILES IDX 12 1 11 2 10 3 9 4 8 5 7 6 6 7 5 8 4 9 3 10 2 11 1 12 13 13
REMARK SMILES IDX 14 14 15 15 16 16 17 17 18 18 19 19 20 20 21 21 22 22 23 23
REMARK SMILES IDX 24 24
REMARK H PARENT
REMARK Flexibility Score: inf
ROOT
ATOM      1  C   UNL     1       3.733   0.366   7.106  1.00  0.00     0.000 C 
ENDROOT
BRANCH   1   2
ATOM      2  C   UNL     1       4.514   1.517   6.446  1.00  0.00     0.000 C 
BRANCH   2   3
ATOM      3  C   UNL     1       4.783   2.731   7.356  1.00  0.00     0.000 C 
BRANCH   3   4
ATOM      4  C   UNL     1       4.324   4.078   6.757  1.00  0.00    -0.000 C 
BRANCH   4   5
ATOM      5  C   UNL     1       2.794   4.178   6.628  1.00  0.00    -0.000 C 
BRANCH   5   6
ATOM      6  C   UNL     1       2.344   4.706   5.258  1.00  0.00    -0.000 C 
BRANCH   6   7
ATOM      7  C   UNL     1       2.159   3.584   4.220  1.00  0.00    -0.000 C 
BRANCH   7   8
ATOM      8  C   UNL     1       3.351   3.487   3.251  1.00  0.00    -0.000 C 
BRANCH   8   9
ATOM      9  C   UNL     1       4.058   4.836   3.018  1.00  0.00    -0.000 C 
BRANCH   9  10
ATOM     10  C   UNL     1       4.699   4.923   1.622  1.00  0.00    -0.000 C 
BRANCH  10  11
ATOM     11  C   UNL     1       6.066   5.627   1.652  1.00  0.00    -0.003 C 
ATOM     12  C   UNL     1       6.935   5.268   0.447  1.00  0.00     0.004 C 
ENDBRANCH  10  11
ENDBRANCH   9  10
ENDBRANCH   8   9
ENDBRANCH   7   8
ENDBRANCH   6   7
ENDBRANCH   5   6
ENDBRANCH   4   5
ENDBRANCH   3   4
ENDBRANCH   2   3
ENDBRANCH   1   2
BRANCH   1  13
ATOM     13  C   UNL     1       2.206   0.570   7.188  1.00  0.00     0.000 C 
BRANCH  13  14
ATOM     14  C   UNL     1       1.476   0.608   5.834  1.00  0.00     0.000 C 
BRANCH  14  15
ATOM     15  C   UNL     1       0.262  -0.335   5.786  1.00  0.00     0.000 C 
BRANCH  15  16
ATOM     16  C   UNL     1       0.655  -1.814   5.934  1.00  0.00     0.000 C 
BRANCH  16  17
ATOM     17  C   UNL     1      -0.525  -2.771   5.694  1.00  0.00     0.000 C 
BRANCH  17  18
ATOM     18  C   UNL     1      -0.466  -3.428   4.297  1.00  0.00     0.000 C 
BRANCH  18  19
ATOM     19  C   UNL     1      -1.615  -3.001   3.368  1.00  0.00     0.000 C 
BRANCH  19  20
ATOM     20  C   UNL     1      -2.794  -3.987   3.383  1.00  0.00     0.006 C 
BRANCH  20  21
ATOM     21  C   UNL     1      -4.148  -3.272   3.487  1.00  0.00     0.053 C 
BRANCH  21  22
ATOM     22  C   UNL     1      -5.267  -4.127   2.976  1.00  0.00     0.041 C 
ATOM     23  O   UNL     1      -6.351  -3.602   2.609  1.00  0.00    -0.550 OA
ATOM     24  O   UNL     1      -5.100  -5.503   2.879  1.00  0.00    -0.550 OA
ENDBRANCH  21  22
ENDBRANCH  20  21
ENDBRANCH  19  20
ENDBRANCH  18  19
ENDBRANCH  17  18
ENDBRANCH  16  17
ENDBRANCH  15  16
ENDBRANCH  14  15
ENDBRANCH  13  14
ENDBRANCH   1  13
TORSDOF 20
ENDMDL
