MODEL 1
REMARK VINA RESULT:    -5.898      0.000      0.000
REMARK INTER + INTRA:          -6.479
REMARK INTER:                  -6.415
REMARK INTRA:                  -0.064
REMARK UNBOUND:                -0.064
REMARK SMILES COc1cc2ccc(=O)oc2cc1O
REMARK SMILES IDX 3 1 13 2 12 3 11 4 5 5 4 6 6 7 7 8 8 9 9 10 10 11 2 12 1 13
REMARK SMILES IDX 14 14
REMARK H PARENT 14 15
REMARK Flexibility Score: inf
ROOT
ATOM      1  C   UNL     1      -0.622   4.699  13.341  1.00  0.00     0.161 A 
ATOM      2  C   UNL     1      -1.026   4.452  14.662  1.00  0.00     0.161 A 
ATOM      3  C   UNL     1      -1.374   3.155  15.064  1.00  0.00     0.098 A 
ATOM      4  C   UNL     1      -1.320   2.096  14.153  1.00  0.00     0.142 A 
ATOM      5  C   UNL     1      -0.914   2.336  12.824  1.00  0.00     0.022 A 
ATOM      6  C   UNL     1      -0.567   3.633  12.421  1.00  0.00     0.062 A 
ATOM      7  C   UNL     1      -0.870   1.257  11.936  1.00  0.00     0.019 A 
ATOM      8  C   UNL     1      -1.226  -0.015  12.385  1.00  0.00     0.094 A 
ATOM      9  C   UNL     1      -1.618  -0.177  13.718  1.00  0.00     0.336 A 
ATOM     10  O   UNL     1      -1.943  -1.316  14.143  1.00  0.00    -0.246 OA
ATOM     11  O   UNL     1      -1.651   0.867  14.542  1.00  0.00    -0.423 OA
ENDROOT
BRANCH   1  12
ATOM     12  O   UNL     1      -0.283   6.014  12.982  1.00  0.00    -0.493 OA
ATOM     13  C   UNL     1       1.050   6.505  12.883  1.00  0.00     0.278 C 
ENDBRANCH   1  12
BRANCH   2  14
ATOM     14  O   UNL     1      -1.081   5.506  15.573  1.00  0.00    -0.504 OA
ATOM     15  H   UNL     1      -0.262   5.806  16.087  1.00  0.00     0.293 HD
ENDBRANCH   2  14
TORSDOF 2
ENDMDL
MODEL 2
REMARK VINA RESULT:    -5.614      1.426      1.498
REMARK INTER + INTRA:          -6.171
REMARK INTER:                  -6.120
REMARK INTRA:                  -0.052
REMARK UNBOUND:                -0.064
REMARK SMILES COc1cc2ccc(=O)oc2cc1O
REMARK SMILES IDX 3 1 13 2 12 3 11 4 5 5 4 6 6 7 7 8 8 9 9 10 10 11 2 12 1 13
REMARK SMILES IDX 14 14
REMARK H PARENT 14 15
REMARK Flexibility Score: inf
ROOT
ATOM      1  C   UNL     1      -1.436   4.740  12.099  1.00  0.00     0.161 A 
ATOM      2  C   UNL     1      -1.793   4.717  13.456  1.00  0.00     0.161 A 
ATOM      3  C   UNL     1      -1.911   3.496  14.135  1.00  0.00     0.098 A 
ATOM      4  C   UNL     1      -1.673   2.292  13.468  1.00  0.00     0.142 A 
ATOM      5  C   UNL     1      -1.313   2.307  12.104  1.00  0.00     0.022 A 
ATOM      6  C   UNL     1      -1.195   3.526  11.424  1.00  0.00     0.062 A 
ATOM      7  C   UNL     1      -1.082   1.085  11.463  1.00  0.00     0.019 A 
ATOM      8  C   UNL     1      -1.212  -0.102  12.183  1.00  0.00     0.094 A 
ATOM      9  C   UNL     1      -1.572  -0.039  13.533  1.00  0.00     0.336 A 
ATOM     10  O   UNL     1      -1.695  -1.099  14.201  1.00  0.00    -0.246 OA
ATOM     11  O   UNL     1      -1.787   1.137  14.119  1.00  0.00    -0.423 OA
ENDROOT
BRANCH   1  12
ATOM     12  O   UNL     1      -1.330   5.985  11.459  1.00  0.00    -0.493 OA
ATOM     13  C   UNL     1      -1.816   6.262  10.149  1.00  0.00     0.278 C 
ENDBRANCH   1  12
BRANCH   2  14
ATOM     14  O   UNL     1      -2.031   5.917  14.125  1.00  0.00    -0.504 OA
ATOM     15  H   UNL     1      -2.665   6.614  13.754  1.00  0.00     0.293 HD
ENDBRANCH   2  14
TORSDOF 2
ENDMDL
MODEL 3
REMARK VINA RESULT:    -5.610      1.471      5.342
REMARK INTER + INTRA:          -6.167
REMARK INTER:                  -6.121
REMARK INTRA:                  -0.046
REMARK UNBOUND:                -0.064
REMARK SMILES COc1cc2ccc(=O)oc2cc1O
REMARK SMILES IDX 3 1 13 2 12 3 11 4 5 5 4 6 6 7 7 8 8 9 9 10 10 11 2 12 1 13
REMARK SMILES IDX 14 14
REMARK H PARENT 14 15
REMARK Flexibility Score: inf
ROOT
ATOM      1  C   UNL     1      -1.029   1.010  13.034  1.00  0.00     0.161 A 
ATOM      2  C   UNL     1      -0.838   1.661  11.805  1.00  0.00     0.161 A 
ATOM      3  C   UNL     1      -0.706   3.056  11.756  1.00  0.00     0.098 A 
ATOM      4  C   UNL     1      -0.763   3.811  12.931  1.00  0.00     0.142 A 
ATOM      5  C   UNL     1      -0.955   3.164  14.170  1.00  0.00     0.022 A 
ATOM      6  C   UNL     1      -1.087   1.770  14.220  1.00  0.00     0.062 A 
ATOM      7  C   UNL     1      -1.007   3.947  15.328  1.00  0.00     0.019 A 
ATOM      8  C   UNL     1      -0.870   5.331  15.226  1.00  0.00     0.094 A 
ATOM      9  C   UNL     1      -0.683   5.902  13.964  1.00  0.00     0.336 A 
ATOM     10  O   UNL     1      -0.558   7.150  13.850  1.00  0.00    -0.246 OA
ATOM     11  O   UNL     1      -0.637   5.135  12.877  1.00  0.00    -0.423 OA
ENDROOT
BRANCH   1  12
ATOM     12  O   UNL     1      -1.157  -0.388  13.035  1.00  0.00    -0.493 OA
ATOM     13  C   UNL     1      -1.648  -1.151  14.132  1.00  0.00     0.278 C 
ENDBRANCH   1  12
BRANCH   2  14
ATOM     14  O   UNL     1      -0.781   0.911  10.631  1.00  0.00    -0.504 OA
ATOM     15  H   UNL     1      -1.278   0.033  10.538  1.00  0.00     0.293 HD
ENDBRANCH   2  14
TORSDOF 2
ENDMDL
MODEL 4
REMARK VINA RESULT:    -5.509      1.577      2.554
REMARK INTER + INTRA:          -6.057
REMARK INTER:                  -6.010
REMARK INTRA:                  -0.046
REMARK UNBOUND:                -0.064
REMARK SMILES COc1cc2ccc(=O)oc2cc1O
REMARK SMILES IDX 3 1 13 2 12 3 11 4 5 5 4 6 6 7 7 8 8 9 9 10 10 11 2 12 1 13
REMARK SMILES IDX 14 14
REMARK H PARENT 14 15
REMARK Flexibility Score: inf
ROOT
ATOM      1  C   UNL     1      -1.316   4.538  12.558  1.00  0.00     0.161 A 
ATOM      2  C   UNL     1      -0.709   3.907  11.462  1.00  0.00     0.161 A 
ATOM      3  C   UNL     1      -0.576   2.512  11.433  1.00  0.00     0.098 A 
ATOM      4  C   UNL     1      -1.048   1.737  12.495  1.00  0.00     0.142 A 
ATOM      5  C   UNL     1      -1.659   2.363  13.601  1.00  0.00     0.022 A 
ATOM      6  C   UNL     1      -1.793   3.758  13.631  1.00  0.00     0.062 A 
ATOM      7  C   UNL     1      -2.122   1.561  14.650  1.00  0.00     0.019 A 
ATOM      8  C   UNL     1      -1.966   0.177  14.573  1.00  0.00     0.094 A 
ATOM      9  C   UNL     1      -1.350  -0.374  13.445  1.00  0.00     0.336 A 
ATOM     10  O   UNL     1      -1.199  -1.620  13.356  1.00  0.00    -0.246 OA
ATOM     11  O   UNL     1      -0.919   0.412  12.461  1.00  0.00    -0.423 OA
ENDROOT
BRANCH   1  12
ATOM     12  O   UNL     1      -1.428   5.938  12.545  1.00  0.00    -0.493 OA
ATOM     13  C   UNL     1      -1.573   6.746  13.708  1.00  0.00     0.278 C 
ENDBRANCH   1  12
BRANCH   2  14
ATOM     14  O   UNL     1      -0.237   4.678  10.400  1.00  0.00    -0.504 OA
ATOM     15  H   UNL     1       0.003   5.654  10.519  1.00  0.00     0.293 HD
ENDBRANCH   2  14
TORSDOF 2
ENDMDL
MODEL 5
REMARK VINA RESULT:    -5.219      1.671      1.939
REMARK INTER + INTRA:          -5.741
REMARK INTER:                  -5.694
REMARK INTRA:                  -0.046
REMARK UNBOUND:                -0.064
REMARK SMILES COc1cc2ccc(=O)oc2cc1O
REMARK SMILES IDX 3 1 13 2 12 3 11 4 5 5 4 6 6 7 7 8 8 9 9 10 10 11 2 12 1 13
REMARK SMILES IDX 14 14
REMARK H PARENT 14 15
REMARK Flexibility Score: inf
ROOT
ATOM      1  C   UNL     1       0.406   5.629  13.055  1.00  0.00     0.161 A 
ATOM      2  C   UNL     1       0.762   4.835  14.157  1.00  0.00     0.161 A 
ATOM      3  C   UNL     1       0.485   3.461  14.158  1.00  0.00     0.098 A 
ATOM      4  C   UNL     1      -0.147   2.869  13.062  1.00  0.00     0.142 A 
ATOM      5  C   UNL     1      -0.509   3.659  11.951  1.00  0.00     0.022 A 
ATOM      6  C   UNL     1      -0.232   5.033  11.949  1.00  0.00     0.062 A 
ATOM      7  C   UNL     1      -1.140   3.038  10.868  1.00  0.00     0.019 A 
ATOM      8  C   UNL     1      -1.394   1.667  10.918  1.00  0.00     0.094 A 
ATOM      9  C   UNL     1      -1.007   0.948  12.053  1.00  0.00     0.336 A 
ATOM     10  O   UNL     1      -1.227  -0.290  12.118  1.00  0.00    -0.246 OA
ATOM     11  O   UNL     1      -0.407   1.563  13.070  1.00  0.00    -0.423 OA
ENDROOT
BRANCH   1  12
ATOM     12  O   UNL     1       0.702   7.001  13.098  1.00  0.00    -0.493 OA
ATOM     13  C   UNL     1       0.838   7.832  11.950  1.00  0.00     0.278 C 
ENDBRANCH   1  12
BRANCH   2  14
ATOM     14  O   UNL     1       1.393   5.423  15.253  1.00  0.00    -0.504 OA
ATOM     15  H   UNL     1       1.839   4.865  15.970  1.00  0.00     0.293 HD
ENDBRANCH   2  14
TORSDOF 2
ENDMDL
MODEL 6
REMARK VINA RESULT:    -5.203      1.303      4.953
REMARK INTER + INTRA:          -5.724
REMARK INTER:                  -5.727
REMARK INTRA:                   0.003
REMARK UNBOUND:                -0.064
REMARK SMILES COc1cc2ccc(=O)oc2cc1O
REMARK SMILES IDX 3 1 13 2 12 3 11 4 5 5 4 6 6 7 7 8 8 9 9 10 10 11 2 12 1 13
REMARK SMILES IDX 14 14
REMARK H PARENT 14 15
REMARK Flexibility Score: inf
ROOT
ATOM      1  C   UNL     1      -1.707   0.852  13.504  1.00  0.00     0.161 A 
ATOM      2  C   UNL     1      -2.599   1.449  14.408  1.00  0.00     0.161 A 
ATOM      3  C   UNL     1      -2.456   2.800  14.756  1.00  0.00     0.098 A 
ATOM      4  C   UNL     1      -1.424   3.564  14.205  1.00  0.00     0.142 A 
ATOM      5  C   UNL     1      -0.523   2.971  13.296  1.00  0.00     0.022 A 
ATOM      6  C   UNL     1      -0.666   1.621  12.947  1.00  0.00     0.062 A 
ATOM      7  C   UNL     1       0.500   3.762  12.761  1.00  0.00     0.019 A 
ATOM      8  C   UNL     1       0.600   5.101  13.139  1.00  0.00     0.094 A 
ATOM      9  C   UNL     1      -0.330   5.619  14.046  1.00  0.00     0.336 A 
ATOM     10  O   UNL     1      -0.257   6.825  14.400  1.00  0.00    -0.246 OA
ATOM     11  O   UNL     1      -1.294   4.846  14.540  1.00  0.00    -0.423 OA
ENDROOT
BRANCH   1  12
ATOM     12  O   UNL     1      -1.888  -0.503  13.185  1.00  0.00    -0.493 OA
ATOM     13  C   UNL     1      -1.407  -1.588  13.971  1.00  0.00     0.278 C 
ENDBRANCH   1  12
BRANCH   2  14
ATOM     14  O   UNL     1      -3.630   0.690  14.960  1.00  0.00    -0.504 OA
ATOM     15  H   UNL     1      -4.596   0.832  14.691  1.00  0.00     0.293 HD
ENDBRANCH   2  14
TORSDOF 2
ENDMDL
MODEL 7
REMARK VINA RESULT:    -5.154      1.919      4.847
REMARK INTER + INTRA:          -5.670
REMARK INTER:                  -5.606
REMARK INTRA:                  -0.064
REMARK UNBOUND:                -0.064
REMARK SMILES COc1cc2ccc(=O)oc2cc1O
REMARK SMILES IDX 3 1 13 2 12 3 11 4 5 5 4 6 6 7 7 8 8 9 9 10 10 11 2 12 1 13
REMARK SMILES IDX 14 14
REMARK H PARENT 14 15
REMARK Flexibility Score: inf
ROOT
ATOM      1  C   UNL     1      -1.667   1.616  13.963  1.00  0.00     0.161 A 
ATOM      2  C   UNL     1      -2.622   2.493  14.500  1.00  0.00     0.161 A 
ATOM      3  C   UNL     1      -2.868   3.732  13.890  1.00  0.00     0.098 A 
ATOM      4  C   UNL     1      -2.163   4.103  12.742  1.00  0.00     0.142 A 
ATOM      5  C   UNL     1      -1.202   3.228  12.196  1.00  0.00     0.022 A 
ATOM      6  C   UNL     1      -0.956   1.990  12.805  1.00  0.00     0.062 A 
ATOM      7  C   UNL     1      -0.513   3.629  11.047  1.00  0.00     0.019 A 
ATOM      8  C   UNL     1      -0.793   4.871  10.478  1.00  0.00     0.094 A 
ATOM      9  C   UNL     1      -1.761   5.686  11.075  1.00  0.00     0.336 A 
ATOM     10  O   UNL     1      -2.029   6.811  10.577  1.00  0.00    -0.246 OA
ATOM     11  O   UNL     1      -2.402   5.281  12.169  1.00  0.00    -0.423 OA
ENDROOT
BRANCH   1  12
ATOM     12  O   UNL     1      -1.454   0.387  14.607  1.00  0.00    -0.493 OA
ATOM     13  C   UNL     1      -1.842  -0.877  14.079  1.00  0.00     0.278 C 
ENDBRANCH   1  12
BRANCH   2  14
ATOM     14  O   UNL     1      -3.327   2.125  15.646  1.00  0.00    -0.504 OA
ATOM     15  H   UNL     1      -2.850   1.869  16.502  1.00  0.00     0.293 HD
ENDBRANCH   2  14
TORSDOF 2
ENDMDL
MODEL 8
REMARK VINA RESULT:    -4.998      3.456      5.292
REMARK INTER + INTRA:          -5.501
REMARK INTER:                  -5.454
REMARK INTRA:                  -0.047
REMARK UNBOUND:                -0.064
REMARK SMILES COc1cc2ccc(=O)oc2cc1O
REMARK SMILES IDX 3 1 13 2 12 3 11 4 5 5 4 6 6 7 7 8 8 9 9 10 10 11 2 12 1 13
REMARK SMILES IDX 14 14
REMARK H PARENT 14 15
REMARK Flexibility Score: inf
ROOT
ATOM      1  C   UNL     1      -1.107   3.342  12.992  1.00  0.00     0.161 A 
ATOM      2  C   UNL     1      -0.705   3.305  11.648  1.00  0.00     0.161 A 
ATOM      3  C   UNL     1      -1.510   3.876  10.653  1.00  0.00     0.098 A 
ATOM      4  C   UNL     1      -2.720   4.489  10.991  1.00  0.00     0.142 A 
ATOM      5  C   UNL     1      -3.131   4.530  12.339  1.00  0.00     0.022 A 
ATOM      6  C   UNL     1      -2.327   3.959  13.335  1.00  0.00     0.062 A 
ATOM      7  C   UNL     1      -4.347   5.150  12.646  1.00  0.00     0.019 A 
ATOM      8  C   UNL     1      -5.112   5.704  11.620  1.00  0.00     0.094 A 
ATOM      9  C   UNL     1      -4.640   5.626  10.306  1.00  0.00     0.336 A 
ATOM     10  O   UNL     1      -5.315   6.119   9.365  1.00  0.00    -0.246 OA
ATOM     11  O   UNL     1      -3.479   5.030  10.041  1.00  0.00    -0.423 OA
ENDROOT
BRANCH   1  12
ATOM     12  O   UNL     1      -0.270   2.756  13.955  1.00  0.00    -0.493 OA
ATOM     13  C   UNL     1      -0.709   2.277  15.222  1.00  0.00     0.278 C 
ENDBRANCH   1  12
BRANCH   2  14
ATOM     14  O   UNL     1       0.501   2.694  11.307  1.00  0.00    -0.504 OA
ATOM     15  H   UNL     1       0.674   1.716  11.503  1.00  0.00     0.293 HD
ENDBRANCH   2  14
TORSDOF 2
ENDMDL
MODEL 9
REMARK VINA RESULT:    -4.943      2.225      5.575
REMARK INTER + INTRA:          -5.441
REMARK INTER:                  -5.383
REMARK INTRA:                  -0.058
REMARK UNBOUND:                -0.064
REMARK SMILES COc1cc2ccc(=O)oc2cc1O
REMARK SMILES IDX 3 1 13 2 12 3 11 4 5 5 4 6 6 7 7 8 8 9 9 10 10 11 2 12 1 13
REMARK SMILES IDX 14 14
REMARK H PARENT 14 15
REMARK Flexibility Score: inf
ROOT
ATOM      1  C   UNL     1      -1.353   1.816  12.997  1.00  0.00     0.161 A 
ATOM      2  C   UNL     1      -1.110   1.732  11.617  1.00  0.00     0.161 A 
ATOM      3  C   UNL     1      -1.262   2.862  10.802  1.00  0.00     0.098 A 
ATOM      4  C   UNL     1      -1.655   4.083  11.356  1.00  0.00     0.142 A 
ATOM      5  C   UNL     1      -1.901   4.177  12.742  1.00  0.00     0.022 A 
ATOM      6  C   UNL     1      -1.750   3.047  13.558  1.00  0.00     0.062 A 
ATOM      7  C   UNL     1      -2.294   5.413  13.267  1.00  0.00     0.019 A 
ATOM      8  C   UNL     1      -2.430   6.507  12.413  1.00  0.00     0.094 A 
ATOM      9  C   UNL     1      -2.169   6.339  11.050  1.00  0.00     0.336 A 
ATOM     10  O   UNL     1      -2.287   7.314  10.262  1.00  0.00    -0.246 OA
ATOM     11  O   UNL     1      -1.797   5.153  10.576  1.00  0.00    -0.423 OA
ENDROOT
BRANCH   1  12
ATOM     12  O   UNL     1      -1.190   0.659  13.775  1.00  0.00    -0.493 OA
ATOM     13  C   UNL     1      -2.246  -0.224  14.138  1.00  0.00     0.278 C 
ENDBRANCH   1  12
BRANCH   2  14
ATOM     14  O   UNL     1      -0.718   0.515  11.062  1.00  0.00    -0.504 OA
ATOM     15  H   UNL     1      -1.179  -0.353  11.306  1.00  0.00     0.293 HD
ENDBRANCH   2  14
TORSDOF 2
ENDMDL
