MODEL 1
REMARK VINA RESULT:    -2.850      0.000      0.000
REMARK INTER + INTRA:          -3.381
REMARK INTER:                  -3.350
REMARK INTRA:                  -0.031
REMARK UNBOUND:                -0.031
REMARK SMILES O=C([O-])CCC(=O)[O-]
REMARK SMILES IDX 4 1 2 2 1 3 3 4 5 5 6 6 7 7 8 8
REMARK H PARENT
REMARK Flexibility Score: inf
ROOT
ATOM      1  C   UNL     1      92.524  17.050 121.101  1.00  0.00     0.059 C 
ENDROOT
BRANCH   1   2
ATOM      2  C   UNL     1      91.489  17.875 120.398  1.00  0.00     0.042 C 
ATOM      3  O   UNL     1      91.739  18.380 119.273  1.00  0.00    -0.550 OA
ATOM      4  O   UNL     1      90.264  18.119 121.006  1.00  0.00    -0.550 OA
ENDBRANCH   1   2
BRANCH   1   5
ATOM      5  C   UNL     1      93.372  16.243 120.113  1.00  0.00     0.059 C 
BRANCH   5   6
ATOM      6  C   UNL     1      94.500  15.537 120.802  1.00  0.00     0.042 C 
ATOM      7  O   UNL     1      94.386  14.325 121.125  1.00  0.00    -0.550 OA
ATOM      8  O   UNL     1      95.661  16.229 121.123  1.00  0.00    -0.550 OA
ENDBRANCH   5   6
ENDBRANCH   1   5
TORSDOF 3
ENDMDL
MODEL 2
REMARK VINA RESULT:    -2.828      0.101      4.374
REMARK INTER + INTRA:          -3.355
REMARK INTER:                  -3.324
REMARK INTRA:                  -0.032
REMARK UNBOUND:                -0.031
REMARK SMILES O=C([O-])CCC(=O)[O-]
REMARK SMILES IDX 4 1 2 2 1 3 3 4 5 5 6 6 7 7 8 8
REMARK H PARENT
REMARK Flexibility Score: inf
ROOT
ATOM      1  C   UNL     1      93.435  16.258 120.108  1.00  0.00     0.059 C 
ENDROOT
BRANCH   1   2
ATOM      2  C   UNL     1      94.539  15.507 120.789  1.00  0.00     0.042 C 
ATOM      3  O   UNL     1      94.375  14.305 121.125  1.00  0.00    -0.550 OA
ATOM      4  O   UNL     1      95.733  16.149 121.091  1.00  0.00    -0.550 OA
ENDBRANCH   1   2
BRANCH   1   5
ATOM      5  C   UNL     1      92.548  16.996 121.116  1.00  0.00     0.059 C 
BRANCH   5   6
ATOM      6  C   UNL     1      91.483  17.798 120.430  1.00  0.00     0.042 C 
ATOM      7  O   UNL     1      91.657  18.205 119.251  1.00  0.00    -0.550 OA
ATOM      8  O   UNL     1      90.316  18.128 121.107  1.00  0.00    -0.550 OA
ENDBRANCH   5   6
ENDBRANCH   1   5
TORSDOF 3
ENDMDL
MODEL 3
REMARK VINA RESULT:    -1.390     14.833     15.659
REMARK INTER + INTRA:          -1.665
REMARK INTER:                  -1.638
REMARK INTRA:                  -0.027
REMARK UNBOUND:                -0.031
REMARK SMILES O=C([O-])CCC(=O)[O-]
REMARK SMILES IDX 4 1 2 2 1 3 3 4 5 5 6 6 7 7 8 8
REMARK H PARENT
REMARK Flexibility Score: inf
ROOT
ATOM      1  C   UNL     1      89.886   8.081 108.833  1.00  0.00     0.059 C 
ENDROOT
BRANCH   1   2
ATOM      2  C   UNL     1      90.914   7.681 107.819  1.00  0.00     0.042 C 
ATOM      3  O   UNL     1      90.775   8.010 106.612  1.00  0.00    -0.550 OA
ATOM      4  O   UNL     1      92.004   6.909 108.201  1.00  0.00    -0.550 OA
ENDBRANCH   1   2
BRANCH   1   5
ATOM      5  C   UNL     1      89.084   6.875 109.331  1.00  0.00     0.059 C 
BRANCH   5   6
ATOM      6  C   UNL     1      87.990   7.289 110.270  1.00  0.00     0.042 C 
ATOM      7  O   UNL     1      87.041   8.008 109.858  1.00  0.00    -0.550 OA
ATOM      8  O   UNL     1      88.042   6.915 111.606  1.00  0.00    -0.550 OA
ENDBRANCH   5   6
ENDBRANCH   1   5
TORSDOF 3
ENDMDL
MODEL 4
REMARK VINA RESULT:    -1.370      2.398      5.304
REMARK INTER + INTRA:          -1.641
REMARK INTER:                  -1.606
REMARK INTRA:                  -0.035
REMARK UNBOUND:                -0.031
REMARK SMILES O=C([O-])CCC(=O)[O-]
REMARK SMILES IDX 4 1 2 2 1 3 3 4 5 5 6 6 7 7 8 8
REMARK H PARENT
REMARK Flexibility Score: inf
ROOT
ATOM      1  C   UNL     1      90.395  17.885 121.037  1.00  0.00     0.059 C 
ENDROOT
BRANCH   1   2
ATOM      2  C   UNL     1      91.695  17.825 120.294  1.00  0.00     0.042 C 
ATOM      3  O   UNL     1      91.852  18.491 119.238  1.00  0.00    -0.550 OA
ATOM      4  O   UNL     1      92.718  17.002 120.748  1.00  0.00    -0.550 OA
ENDBRANCH   1   2
BRANCH   1   5
ATOM      5  C   UNL     1      89.211  18.100 120.088  1.00  0.00     0.059 C 
BRANCH   5   6
ATOM      6  C   UNL     1      88.004  18.608 120.817  1.00  0.00     0.042 C 
ATOM      7  O   UNL     1      87.071  17.821 121.123  1.00  0.00    -0.550 OA
ATOM      8  O   UNL     1      87.894  19.959 121.122  1.00  0.00    -0.550 OA
ENDBRANCH   5   6
ENDBRANCH   1   5
TORSDOF 3
ENDMDL
MODEL 5
REMARK VINA RESULT:    -1.338     13.434     14.775
REMARK INTER + INTRA:          -1.603
REMARK INTER:                  -1.541
REMARK INTRA:                  -0.062
REMARK UNBOUND:                -0.031
REMARK SMILES O=C([O-])CCC(=O)[O-]
REMARK SMILES IDX 4 1 2 2 1 3 3 4 5 5 6 6 7 7 8 8
REMARK H PARENT
REMARK Flexibility Score: inf
ROOT
ATOM      1  C   UNL     1      82.226  26.417 114.335  1.00  0.00     0.059 C 
ENDROOT
BRANCH   1   2
ATOM      2  C   UNL     1      83.511  26.833 113.686  1.00  0.00     0.042 C 
ATOM      3  O   UNL     1      84.558  26.955 114.373  1.00  0.00    -0.550 OA
ATOM      4  O   UNL     1      83.541  27.125 112.328  1.00  0.00    -0.550 OA
ENDBRANCH   1   2
BRANCH   1   5
ATOM      5  C   UNL     1      82.070  24.893 114.356  1.00  0.00     0.059 C 
BRANCH   5   6
ATOM      6  C   UNL     1      82.809  24.278 115.506  1.00  0.00     0.042 C 
ATOM      7  O   UNL     1      83.126  23.059 115.476  1.00  0.00    -0.550 OA
ATOM      8  O   UNL     1      83.111  25.041 116.627  1.00  0.00    -0.550 OA
ENDBRANCH   5   6
ENDBRANCH   1   5
TORSDOF 3
ENDMDL
MODEL 6
REMARK VINA RESULT:    -1.013     14.775     15.325
REMARK INTER + INTRA:          -1.222
REMARK INTER:                  -1.195
REMARK INTRA:                  -0.027
REMARK UNBOUND:                -0.031
REMARK SMILES O=C([O-])CCC(=O)[O-]
REMARK SMILES IDX 4 1 2 2 1 3 3 4 5 5 6 6 7 7 8 8
REMARK H PARENT
REMARK Flexibility Score: inf
ROOT
ATOM      1  C   UNL     1      89.032   8.045 109.565  1.00  0.00     0.059 C 
ENDROOT
BRANCH   1   2
ATOM      2  C   UNL     1      87.835   7.609 110.354  1.00  0.00     0.042 C 
ATOM      3  O   UNL     1      86.679   7.937 109.984  1.00  0.00    -0.550 OA
ATOM      4  O   UNL     1      88.002   6.876 111.522  1.00  0.00    -0.550 OA
ENDBRANCH   1   2
BRANCH   1   5
ATOM      5  C   UNL     1      89.668   6.875 108.808  1.00  0.00     0.059 C 
BRANCH   5   6
ATOM      6  C   UNL     1      90.847   7.319 107.996  1.00  0.00     0.042 C 
ATOM      7  O   UNL     1      90.679   8.039 106.976  1.00  0.00    -0.550 OA
ATOM      8  O   UNL     1      92.126   6.902 108.342  1.00  0.00    -0.550 OA
ENDBRANCH   5   6
ENDBRANCH   1   5
TORSDOF 3
ENDMDL
MODEL 7
REMARK VINA RESULT:    -0.549      2.018      4.124
REMARK INTER + INTRA:          -0.676
REMARK INTER:                  -0.789
REMARK INTRA:                   0.112
REMARK UNBOUND:                -0.031
REMARK SMILES O=C([O-])CCC(=O)[O-]
REMARK SMILES IDX 4 1 2 2 1 3 3 4 5 5 6 6 7 7 8 8
REMARK H PARENT
REMARK Flexibility Score: inf
ROOT
ATOM      1  C   UNL     1      94.765  14.478 120.064  1.00  0.00     0.059 C 
ENDROOT
BRANCH   1   2
ATOM      2  C   UNL     1      93.928  13.484 120.811  1.00  0.00     0.042 C 
ATOM      3  O   UNL     1      94.404  12.361 121.121  1.00  0.00    -0.550 OA
ATOM      4  O   UNL     1      92.608  13.783 121.125  1.00  0.00    -0.550 OA
ENDBRANCH   1   2
BRANCH   1   5
ATOM      5  C   UNL     1      94.613  15.890 120.639  1.00  0.00     0.059 C 
BRANCH   5   6
ATOM      6  C   UNL     1      93.372  16.561 120.131  1.00  0.00     0.042 C 
ATOM      7  O   UNL     1      93.084  16.516 118.906  1.00  0.00    -0.550 OA
ATOM      8  O   UNL     1      92.559  17.271 121.006  1.00  0.00    -0.550 OA
ENDBRANCH   5   6
ENDBRANCH   1   5
TORSDOF 3
ENDMDL
MODEL 8
REMARK VINA RESULT:    -0.373     14.607     15.867
REMARK INTER + INTRA:          -0.470
REMARK INTER:                  -0.558
REMARK INTRA:                   0.088
REMARK UNBOUND:                -0.031
REMARK SMILES O=C([O-])CCC(=O)[O-]
REMARK SMILES IDX 4 1 2 2 1 3 3 4 5 5 6 6 7 7 8 8
REMARK H PARENT
REMARK Flexibility Score: inf
ROOT
ATOM      1  C   UNL     1      83.503  12.495 108.785  1.00  0.00     0.059 C 
ENDROOT
BRANCH   1   2
ATOM      2  C   UNL     1      83.642  13.522 109.867  1.00  0.00     0.042 C 
ATOM      3  O   UNL     1      84.776  13.986 110.158  1.00  0.00    -0.550 OA
ATOM      4  O   UNL     1      82.525  13.936 110.581  1.00  0.00    -0.550 OA
ENDBRANCH   1   2
BRANCH   1   5
ATOM      5  C   UNL     1      83.922  13.050 107.420  1.00  0.00     0.059 C 
BRANCH   5   6
ATOM      6  C   UNL     1      83.477  14.470 107.241  1.00  0.00     0.042 C 
ATOM      7  O   UNL     1      82.283  14.725 106.933  1.00  0.00    -0.550 OA
ATOM      8  O   UNL     1      84.391  15.507 107.373  1.00  0.00    -0.550 OA
ENDBRANCH   5   6
ENDBRANCH   1   5
TORSDOF 3
ENDMDL
