MODEL 1
REMARK VINA RESULT:    -3.946      0.000      0.000
REMARK INTER + INTRA:          -5.698
REMARK INTER:                  -5.100
REMARK INTRA:                  -0.598
REMARK UNBOUND:                -0.598
REMARK SMILES CO[C@]1(CO)O[C@H](CO)[C@H](O)[C@@H]1O
REMARK SMILES IDX 3 1 12 2 10 3 7 4 6 5 2 6 1 7 4 8 5 9 13 11 11 13 8 15 9 16
REMARK H PARENT 5 10 13 12 11 14 9 17
REMARK Flexibility Score: inf
ROOT
ATOM      1  C   UNL     1      34.327 140.683 -28.970  1.00  0.00     0.221 C 
ATOM      2  C   UNL     1      34.058 141.438 -30.286  1.00  0.00     0.207 C 
ATOM      3  C   UNL     1      32.823 140.753 -30.806  1.00  0.00     0.180 C 
ATOM      4  C   UNL     1      32.114 140.387 -29.500  1.00  0.00     0.179 C 
ATOM      5  O   UNL     1      33.075 140.237 -28.474  1.00  0.00    -0.337 OA
ENDROOT
BRANCH   1   6
ATOM      6  O   UNL     1      35.161 139.565 -29.273  1.00  0.00    -0.349 OA
ATOM      7  C   UNL     1      35.075 138.528 -28.315  1.00  0.00     0.198 C 
ENDBRANCH   1   6
BRANCH   1   8
ATOM      8  C   UNL     1      34.998 141.624 -27.934  1.00  0.00     0.224 C 
BRANCH   8   9
ATOM      9  O   UNL     1      36.310 141.950 -28.311  1.00  0.00    -0.391 OA
ATOM     10  H   UNL     1      36.658 141.180 -28.832  1.00  0.00     0.210 HD
ENDBRANCH   8   9
ENDBRANCH   1   8
BRANCH   2  11
ATOM     11  O   UNL     1      35.128 141.341 -31.193  1.00  0.00    -0.385 OA
ATOM     12  H   UNL     1      35.502 140.428 -31.088  1.00  0.00     0.211 HD
ENDBRANCH   2  11
BRANCH   3  13
ATOM     13  O   UNL     1      33.160 139.604 -31.546  1.00  0.00    -0.387 OA
ATOM     14  H   UNL     1      32.932 139.795 -32.492  1.00  0.00     0.211 HD
ENDBRANCH   3  13
BRANCH   4  15
ATOM     15  C   UNL     1      31.228 139.137 -29.589  1.00  0.00     0.191 C 
BRANCH  15  16
ATOM     16  O   UNL     1      30.321 139.250 -30.650  1.00  0.00    -0.394 OA
ATOM     17  H   UNL     1      29.915 138.352 -30.763  1.00  0.00     0.210 HD
ENDBRANCH  15  16
ENDBRANCH   4  15
TORSDOF 7
ENDMDL
MODEL 2
REMARK VINA RESULT:    -3.853      1.693      2.743
REMARK INTER + INTRA:          -5.577
REMARK INTER:                  -5.023
REMARK INTRA:                  -0.555
REMARK UNBOUND:                -0.598
REMARK SMILES CO[C@]1(CO)O[C@H](CO)[C@H](O)[C@@H]1O
REMARK SMILES IDX 3 1 12 2 10 3 7 4 6 5 2 6 1 7 4 8 5 9 13 11 11 13 8 15 9 16
REMARK H PARENT 5 10 13 12 11 14 9 17
REMARK Flexibility Score: inf
ROOT
ATOM      1  C   UNL     1      33.765 140.517 -30.721  1.00  0.00     0.221 C 
ATOM      2  C   UNL     1      33.310 139.145 -31.256  1.00  0.00     0.207 C 
ATOM      3  C   UNL     1      32.128 138.831 -30.378  1.00  0.00     0.180 C 
ATOM      4  C   UNL     1      31.569 140.231 -30.120  1.00  0.00     0.179 C 
ATOM      5  O   UNL     1      32.616 141.177 -30.216  1.00  0.00    -0.337 OA
ENDROOT
BRANCH   1   6
ATOM      6  O   UNL     1      34.700 140.283 -29.668  1.00  0.00    -0.349 OA
ATOM      7  C   UNL     1      34.727 141.320 -28.705  1.00  0.00     0.198 C 
ENDBRANCH   1   6
BRANCH   1   8
ATOM      8  C   UNL     1      34.396 141.359 -31.862  1.00  0.00     0.224 C 
BRANCH   8   9
ATOM      9  O   UNL     1      34.304 140.701 -33.098  1.00  0.00    -0.391 OA
ATOM     10  H   UNL     1      35.233 140.581 -33.428  1.00  0.00     0.210 HD
ENDBRANCH   8   9
ENDBRANCH   1   8
BRANCH   2  11
ATOM     11  O   UNL     1      34.311 138.164 -31.151  1.00  0.00    -0.385 OA
ATOM     12  H   UNL     1      34.983 138.375 -31.851  1.00  0.00     0.211 HD
ENDBRANCH   2  11
BRANCH   3  13
ATOM     13  O   UNL     1      32.542 138.216 -29.181  1.00  0.00    -0.387 OA
ATOM     14  H   UNL     1      32.292 137.258 -29.251  1.00  0.00     0.211 HD
ENDBRANCH   3  13
BRANCH   4  15
ATOM     15  C   UNL     1      30.833 140.383 -28.782  1.00  0.00     0.191 C 
BRANCH  15  16
ATOM     16  O   UNL     1      29.737 139.512 -28.720  1.00  0.00    -0.394 OA
ATOM     17  H   UNL     1      29.300 139.556 -29.610  1.00  0.00     0.210 HD
ENDBRANCH  15  16
ENDBRANCH   4  15
TORSDOF 7
ENDMDL
MODEL 3
REMARK VINA RESULT:    -3.752      1.744      3.185
REMARK INTER + INTRA:          -5.447
REMARK INTER:                  -4.770
REMARK INTRA:                  -0.677
REMARK UNBOUND:                -0.598
REMARK SMILES CO[C@]1(CO)O[C@H](CO)[C@H](O)[C@@H]1O
REMARK SMILES IDX 3 1 12 2 10 3 7 4 6 5 2 6 1 7 4 8 5 9 13 11 11 13 8 15 9 16
REMARK H PARENT 5 10 13 12 11 14 9 17
REMARK Flexibility Score: inf
ROOT
ATOM      1  C   UNL     1      33.427 140.138 -30.645  1.00  0.00     0.221 C 
ATOM      2  C   UNL     1      32.037 140.780 -30.472  1.00  0.00     0.207 C 
ATOM      3  C   UNL     1      31.658 140.364 -29.076  1.00  0.00     0.180 C 
ATOM      4  C   UNL     1      33.028 140.334 -28.394  1.00  0.00     0.179 C 
ATOM      5  O   UNL     1      34.025 140.072 -29.360  1.00  0.00    -0.337 OA
ENDROOT
BRANCH   1   6
ATOM      6  O   UNL     1      33.235 138.823 -31.165  1.00  0.00    -0.349 OA
ATOM      7  C   UNL     1      34.389 138.010 -31.069  1.00  0.00     0.198 C 
ENDBRANCH   1   6
BRANCH   1   8
ATOM      8  C   UNL     1      34.306 140.998 -31.591  1.00  0.00     0.224 C 
BRANCH   8   9
ATOM      9  O   UNL     1      33.831 140.959 -32.911  1.00  0.00    -0.391 OA
ATOM     10  H   UNL     1      34.460 140.388 -33.425  1.00  0.00     0.210 HD
ENDBRANCH   8   9
ENDBRANCH   1   8
BRANCH   2  11
ATOM     11  O   UNL     1      31.107 140.322 -31.422  1.00  0.00    -0.385 OA
ATOM     12  H   UNL     1      30.977 141.064 -32.067  1.00  0.00     0.211 HD
ENDBRANCH   2  11
BRANCH   3  13
ATOM     13  O   UNL     1      31.059 139.090 -29.078  1.00  0.00    -0.387 OA
ATOM     14  H   UNL     1      30.716 138.934 -28.159  1.00  0.00     0.211 HD
ENDBRANCH   3  13
BRANCH   4  15
ATOM     15  C   UNL     1      33.135 139.337 -27.231  1.00  0.00     0.191 C 
BRANCH  15  16
ATOM     16  O   UNL     1      33.328 138.036 -27.714  1.00  0.00    -0.394 OA
ATOM     17  H   UNL     1      33.443 137.460 -26.915  1.00  0.00     0.210 HD
ENDBRANCH  15  16
ENDBRANCH   4  15
TORSDOF 7
ENDMDL
MODEL 4
REMARK VINA RESULT:    -3.718      1.760      3.522
REMARK INTER + INTRA:          -5.402
REMARK INTER:                  -4.735
REMARK INTRA:                  -0.668
REMARK UNBOUND:                -0.598
REMARK SMILES CO[C@]1(CO)O[C@H](CO)[C@H](O)[C@@H]1O
REMARK SMILES IDX 3 1 12 2 10 3 7 4 6 5 2 6 1 7 4 8 5 9 13 11 11 13 8 15 9 16
REMARK H PARENT 5 10 13 12 11 14 9 17
REMARK Flexibility Score: inf
ROOT
ATOM      1  C   UNL     1      32.299 139.851 -29.099  1.00  0.00     0.221 C 
ATOM      2  C   UNL     1      31.473 139.340 -30.295  1.00  0.00     0.207 C 
ATOM      3  C   UNL     1      32.408 138.351 -30.937  1.00  0.00     0.180 C 
ATOM      4  C   UNL     1      33.155 137.814 -29.715  1.00  0.00     0.179 C 
ATOM      5  O   UNL     1      33.163 138.799 -28.702  1.00  0.00    -0.337 OA
ENDROOT
BRANCH   1   6
ATOM      6  O   UNL     1      33.062 140.971 -29.546  1.00  0.00    -0.349 OA
ATOM      7  C   UNL     1      34.197 141.231 -28.741  1.00  0.00     0.198 C 
ENDBRANCH   1   6
BRANCH   1   8
ATOM      8  C   UNL     1      31.364 140.237 -27.922  1.00  0.00     0.224 C 
BRANCH   8   9
ATOM      9  O   UNL     1      30.129 140.720 -28.384  1.00  0.00    -0.391 OA
ATOM     10  H   UNL     1      30.079 141.676 -28.119  1.00  0.00     0.210 HD
ENDBRANCH   8   9
ENDBRANCH   1   8
BRANCH   2  11
ATOM     11  O   UNL     1      31.114 140.369 -31.184  1.00  0.00    -0.385 OA
ATOM     12  H   UNL     1      31.760 140.328 -31.936  1.00  0.00     0.211 HD
ENDBRANCH   2  11
BRANCH   3  13
ATOM     13  O   UNL     1      33.284 138.997 -31.830  1.00  0.00    -0.387 OA
ATOM     14  H   UNL     1      34.050 139.326 -31.292  1.00  0.00     0.211 HD
ENDBRANCH   3  13
BRANCH   4  15
ATOM     15  C   UNL     1      34.585 137.335 -30.006  1.00  0.00     0.191 C 
BRANCH  15  16
ATOM     16  O   UNL     1      35.478 138.414 -29.994  1.00  0.00    -0.394 OA
ATOM     17  H   UNL     1      34.919 139.234 -29.988  1.00  0.00     0.210 HD
ENDBRANCH  15  16
ENDBRANCH   4  15
TORSDOF 7
ENDMDL
MODEL 5
REMARK VINA RESULT:    -3.710      1.638      3.502
REMARK INTER + INTRA:          -5.392
REMARK INTER:                  -4.679
REMARK INTRA:                  -0.713
REMARK UNBOUND:                -0.598
REMARK SMILES CO[C@]1(CO)O[C@H](CO)[C@H](O)[C@@H]1O
REMARK SMILES IDX 3 1 12 2 10 3 7 4 6 5 2 6 1 7 4 8 5 9 13 11 11 13 8 15 9 16
REMARK H PARENT 5 10 13 12 11 14 9 17
REMARK Flexibility Score: inf
ROOT
ATOM      1  C   UNL     1      34.337 140.249 -31.144  1.00  0.00     0.221 C 
ATOM      2  C   UNL     1      33.017 140.970 -30.810  1.00  0.00     0.207 C 
ATOM      3  C   UNL     1      32.982 140.903 -29.307  1.00  0.00     0.180 C 
ATOM      4  C   UNL     1      34.473 140.976 -28.972  1.00  0.00     0.179 C 
ATOM      5  O   UNL     1      35.220 140.457 -30.054  1.00  0.00    -0.337 OA
ENDROOT
BRANCH   1   6
ATOM      6  O   UNL     1      34.048 138.858 -31.284  1.00  0.00    -0.349 OA
ATOM      7  C   UNL     1      35.208 138.050 -31.334  1.00  0.00     0.198 C 
ENDBRANCH   1   6
BRANCH   1   8
ATOM      8  C   UNL     1      34.958 140.831 -32.442  1.00  0.00     0.224 C 
BRANCH   8   9
ATOM      9  O   UNL     1      34.087 140.693 -33.535  1.00  0.00    -0.391 OA
ATOM     10  H   UNL     1      34.254 139.794 -33.922  1.00  0.00     0.210 HD
ENDBRANCH   8   9
ENDBRANCH   1   8
BRANCH   2  11
ATOM     11  O   UNL     1      31.898 140.343 -31.385  1.00  0.00    -0.385 OA
ATOM     12  H   UNL     1      31.434 139.867 -30.648  1.00  0.00     0.211 HD
ENDBRANCH   2  11
BRANCH   3  13
ATOM     13  O   UNL     1      32.417 139.689 -28.872  1.00  0.00    -0.387 OA
ATOM     14  H   UNL     1      31.453 139.723 -29.104  1.00  0.00     0.211 HD
ENDBRANCH   3  13
BRANCH   4  15
ATOM     15  C   UNL     1      34.864 140.271 -27.666  1.00  0.00     0.191 C 
BRANCH  15  16
ATOM     16  O   UNL     1      35.039 138.898 -27.880  1.00  0.00    -0.394 OA
ATOM     17  H   UNL     1      34.411 138.650 -28.606  1.00  0.00     0.210 HD
ENDBRANCH  15  16
ENDBRANCH   4  15
TORSDOF 7
ENDMDL
MODEL 6
REMARK VINA RESULT:    -3.669      1.684      3.959
REMARK INTER + INTRA:          -5.339
REMARK INTER:                  -4.789
REMARK INTRA:                  -0.550
REMARK UNBOUND:                -0.598
REMARK SMILES CO[C@]1(CO)O[C@H](CO)[C@H](O)[C@@H]1O
REMARK SMILES IDX 3 1 12 2 10 3 7 4 6 5 2 6 1 7 4 8 5 9 13 11 11 13 8 15 9 16
REMARK H PARENT 5 10 13 12 11 14 9 17
REMARK Flexibility Score: inf
ROOT
ATOM      1  C   UNL     1      33.439 138.870 -30.594  1.00  0.00     0.221 C 
ATOM      2  C   UNL     1      34.570 139.418 -31.486  1.00  0.00     0.207 C 
ATOM      3  C   UNL     1      35.025 140.633 -30.723  1.00  0.00     0.180 C 
ATOM      4  C   UNL     1      34.785 140.185 -29.281  1.00  0.00     0.179 C 
ATOM      5  O   UNL     1      33.745 139.228 -29.256  1.00  0.00    -0.337 OA
ENDROOT
BRANCH   1   6
ATOM      6  O   UNL     1      32.222 139.495 -31.004  1.00  0.00    -0.349 OA
ATOM      7  C   UNL     1      31.109 139.117 -30.217  1.00  0.00     0.198 C 
ENDBRANCH   1   6
BRANCH   1   8
ATOM      8  C   UNL     1      33.352 137.325 -30.719  1.00  0.00     0.224 C 
BRANCH   8   9
ATOM      9  O   UNL     1      33.809 136.885 -31.972  1.00  0.00    -0.391 OA
ATOM     10  H   UNL     1      33.336 137.428 -32.656  1.00  0.00     0.210 HD
ENDBRANCH   8   9
ENDBRANCH   1   8
BRANCH   2  11
ATOM     11  O   UNL     1      34.127 139.751 -32.778  1.00  0.00    -0.385 OA
ATOM     12  H   UNL     1      34.832 139.443 -33.405  1.00  0.00     0.211 HD
ENDBRANCH   2  11
BRANCH   3  13
ATOM     13  O   UNL     1      34.238 141.754 -31.050  1.00  0.00    -0.387 OA
ATOM     14  H   UNL     1      33.723 141.989 -30.235  1.00  0.00     0.211 HD
ENDBRANCH   3  13
BRANCH   4  15
ATOM     15  C   UNL     1      34.480 141.330 -28.304  1.00  0.00     0.191 C 
BRANCH  15  16
ATOM     16  O   UNL     1      35.588 142.176 -28.176  1.00  0.00    -0.394 OA
ATOM     17  H   UNL     1      36.047 141.905 -27.339  1.00  0.00     0.210 HD
ENDBRANCH  15  16
ENDBRANCH   4  15
TORSDOF 7
ENDMDL
MODEL 7
REMARK VINA RESULT:    -3.628      1.219      4.044
REMARK INTER + INTRA:          -5.286
REMARK INTER:                  -4.596
REMARK INTRA:                  -0.690
REMARK UNBOUND:                -0.598
REMARK SMILES CO[C@]1(CO)O[C@H](CO)[C@H](O)[C@@H]1O
REMARK SMILES IDX 3 1 12 2 10 3 7 4 6 5 2 6 1 7 4 8 5 9 13 11 11 13 8 15 9 16
REMARK H PARENT 5 10 13 12 11 14 9 17
REMARK Flexibility Score: inf
ROOT
ATOM      1  C   UNL     1      33.026 140.195 -30.126  1.00  0.00     0.221 C 
ATOM      2  C   UNL     1      32.974 138.757 -29.576  1.00  0.00     0.207 C 
ATOM      3  C   UNL     1      34.097 138.753 -28.573  1.00  0.00     0.180 C 
ATOM      4  C   UNL     1      34.055 140.199 -28.076  1.00  0.00     0.179 C 
ATOM      5  O   UNL     1      33.524 141.027 -29.091  1.00  0.00    -0.337 OA
ENDROOT
BRANCH   1   6
ATOM      6  O   UNL     1      33.923 140.202 -31.237  1.00  0.00    -0.349 OA
ATOM      7  C   UNL     1      34.269 141.506 -31.666  1.00  0.00     0.198 C 
ENDBRANCH   1   6
BRANCH   1   8
ATOM      8  C   UNL     1      31.606 140.666 -30.543  1.00  0.00     0.224 C 
BRANCH   8   9
ATOM      9  O   UNL     1      30.828 139.597 -31.013  1.00  0.00    -0.391 OA
ATOM     10  H   UNL     1      31.157 139.382 -31.924  1.00  0.00     0.210 HD
ENDBRANCH   8   9
ENDBRANCH   1   8
BRANCH   2  11
ATOM     11  O   UNL     1      33.166 137.788 -30.576  1.00  0.00    -0.385 OA
ATOM     12  H   UNL     1      34.135 137.571 -30.573  1.00  0.00     0.211 HD
ENDBRANCH   2  11
BRANCH   3  13
ATOM     13  O   UNL     1      35.324 138.460 -29.196  1.00  0.00    -0.387 OA
ATOM     14  H   UNL     1      35.631 139.297 -29.632  1.00  0.00     0.211 HD
ENDBRANCH   3  13
BRANCH   4  15
ATOM     15  C   UNL     1      35.408 140.743 -27.597  1.00  0.00     0.191 C 
BRANCH  15  16
ATOM     16  O   UNL     1      36.059 141.428 -28.631  1.00  0.00    -0.394 OA
ATOM     17  H   UNL     1      35.594 142.300 -28.719  1.00  0.00     0.210 HD
ENDBRANCH  15  16
ENDBRANCH   4  15
TORSDOF 7
ENDMDL
MODEL 8
REMARK VINA RESULT:    -3.616      1.798      2.329
REMARK INTER + INTRA:          -5.271
REMARK INTER:                  -4.875
REMARK INTRA:                  -0.396
REMARK UNBOUND:                -0.598
REMARK SMILES CO[C@]1(CO)O[C@H](CO)[C@H](O)[C@@H]1O
REMARK SMILES IDX 3 1 12 2 10 3 7 4 6 5 2 6 1 7 4 8 5 9 13 11 11 13 8 15 9 16
REMARK H PARENT 5 10 13 12 11 14 9 17
REMARK Flexibility Score: inf
ROOT
ATOM      1  C   UNL     1      33.723 139.200 -30.336  1.00  0.00     0.221 C 
ATOM      2  C   UNL     1      33.464 140.616 -30.887  1.00  0.00     0.207 C 
ATOM      3  C   UNL     1      32.114 140.947 -30.309  1.00  0.00     0.180 C 
ATOM      4  C   UNL     1      32.172 140.203 -28.974  1.00  0.00     0.179 C 
ATOM      5  O   UNL     1      33.050 139.101 -29.092  1.00  0.00    -0.337 OA
ENDROOT
BRANCH   1   6
ATOM      6  O   UNL     1      33.175 138.267 -31.267  1.00  0.00    -0.349 OA
ATOM      7  C   UNL     1      33.884 137.043 -31.313  1.00  0.00     0.198 C 
ENDBRANCH   1   6
BRANCH   1   8
ATOM      8  C   UNL     1      35.244 138.969 -30.132  1.00  0.00     0.224 C 
BRANCH   8   9
ATOM      9  O   UNL     1      35.625 139.203 -28.802  1.00  0.00    -0.391 OA
ATOM     10  H   UNL     1      36.530 138.812 -28.690  1.00  0.00     0.210 HD
ENDBRANCH   8   9
ENDBRANCH   1   8
BRANCH   2  11
ATOM     11  O   UNL     1      33.453 140.657 -32.292  1.00  0.00    -0.385 OA
ATOM     12  H   UNL     1      33.857 141.526 -32.551  1.00  0.00     0.211 HD
ENDBRANCH   2  11
BRANCH   3  13
ATOM     13  O   UNL     1      31.083 140.451 -31.129  1.00  0.00    -0.387 OA
ATOM     14  H   UNL     1      31.452 140.393 -32.049  1.00  0.00     0.211 HD
ENDBRANCH   3  13
BRANCH   4  15
ATOM     15  C   UNL     1      30.806 139.743 -28.446  1.00  0.00     0.191 C 
BRANCH  15  16
ATOM     16  O   UNL     1      29.924 140.827 -28.349  1.00  0.00    -0.394 OA
ATOM     17  H   UNL     1      29.018 140.461 -28.516  1.00  0.00     0.210 HD
ENDBRANCH  15  16
ENDBRANCH   4  15
TORSDOF 7
ENDMDL
MODEL 9
REMARK VINA RESULT:    -3.506      1.602      3.711
REMARK INTER + INTRA:          -5.129
REMARK INTER:                  -4.481
REMARK INTRA:                  -0.648
REMARK UNBOUND:                -0.598
REMARK SMILES CO[C@]1(CO)O[C@H](CO)[C@H](O)[C@@H]1O
REMARK SMILES IDX 3 1 12 2 10 3 7 4 6 5 2 6 1 7 4 8 5 9 13 11 11 13 8 15 9 16
REMARK H PARENT 5 10 13 12 11 14 9 17
REMARK Flexibility Score: inf
ROOT
ATOM      1  C   UNL     1      32.732 139.536 -30.098  1.00  0.00     0.221 C 
ATOM      2  C   UNL     1      33.076 140.790 -29.271  1.00  0.00     0.207 C 
ATOM      3  C   UNL     1      34.195 141.407 -30.067  1.00  0.00     0.180 C 
ATOM      4  C   UNL     1      33.796 141.017 -31.491  1.00  0.00     0.179 C 
ATOM      5  O   UNL     1      33.032 139.828 -31.453  1.00  0.00    -0.337 OA
ENDROOT
BRANCH   1   6
ATOM      6  O   UNL     1      33.558 138.469 -29.631  1.00  0.00    -0.349 OA
ATOM      7  C   UNL     1      33.427 137.286 -30.397  1.00  0.00     0.198 C 
ENDBRANCH   1   6
BRANCH   1   8
ATOM      8  C   UNL     1      31.226 139.190 -29.955  1.00  0.00     0.224 C 
BRANCH   8   9
ATOM      9  O   UNL     1      30.561 140.119 -29.139  1.00  0.00    -0.391 OA
ATOM     10  H   UNL     1      31.044 140.981 -29.235  1.00  0.00     0.210 HD
ENDBRANCH   8   9
ENDBRANCH   1   8
BRANCH   2  11
ATOM     11  O   UNL     1      33.480 140.479 -27.960  1.00  0.00    -0.385 OA
ATOM     12  H   UNL     1      33.327 139.506 -27.843  1.00  0.00     0.211 HD
ENDBRANCH   2  11
BRANCH   3  13
ATOM     13  O   UNL     1      35.434 140.843 -29.709  1.00  0.00    -0.387 OA
ATOM     14  H   UNL     1      35.767 140.354 -30.506  1.00  0.00     0.211 HD
ENDBRANCH   3  13
BRANCH   4  15
ATOM     15  C   UNL     1      34.976 140.864 -32.460  1.00  0.00     0.191 C 
BRANCH  15  16
ATOM     16  O   UNL     1      35.392 139.528 -32.523  1.00  0.00    -0.394 OA
ATOM     17  H   UNL     1      36.241 139.479 -32.012  1.00  0.00     0.210 HD
ENDBRANCH  15  16
ENDBRANCH   4  15
TORSDOF 7
ENDMDL
