MODEL 1
REMARK VINA RESULT:    -6.271      0.000      0.000
REMARK INTER + INTRA:          -7.636
REMARK INTER:                  -7.371
REMARK INTRA:                  -0.265
REMARK UNBOUND:                -0.265
REMARK SMILES O=c1cc(-c2ccc(O)c(O)c2)oc2cc(O)cc(O)c12
REMARK SMILES IDX 4 1 3 2 2 3 1 4 21 5 19 6 18 7 16 8 15 9 14 10 13 11 5 12
REMARK SMILES IDX 6 13 7 14 8 15 12 16 10 17 9 18 11 20 20 22 17 24
REMARK H PARENT 9 19 11 21 20 23 17 25
REMARK Flexibility Score: inf
ROOT
ATOM      1  C   UNL     1      -1.929  -1.001  20.163  1.00  0.00     0.138 A 
ATOM      2  C   UNL     1      -1.240  -1.625  19.114  1.00  0.00     0.100 A 
ATOM      3  C   UNL     1      -0.039  -2.286  19.374  1.00  0.00     0.197 A 
ATOM      4  O   UNL     1       0.588  -2.783  18.402  1.00  0.00    -0.289 OA
ATOM      5  C   UNL     1       0.458  -2.348  20.697  1.00  0.00     0.107 A 
ATOM      6  C   UNL     1       1.649  -3.029  21.086  1.00  0.00     0.134 A 
ATOM      7  C   UNL     1       2.104  -2.924  22.407  1.00  0.00     0.093 A 
ATOM      8  C   UNL     1       1.380  -2.216  23.364  1.00  0.00     0.123 A 
ATOM      9  C   UNL     1       0.184  -1.591  23.008  1.00  0.00     0.094 A 
ATOM     10  C   UNL     1      -0.278  -1.648  21.691  1.00  0.00     0.146 A 
ATOM     11  O   UNL     1      -1.413  -1.027  21.387  1.00  0.00    -0.456 OA
ENDROOT
BRANCH   1  12
ATOM     12  C   UNL     1      -3.211  -0.284  19.943  1.00  0.00     0.021 A 
ATOM     13  C   UNL     1      -3.191   1.047  19.494  1.00  0.00     0.016 A 
ATOM     14  C   UNL     1      -4.383   1.745  19.287  1.00  0.00     0.051 A 
ATOM     15  C   UNL     1      -5.616   1.130  19.534  1.00  0.00     0.157 A 
ATOM     16  C   UNL     1      -4.454  -0.894  20.203  1.00  0.00     0.062 A 
ATOM     17  C   UNL     1      -5.650  -0.196  19.997  1.00  0.00     0.158 A 
BRANCH  15  18
ATOM     18  O   UNL     1      -6.804   1.829  19.325  1.00  0.00    -0.504 OA
ATOM     19  H   UNL     1      -6.828   2.681  18.779  1.00  0.00     0.293 HD
ENDBRANCH  15  18
BRANCH  17  20
ATOM     20  O   UNL     1      -6.860  -0.834  20.264  1.00  0.00    -0.504 OA
ATOM     21  H   UNL     1      -7.546  -1.012  19.540  1.00  0.00     0.293 HD
ENDBRANCH  17  20
ENDBRANCH   1  12
BRANCH   6  22
ATOM     22  O   UNL     1       2.404  -3.835  20.228  1.00  0.00    -0.507 OA
ATOM     23  H   UNL     1       2.174  -4.783  19.977  1.00  0.00     0.293 HD
ENDBRANCH   6  22
BRANCH   8  24
ATOM     24  O   UNL     1       1.854  -2.146  24.673  1.00  0.00    -0.508 OA
ATOM     25  H   UNL     1       2.844  -2.080  24.874  1.00  0.00     0.293 HD
ENDBRANCH   8  24
TORSDOF 5
ENDMDL
MODEL 2
REMARK VINA RESULT:    -6.063      4.850      6.988
REMARK INTER + INTRA:          -7.392
REMARK INTER:                  -7.121
REMARK INTRA:                  -0.271
REMARK UNBOUND:                -0.265
REMARK SMILES O=c1cc(-c2ccc(O)c(O)c2)oc2cc(O)cc(O)c12
REMARK SMILES IDX 4 1 3 2 2 3 1 4 21 5 19 6 18 7 16 8 15 9 14 10 13 11 5 12
REMARK SMILES IDX 6 13 7 14 8 15 12 16 10 17 9 18 11 20 20 22 17 24
REMARK H PARENT 9 19 11 21 20 23 17 25
REMARK Flexibility Score: inf
ROOT
ATOM      1  C   UNL     1       1.443  -3.777  22.787  1.00  0.00     0.138 A 
ATOM      2  C   UNL     1       2.480  -3.516  23.693  1.00  0.00     0.100 A 
ATOM      3  C   UNL     1       2.177  -3.230  25.025  1.00  0.00     0.197 A 
ATOM      4  O   UNL     1       3.125  -2.940  25.800  1.00  0.00    -0.289 OA
ATOM      5  C   UNL     1       0.829  -3.237  25.456  1.00  0.00     0.107 A 
ATOM      6  C   UNL     1       0.406  -3.001  26.798  1.00  0.00     0.134 A 
ATOM      7  C   UNL     1      -0.963  -2.917  27.084  1.00  0.00     0.093 A 
ATOM      8  C   UNL     1      -1.920  -3.121  26.093  1.00  0.00     0.123 A 
ATOM      9  C   UNL     1      -1.518  -3.407  24.787  1.00  0.00     0.094 A 
ATOM     10  C   UNL     1      -0.160  -3.463  24.463  1.00  0.00     0.146 A 
ATOM     11  O   UNL     1       0.183  -3.723  23.206  1.00  0.00    -0.456 OA
ENDROOT
BRANCH   1  12
ATOM     12  C   UNL     1       1.708  -4.087  21.358  1.00  0.00     0.021 A 
ATOM     13  C   UNL     1       2.368  -5.281  21.022  1.00  0.00     0.016 A 
ATOM     14  C   UNL     1       2.637  -5.592  19.687  1.00  0.00     0.051 A 
ATOM     15  C   UNL     1       2.260  -4.712  18.665  1.00  0.00     0.157 A 
ATOM     16  C   UNL     1       1.344  -3.199  20.328  1.00  0.00     0.062 A 
ATOM     17  C   UNL     1       1.613  -3.507  18.989  1.00  0.00     0.158 A 
BRANCH  15  18
ATOM     18  O   UNL     1       2.528  -5.025  17.333  1.00  0.00    -0.504 OA
ATOM     19  H   UNL     1       2.487  -4.323  16.605  1.00  0.00     0.293 HD
ENDBRANCH  15  18
BRANCH  17  20
ATOM     20  O   UNL     1       1.236  -2.604  17.997  1.00  0.00    -0.504 OA
ATOM     21  H   UNL     1       0.349  -2.677  17.512  1.00  0.00     0.293 HD
ENDBRANCH  17  20
ENDBRANCH   1  12
BRANCH   6  22
ATOM     22  O   UNL     1       1.280  -2.866  27.882  1.00  0.00    -0.507 OA
ATOM     23  H   UNL     1       1.056  -2.404  28.748  1.00  0.00     0.293 HD
ENDBRANCH   6  22
BRANCH   8  24
ATOM     24  O   UNL     1      -3.273  -3.046  26.417  1.00  0.00    -0.508 OA
ATOM     25  H   UNL     1      -3.699  -2.178  26.719  1.00  0.00     0.293 HD
ENDBRANCH   8  24
TORSDOF 5
ENDMDL
MODEL 3
REMARK VINA RESULT:    -5.825      1.869      2.538
REMARK INTER + INTRA:          -7.112
REMARK INTER:                  -6.796
REMARK INTRA:                  -0.316
REMARK UNBOUND:                -0.265
REMARK SMILES O=c1cc(-c2ccc(O)c(O)c2)oc2cc(O)cc(O)c12
REMARK SMILES IDX 4 1 3 2 2 3 1 4 21 5 19 6 18 7 16 8 15 9 14 10 13 11 5 12
REMARK SMILES IDX 6 13 7 14 8 15 12 16 10 17 9 18 11 20 20 22 17 24
REMARK H PARENT 9 19 11 21 20 23 17 25
REMARK Flexibility Score: inf
ROOT
ATOM      1  C   UNL     1      -2.151  -1.109  21.686  1.00  0.00     0.138 A 
ATOM      2  C   UNL     1      -0.816  -1.005  21.271  1.00  0.00     0.100 A 
ATOM      3  C   UNL     1       0.206  -1.428  22.121  1.00  0.00     0.197 A 
ATOM      4  O   UNL     1       1.397  -1.265  21.746  1.00  0.00    -0.289 OA
ATOM      5  C   UNL     1      -0.114  -1.988  23.381  1.00  0.00     0.107 A 
ATOM      6  C   UNL     1       0.843  -2.490  24.312  1.00  0.00     0.134 A 
ATOM      7  C   UNL     1       0.417  -2.914  25.577  1.00  0.00     0.093 A 
ATOM      8  C   UNL     1      -0.934  -2.910  25.921  1.00  0.00     0.123 A 
ATOM      9  C   UNL     1      -1.884  -2.472  24.998  1.00  0.00     0.094 A 
ATOM     10  C   UNL     1      -1.487  -2.010  23.741  1.00  0.00     0.146 A 
ATOM     11  O   UNL     1      -2.421  -1.587  22.896  1.00  0.00    -0.456 OA
ENDROOT
BRANCH   1  12
ATOM     12  C   UNL     1      -3.277  -0.674  20.820  1.00  0.00     0.021 A 
ATOM     13  C   UNL     1      -3.012   0.098  19.677  1.00  0.00     0.016 A 
ATOM     14  C   UNL     1      -4.055   0.526  18.852  1.00  0.00     0.051 A 
ATOM     15  C   UNL     1      -5.381   0.199  19.159  1.00  0.00     0.157 A 
ATOM     16  C   UNL     1      -4.614  -0.989  21.133  1.00  0.00     0.062 A 
ATOM     17  C   UNL     1      -5.661  -0.559  20.308  1.00  0.00     0.158 A 
BRANCH  15  18
ATOM     18  O   UNL     1      -6.420   0.627  18.333  1.00  0.00    -0.504 OA
ATOM     19  H   UNL     1      -6.425   1.554  17.925  1.00  0.00     0.293 HD
ENDBRANCH  15  18
BRANCH  17  20
ATOM     20  O   UNL     1      -6.971  -0.892  20.649  1.00  0.00    -0.504 OA
ATOM     21  H   UNL     1      -7.228  -1.823  20.956  1.00  0.00     0.293 HD
ENDBRANCH  17  20
ENDBRANCH   1  12
BRANCH   6  22
ATOM     22  O   UNL     1       2.209  -2.617  24.039  1.00  0.00    -0.507 OA
ATOM     23  H   UNL     1       2.905  -2.906  24.707  1.00  0.00     0.293 HD
ENDBRANCH   6  22
BRANCH   8  24
ATOM     24  O   UNL     1      -1.323  -3.354  27.184  1.00  0.00    -0.508 OA
ATOM     25  H   UNL     1      -0.954  -4.209  27.582  1.00  0.00     0.293 HD
ENDBRANCH   8  24
TORSDOF 5
ENDMDL
MODEL 4
REMARK VINA RESULT:    -5.806      2.492      3.824
REMARK INTER + INTRA:          -7.090
REMARK INTER:                  -6.818
REMARK INTRA:                  -0.272
REMARK UNBOUND:                -0.265
REMARK SMILES O=c1cc(-c2ccc(O)c(O)c2)oc2cc(O)cc(O)c12
REMARK SMILES IDX 4 1 3 2 2 3 1 4 21 5 19 6 18 7 16 8 15 9 14 10 13 11 5 12
REMARK SMILES IDX 6 13 7 14 8 15 12 16 10 17 9 18 11 20 20 22 17 24
REMARK H PARENT 9 19 11 21 20 23 17 25
REMARK Flexibility Score: inf
ROOT
ATOM      1  C   UNL     1      -3.034  -1.356  23.525  1.00  0.00     0.138 A 
ATOM      2  C   UNL     1      -3.121  -2.041  24.745  1.00  0.00     0.100 A 
ATOM      3  C   UNL     1      -2.002  -2.712  25.241  1.00  0.00     0.197 A 
ATOM      4  O   UNL     1      -2.128  -3.369  26.307  1.00  0.00    -0.289 OA
ATOM      5  C   UNL     1      -0.782  -2.669  24.525  1.00  0.00     0.107 A 
ATOM      6  C   UNL     1       0.432  -3.281  24.955  1.00  0.00     0.134 A 
ATOM      7  C   UNL     1       1.547  -3.271  24.107  1.00  0.00     0.093 A 
ATOM      8  C   UNL     1       1.510  -2.621  22.875  1.00  0.00     0.123 A 
ATOM      9  C   UNL     1       0.343  -1.972  22.468  1.00  0.00     0.094 A 
ATOM     10  C   UNL     1      -0.796  -1.994  23.276  1.00  0.00     0.146 A 
ATOM     11  O   UNL     1      -1.892  -1.377  22.846  1.00  0.00    -0.456 OA
ENDROOT
BRANCH   1  12
ATOM     12  C   UNL     1      -4.193  -0.624  22.951  1.00  0.00     0.021 A 
ATOM     13  C   UNL     1      -4.637   0.558  23.567  1.00  0.00     0.016 A 
ATOM     14  C   UNL     1      -5.730   1.259  23.052  1.00  0.00     0.051 A 
ATOM     15  C   UNL     1      -6.404   0.787  21.919  1.00  0.00     0.157 A 
ATOM     16  C   UNL     1      -4.883  -1.102  21.820  1.00  0.00     0.062 A 
ATOM     17  C   UNL     1      -5.979  -0.402  21.303  1.00  0.00     0.158 A 
BRANCH  15  18
ATOM     18  O   UNL     1      -7.493   1.490  21.406  1.00  0.00    -0.504 OA
ATOM     19  H   UNL     1      -7.836   2.334  21.849  1.00  0.00     0.293 HD
ENDBRANCH  15  18
BRANCH  17  20
ATOM     20  O   UNL     1      -6.635  -0.905  20.181  1.00  0.00    -0.504 OA
ATOM     21  H   UNL     1      -7.569  -0.606  19.923  1.00  0.00     0.293 HD
ENDBRANCH  17  20
ENDBRANCH   1  12
BRANCH   6  22
ATOM     22  O   UNL     1       0.604  -3.886  26.205  1.00  0.00    -0.507 OA
ATOM     23  H   UNL     1      -0.098  -3.925  26.927  1.00  0.00     0.293 HD
ENDBRANCH   6  22
BRANCH   8  24
ATOM     24  O   UNL     1       2.643  -2.618  22.064  1.00  0.00    -0.508 OA
ATOM     25  H   UNL     1       2.849  -3.387  21.437  1.00  0.00     0.293 HD
ENDBRANCH   8  24
TORSDOF 5
ENDMDL
MODEL 5
REMARK VINA RESULT:    -5.742      1.924      7.616
REMARK INTER + INTRA:          -7.014
REMARK INTER:                  -6.701
REMARK INTRA:                  -0.313
REMARK UNBOUND:                -0.265
REMARK SMILES O=c1cc(-c2ccc(O)c(O)c2)oc2cc(O)cc(O)c12
REMARK SMILES IDX 4 1 3 2 2 3 1 4 21 5 19 6 18 7 16 8 15 9 14 10 13 11 5 12
REMARK SMILES IDX 6 13 7 14 8 15 12 16 10 17 9 18 11 20 20 22 17 24
REMARK H PARENT 9 19 11 21 20 23 17 25
REMARK Flexibility Score: inf
ROOT
ATOM      1  C   UNL     1      -2.864  -0.480  19.883  1.00  0.00     0.138 A 
ATOM      2  C   UNL     1      -3.432   0.009  21.068  1.00  0.00     0.100 A 
ATOM      3  C   UNL     1      -4.619   0.740  21.014  1.00  0.00     0.197 A 
ATOM      4  O   UNL     1      -5.071   1.218  22.087  1.00  0.00    -0.289 OA
ATOM      5  C   UNL     1      -5.257   0.955  19.769  1.00  0.00     0.107 A 
ATOM      6  C   UNL     1      -6.492   1.649  19.599  1.00  0.00     0.134 A 
ATOM      7  C   UNL     1      -6.968   1.901  18.306  1.00  0.00     0.093 A 
ATOM      8  C   UNL     1      -6.289   1.432  17.183  1.00  0.00     0.123 A 
ATOM      9  C   UNL     1      -5.109   0.704  17.340  1.00  0.00     0.094 A 
ATOM     10  C   UNL     1      -4.589   0.467  18.615  1.00  0.00     0.146 A 
ATOM     11  O   UNL     1      -3.455  -0.217  18.721  1.00  0.00    -0.456 OA
ENDROOT
BRANCH   1  12
ATOM     12  C   UNL     1      -1.602  -1.264  19.882  1.00  0.00     0.021 A 
ATOM     13  C   UNL     1      -0.759  -1.216  21.005  1.00  0.00     0.016 A 
ATOM     14  C   UNL     1       0.437  -1.938  21.026  1.00  0.00     0.051 A 
ATOM     15  C   UNL     1       0.816  -2.712  19.923  1.00  0.00     0.157 A 
ATOM     16  C   UNL     1      -1.210  -2.033  18.770  1.00  0.00     0.062 A 
ATOM     17  C   UNL     1      -0.011  -2.756  18.788  1.00  0.00     0.158 A 
BRANCH  15  18
ATOM     18  O   UNL     1       2.009  -3.432  19.947  1.00  0.00    -0.504 OA
ATOM     19  H   UNL     1       2.601  -3.505  19.128  1.00  0.00     0.293 HD
ENDBRANCH  15  18
BRANCH  17  20
ATOM     20  O   UNL     1       0.343  -3.508  17.668  1.00  0.00    -0.504 OA
ATOM     21  H   UNL     1      -0.179  -4.328  17.383  1.00  0.00     0.293 HD
ENDBRANCH  17  20
ENDBRANCH   1  12
BRANCH   6  22
ATOM     22  O   UNL     1      -7.294   2.088  20.657  1.00  0.00    -0.507 OA
ATOM     23  H   UNL     1      -6.966   2.623  21.445  1.00  0.00     0.293 HD
ENDBRANCH   6  22
BRANCH   8  24
ATOM     24  O   UNL     1      -6.801   1.688  15.913  1.00  0.00    -0.508 OA
ATOM     25  H   UNL     1      -7.230   0.958  15.357  1.00  0.00     0.293 HD
ENDBRANCH   8  24
TORSDOF 5
ENDMDL
MODEL 6
REMARK VINA RESULT:    -5.700      4.678      6.821
REMARK INTER + INTRA:          -6.965
REMARK INTER:                  -6.669
REMARK INTRA:                  -0.296
REMARK UNBOUND:                -0.265
REMARK SMILES O=c1cc(-c2ccc(O)c(O)c2)oc2cc(O)cc(O)c12
REMARK SMILES IDX 4 1 3 2 2 3 1 4 21 5 19 6 18 7 16 8 15 9 14 10 13 11 5 12
REMARK SMILES IDX 6 13 7 14 8 15 12 16 10 17 9 18 11 20 20 22 17 24
REMARK H PARENT 9 19 11 21 20 23 17 25
REMARK Flexibility Score: inf
ROOT
ATOM      1  C   UNL     1       1.459  -3.269  22.716  1.00  0.00     0.138 A 
ATOM      2  C   UNL     1       0.617  -2.178  22.970  1.00  0.00     0.100 A 
ATOM      3  C   UNL     1       0.445  -1.730  24.281  1.00  0.00     0.197 A 
ATOM      4  O   UNL     1      -0.365  -0.788  24.485  1.00  0.00    -0.289 OA
ATOM      5  C   UNL     1       1.145  -2.360  25.337  1.00  0.00     0.107 A 
ATOM      6  C   UNL     1       1.079  -1.962  26.705  1.00  0.00     0.134 A 
ATOM      7  C   UNL     1       1.725  -2.734  27.680  1.00  0.00     0.093 A 
ATOM      8  C   UNL     1       2.482  -3.850  27.329  1.00  0.00     0.123 A 
ATOM      9  C   UNL     1       2.599  -4.216  25.988  1.00  0.00     0.094 A 
ATOM     10  C   UNL     1       1.938  -3.488  24.997  1.00  0.00     0.146 A 
ATOM     11  O   UNL     1       2.062  -3.877  23.732  1.00  0.00    -0.456 OA
ENDROOT
BRANCH   1  12
ATOM     12  C   UNL     1       1.678  -3.787  21.341  1.00  0.00     0.021 A 
ATOM     13  C   UNL     1       2.344  -5.011  21.161  1.00  0.00     0.016 A 
ATOM     14  C   UNL     1       2.570  -5.515  19.878  1.00  0.00     0.051 A 
ATOM     15  C   UNL     1       2.143  -4.801  18.752  1.00  0.00     0.157 A 
ATOM     16  C   UNL     1       1.264  -3.066  20.204  1.00  0.00     0.062 A 
ATOM     17  C   UNL     1       1.490  -3.568  18.917  1.00  0.00     0.158 A 
BRANCH  15  18
ATOM     18  O   UNL     1       2.369  -5.307  17.473  1.00  0.00    -0.504 OA
ATOM     19  H   UNL     1       3.169  -5.894  17.268  1.00  0.00     0.293 HD
ENDBRANCH  15  18
BRANCH  17  20
ATOM     20  O   UNL     1       1.063  -2.827  17.816  1.00  0.00    -0.504 OA
ATOM     21  H   UNL     1       0.524  -3.240  17.065  1.00  0.00     0.293 HD
ENDBRANCH  17  20
ENDBRANCH   1  12
BRANCH   6  22
ATOM     22  O   UNL     1       0.418  -0.814  27.155  1.00  0.00    -0.507 OA
ATOM     23  H   UNL     1       0.243  -0.593  28.122  1.00  0.00     0.293 HD
ENDBRANCH   6  22
BRANCH   8  24
ATOM     24  O   UNL     1       3.125  -4.585  28.324  1.00  0.00    -0.508 OA
ATOM     25  H   UNL     1       4.087  -4.401  28.581  1.00  0.00     0.293 HD
ENDBRANCH   8  24
TORSDOF 5
ENDMDL
MODEL 7
REMARK VINA RESULT:    -5.683      3.424      7.448
REMARK INTER + INTRA:          -6.945
REMARK INTER:                  -6.643
REMARK INTRA:                  -0.302
REMARK UNBOUND:                -0.265
REMARK SMILES O=c1cc(-c2ccc(O)c(O)c2)oc2cc(O)cc(O)c12
REMARK SMILES IDX 4 1 3 2 2 3 1 4 21 5 19 6 18 7 16 8 15 9 14 10 13 11 5 12
REMARK SMILES IDX 6 13 7 14 8 15 12 16 10 17 9 18 11 20 20 22 17 24
REMARK H PARENT 9 19 11 21 20 23 17 25
REMARK Flexibility Score: inf
ROOT
ATOM      1  C   UNL     1       1.731  -3.479  23.852  1.00  0.00     0.138 A 
ATOM      2  C   UNL     1       2.369  -4.463  23.084  1.00  0.00     0.100 A 
ATOM      3  C   UNL     1       2.260  -4.431  21.693  1.00  0.00     0.197 A 
ATOM      4  O   UNL     1       2.792  -5.363  21.035  1.00  0.00    -0.289 OA
ATOM      5  C   UNL     1       1.534  -3.390  21.068  1.00  0.00     0.107 A 
ATOM      6  C   UNL     1       1.391  -3.234  19.657  1.00  0.00     0.134 A 
ATOM      7  C   UNL     1       0.552  -2.231  19.156  1.00  0.00     0.093 A 
ATOM      8  C   UNL     1      -0.100  -1.343  20.011  1.00  0.00     0.123 A 
ATOM      9  C   UNL     1       0.076  -1.452  21.391  1.00  0.00     0.094 A 
ATOM     10  C   UNL     1       0.879  -2.464  21.922  1.00  0.00     0.146 A 
ATOM     11  O   UNL     1       1.009  -2.544  23.242  1.00  0.00    -0.456 OA
ENDROOT
BRANCH   1  12
ATOM     12  C   UNL     1       1.814  -3.465  25.335  1.00  0.00     0.021 A 
ATOM     13  C   UNL     1       2.995  -3.891  25.965  1.00  0.00     0.016 A 
ATOM     14  C   UNL     1       3.096  -3.895  27.358  1.00  0.00     0.051 A 
ATOM     15  C   UNL     1       2.015  -3.482  28.147  1.00  0.00     0.157 A 
ATOM     16  C   UNL     1       0.725  -3.063  26.133  1.00  0.00     0.062 A 
ATOM     17  C   UNL     1       0.823  -3.068  27.530  1.00  0.00     0.158 A 
BRANCH  15  18
ATOM     18  O   UNL     1       2.118  -3.485  29.537  1.00  0.00    -0.504 OA
ATOM     19  H   UNL     1       2.989  -3.711  30.003  1.00  0.00     0.293 HD
ENDBRANCH  15  18
BRANCH  17  20
ATOM     20  O   UNL     1      -0.276  -2.662  28.286  1.00  0.00    -0.504 OA
ATOM     21  H   UNL     1      -1.220  -2.686  27.920  1.00  0.00     0.293 HD
ENDBRANCH  17  20
ENDBRANCH   1  12
BRANCH   6  22
ATOM     22  O   UNL     1       2.064  -4.015  18.712  1.00  0.00    -0.507 OA
ATOM     23  H   UNL     1       2.780  -4.691  18.927  1.00  0.00     0.293 HD
ENDBRANCH   6  22
BRANCH   8  24
ATOM     24  O   UNL     1      -0.915  -0.347  19.476  1.00  0.00    -0.508 OA
ATOM     25  H   UNL     1      -1.212   0.448  20.028  1.00  0.00     0.293 HD
ENDBRANCH   8  24
TORSDOF 5
ENDMDL
MODEL 8
REMARK VINA RESULT:    -5.638      5.148      8.099
REMARK INTER + INTRA:          -6.892
REMARK INTER:                  -6.611
REMARK INTRA:                  -0.281
REMARK UNBOUND:                -0.265
REMARK SMILES O=c1cc(-c2ccc(O)c(O)c2)oc2cc(O)cc(O)c12
REMARK SMILES IDX 4 1 3 2 2 3 1 4 21 5 19 6 18 7 16 8 15 9 14 10 13 11 5 12
REMARK SMILES IDX 6 13 7 14 8 15 12 16 10 17 9 18 11 20 20 22 17 24
REMARK H PARENT 9 19 11 21 20 23 17 25
REMARK Flexibility Score: inf
ROOT
ATOM      1  C   UNL     1       0.897  -3.656  25.267  1.00  0.00     0.138 A 
ATOM      2  C   UNL     1      -0.382  -3.150  25.533  1.00  0.00     0.100 A 
ATOM      3  C   UNL     1      -0.748  -2.858  26.848  1.00  0.00     0.197 A 
ATOM      4  O   UNL     1      -1.924  -2.463  27.063  1.00  0.00    -0.289 OA
ATOM      5  C   UNL     1       0.184  -3.045  27.896  1.00  0.00     0.107 A 
ATOM      6  C   UNL     1      -0.065  -2.743  29.268  1.00  0.00     0.134 A 
ATOM      7  C   UNL     1       0.892  -3.079  30.233  1.00  0.00     0.093 A 
ATOM      8  C   UNL     1       2.111  -3.650  29.870  1.00  0.00     0.123 A 
ATOM      9  C   UNL     1       2.388  -3.900  28.526  1.00  0.00     0.094 A 
ATOM     10  C   UNL     1       1.439  -3.608  27.543  1.00  0.00     0.146 A 
ATOM     11  O   UNL     1       1.735  -3.875  26.275  1.00  0.00    -0.456 OA
ENDROOT
BRANCH   1  12
ATOM     12  C   UNL     1       1.340  -3.983  23.887  1.00  0.00     0.021 A 
ATOM     13  C   UNL     1       2.087  -5.151  23.659  1.00  0.00     0.016 A 
ATOM     14  C   UNL     1       2.522  -5.477  22.372  1.00  0.00     0.051 A 
ATOM     15  C   UNL     1       2.225  -4.637  21.291  1.00  0.00     0.157 A 
ATOM     16  C   UNL     1       1.056  -3.136  22.799  1.00  0.00     0.062 A 
ATOM     17  C   UNL     1       1.492  -3.459  21.508  1.00  0.00     0.158 A 
BRANCH  15  18
ATOM     18  O   UNL     1       2.659  -4.965  20.008  1.00  0.00    -0.504 OA
ATOM     19  H   UNL     1       3.249  -5.771  19.837  1.00  0.00     0.293 HD
ENDBRANCH  15  18
BRANCH  17  20
ATOM     20  O   UNL     1       1.190  -2.596  20.455  1.00  0.00    -0.504 OA
ATOM     21  H   UNL     1       1.138  -1.592  20.581  1.00  0.00     0.293 HD
ENDBRANCH  17  20
ENDBRANCH   1  12
BRANCH   6  22
ATOM     22  O   UNL     1      -1.216  -2.096  29.729  1.00  0.00    -0.507 OA
ATOM     23  H   UNL     1      -1.948  -2.535  30.264  1.00  0.00     0.293 HD
ENDBRANCH   6  22
BRANCH   8  24
ATOM     24  O   UNL     1       3.047  -3.957  30.857  1.00  0.00    -0.508 OA
ATOM     25  H   UNL     1       3.985  -4.257  30.622  1.00  0.00     0.293 HD
ENDBRANCH   8  24
TORSDOF 5
ENDMDL
MODEL 9
REMARK VINA RESULT:    -5.605      3.029      7.692
REMARK INTER + INTRA:          -6.854
REMARK INTER:                  -6.589
REMARK INTRA:                  -0.265
REMARK UNBOUND:                -0.265
REMARK SMILES O=c1cc(-c2ccc(O)c(O)c2)oc2cc(O)cc(O)c12
REMARK SMILES IDX 4 1 3 2 2 3 1 4 21 5 19 6 18 7 16 8 15 9 14 10 13 11 5 12
REMARK SMILES IDX 6 13 7 14 8 15 12 16 10 17 9 18 11 20 20 22 17 24
REMARK H PARENT 9 19 11 21 20 23 17 25
REMARK Flexibility Score: inf
ROOT
ATOM      1  C   UNL     1      -1.666  -1.576  23.640  1.00  0.00     0.138 A 
ATOM      2  C   UNL     1      -1.777  -0.897  24.861  1.00  0.00     0.100 A 
ATOM      3  C   UNL     1      -2.887  -0.085  25.100  1.00  0.00     0.197 A 
ATOM      4  O   UNL     1      -2.929   0.561  26.180  1.00  0.00    -0.289 OA
ATOM      5  C   UNL     1      -3.904   0.022  24.122  1.00  0.00     0.107 A 
ATOM      6  C   UNL     1      -5.099   0.786  24.274  1.00  0.00     0.134 A 
ATOM      7  C   UNL     1      -5.980   0.911  23.191  1.00  0.00     0.093 A 
ATOM      8  C   UNL     1      -5.740   0.250  21.988  1.00  0.00     0.123 A 
ATOM      9  C   UNL     1      -4.602  -0.546  21.847  1.00  0.00     0.094 A 
ATOM     10  C   UNL     1      -3.687  -0.661  22.895  1.00  0.00     0.146 A 
ATOM     11  O   UNL     1      -2.608  -1.415  22.717  1.00  0.00    -0.456 OA
ENDROOT
BRANCH   1  12
ATOM     12  C   UNL     1      -0.506  -2.453  23.334  1.00  0.00     0.021 A 
ATOM     13  C   UNL     1       0.438  -2.042  22.378  1.00  0.00     0.016 A 
ATOM     14  C   UNL     1       1.532  -2.852  22.066  1.00  0.00     0.051 A 
ATOM     15  C   UNL     1       1.698  -4.092  22.697  1.00  0.00     0.157 A 
ATOM     16  C   UNL     1      -0.343  -3.707  23.954  1.00  0.00     0.062 A 
ATOM     17  C   UNL     1       0.752  -4.522  23.643  1.00  0.00     0.158 A 
BRANCH  15  18
ATOM     18  O   UNL     1       2.791  -4.898  22.385  1.00  0.00    -0.504 OA
ATOM     19  H   UNL     1       2.714  -5.665  21.728  1.00  0.00     0.293 HD
ENDBRANCH  15  18
BRANCH  17  20
ATOM     20  O   UNL     1       0.881  -5.755  24.279  1.00  0.00    -0.504 OA
ATOM     21  H   UNL     1       1.161  -6.592  23.781  1.00  0.00     0.293 HD
ENDBRANCH  17  20
ENDBRANCH   1  12
BRANCH   6  22
ATOM     22  O   UNL     1      -5.477   1.419  25.462  1.00  0.00    -0.507 OA
ATOM     23  H   UNL     1      -5.469   0.987  26.372  1.00  0.00     0.293 HD
ENDBRANCH   6  22
BRANCH   8  24
ATOM     24  O   UNL     1      -6.647   0.384  20.938  1.00  0.00    -0.508 OA
ATOM     25  H   UNL     1      -6.550  -0.150  20.083  1.00  0.00     0.293 HD
ENDBRANCH   8  24
TORSDOF 5
ENDMDL
