MODEL 1
REMARK VINA RESULT:    16.770      0.000      0.000
REMARK INTER + INTRA:          27.527
REMARK INTER:                  25.593
REMARK INTRA:                   1.934
REMARK UNBOUND:                 1.934
REMARK SMILES CC1=CCC[C@@H](C)C(=O)C[C@@H](C(C)C)C(=O)C1
REMARK SMILES IDX 8 1 9 2 6 3 7 4 5 5 4 6 3 7 2 8 1 9 10 11 11 12 15 13 16 14
REMARK SMILES IDX 17 15 12 17 13 18 14 19
REMARK H PARENT
REMARK Flexibility Score: 70.00
ROOT
ATOM      1  C   UNL     1      34.933  12.671  39.867  1.00  0.00     0.136 C 
ATOM      2  O   UNL     1      34.077  12.826  39.005  1.00  0.00    -0.299 OA
ENDROOT
BRANCH   1   3
ATOM      3  C   UNL     1      35.626  11.326  40.014  1.00  0.00     0.053 C 
ATOM      4  C   UNL     1      37.119  11.401  39.655  1.00  0.00     0.016 C 
BRANCH   3   5
ATOM      5  C   UNL     1      34.917  10.212  39.209  1.00  0.00     0.015 C 
BRANCH   5   6
ATOM      6  C   UNL     1      33.919   9.363  40.036  1.00  0.00     0.028 C 
BRANCH   6   7
ATOM      7  C   UNL     1      32.702  10.176  40.408  1.00  0.00    -0.028 C 
ATOM      8  C   UNL     1      32.580  10.956  41.510  1.00  0.00    -0.070 CG0
ATOM      9  C   UNL     1      31.236  11.579  41.790  1.00  0.00     0.039 C 
ATOM     10  G   UNL     1      33.727  11.233  42.471  1.00  0.00     0.000 G0
ENDBRANCH   6   7
ENDBRANCH   5   6
ENDBRANCH   3   5
ENDBRANCH   1   3
BRANCH   1  11
ATOM     11  C   UNL     1      35.248  13.827  40.789  1.00  0.00     0.087 C 
BRANCH  11  12
ATOM     12  C   UNL     1      35.309  13.400  42.281  1.00  0.00     0.066 C 
BRANCH  12  13
ATOM     13  C   UNL     1      34.024  12.708  42.724  1.00  0.00     0.140 C 
ATOM     14  O   UNL     1      33.165  13.370  43.288  1.00  0.00    -0.299 OA
BRANCH  13  15
ATOM     15  C   UNL     1      33.724  11.239  42.485  1.00  0.00     0.106 CG0
ATOM     16  G   UNL     1      32.596  10.945  41.507  1.00  0.00     0.000 G0
ENDBRANCH  13  15
ENDBRANCH  12  13
BRANCH  12  17
ATOM     17  C   UNL     1      35.691  14.558  43.257  1.00  0.00    -0.006 C 
ATOM     18  C   UNL     1      34.710  15.743  43.255  1.00  0.00     0.008 C 
ATOM     19  C   UNL     1      37.119  15.066  43.002  1.00  0.00     0.008 C 
ENDBRANCH  12  17
ENDBRANCH  11  12
ENDBRANCH   1  11
TORSDOF 1
ENDMDL
MODEL 2
REMARK VINA RESULT:    17.480      1.818      2.687
REMARK INTER + INTRA:          28.611
REMARK INTER:                  26.980
REMARK INTRA:                   1.631
REMARK UNBOUND:                 1.934
REMARK SMILES CC1=CCC[C@@H](C)C(=O)C[C@@H](C(C)C)C(=O)C1
REMARK SMILES IDX 8 1 9 2 6 3 7 4 5 5 4 6 3 7 2 8 1 9 10 11 11 12 15 13 16 14
REMARK SMILES IDX 17 15 12 17 13 18 14 19
REMARK H PARENT
REMARK Flexibility Score: 70.00
ROOT
ATOM      1  C   UNL     1      33.879  10.985  41.761  1.00  0.00     0.136 C 
ATOM      2  O   UNL     1      32.711  11.272  41.992  1.00  0.00    -0.299 OA
ENDROOT
BRANCH   1   3
ATOM      3  C   UNL     1      34.214   9.685  41.047  1.00  0.00     0.053 C 
ATOM      4  C   UNL     1      35.551   9.765  40.292  1.00  0.00     0.016 C 
BRANCH   3   5
ATOM      5  C   UNL     1      33.074   9.224  40.109  1.00  0.00     0.015 C 
BRANCH   5   6
ATOM      6  C   UNL     1      33.166   9.786  38.668  1.00  0.00     0.028 C 
BRANCH   6   7
ATOM      7  C   UNL     1      32.414  11.091  38.551  1.00  0.00    -0.028 C 
ATOM      8  C   UNL     1      32.882  12.307  38.928  1.00  0.00    -0.070 CG0
ATOM      9  C   UNL     1      31.933  13.477  38.869  1.00  0.00     0.039 C 
ATOM     10  G   UNL     1      34.308  12.546  39.401  1.00  0.00     0.000 G0
ENDBRANCH   6   7
ENDBRANCH   5   6
ENDBRANCH   3   5
ENDBRANCH   1   3
BRANCH   1  11
ATOM     11  C   UNL     1      34.963  11.928  42.232  1.00  0.00     0.087 C 
BRANCH  11  12
ATOM     12  C   UNL     1      34.627  13.416  41.941  1.00  0.00     0.066 C 
BRANCH  12  13
ATOM     13  C   UNL     1      34.489  13.682  40.445  1.00  0.00     0.140 C 
ATOM     14  O   UNL     1      34.548  14.836  40.046  1.00  0.00    -0.299 OA
BRANCH  13  15
ATOM     15  C   UNL     1      34.308  12.594  39.402  1.00  0.00     0.106 CG0
ATOM     16  G   UNL     1      32.877  12.337  38.955  1.00  0.00     0.000 G0
ENDBRANCH  13  15
ENDBRANCH  12  13
BRANCH  12  17
ATOM     17  C   UNL     1      35.612  14.431  42.605  1.00  0.00    -0.006 C 
ATOM     18  C   UNL     1      36.473  13.838  43.733  1.00  0.00     0.008 C 
ATOM     19  C   UNL     1      34.877  15.681  43.116  1.00  0.00     0.008 C 
ENDBRANCH  12  17
ENDBRANCH  11  12
ENDBRANCH   1  11
TORSDOF 1
ENDMDL
MODEL 3
REMARK VINA RESULT:    18.919      2.183      3.585
REMARK INTER + INTRA:          30.807
REMARK INTER:                  30.068
REMARK INTRA:                   0.739
REMARK UNBOUND:                 1.934
REMARK SMILES CC1=CCC[C@@H](C)C(=O)C[C@@H](C(C)C)C(=O)C1
REMARK SMILES IDX 8 1 9 2 6 3 7 4 5 5 4 6 3 7 2 8 1 9 10 11 11 12 15 13 16 14
REMARK SMILES IDX 17 15 12 17 13 18 14 19
REMARK H PARENT
REMARK Flexibility Score: 70.00
ROOT
ATOM      1  C   UNL     1      33.278  11.246  41.825  1.00  0.00     0.136 C 
ATOM      2  O   UNL     1      32.399  11.476  42.645  1.00  0.00    -0.299 OA
ENDROOT
BRANCH   1   3
ATOM      3  C   UNL     1      32.929  10.569  40.508  1.00  0.00     0.053 C 
ATOM      4  C   UNL     1      34.098   9.738  39.955  1.00  0.00     0.016 C 
BRANCH   3   5
ATOM      5  C   UNL     1      32.416  11.576  39.453  1.00  0.00     0.015 C 
BRANCH   5   6
ATOM      6  C   UNL     1      33.535  12.309  38.672  1.00  0.00     0.028 C 
BRANCH   6   7
ATOM      7  C   UNL     1      33.446  13.802  38.880  1.00  0.00    -0.028 C 
ATOM      8  C   UNL     1      34.466  14.607  39.271  1.00  0.00    -0.070 CG0
ATOM      9  C   UNL     1      34.151  16.052  39.566  1.00  0.00     0.039 C 
ATOM     10  G   UNL     1      35.901  14.126  39.423  1.00  0.00     0.000 G0
ENDBRANCH   6   7
ENDBRANCH   5   6
ENDBRANCH   3   5
ENDBRANCH   1   3
BRANCH   1  11
ATOM     11  C   UNL     1      34.704  11.614  42.169  1.00  0.00     0.087 C 
BRANCH  11  12
ATOM     12  C   UNL     1      35.048  13.082  41.798  1.00  0.00     0.066 C 
BRANCH  12  13
ATOM     13  C   UNL     1      36.028  13.155  40.631  1.00  0.00     0.140 C 
ATOM     14  O   UNL     1      36.982  12.390  40.618  1.00  0.00    -0.299 OA
BRANCH  13  15
ATOM     15  C   UNL     1      35.883  14.105  39.456  1.00  0.00     0.106 CG0
ATOM     16  G   UNL     1      34.479  14.633  39.202  1.00  0.00     0.000 G0
ENDBRANCH  13  15
ENDBRANCH  12  13
BRANCH  12  17
ATOM     17  C   UNL     1      35.542  13.942  43.004  1.00  0.00    -0.006 C 
ATOM     18  C   UNL     1      34.936  15.355  43.069  1.00  0.00     0.008 C 
ATOM     19  C   UNL     1      37.076  14.034  43.042  1.00  0.00     0.008 C 
ENDBRANCH  12  17
ENDBRANCH  11  12
ENDBRANCH   1  11
TORSDOF 1
ENDMDL
