MODEL 1
REMARK VINA RESULT:    -4.344      0.000      0.000
REMARK INTER + INTRA:         -16.107
REMARK INTER:                 -10.946
REMARK INTRA:                  -5.161
REMARK UNBOUND:                -5.161
REMARK SMILES CCCCCCCCCCCCCCCCCCCCCCCCCCCC(=O)[O-]
REMARK SMILES IDX 15 1 16 2 17 3 18 4 19 5 20 6 21 7 22 8 23 9 24 10 25 11
REMARK SMILES IDX 26 12 27 13 28 14 29 15 30 16 14 17 13 18 12 19 11 20 10 21
REMARK SMILES IDX 9 22 8 23 7 24 6 25 5 26 4 27 3 28 2 29 1 30
REMARK H PARENT
REMARK Flexibility Score: inf
ROOT
ATOM      1  C   UNL     1     -10.040  -0.493  21.329  1.00  0.00     0.000 C 
ENDROOT
BRANCH   1   2
ATOM      2  C   UNL     1      -9.873   0.766  20.460  1.00  0.00     0.000 C 
BRANCH   2   3
ATOM      3  C   UNL     1     -11.147   1.630  20.419  1.00  0.00     0.000 C 
BRANCH   3   4
ATOM      4  C   UNL     1     -12.193   1.201  21.462  1.00  0.00     0.000 C 
BRANCH   4   5
ATOM      5  C   UNL     1     -13.135   2.347  21.875  1.00  0.00     0.000 C 
BRANCH   5   6
ATOM      6  C   UNL     1     -12.753   3.679  21.208  1.00  0.00     0.000 C 
BRANCH   6   7
ATOM      7  C   UNL     1     -13.850   4.184  20.254  1.00  0.00     0.000 C 
BRANCH   7   8
ATOM      8  C   UNL     1     -13.446   4.062  18.774  1.00  0.00     0.000 C 
BRANCH   8   9
ATOM      9  C   UNL     1     -12.044   4.619  18.437  1.00  0.00     0.000 C 
BRANCH   9  10
ATOM     10  C   UNL     1     -11.425   4.097  17.123  1.00  0.00     0.000 C 
BRANCH  10  11
ATOM     11  C   UNL     1     -11.802   2.634  16.835  1.00  0.00     0.000 C 
BRANCH  11  12
ATOM     12  C   UNL     1     -10.573   1.706  16.752  1.00  0.00     0.006 C 
BRANCH  12  13
ATOM     13  C   UNL     1      -9.758   1.853  15.457  1.00  0.00     0.053 C 
BRANCH  13  14
ATOM     14  C   UNL     1     -10.092   0.789  14.457  1.00  0.00     0.041 C 
ATOM     15  O   UNL     1     -11.294   0.465  14.255  1.00  0.00    -0.550 OA
ATOM     16  O   UNL     1      -9.082   0.177  13.726  1.00  0.00    -0.550 OA
ENDBRANCH  13  14
ENDBRANCH  12  13
ENDBRANCH  11  12
ENDBRANCH  10  11
ENDBRANCH   9  10
ENDBRANCH   8   9
ENDBRANCH   7   8
ENDBRANCH   6   7
ENDBRANCH   5   6
ENDBRANCH   4   5
ENDBRANCH   3   4
ENDBRANCH   2   3
ENDBRANCH   1   2
BRANCH   1  17
ATOM     17  C   UNL     1      -8.746  -0.854  22.081  1.00  0.00     0.000 C 
BRANCH  17  18
ATOM     18  C   UNL     1      -8.664  -0.240  23.493  1.00  0.00     0.000 C 
BRANCH  18  19
ATOM     19  C   UNL     1     -10.027   0.081  24.135  1.00  0.00     0.000 C 
BRANCH  19  20
ATOM     20  C   UNL     1     -10.199   1.567  24.496  1.00  0.00     0.000 C 
BRANCH  20  21
ATOM     21  C   UNL     1      -9.105   2.446  23.864  1.00  0.00     0.000 C 
BRANCH  21  22
ATOM     22  C   UNL     1      -9.677   3.691  23.167  1.00  0.00    -0.000 C 
BRANCH  22  23
ATOM     23  C   UNL     1      -8.768   4.133  22.009  1.00  0.00    -0.000 C 
BRANCH  23  24
ATOM     24  C   UNL     1      -9.483   5.057  21.011  1.00  0.00    -0.000 C 
BRANCH  24  25
ATOM     25  C   UNL     1      -8.726   5.190  19.681  1.00  0.00    -0.000 C 
BRANCH  25  26
ATOM     26  C   UNL     1      -8.112   3.847  19.266  1.00  0.00    -0.000 C 
BRANCH  26  27
ATOM     27  C   UNL     1      -6.679   4.026  18.744  1.00  0.00    -0.000 C 
BRANCH  27  28
ATOM     28  C   UNL     1      -5.778   4.798  19.725  1.00  0.00    -0.000 C 
BRANCH  28  29
ATOM     29  C   UNL     1      -4.553   5.451  19.050  1.00  0.00    -0.003 C 
ATOM     30  C   UNL     1      -4.140   4.728  17.765  1.00  0.00     0.004 C 
ENDBRANCH  28  29
ENDBRANCH  27  28
ENDBRANCH  26  27
ENDBRANCH  25  26
ENDBRANCH  24  25
ENDBRANCH  23  24
ENDBRANCH  22  23
ENDBRANCH  21  22
ENDBRANCH  20  21
ENDBRANCH  19  20
ENDBRANCH  18  19
ENDBRANCH  17  18
ENDBRANCH   1  17
TORSDOF 26
ENDMDL
MODEL 2
REMARK VINA RESULT:    -4.288      1.073      2.090
REMARK INTER + INTRA:         -15.966
REMARK INTER:                 -10.590
REMARK INTRA:                  -5.376
REMARK UNBOUND:                -5.161
REMARK SMILES CCCCCCCCCCCCCCCCCCCCCCCCCCCC(=O)[O-]
REMARK SMILES IDX 15 1 16 2 17 3 18 4 19 5 20 6 21 7 22 8 23 9 24 10 25 11
REMARK SMILES IDX 26 12 27 13 28 14 29 15 30 16 14 17 13 18 12 19 11 20 10 21
REMARK SMILES IDX 9 22 8 23 7 24 6 25 5 26 4 27 3 28 2 29 1 30
REMARK H PARENT
REMARK Flexibility Score: inf
ROOT
ATOM      1  C   UNL     1      -9.294   1.076  19.408  1.00  0.00     0.000 C 
ENDROOT
BRANCH   1   2
ATOM      2  C   UNL     1     -10.812   1.270  19.575  1.00  0.00     0.000 C 
BRANCH   2   3
ATOM      3  C   UNL     1     -11.161   2.476  20.466  1.00  0.00     0.000 C 
BRANCH   3   4
ATOM      4  C   UNL     1     -12.454   2.267  21.272  1.00  0.00     0.000 C 
BRANCH   4   5
ATOM      5  C   UNL     1     -13.253   3.569  21.476  1.00  0.00     0.000 C 
BRANCH   5   6
ATOM      6  C   UNL     1     -13.836   4.101  20.156  1.00  0.00     0.000 C 
BRANCH   6   7
ATOM      7  C   UNL     1     -13.317   5.511  19.820  1.00  0.00     0.000 C 
BRANCH   7   8
ATOM      8  C   UNL     1     -12.167   5.486  18.798  1.00  0.00     0.000 C 
BRANCH   8   9
ATOM      9  C   UNL     1     -12.328   4.447  17.664  1.00  0.00     0.000 C 
BRANCH   9  10
ATOM     10  C   UNL     1     -11.288   4.543  16.528  1.00  0.00     0.000 C 
BRANCH  10  11
ATOM     11  C   UNL     1      -9.993   3.777  16.850  1.00  0.00     0.000 C 
BRANCH  11  12
ATOM     12  C   UNL     1      -9.749   2.591  15.896  1.00  0.00     0.006 C 
BRANCH  12  13
ATOM     13  C   UNL     1     -10.824   1.494  15.966  1.00  0.00     0.053 C 
BRANCH  13  14
ATOM     14  C   UNL     1     -11.082   0.872  14.627  1.00  0.00     0.041 C 
ATOM     15  O   UNL     1     -12.185   0.308  14.395  1.00  0.00    -0.550 OA
ATOM     16  O   UNL     1     -10.120   0.944  13.628  1.00  0.00    -0.550 OA
ENDBRANCH  13  14
ENDBRANCH  12  13
ENDBRANCH  11  12
ENDBRANCH  10  11
ENDBRANCH   9  10
ENDBRANCH   8   9
ENDBRANCH   7   8
ENDBRANCH   6   7
ENDBRANCH   5   6
ENDBRANCH   4   5
ENDBRANCH   3   4
ENDBRANCH   2   3
ENDBRANCH   1   2
BRANCH   1  17
ATOM     17  C   UNL     1      -8.851  -0.358  19.748  1.00  0.00     0.000 C 
BRANCH  17  18
ATOM     18  C   UNL     1      -9.426  -0.878  21.082  1.00  0.00     0.000 C 
BRANCH  18  19
ATOM     19  C   UNL     1      -8.375  -1.137  22.178  1.00  0.00     0.000 C 
BRANCH  19  20
ATOM     20  C   UNL     1      -8.674  -0.404  23.497  1.00  0.00     0.000 C 
BRANCH  20  21
ATOM     21  C   UNL     1      -9.747   0.686  23.323  1.00  0.00     0.000 C 
BRANCH  21  22
ATOM     22  C   UNL     1      -9.174   2.106  23.464  1.00  0.00    -0.000 C 
BRANCH  22  23
ATOM     23  C   UNL     1     -10.180   3.031  24.168  1.00  0.00    -0.000 C 
BRANCH  23  24
ATOM     24  C   UNL     1     -10.227   4.437  23.549  1.00  0.00    -0.000 C 
BRANCH  24  25
ATOM     25  C   UNL     1      -9.179   4.632  22.443  1.00  0.00    -0.000 C 
BRANCH  25  26
ATOM     26  C   UNL     1      -9.581   5.778  21.506  1.00  0.00    -0.000 C 
BRANCH  26  27
ATOM     27  C   UNL     1      -8.761   5.751  20.209  1.00  0.00    -0.000 C 
BRANCH  27  28
ATOM     28  C   UNL     1      -8.126   4.377  19.931  1.00  0.00    -0.000 C 
BRANCH  28  29
ATOM     29  C   UNL     1      -6.788   4.462  19.166  1.00  0.00    -0.003 C 
ATOM     30  C   UNL     1      -5.736   5.283  19.917  1.00  0.00     0.004 C 
ENDBRANCH  28  29
ENDBRANCH  27  28
ENDBRANCH  26  27
ENDBRANCH  25  26
ENDBRANCH  24  25
ENDBRANCH  23  24
ENDBRANCH  22  23
ENDBRANCH  21  22
ENDBRANCH  20  21
ENDBRANCH  19  20
ENDBRANCH  18  19
ENDBRANCH  17  18
ENDBRANCH   1  17
TORSDOF 26
ENDMDL
MODEL 3
REMARK VINA RESULT:    -4.167      2.392      5.595
REMARK INTER + INTRA:         -15.662
REMARK INTER:                 -10.500
REMARK INTRA:                  -5.162
REMARK UNBOUND:                -5.161
REMARK SMILES CCCCCCCCCCCCCCCCCCCCCCCCCCCC(=O)[O-]
REMARK SMILES IDX 15 1 16 2 17 3 18 4 19 5 20 6 21 7 22 8 23 9 24 10 25 11
REMARK SMILES IDX 26 12 27 13 28 14 29 15 30 16 14 17 13 18 12 19 11 20 10 21
REMARK SMILES IDX 9 22 8 23 7 24 6 25 5 26 4 27 3 28 2 29 1 30
REMARK H PARENT
REMARK Flexibility Score: inf
ROOT
ATOM      1  C   UNL     1      -9.402   0.431  19.901  1.00  0.00     0.000 C 
ENDROOT
BRANCH   1   2
ATOM      2  C   UNL     1      -9.932  -0.422  21.068  1.00  0.00     0.000 C 
BRANCH   2   3
ATOM      3  C   UNL     1      -8.822  -0.836  22.051  1.00  0.00     0.000 C 
BRANCH   3   4
ATOM      4  C   UNL     1      -8.936  -0.128  23.412  1.00  0.00     0.000 C 
BRANCH   4   5
ATOM      5  C   UNL     1     -10.382   0.275  23.761  1.00  0.00     0.000 C 
BRANCH   5   6
ATOM      6  C   UNL     1     -10.510   1.782  24.040  1.00  0.00     0.000 C 
BRANCH   6   7
ATOM      7  C   UNL     1      -9.378   2.591  23.382  1.00  0.00     0.000 C 
BRANCH   7   8
ATOM      8  C   UNL     1      -9.486   4.098  23.672  1.00  0.00     0.000 C 
BRANCH   8   9
ATOM      9  C   UNL     1      -9.265   5.012  22.445  1.00  0.00     0.000 C 
BRANCH   9  10
ATOM     10  C   UNL     1      -8.577   4.342  21.238  1.00  0.00     0.000 C 
BRANCH  10  11
ATOM     11  C   UNL     1      -7.544   5.262  20.564  1.00  0.00     0.000 C 
BRANCH  11  12
ATOM     12  C   UNL     1      -7.319   4.919  19.078  1.00  0.00     0.006 C 
BRANCH  12  13
ATOM     13  C   UNL     1      -6.158   3.944  18.825  1.00  0.00     0.053 C 
BRANCH  13  14
ATOM     14  C   UNL     1      -4.846   4.654  18.685  1.00  0.00     0.041 C 
ATOM     15  O   UNL     1      -4.402   4.941  17.541  1.00  0.00    -0.550 OA
ATOM     16  O   UNL     1      -4.130   5.025  19.815  1.00  0.00    -0.550 OA
ENDBRANCH  13  14
ENDBRANCH  12  13
ENDBRANCH  11  12
ENDBRANCH  10  11
ENDBRANCH   9  10
ENDBRANCH   8   9
ENDBRANCH   7   8
ENDBRANCH   6   7
ENDBRANCH   5   6
ENDBRANCH   4   5
ENDBRANCH   3   4
ENDBRANCH   2   3
ENDBRANCH   1   2
BRANCH   1  17
ATOM     17  C   UNL     1     -10.171   1.756  19.754  1.00  0.00     0.000 C 
BRANCH  17  18
ATOM     18  C   UNL     1     -11.650   1.658  20.182  1.00  0.00     0.000 C 
BRANCH  18  19
ATOM     19  C   UNL     1     -12.174   2.874  20.968  1.00  0.00     0.000 C 
BRANCH  19  20
ATOM     20  C   UNL     1     -13.539   3.383  20.470  1.00  0.00     0.000 C 
BRANCH  20  21
ATOM     21  C   UNL     1     -13.544   4.906  20.253  1.00  0.00     0.000 C 
BRANCH  21  22
ATOM     22  C   UNL     1     -12.255   5.578  20.755  1.00  0.00    -0.000 C 
BRANCH  22  23
ATOM     23  C   UNL     1     -11.534   6.299  19.605  1.00  0.00    -0.000 C 
BRANCH  23  24
ATOM     24  C   UNL     1     -11.913   5.742  18.224  1.00  0.00    -0.000 C 
BRANCH  24  25
ATOM     25  C   UNL     1     -10.891   4.722  17.698  1.00  0.00    -0.000 C 
BRANCH  25  26
ATOM     26  C   UNL     1     -11.387   4.072  16.400  1.00  0.00    -0.000 C 
BRANCH  26  27
ATOM     27  C   UNL     1     -12.406   2.960  16.688  1.00  0.00    -0.000 C 
BRANCH  27  28
ATOM     28  C   UNL     1     -12.037   1.623  16.020  1.00  0.00    -0.000 C 
BRANCH  28  29
ATOM     29  C   UNL     1     -10.520   1.452  15.787  1.00  0.00    -0.003 C 
ATOM     30  C   UNL     1     -10.210   0.700  14.490  1.00  0.00     0.004 C 
ENDBRANCH  28  29
ENDBRANCH  27  28
ENDBRANCH  26  27
ENDBRANCH  25  26
ENDBRANCH  24  25
ENDBRANCH  23  24
ENDBRANCH  22  23
ENDBRANCH  21  22
ENDBRANCH  20  21
ENDBRANCH  19  20
ENDBRANCH  18  19
ENDBRANCH  17  18
ENDBRANCH   1  17
TORSDOF 26
ENDMDL
MODEL 4
REMARK VINA RESULT:    -4.167      1.179      2.354
REMARK INTER + INTRA:         -15.661
REMARK INTER:                 -11.241
REMARK INTRA:                  -4.420
REMARK UNBOUND:                -5.161
REMARK SMILES CCCCCCCCCCCCCCCCCCCCCCCCCCCC(=O)[O-]
REMARK SMILES IDX 15 1 16 2 17 3 18 4 19 5 20 6 21 7 22 8 23 9 24 10 25 11
REMARK SMILES IDX 26 12 27 13 28 14 29 15 30 16 14 17 13 18 12 19 11 20 10 21
REMARK SMILES IDX 9 22 8 23 7 24 6 25 5 26 4 27 3 28 2 29 1 30
REMARK H PARENT
REMARK Flexibility Score: inf
ROOT
ATOM      1  C   UNL     1      -9.839   1.245  22.929  1.00  0.00     0.000 C 
ENDROOT
BRANCH   1   2
ATOM      2  C   UNL     1     -11.244   1.244  23.556  1.00  0.00     0.000 C 
BRANCH   2   3
ATOM      3  C   UNL     1     -12.354   0.978  22.522  1.00  0.00     0.000 C 
BRANCH   3   4
ATOM      4  C   UNL     1     -12.141   1.749  21.207  1.00  0.00     0.000 C 
BRANCH   4   5
ATOM      5  C   UNL     1     -12.947   3.060  21.142  1.00  0.00     0.000 C 
BRANCH   5   6
ATOM      6  C   UNL     1     -12.043   4.300  21.244  1.00  0.00     0.000 C 
BRANCH   6   7
ATOM      7  C   UNL     1     -12.368   5.344  20.160  1.00  0.00     0.000 C 
BRANCH   7   8
ATOM      8  C   UNL     1     -12.618   4.704  18.783  1.00  0.00     0.000 C 
BRANCH   8   9
ATOM      9  C   UNL     1     -11.514   4.969  17.734  1.00  0.00     0.000 C 
BRANCH   9  10
ATOM     10  C   UNL     1     -11.601   4.114  16.452  1.00  0.00     0.000 C 
BRANCH  10  11
ATOM     11  C   UNL     1     -12.546   2.910  16.611  1.00  0.00     0.000 C 
BRANCH  11  12
ATOM     12  C   UNL     1     -11.912   1.587  16.139  1.00  0.00     0.006 C 
BRANCH  12  13
ATOM     13  C   UNL     1     -10.662   1.764  15.261  1.00  0.00     0.053 C 
BRANCH  13  14
ATOM     14  C   UNL     1     -10.474   0.621  14.311  1.00  0.00     0.041 C 
ATOM     15  O   UNL     1     -11.459  -0.088  13.973  1.00  0.00    -0.550 OA
ATOM     16  O   UNL     1      -9.220   0.359  13.775  1.00  0.00    -0.550 OA
ENDBRANCH  13  14
ENDBRANCH  12  13
ENDBRANCH  11  12
ENDBRANCH  10  11
ENDBRANCH   9  10
ENDBRANCH   8   9
ENDBRANCH   7   8
ENDBRANCH   6   7
ENDBRANCH   5   6
ENDBRANCH   4   5
ENDBRANCH   3   4
ENDBRANCH   2   3
ENDBRANCH   1   2
BRANCH   1  17
ATOM     17  C   UNL     1      -8.991   0.051  23.402  1.00  0.00     0.000 C 
BRANCH  17  18
ATOM     18  C   UNL     1      -8.559  -0.887  22.257  1.00  0.00     0.000 C 
BRANCH  18  19
ATOM     19  C   UNL     1      -9.482  -0.865  21.024  1.00  0.00     0.000 C 
BRANCH  19  20
ATOM     20  C   UNL     1      -8.773  -0.402  19.738  1.00  0.00     0.000 C 
BRANCH  20  21
ATOM     21  C   UNL     1      -9.599   0.643  18.967  1.00  0.00     0.000 C 
BRANCH  21  22
ATOM     22  C   UNL     1      -8.780   1.894  18.607  1.00  0.00    -0.000 C 
BRANCH  22  23
ATOM     23  C   UNL     1      -9.192   3.085  19.487  1.00  0.00    -0.000 C 
BRANCH  23  24
ATOM     24  C   UNL     1      -8.138   4.203  19.505  1.00  0.00    -0.000 C 
BRANCH  24  25
ATOM     25  C   UNL     1      -7.950   4.815  20.901  1.00  0.00    -0.000 C 
BRANCH  25  26
ATOM     26  C   UNL     1      -6.943   5.972  20.859  1.00  0.00    -0.000 C 
BRANCH  26  27
ATOM     27  C   UNL     1      -6.505   6.278  19.419  1.00  0.00    -0.000 C 
BRANCH  27  28
ATOM     28  C   UNL     1      -4.976   6.340  19.260  1.00  0.00    -0.000 C 
BRANCH  28  29
ATOM     29  C   UNL     1      -4.279   4.981  19.486  1.00  0.00    -0.003 C 
ATOM     30  C   UNL     1      -4.637   3.955  18.408  1.00  0.00     0.004 C 
ENDBRANCH  28  29
ENDBRANCH  27  28
ENDBRANCH  26  27
ENDBRANCH  25  26
ENDBRANCH  24  25
ENDBRANCH  23  24
ENDBRANCH  22  23
ENDBRANCH  21  22
ENDBRANCH  20  21
ENDBRANCH  19  20
ENDBRANCH  18  19
ENDBRANCH  17  18
ENDBRANCH   1  17
TORSDOF 26
ENDMDL
MODEL 5
REMARK VINA RESULT:    -4.153      1.851      4.166
REMARK INTER + INTRA:         -15.626
REMARK INTER:                 -10.465
REMARK INTRA:                  -5.161
REMARK UNBOUND:                -5.161
REMARK SMILES CCCCCCCCCCCCCCCCCCCCCCCCCCCC(=O)[O-]
REMARK SMILES IDX 15 1 16 2 17 3 18 4 19 5 20 6 21 7 22 8 23 9 24 10 25 11
REMARK SMILES IDX 26 12 27 13 28 14 29 15 30 16 14 17 13 18 12 19 11 20 10 21
REMARK SMILES IDX 9 22 8 23 7 24 6 25 5 26 4 27 3 28 2 29 1 30
REMARK H PARENT
REMARK Flexibility Score: inf
ROOT
ATOM      1  C   UNL     1     -10.033  -0.153  20.873  1.00  0.00     0.000 C 
ENDROOT
BRANCH   1   2
ATOM      2  C   UNL     1      -9.507   0.845  19.827  1.00  0.00     0.000 C 
BRANCH   2   3
ATOM      3  C   UNL     1     -10.089   2.259  20.011  1.00  0.00     0.000 C 
BRANCH   3   4
ATOM      4  C   UNL     1      -9.107   3.367  19.598  1.00  0.00     0.000 C 
BRANCH   4   5
ATOM      5  C   UNL     1      -8.651   3.250  18.131  1.00  0.00     0.000 C 
BRANCH   5   6
ATOM      6  C   UNL     1      -9.141   4.432  17.277  1.00  0.00     0.000 C 
BRANCH   6   7
ATOM      7  C   UNL     1      -9.894   5.479  18.118  1.00  0.00     0.000 C 
BRANCH   7   8
ATOM      8  C   UNL     1     -11.359   5.645  17.678  1.00  0.00     0.000 C 
BRANCH   8   9
ATOM      9  C   UNL     1     -12.397   4.994  18.621  1.00  0.00     0.000 C 
BRANCH   9  10
ATOM     10  C   UNL     1     -12.934   3.620  18.165  1.00  0.00     0.000 C 
BRANCH  10  11
ATOM     11  C   UNL     1     -12.630   3.331  16.685  1.00  0.00     0.000 C 
BRANCH  11  12
ATOM     12  C   UNL     1     -12.184   1.876  16.441  1.00  0.00     0.006 C 
BRANCH  12  13
ATOM     13  C   UNL     1     -10.941   1.738  15.547  1.00  0.00     0.053 C 
BRANCH  13  14
ATOM     14  C   UNL     1     -11.108   0.670  14.510  1.00  0.00     0.041 C 
ATOM     15  O   UNL     1     -10.099   0.067  14.055  1.00  0.00    -0.550 OA
ATOM     16  O   UNL     1     -12.377   0.320  14.069  1.00  0.00    -0.550 OA
ENDBRANCH  13  14
ENDBRANCH  12  13
ENDBRANCH  11  12
ENDBRANCH  10  11
ENDBRANCH   9  10
ENDBRANCH   8   9
ENDBRANCH   7   8
ENDBRANCH   6   7
ENDBRANCH   5   6
ENDBRANCH   4   5
ENDBRANCH   3   4
ENDBRANCH   2   3
ENDBRANCH   1   2
BRANCH   1  17
ATOM     17  C   UNL     1      -8.913  -1.043  21.441  1.00  0.00     0.000 C 
BRANCH  17  18
ATOM     18  C   UNL     1      -8.571  -0.734  22.913  1.00  0.00     0.000 C 
BRANCH  18  19
ATOM     19  C   UNL     1      -9.308   0.482  23.504  1.00  0.00     0.000 C 
BRANCH  19  20
ATOM     20  C   UNL     1      -9.533   0.382  25.023  1.00  0.00     0.000 C 
BRANCH  20  21
ATOM     21  C   UNL     1     -10.957  -0.089  25.367  1.00  0.00     0.000 C 
BRANCH  21  22
ATOM     22  C   UNL     1     -11.892  -0.083  24.145  1.00  0.00    -0.000 C 
BRANCH  22  23
ATOM     23  C   UNL     1     -13.232   0.586  24.489  1.00  0.00    -0.000 C 
BRANCH  23  24
ATOM     24  C   UNL     1     -13.915   1.213  23.264  1.00  0.00    -0.000 C 
BRANCH  24  25
ATOM     25  C   UNL     1     -12.908   1.752  22.237  1.00  0.00    -0.000 C 
BRANCH  25  26
ATOM     26  C   UNL     1     -13.229   3.205  21.867  1.00  0.00    -0.000 C 
BRANCH  26  27
ATOM     27  C   UNL     1     -12.136   4.162  22.366  1.00  0.00    -0.000 C 
BRANCH  27  28
ATOM     28  C   UNL     1     -11.382   3.620  23.593  1.00  0.00    -0.000 C 
BRANCH  28  29
ATOM     29  C   UNL     1     -10.164   4.480  23.994  1.00  0.00    -0.003 C 
ATOM     30  C   UNL     1      -8.922   4.160  23.158  1.00  0.00     0.004 C 
ENDBRANCH  28  29
ENDBRANCH  27  28
ENDBRANCH  26  27
ENDBRANCH  25  26
ENDBRANCH  24  25
ENDBRANCH  23  24
ENDBRANCH  22  23
ENDBRANCH  21  22
ENDBRANCH  20  21
ENDBRANCH  19  20
ENDBRANCH  18  19
ENDBRANCH  17  18
ENDBRANCH   1  17
TORSDOF 26
ENDMDL
MODEL 6
REMARK VINA RESULT:    -4.116      1.758      4.779
REMARK INTER + INTRA:         -15.534
REMARK INTER:                 -10.123
REMARK INTRA:                  -5.411
REMARK UNBOUND:                -5.161
REMARK SMILES CCCCCCCCCCCCCCCCCCCCCCCCCCCC(=O)[O-]
REMARK SMILES IDX 15 1 16 2 17 3 18 4 19 5 20 6 21 7 22 8 23 9 24 10 25 11
REMARK SMILES IDX 26 12 27 13 28 14 29 15 30 16 14 17 13 18 12 19 11 20 10 21
REMARK SMILES IDX 9 22 8 23 7 24 6 25 5 26 4 27 3 28 2 29 1 30
REMARK H PARENT
REMARK Flexibility Score: inf
ROOT
ATOM      1  C   UNL     1     -10.751   0.838  20.279  1.00  0.00     0.000 C 
ENDROOT
BRANCH   1   2
ATOM      2  C   UNL     1      -9.491   1.242  19.493  1.00  0.00     0.000 C 
BRANCH   2   3
ATOM      3  C   UNL     1      -9.291   2.768  19.437  1.00  0.00     0.000 C 
BRANCH   3   4
ATOM      4  C   UNL     1      -8.553   3.226  18.168  1.00  0.00     0.000 C 
BRANCH   4   5
ATOM      5  C   UNL     1      -8.817   4.704  17.820  1.00  0.00     0.000 C 
BRANCH   5   6
ATOM      6  C   UNL     1      -9.260   5.516  19.048  1.00  0.00     0.000 C 
BRANCH   6   7
ATOM      7  C   UNL     1     -10.496   6.384  18.752  1.00  0.00     0.000 C 
BRANCH   7   8
ATOM      8  C   UNL     1     -11.528   5.657  17.872  1.00  0.00     0.000 C 
BRANCH   8   9
ATOM      9  C   UNL     1     -12.599   4.859  18.651  1.00  0.00     0.000 C 
BRANCH   9  10
ATOM     10  C   UNL     1     -12.692   3.360  18.299  1.00  0.00     0.000 C 
BRANCH  10  11
ATOM     11  C   UNL     1     -12.495   3.095  16.796  1.00  0.00     0.000 C 
BRANCH  11  12
ATOM     12  C   UNL     1     -11.618   1.858  16.518  1.00  0.00     0.006 C 
BRANCH  12  13
ATOM     13  C   UNL     1     -10.684   2.006  15.306  1.00  0.00     0.053 C 
BRANCH  13  14
ATOM     14  C   UNL     1     -10.632   0.758  14.479  1.00  0.00     0.041 C 
ATOM     15  O   UNL     1     -11.648   0.384  13.834  1.00  0.00    -0.550 OA
ATOM     16  O   UNL     1      -9.454   0.026  14.396  1.00  0.00    -0.550 OA
ENDBRANCH  13  14
ENDBRANCH  12  13
ENDBRANCH  11  12
ENDBRANCH  10  11
ENDBRANCH   9  10
ENDBRANCH   8   9
ENDBRANCH   7   8
ENDBRANCH   6   7
ENDBRANCH   5   6
ENDBRANCH   4   5
ENDBRANCH   3   4
ENDBRANCH   2   3
ENDBRANCH   1   2
BRANCH   1  17
ATOM     17  C   UNL     1     -10.557  -0.481  21.048  1.00  0.00     0.000 C 
BRANCH  17  18
ATOM     18  C   UNL     1      -9.079  -0.892  21.200  1.00  0.00     0.000 C 
BRANCH  18  19
ATOM     19  C   UNL     1      -8.538  -0.828  22.641  1.00  0.00     0.000 C 
BRANCH  19  20
ATOM     20  C   UNL     1      -9.479  -0.098  23.616  1.00  0.00     0.000 C 
BRANCH  20  21
ATOM     21  C   UNL     1      -8.746   0.989  24.422  1.00  0.00     0.000 C 
BRANCH  21  22
ATOM     22  C   UNL     1      -9.473   2.344  24.384  1.00  0.00    -0.000 C 
BRANCH  22  23
ATOM     23  C   UNL     1      -9.552   2.878  22.945  1.00  0.00    -0.000 C 
BRANCH  23  24
ATOM     24  C   UNL     1     -10.344   4.190  22.840  1.00  0.00    -0.000 C 
BRANCH  24  25
ATOM     25  C   UNL     1     -11.646   4.033  22.040  1.00  0.00    -0.000 C 
BRANCH  25  26
ATOM     26  C   UNL     1     -12.767   3.474  22.924  1.00  0.00    -0.000 C 
BRANCH  26  27
ATOM     27  C   UNL     1     -13.300   2.143  22.375  1.00  0.00    -0.000 C 
BRANCH  27  28
ATOM     28  C   UNL     1     -13.011   0.953  23.307  1.00  0.00    -0.000 C 
BRANCH  28  29
ATOM     29  C   UNL     1     -14.284   0.217  23.777  1.00  0.00    -0.003 C 
ATOM     30  C   UNL     1     -14.942   0.898  24.980  1.00  0.00     0.004 C 
ENDBRANCH  28  29
ENDBRANCH  27  28
ENDBRANCH  26  27
ENDBRANCH  25  26
ENDBRANCH  24  25
ENDBRANCH  23  24
ENDBRANCH  22  23
ENDBRANCH  21  22
ENDBRANCH  20  21
ENDBRANCH  19  20
ENDBRANCH  18  19
ENDBRANCH  17  18
ENDBRANCH   1  17
TORSDOF 26
ENDMDL
MODEL 7
REMARK VINA RESULT:    -4.102      2.596      5.559
REMARK INTER + INTRA:         -15.498
REMARK INTER:                  -9.690
REMARK INTRA:                  -5.807
REMARK UNBOUND:                -5.161
REMARK SMILES CCCCCCCCCCCCCCCCCCCCCCCCCCCC(=O)[O-]
REMARK SMILES IDX 15 1 16 2 17 3 18 4 19 5 20 6 21 7 22 8 23 9 24 10 25 11
REMARK SMILES IDX 26 12 27 13 28 14 29 15 30 16 14 17 13 18 12 19 11 20 10 21
REMARK SMILES IDX 9 22 8 23 7 24 6 25 5 26 4 27 3 28 2 29 1 30
REMARK H PARENT
REMARK Flexibility Score: inf
ROOT
ATOM      1  C   UNL     1      -9.701   1.630  17.989  1.00  0.00     0.000 C 
ENDROOT
BRANCH   1   2
ATOM      2  C   UNL     1      -9.501   2.190  16.569  1.00  0.00     0.000 C 
BRANCH   2   3
ATOM      3  C   UNL     1     -10.586   1.713  15.586  1.00  0.00     0.000 C 
BRANCH   3   4
ATOM      4  C   UNL     1     -12.002   1.775  16.184  1.00  0.00     0.000 C 
BRANCH   4   5
ATOM      5  C   UNL     1     -12.512   3.216  16.371  1.00  0.00     0.000 C 
BRANCH   5   6
ATOM      6  C   UNL     1     -12.837   3.528  17.842  1.00  0.00     0.000 C 
BRANCH   6   7
ATOM      7  C   UNL     1     -12.483   4.978  18.217  1.00  0.00     0.000 C 
BRANCH   7   8
ATOM      8  C   UNL     1     -11.255   5.501  17.451  1.00  0.00     0.000 C 
BRANCH   8   9
ATOM      9  C   UNL     1     -10.750   6.890  17.906  1.00  0.00     0.000 C 
BRANCH   9  10
ATOM     10  C   UNL     1      -9.231   6.988  18.162  1.00  0.00     0.000 C 
BRANCH  10  11
ATOM     11  C   UNL     1      -8.486   5.694  17.790  1.00  0.00     0.000 C 
BRANCH  11  12
ATOM     12  C   UNL     1      -6.970   5.782  18.052  1.00  0.00     0.006 C 
BRANCH  12  13
ATOM     13  C   UNL     1      -6.465   4.844  19.161  1.00  0.00     0.053 C 
BRANCH  13  14
ATOM     14  C   UNL     1      -4.990   4.598  19.063  1.00  0.00     0.041 C 
ATOM     15  O   UNL     1      -4.189   5.280  19.758  1.00  0.00    -0.550 OA
ATOM     16  O   UNL     1      -4.504   3.599  18.231  1.00  0.00    -0.550 OA
ENDBRANCH  13  14
ENDBRANCH  12  13
ENDBRANCH  11  12
ENDBRANCH  10  11
ENDBRANCH   9  10
ENDBRANCH   8   9
ENDBRANCH   7   8
ENDBRANCH   6   7
ENDBRANCH   5   6
ENDBRANCH   4   5
ENDBRANCH   3   4
ENDBRANCH   2   3
ENDBRANCH   1   2
BRANCH   1  17
ATOM     17  C   UNL     1      -8.979   2.476  19.053  1.00  0.00     0.000 C 
BRANCH  17  18
ATOM     18  C   UNL     1      -9.936   3.125  20.074  1.00  0.00     0.000 C 
BRANCH  18  19
ATOM     19  C   UNL     1      -9.272   3.553  21.396  1.00  0.00     0.000 C 
BRANCH  19  20
ATOM     20  C   UNL     1      -9.480   5.041  21.732  1.00  0.00     0.000 C 
BRANCH  20  21
ATOM     21  C   UNL     1     -10.871   5.540  21.303  1.00  0.00     0.000 C 
BRANCH  21  22
ATOM     22  C   UNL     1     -11.772   5.880  22.503  1.00  0.00    -0.000 C 
BRANCH  22  23
ATOM     23  C   UNL     1     -12.698   4.700  22.839  1.00  0.00    -0.000 C 
BRANCH  23  24
ATOM     24  C   UNL     1     -13.257   4.008  21.586  1.00  0.00    -0.000 C 
BRANCH  24  25
ATOM     25  C   UNL     1     -13.125   2.479  21.646  1.00  0.00    -0.000 C 
BRANCH  25  26
ATOM     26  C   UNL     1     -12.423   2.042  22.938  1.00  0.00    -0.000 C 
BRANCH  26  27
ATOM     27  C   UNL     1     -12.046   0.554  22.892  1.00  0.00    -0.000 C 
BRANCH  27  28
ATOM     28  C   UNL     1     -11.276   0.171  21.616  1.00  0.00    -0.000 C 
BRANCH  28  29
ATOM     29  C   UNL     1      -9.789  -0.155  21.871  1.00  0.00    -0.003 C 
ATOM     30  C   UNL     1      -9.150  -0.919  20.709  1.00  0.00     0.004 C 
ENDBRANCH  28  29
ENDBRANCH  27  28
ENDBRANCH  26  27
ENDBRANCH  25  26
ENDBRANCH  24  25
ENDBRANCH  23  24
ENDBRANCH  22  23
ENDBRANCH  21  22
ENDBRANCH  20  21
ENDBRANCH  19  20
ENDBRANCH  18  19
ENDBRANCH  17  18
ENDBRANCH   1  17
TORSDOF 26
ENDMDL
MODEL 8
REMARK VINA RESULT:    -4.076      1.626      4.718
REMARK INTER + INTRA:         -15.433
REMARK INTER:                 -10.790
REMARK INTRA:                  -4.643
REMARK UNBOUND:                -5.161
REMARK SMILES CCCCCCCCCCCCCCCCCCCCCCCCCCCC(=O)[O-]
REMARK SMILES IDX 15 1 16 2 17 3 18 4 19 5 20 6 21 7 22 8 23 9 24 10 25 11
REMARK SMILES IDX 26 12 27 13 28 14 29 15 30 16 14 17 13 18 12 19 11 20 10 21
REMARK SMILES IDX 9 22 8 23 7 24 6 25 5 26 4 27 3 28 2 29 1 30
REMARK H PARENT
REMARK Flexibility Score: inf
ROOT
ATOM      1  C   UNL     1      -9.697   1.915  20.312  1.00  0.00     0.000 C 
ENDROOT
BRANCH   1   2
ATOM      2  C   UNL     1      -9.454   2.837  19.104  1.00  0.00     0.000 C 
BRANCH   2   3
ATOM      3  C   UNL     1      -8.168   3.674  19.247  1.00  0.00     0.000 C 
BRANCH   3   4
ATOM      4  C   UNL     1      -8.188   4.948  18.386  1.00  0.00     0.000 C 
BRANCH   4   5
ATOM      5  C   UNL     1      -9.385   5.866  18.698  1.00  0.00     0.000 C 
BRANCH   5   6
ATOM      6  C   UNL     1     -10.139   6.286  17.425  1.00  0.00     0.000 C 
BRANCH   6   7
ATOM      7  C   UNL     1     -11.657   6.067  17.554  1.00  0.00     0.000 C 
BRANCH   7   8
ATOM      8  C   UNL     1     -12.035   5.297  18.832  1.00  0.00     0.000 C 
BRANCH   8   9
ATOM      9  C   UNL     1     -12.793   3.972  18.591  1.00  0.00     0.000 C 
BRANCH   9  10
ATOM     10  C   UNL     1     -12.941   3.555  17.112  1.00  0.00     0.000 C 
BRANCH  10  11
ATOM     11  C   UNL     1     -12.109   2.310  16.765  1.00  0.00     0.000 C 
BRANCH  11  12
ATOM     12  C   UNL     1     -10.982   2.607  15.756  1.00  0.00     0.006 C 
BRANCH  12  13
ATOM     13  C   UNL     1      -9.933   1.490  15.634  1.00  0.00     0.053 C 
BRANCH  13  14
ATOM     14  C   UNL     1     -10.132   0.662  14.401  1.00  0.00     0.041 C 
ATOM     15  O   UNL     1      -9.139   0.303  13.714  1.00  0.00    -0.550 OA
ATOM     16  O   UNL     1     -11.409   0.261  14.030  1.00  0.00    -0.550 OA
ENDBRANCH  13  14
ENDBRANCH  12  13
ENDBRANCH  11  12
ENDBRANCH  10  11
ENDBRANCH   9  10
ENDBRANCH   8   9
ENDBRANCH   7   8
ENDBRANCH   6   7
ENDBRANCH   5   6
ENDBRANCH   4   5
ENDBRANCH   3   4
ENDBRANCH   2   3
ENDBRANCH   1   2
BRANCH   1  17
ATOM     17  C   UNL     1      -9.447   0.435  19.971  1.00  0.00     0.000 C 
BRANCH  17  18
ATOM     18  C   UNL     1      -9.853  -0.533  21.101  1.00  0.00     0.000 C 
BRANCH  18  19
ATOM     19  C   UNL     1      -8.672  -1.167  21.860  1.00  0.00     0.000 C 
BRANCH  19  20
ATOM     20  C   UNL     1      -8.456  -0.570  23.263  1.00  0.00     0.000 C 
BRANCH  20  21
ATOM     21  C   UNL     1      -9.686   0.213  23.754  1.00  0.00     0.000 C 
BRANCH  21  22
ATOM     22  C   UNL     1     -10.051  -0.115  25.211  1.00  0.00    -0.000 C 
BRANCH  22  23
ATOM     23  C   UNL     1     -11.416   0.488  25.579  1.00  0.00    -0.000 C 
BRANCH  23  24
ATOM     24  C   UNL     1     -12.591  -0.259  24.929  1.00  0.00    -0.000 C 
BRANCH  24  25
ATOM     25  C   UNL     1     -13.485   0.663  24.087  1.00  0.00    -0.000 C 
BRANCH  25  26
ATOM     26  C   UNL     1     -13.018   0.692  22.626  1.00  0.00    -0.000 C 
BRANCH  26  27
ATOM     27  C   UNL     1     -13.024   2.122  22.068  1.00  0.00    -0.000 C 
BRANCH  27  28
ATOM     28  C   UNL     1     -12.563   3.169  23.098  1.00  0.00    -0.000 C 
BRANCH  28  29
ATOM     29  C   UNL     1     -11.242   3.869  22.713  1.00  0.00    -0.003 C 
ATOM     30  C   UNL     1     -10.225   3.870  23.857  1.00  0.00     0.004 C 
ENDBRANCH  28  29
ENDBRANCH  27  28
ENDBRANCH  26  27
ENDBRANCH  25  26
ENDBRANCH  24  25
ENDBRANCH  23  24
ENDBRANCH  22  23
ENDBRANCH  21  22
ENDBRANCH  20  21
ENDBRANCH  19  20
ENDBRANCH  18  19
ENDBRANCH  17  18
ENDBRANCH   1  17
TORSDOF 26
ENDMDL
MODEL 9
REMARK VINA RESULT:    -4.052      3.301      6.896
REMARK INTER + INTRA:         -15.372
REMARK INTER:                 -10.492
REMARK INTRA:                  -4.879
REMARK UNBOUND:                -5.161
REMARK SMILES CCCCCCCCCCCCCCCCCCCCCCCCCCCC(=O)[O-]
REMARK SMILES IDX 15 1 16 2 17 3 18 4 19 5 20 6 21 7 22 8 23 9 24 10 25 11
REMARK SMILES IDX 26 12 27 13 28 14 29 15 30 16 14 17 13 18 12 19 11 20 10 21
REMARK SMILES IDX 9 22 8 23 7 24 6 25 5 26 4 27 3 28 2 29 1 30
REMARK H PARENT
REMARK Flexibility Score: inf
ROOT
ATOM      1  C   UNL     1     -10.784  -0.205  21.028  1.00  0.00     0.000 C 
ENDROOT
BRANCH   1   2
ATOM      2  C   UNL     1      -9.309  -0.369  21.433  1.00  0.00     0.000 C 
BRANCH   2   3
ATOM      3  C   UNL     1      -9.110  -0.363  22.960  1.00  0.00     0.000 C 
BRANCH   3   4
ATOM      4  C   UNL     1      -9.275   1.036  23.578  1.00  0.00     0.000 C 
BRANCH   4   5
ATOM      5  C   UNL     1      -9.745   0.994  25.044  1.00  0.00     0.000 C 
BRANCH   5   6
ATOM      6  C   UNL     1     -10.684  -0.193  25.317  1.00  0.00     0.000 C 
BRANCH   6   7
ATOM      7  C   UNL     1     -11.934   0.229  26.109  1.00  0.00     0.000 C 
BRANCH   7   8
ATOM      8  C   UNL     1     -13.238  -0.039  25.338  1.00  0.00     0.000 C 
BRANCH   8   9
ATOM      9  C   UNL     1     -13.096  -0.026  23.799  1.00  0.00     0.000 C 
BRANCH   9  10
ATOM     10  C   UNL     1     -13.661   1.226  23.094  1.00  0.00     0.000 C 
BRANCH  10  11
ATOM     11  C   UNL     1     -12.958   2.520  23.539  1.00  0.00     0.000 C 
BRANCH  11  12
ATOM     12  C   UNL     1     -12.298   3.273  22.367  1.00  0.00     0.006 C 
BRANCH  12  13
ATOM     13  C   UNL     1     -11.818   4.691  22.720  1.00  0.00     0.053 C 
BRANCH  13  14
ATOM     14  C   UNL     1     -12.945   5.678  22.744  1.00  0.00     0.041 C 
ATOM     15  O   UNL     1     -13.784   5.702  21.804  1.00  0.00    -0.550 OA
ATOM     16  O   UNL     1     -13.087   6.547  23.817  1.00  0.00    -0.550 OA
ENDBRANCH  13  14
ENDBRANCH  12  13
ENDBRANCH  11  12
ENDBRANCH  10  11
ENDBRANCH   9  10
ENDBRANCH   8   9
ENDBRANCH   7   8
ENDBRANCH   6   7
ENDBRANCH   5   6
ENDBRANCH   4   5
ENDBRANCH   3   4
ENDBRANCH   2   3
ENDBRANCH   1   2
BRANCH   1  17
ATOM     17  C   UNL     1     -11.011   1.041  20.154  1.00  0.00     0.000 C 
BRANCH  17  18
ATOM     18  C   UNL     1      -9.756   1.927  20.010  1.00  0.00     0.000 C 
BRANCH  18  19
ATOM     19  C   UNL     1      -9.209   2.039  18.575  1.00  0.00     0.000 C 
BRANCH  19  20
ATOM     20  C   UNL     1      -8.820   3.475  18.179  1.00  0.00     0.000 C 
BRANCH  20  21
ATOM     21  C   UNL     1      -9.639   4.528  18.946  1.00  0.00     0.000 C 
BRANCH  21  22
ATOM     22  C   UNL     1     -10.859   5.023  18.150  1.00  0.00    -0.000 C 
BRANCH  22  23
ATOM     23  C   UNL     1     -12.165   4.654  18.871  1.00  0.00    -0.000 C 
BRANCH  23  24
ATOM     24  C   UNL     1     -12.952   3.550  18.146  1.00  0.00    -0.000 C 
BRANCH  24  25
ATOM     25  C   UNL     1     -12.514   3.373  16.685  1.00  0.00    -0.000 C 
BRANCH  25  26
ATOM     26  C   UNL     1     -12.235   1.897  16.373  1.00  0.00    -0.000 C 
BRANCH  26  27
ATOM     27  C   UNL     1     -11.086   1.748  15.366  1.00  0.00    -0.000 C 
BRANCH  27  28
ATOM     28  C   UNL     1     -11.142   0.421  14.587  1.00  0.00    -0.000 C 
BRANCH  28  29
ATOM     29  C   UNL     1     -12.504   0.167  13.905  1.00  0.00    -0.003 C 
ATOM     30  C   UNL     1     -12.785  -1.323  13.699  1.00  0.00     0.004 C 
ENDBRANCH  28  29
ENDBRANCH  27  28
ENDBRANCH  26  27
ENDBRANCH  25  26
ENDBRANCH  24  25
ENDBRANCH  23  24
ENDBRANCH  22  23
ENDBRANCH  21  22
ENDBRANCH  20  21
ENDBRANCH  19  20
ENDBRANCH  18  19
ENDBRANCH  17  18
ENDBRANCH   1  17
TORSDOF 26
ENDMDL
