MODEL 1
REMARK VINA RESULT:    -4.178      0.000      0.000
REMARK INTER + INTRA:          -5.615
REMARK INTER:                  -5.399
REMARK INTRA:                  -0.217
REMARK UNBOUND:                -0.217
REMARK SMILES CCCCCCC(=O)[O-]
REMARK SMILES IDX 5 1 6 2 7 3 8 4 9 5 4 6 3 7 2 8 1 9
REMARK H PARENT
REMARK Flexibility Score: inf
ROOT
ATOM      1  C   UNL     1      -0.944 -26.476  10.400  1.00  0.00     0.006 C 
ENDROOT
BRANCH   1   2
ATOM      2  C   UNL     1      -1.239 -27.169   9.067  1.00  0.00     0.053 C 
BRANCH   2   3
ATOM      3  C   UNL     1      -0.156 -26.880   8.075  1.00  0.00     0.041 C 
ATOM      4  O   UNL     1      -0.384 -26.983   6.841  1.00  0.00    -0.550 OA
ATOM      5  O   UNL     1       1.090 -26.449   8.513  1.00  0.00    -0.550 OA
ENDBRANCH   2   3
ENDBRANCH   1   2
BRANCH   1   6
ATOM      6  C   UNL     1      -2.219 -25.855  10.991  1.00  0.00     0.000 C 
BRANCH   6   7
ATOM      7  C   UNL     1      -3.486 -26.259  10.220  1.00  0.00    -0.000 C 
BRANCH   7   8
ATOM      8  C   UNL     1      -4.537 -25.139  10.183  1.00  0.00    -0.003 C 
ATOM      9  C   UNL     1      -4.210 -24.044  11.195  1.00  0.00     0.004 C 
ENDBRANCH   7   8
ENDBRANCH   6   7
ENDBRANCH   1   6
TORSDOF 5
ENDMDL
MODEL 2
REMARK VINA RESULT:    -4.077      3.000      4.789
REMARK INTER + INTRA:          -5.485
REMARK INTER:                  -5.336
REMARK INTRA:                  -0.149
REMARK UNBOUND:                -0.217
REMARK SMILES CCCCCCC(=O)[O-]
REMARK SMILES IDX 5 1 6 2 7 3 8 4 9 5 4 6 3 7 2 8 1 9
REMARK H PARENT
REMARK Flexibility Score: inf
ROOT
ATOM      1  C   UNL     1      -2.076 -26.541   9.895  1.00  0.00     0.006 C 
ENDROOT
BRANCH   1   2
ATOM      2  C   UNL     1      -2.680 -25.609  10.948  1.00  0.00     0.053 C 
BRANCH   2   3
ATOM      3  C   UNL     1      -4.075 -25.221  10.568  1.00  0.00     0.041 C 
ATOM      4  O   UNL     1      -4.824 -26.046   9.982  1.00  0.00    -0.550 OA
ATOM      5  O   UNL     1      -4.563 -23.965  10.906  1.00  0.00    -0.550 OA
ENDBRANCH   2   3
ENDBRANCH   1   2
BRANCH   1   6
ATOM      6  C   UNL     1      -0.544 -26.575  10.006  1.00  0.00     0.000 C 
BRANCH   6   7
ATOM      7  C   UNL     1       0.146 -26.690   8.638  1.00  0.00    -0.000 C 
BRANCH   7   8
ATOM      8  C   UNL     1      -0.635 -27.574   7.654  1.00  0.00    -0.003 C 
ATOM      9  C   UNL     1      -0.281 -27.232   6.208  1.00  0.00     0.004 C 
ENDBRANCH   7   8
ENDBRANCH   6   7
ENDBRANCH   1   6
TORSDOF 5
ENDMDL
MODEL 3
REMARK VINA RESULT:    -4.010      7.543      9.228
REMARK INTER + INTRA:          -5.399
REMARK INTER:                  -5.218
REMARK INTRA:                  -0.182
REMARK UNBOUND:                -0.217
REMARK SMILES CCCCCCC(=O)[O-]
REMARK SMILES IDX 5 1 6 2 7 3 8 4 9 5 4 6 3 7 2 8 1 9
REMARK H PARENT
REMARK Flexibility Score: inf
ROOT
ATOM      1  C   UNL     1      -1.022 -25.320   0.455  1.00  0.00     0.006 C 
ENDROOT
BRANCH   1   2
ATOM      2  C   UNL     1      -2.433 -25.792   0.095  1.00  0.00     0.053 C 
BRANCH   2   3
ATOM      3  C   UNL     1      -2.888 -25.159  -1.182  1.00  0.00     0.041 C 
ATOM      4  O   UNL     1      -2.456 -24.024  -1.515  1.00  0.00    -0.550 OA
ATOM      5  O   UNL     1      -3.749 -25.845  -2.029  1.00  0.00    -0.550 OA
ENDBRANCH   2   3
ENDBRANCH   1   2
BRANCH   1   6
ATOM      6  C   UNL     1      -1.049 -24.387   1.677  1.00  0.00     0.000 C 
BRANCH   6   7
ATOM      7  C   UNL     1      -0.354 -24.998   2.903  1.00  0.00    -0.000 C 
BRANCH   7   8
ATOM      8  C   UNL     1      -1.335 -25.712   3.845  1.00  0.00    -0.003 C 
ATOM      9  C   UNL     1      -0.616 -26.751   4.702  1.00  0.00     0.004 C 
ENDBRANCH   7   8
ENDBRANCH   6   7
ENDBRANCH   1   6
TORSDOF 5
ENDMDL
MODEL 4
REMARK VINA RESULT:    -3.945      9.021      9.993
REMARK INTER + INTRA:          -5.315
REMARK INTER:                  -5.223
REMARK INTRA:                  -0.091
REMARK UNBOUND:                -0.217
REMARK SMILES CCCCCCC(=O)[O-]
REMARK SMILES IDX 5 1 6 2 7 3 8 4 9 5 4 6 3 7 2 8 1 9
REMARK H PARENT
REMARK Flexibility Score: inf
ROOT
ATOM      1  C   UNL     1      -1.281 -26.262   0.546  1.00  0.00     0.006 C 
ENDROOT
BRANCH   1   2
ATOM      2  C   UNL     1      -2.487 -25.325   0.434  1.00  0.00     0.053 C 
BRANCH   2   3
ATOM      3  C   UNL     1      -2.769 -25.002  -1.000  1.00  0.00     0.041 C 
ATOM      4  O   UNL     1      -3.520 -25.748  -1.681  1.00  0.00    -0.550 OA
ATOM      5  O   UNL     1      -2.242 -23.849  -1.568  1.00  0.00    -0.550 OA
ENDBRANCH   2   3
ENDBRANCH   1   2
BRANCH   1   6
ATOM      6  C   UNL     1      -1.650 -27.542   1.314  1.00  0.00     0.000 C 
BRANCH   6   7
ATOM      7  C   UNL     1      -0.465 -28.121   2.102  1.00  0.00    -0.000 C 
BRANCH   7   8
ATOM      8  C   UNL     1      -0.009 -29.487   1.566  1.00  0.00    -0.003 C 
ATOM      9  C   UNL     1       0.758 -30.266   2.631  1.00  0.00     0.004 C 
ENDBRANCH   7   8
ENDBRANCH   6   7
ENDBRANCH   1   6
TORSDOF 5
ENDMDL
MODEL 5
REMARK VINA RESULT:    -3.867      3.177      4.854
REMARK INTER + INTRA:          -5.214
REMARK INTER:                  -5.056
REMARK INTRA:                  -0.158
REMARK UNBOUND:                -0.217
REMARK SMILES CCCCCCC(=O)[O-]
REMARK SMILES IDX 5 1 6 2 7 3 8 4 9 5 4 6 3 7 2 8 1 9
REMARK H PARENT
REMARK Flexibility Score: inf
ROOT
ATOM      1  C   UNL     1      -2.487 -26.524   9.867  1.00  0.00     0.006 C 
ENDROOT
BRANCH   1   2
ATOM      2  C   UNL     1      -2.836 -25.430  10.879  1.00  0.00     0.053 C 
BRANCH   2   3
ATOM      3  C   UNL     1      -4.180 -24.845  10.577  1.00  0.00     0.041 C 
ATOM      4  O   UNL     1      -4.992 -25.470   9.845  1.00  0.00    -0.550 OA
ATOM      5  O   UNL     1      -4.555 -23.635  11.147  1.00  0.00    -0.550 OA
ENDBRANCH   2   3
ENDBRANCH   1   2
BRANCH   1   6
ATOM      6  C   UNL     1      -0.988 -26.862   9.919  1.00  0.00     0.000 C 
BRANCH   6   7
ATOM      7  C   UNL     1      -0.350 -26.939   8.523  1.00  0.00    -0.000 C 
BRANCH   7   8
ATOM      8  C   UNL     1       1.149 -26.606   8.539  1.00  0.00    -0.003 C 
ATOM      9  C   UNL     1       1.628 -26.295   9.956  1.00  0.00     0.004 C 
ENDBRANCH   7   8
ENDBRANCH   6   7
ENDBRANCH   1   6
TORSDOF 5
ENDMDL
MODEL 6
REMARK VINA RESULT:    -3.819      1.843      2.008
REMARK INTER + INTRA:          -5.152
REMARK INTER:                  -4.990
REMARK INTRA:                  -0.162
REMARK UNBOUND:                -0.217
REMARK SMILES CCCCCCC(=O)[O-]
REMARK SMILES IDX 5 1 6 2 7 3 8 4 9 5 4 6 3 7 2 8 1 9
REMARK H PARENT
REMARK Flexibility Score: inf
ROOT
ATOM      1  C   UNL     1      -1.662 -27.094   9.567  1.00  0.00     0.006 C 
ENDROOT
BRANCH   1   2
ATOM      2  C   UNL     1      -0.256 -26.564   9.270  1.00  0.00     0.053 C 
BRANCH   2   3
ATOM      3  C   UNL     1       0.635 -26.748  10.458  1.00  0.00     0.041 C 
ATOM      4  O   UNL     1       0.688 -27.861  11.044  1.00  0.00    -0.550 OA
ATOM      5  O   UNL     1       1.446 -25.704  10.886  1.00  0.00    -0.550 OA
ENDBRANCH   2   3
ENDBRANCH   1   2
BRANCH   1   6
ATOM      6  C   UNL     1      -2.366 -26.223  10.619  1.00  0.00     0.000 C 
BRANCH   6   7
ATOM      7  C   UNL     1      -3.870 -26.063  10.345  1.00  0.00    -0.000 C 
BRANCH   7   8
ATOM      8  C   UNL     1      -4.309 -24.593  10.294  1.00  0.00    -0.003 C 
ATOM      9  C   UNL     1      -3.991 -23.878  11.605  1.00  0.00     0.004 C 
ENDBRANCH   7   8
ENDBRANCH   6   7
ENDBRANCH   1   6
TORSDOF 5
ENDMDL
MODEL 7
REMARK VINA RESULT:    -3.817      6.367      8.206
REMARK INTER + INTRA:          -5.149
REMARK INTER:                  -4.889
REMARK INTRA:                  -0.260
REMARK UNBOUND:                -0.217
REMARK SMILES CCCCCCC(=O)[O-]
REMARK SMILES IDX 5 1 6 2 7 3 8 4 9 5 4 6 3 7 2 8 1 9
REMARK H PARENT
REMARK Flexibility Score: inf
ROOT
ATOM      1  C   UNL     1      -1.858 -27.644   1.632  1.00  0.00     0.006 C 
ENDROOT
BRANCH   1   2
ATOM      2  C   UNL     1      -2.327 -26.194   1.482  1.00  0.00     0.053 C 
BRANCH   2   3
ATOM      3  C   UNL     1      -2.015 -25.681   0.112  1.00  0.00     0.041 C 
ATOM      4  O   UNL     1      -0.862 -25.252  -0.156  1.00  0.00    -0.550 OA
ATOM      5  O   UNL     1      -2.983 -25.723  -0.883  1.00  0.00    -0.550 OA
ENDBRANCH   2   3
ENDBRANCH   1   2
BRANCH   1   6
ATOM      6  C   UNL     1      -0.758 -27.757   2.700  1.00  0.00     0.000 C 
BRANCH   6   7
ATOM      7  C   UNL     1      -0.708 -26.536   3.630  1.00  0.00    -0.000 C 
BRANCH   7   8
ATOM      8  C   UNL     1      -0.507 -26.921   5.103  1.00  0.00    -0.003 C 
ATOM      9  C   UNL     1      -0.220 -28.414   5.246  1.00  0.00     0.004 C 
ENDBRANCH   7   8
ENDBRANCH   6   7
ENDBRANCH   1   6
TORSDOF 5
ENDMDL
MODEL 8
REMARK VINA RESULT:    -3.787      6.858      8.337
REMARK INTER + INTRA:          -5.111
REMARK INTER:                  -4.692
REMARK INTRA:                  -0.419
REMARK UNBOUND:                -0.217
REMARK SMILES CCCCCCC(=O)[O-]
REMARK SMILES IDX 5 1 6 2 7 3 8 4 9 5 4 6 3 7 2 8 1 9
REMARK H PARENT
REMARK Flexibility Score: inf
ROOT
ATOM      1  C   UNL     1      -1.413 -25.756   3.321  1.00  0.00     0.006 C 
ENDROOT
BRANCH   1   2
ATOM      2  C   UNL     1      -0.912 -27.188   3.528  1.00  0.00     0.053 C 
BRANCH   2   3
ATOM      3  C   UNL     1      -0.997 -27.963   2.250  1.00  0.00     0.041 C 
ATOM      4  O   UNL     1      -2.119 -28.234   1.747  1.00  0.00    -0.550 OA
ATOM      5  O   UNL     1       0.165 -28.342   1.590  1.00  0.00    -0.550 OA
ENDBRANCH   2   3
ENDBRANCH   1   2
BRANCH   1   6
ATOM      6  C   UNL     1      -0.457 -24.966   2.414  1.00  0.00     0.000 C 
BRANCH   6   7
ATOM      7  C   UNL     1      -1.180 -24.284   1.243  1.00  0.00    -0.000 C 
BRANCH   7   8
ATOM      8  C   UNL     1      -1.107 -25.102  -0.055  1.00  0.00    -0.003 C 
ATOM      9  C   UNL     1      -2.489 -25.602  -0.468  1.00  0.00     0.004 C 
ENDBRANCH   7   8
ENDBRANCH   6   7
ENDBRANCH   1   6
TORSDOF 5
ENDMDL
MODEL 9
REMARK VINA RESULT:    -3.786      6.076      7.538
REMARK INTER + INTRA:          -5.109
REMARK INTER:                  -4.705
REMARK INTRA:                  -0.404
REMARK UNBOUND:                -0.217
REMARK SMILES CCCCCCC(=O)[O-]
REMARK SMILES IDX 5 1 6 2 7 3 8 4 9 5 4 6 3 7 2 8 1 9
REMARK H PARENT
REMARK Flexibility Score: inf
ROOT
ATOM      1  C   UNL     1      -0.347 -28.297   1.278  1.00  0.00     0.006 C 
ENDROOT
BRANCH   1   2
ATOM      2  C   UNL     1       0.272 -29.475   2.035  1.00  0.00     0.053 C 
BRANCH   2   3
ATOM      3  C   UNL     1       0.786 -29.031   3.368  1.00  0.00     0.041 C 
ATOM      4  O   UNL     1       1.594 -28.069   3.446  1.00  0.00    -0.550 OA
ATOM      5  O   UNL     1       0.333 -29.647   4.528  1.00  0.00    -0.550 OA
ENDBRANCH   2   3
ENDBRANCH   1   2
BRANCH   1   6
ATOM      6  C   UNL     1      -1.730 -27.944   1.849  1.00  0.00     0.000 C 
BRANCH   6   7
ATOM      7  C   UNL     1      -2.073 -26.455   1.691  1.00  0.00    -0.000 C 
BRANCH   7   8
ATOM      8  C   UNL     1      -1.179 -25.548   2.549  1.00  0.00    -0.003 C 
ATOM      9  C   UNL     1      -1.254 -25.938   4.023  1.00  0.00     0.004 C 
ENDBRANCH   7   8
ENDBRANCH   6   7
ENDBRANCH   1   6
TORSDOF 5
ENDMDL
