MODEL 1
REMARK VINA RESULT:    -4.294      0.000      0.000
REMARK INTER + INTRA:          -6.724
REMARK INTER:                  -6.553
REMARK INTRA:                  -0.171
REMARK UNBOUND:                -0.171
REMARK SMILES CC1=CCC[C@H](C)C(=O)C[C@@H](C(C)C)C(=O)C1
REMARK SMILES IDX 8 1 9 2 6 3 7 4 5 5 4 6 3 7 2 8 1 9 10 11 11 12 15 13 16 14
REMARK SMILES IDX 17 15 12 17 13 18 14 19
REMARK H PARENT
REMARK Flexibility Score: 70.00
ROOT
ATOM      1  C   UNL     1      16.433 -29.105  22.226  1.00  0.00     0.136 C 
ATOM      2  O   UNL     1      16.331 -28.225  23.067  1.00  0.00    -0.299 OA
ENDROOT
BRANCH   1   3
ATOM      3  C   UNL     1      17.772 -29.286  21.530  1.00  0.00     0.053 C 
ATOM      4  C   UNL     1      18.620 -28.012  21.625  1.00  0.00     0.016 C 
BRANCH   3   5
ATOM      5  C   UNL     1      18.547 -30.506  22.065  1.00  0.00     0.015 C 
BRANCH   5   6
ATOM      6  C   UNL     1      18.266 -31.793  21.254  1.00  0.00     0.028 C 
BRANCH   6   7
ATOM      7  C   UNL     1      18.104 -32.981  22.170  1.00  0.00    -0.028 C 
ATOM      8  C   UNL     1      16.923 -33.456  22.637  1.00  0.00    -0.070 CG0
ATOM      9  C   UNL     1      16.965 -34.626  23.589  1.00  0.00     0.039 C 
ATOM     10  G   UNL     1      15.570 -32.911  22.197  1.00  0.00     0.000 G0
ENDBRANCH   6   7
ENDBRANCH   5   6
ENDBRANCH   3   5
ENDBRANCH   1   3
BRANCH   1  11
ATOM     11  C   UNL     1      15.221 -29.967  21.931  1.00  0.00     0.087 C 
BRANCH  11  12
ATOM     12  C   UNL     1      14.583 -30.608  23.193  1.00  0.00     0.066 C 
BRANCH  12  13
ATOM     13  C   UNL     1      14.776 -32.122  23.239  1.00  0.00     0.140 C 
ATOM     14  O   UNL     1      14.271 -32.747  24.160  1.00  0.00    -0.299 OA
BRANCH  13  15
ATOM     15  C   UNL     1      15.559 -32.914  22.207  1.00  0.00     0.106 CG0
ATOM     16  G   UNL     1      16.921 -33.432  22.648  1.00  0.00     0.000 G0
ENDBRANCH  13  15
ENDBRANCH  12  13
BRANCH  12  17
ATOM     17  C   UNL     1      13.088 -30.188  23.356  1.00  0.00    -0.006 C 
ATOM     18  C   UNL     1      12.256 -30.610  22.137  1.00  0.00     0.008 C 
ATOM     19  C   UNL     1      12.873 -28.689  23.633  1.00  0.00     0.008 C 
ENDBRANCH  12  17
ENDBRANCH  11  12
ENDBRANCH   1  11
TORSDOF 1
ENDMDL
MODEL 2
REMARK VINA RESULT:    -4.259      1.556      2.100
REMARK INTER + INTRA:          -6.670
REMARK INTER:                  -6.443
REMARK INTRA:                  -0.227
REMARK UNBOUND:                -0.171
REMARK SMILES CC1=CCC[C@H](C)C(=O)C[C@@H](C(C)C)C(=O)C1
REMARK SMILES IDX 8 1 9 2 6 3 7 4 5 5 4 6 3 7 2 8 1 9 10 11 11 12 15 13 16 14
REMARK SMILES IDX 17 15 12 17 13 18 14 19
REMARK H PARENT
REMARK Flexibility Score: 70.00
ROOT
ATOM      1  C   UNL     1      16.281 -29.508  21.960  1.00  0.00     0.136 C 
ATOM      2  O   UNL     1      16.224 -28.411  22.495  1.00  0.00    -0.299 OA
ENDROOT
BRANCH   1   3
ATOM      3  C   UNL     1      17.649 -30.088  21.645  1.00  0.00     0.053 C 
ATOM      4  C   UNL     1      18.597 -29.007  21.111  1.00  0.00     0.016 C 
BRANCH   3   5
ATOM      5  C   UNL     1      18.267 -30.815  22.855  1.00  0.00     0.015 C 
BRANCH   5   6
ATOM      6  C   UNL     1      18.210 -32.354  22.718  1.00  0.00     0.028 C 
BRANCH   6   7
ATOM      7  C   UNL     1      18.258 -32.766  21.266  1.00  0.00    -0.028 C 
ATOM      8  C   UNL     1      17.297 -33.470  20.619  1.00  0.00    -0.070 CG0
ATOM      9  C   UNL     1      17.547 -33.835  19.177  1.00  0.00     0.039 C 
ATOM     10  G   UNL     1      15.965 -33.846  21.255  1.00  0.00     0.000 G0
ENDBRANCH   6   7
ENDBRANCH   5   6
ENDBRANCH   3   5
ENDBRANCH   1   3
BRANCH   1  11
ATOM     11  C   UNL     1      14.982 -30.227  21.647  1.00  0.00     0.087 C 
BRANCH  11  12
ATOM     12  C   UNL     1      14.862 -31.624  22.314  1.00  0.00     0.066 C 
BRANCH  12  13
ATOM     13  C   UNL     1      14.886 -32.761  21.295  1.00  0.00     0.140 C 
ATOM     14  O   UNL     1      14.004 -32.807  20.450  1.00  0.00    -0.299 OA
BRANCH  13  15
ATOM     15  C   UNL     1      15.943 -33.849  21.256  1.00  0.00     0.106 CG0
ATOM     16  G   UNL     1      17.277 -33.470  20.627  1.00  0.00     0.000 G0
ENDBRANCH  13  15
ENDBRANCH  12  13
BRANCH  12  17
ATOM     17  C   UNL     1      13.627 -31.699  23.268  1.00  0.00    -0.006 C 
ATOM     18  C   UNL     1      13.285 -30.318  23.845  1.00  0.00     0.008 C 
ATOM     19  C   UNL     1      13.768 -32.717  24.415  1.00  0.00     0.008 C 
ENDBRANCH  12  17
ENDBRANCH  11  12
ENDBRANCH   1  11
TORSDOF 1
ENDMDL
MODEL 3
REMARK VINA RESULT:    -4.201      1.905      2.627
REMARK INTER + INTRA:          -6.583
REMARK INTER:                  -6.257
REMARK INTRA:                  -0.326
REMARK UNBOUND:                -0.171
REMARK SMILES CC1=CCC[C@H](C)C(=O)C[C@@H](C(C)C)C(=O)C1
REMARK SMILES IDX 8 1 9 2 6 3 7 4 5 5 4 6 3 7 2 8 1 9 10 11 11 12 15 13 16 14
REMARK SMILES IDX 17 15 12 17 13 18 14 19
REMARK H PARENT
REMARK Flexibility Score: 70.00
ROOT
ATOM      1  C   UNL     1      18.269 -31.193  22.012  1.00  0.00     0.136 C 
ATOM      2  O   UNL     1      18.413 -30.622  23.083  1.00  0.00    -0.299 OA
ENDROOT
BRANCH   1   3
ATOM      3  C   UNL     1      19.442 -31.977  21.448  1.00  0.00     0.053 C 
ATOM      4  C   UNL     1      20.628 -31.053  21.146  1.00  0.00     0.016 C 
BRANCH   3   5
ATOM      5  C   UNL     1      19.867 -33.136  22.371  1.00  0.00     0.015 C 
BRANCH   5   6
ATOM      6  C   UNL     1      18.703 -34.105  22.684  1.00  0.00     0.028 C 
BRANCH   6   7
ATOM      7  C   UNL     1      18.155 -34.714  21.416  1.00  0.00    -0.028 C 
ATOM      8  C   UNL     1      16.840 -34.847  21.116  1.00  0.00    -0.070 CG0
ATOM      9  C   UNL     1      16.483 -35.531  19.819  1.00  0.00     0.039 C 
ATOM     10  G   UNL     1      15.723 -34.284  21.984  1.00  0.00     0.000 G0
ENDBRANCH   6   7
ENDBRANCH   5   6
ENDBRANCH   3   5
ENDBRANCH   1   3
BRANCH   1  11
ATOM     11  C   UNL     1      16.927 -31.090  21.313  1.00  0.00     0.087 C 
BRANCH  11  12
ATOM     12  C   UNL     1      15.735 -31.608  22.163  1.00  0.00     0.066 C 
BRANCH  12  13
ATOM     13  C   UNL     1      15.165 -32.921  21.631  1.00  0.00     0.140 C 
ATOM     14  O   UNL     1      14.218 -32.877  20.861  1.00  0.00    -0.299 OA
BRANCH  13  15
ATOM     15  C   UNL     1      15.703 -34.293  21.995  1.00  0.00     0.106 CG0
ATOM     16  G   UNL     1      16.837 -34.823  21.128  1.00  0.00     0.000 G0
ENDBRANCH  13  15
ENDBRANCH  12  13
BRANCH  12  17
ATOM     17  C   UNL     1      14.640 -30.509  22.344  1.00  0.00    -0.006 C 
ATOM     18  C   UNL     1      15.269 -29.114  22.480  1.00  0.00     0.008 C 
ATOM     19  C   UNL     1      13.675 -30.756  23.519  1.00  0.00     0.008 C 
ENDBRANCH  12  17
ENDBRANCH  11  12
ENDBRANCH   1  11
TORSDOF 1
ENDMDL
MODEL 4
REMARK VINA RESULT:    -4.104      1.768      3.963
REMARK INTER + INTRA:          -6.434
REMARK INTER:                  -6.079
REMARK INTRA:                  -0.355
REMARK UNBOUND:                -0.171
REMARK SMILES CC1=CCC[C@H](C)C(=O)C[C@@H](C(C)C)C(=O)C1
REMARK SMILES IDX 8 1 9 2 6 3 7 4 5 5 4 6 3 7 2 8 1 9 10 11 11 12 15 13 16 14
REMARK SMILES IDX 17 15 12 17 13 18 14 19
REMARK H PARENT
REMARK Flexibility Score: 70.00
ROOT
ATOM      1  C   UNL     1      15.786 -33.050  24.033  1.00  0.00     0.136 C 
ATOM      2  O   UNL     1      14.684 -33.573  24.105  1.00  0.00    -0.299 OA
ENDROOT
BRANCH   1   3
ATOM      3  C   UNL     1      17.010 -33.901  24.329  1.00  0.00     0.053 C 
ATOM      4  C   UNL     1      16.966 -34.451  25.759  1.00  0.00     0.016 C 
BRANCH   3   5
ATOM      5  C   UNL     1      17.191 -35.038  23.304  1.00  0.00     0.015 C 
BRANCH   5   6
ATOM      6  C   UNL     1      17.723 -34.534  21.943  1.00  0.00     0.028 C 
BRANCH   6   7
ATOM      7  C   UNL     1      18.926 -33.642  22.132  1.00  0.00    -0.028 C 
ATOM      8  C   UNL     1      19.092 -32.419  21.572  1.00  0.00    -0.070 CG0
ATOM      9  C   UNL     1      20.390 -31.697  21.836  1.00  0.00     0.039 C 
ATOM     10  G   UNL     1      18.013 -31.722  20.754  1.00  0.00     0.000 G0
ENDBRANCH   6   7
ENDBRANCH   5   6
ENDBRANCH   3   5
ENDBRANCH   1   3
BRANCH   1  11
ATOM     11  C   UNL     1      15.866 -31.585  23.647  1.00  0.00     0.087 C 
BRANCH  11  12
ATOM     12  C   UNL     1      15.746 -31.331  22.120  1.00  0.00     0.066 C 
BRANCH  12  13
ATOM     13  C   UNL     1      17.054 -30.837  21.507  1.00  0.00     0.140 C 
ATOM     14  O   UNL     1      17.350 -29.658  21.632  1.00  0.00    -0.299 OA
BRANCH  13  15
ATOM     15  C   UNL     1      18.025 -31.720  20.744  1.00  0.00     0.106 CG0
ATOM     16  G   UNL     1      19.095 -32.417  21.573  1.00  0.00     0.000 G0
ENDBRANCH  13  15
ENDBRANCH  12  13
BRANCH  12  17
ATOM     17  C   UNL     1      14.538 -30.399  21.788  1.00  0.00    -0.006 C 
ATOM     18  C   UNL     1      14.213 -29.468  22.966  1.00  0.00     0.008 C 
ATOM     19  C   UNL     1      13.261 -31.140  21.350  1.00  0.00     0.008 C 
ENDBRANCH  12  17
ENDBRANCH  11  12
ENDBRANCH   1  11
TORSDOF 1
ENDMDL
MODEL 5
REMARK VINA RESULT:    -4.090      1.578      4.150
REMARK INTER + INTRA:          -6.412
REMARK INTER:                  -6.388
REMARK INTRA:                  -0.024
REMARK UNBOUND:                -0.171
REMARK SMILES CC1=CCC[C@H](C)C(=O)C[C@@H](C(C)C)C(=O)C1
REMARK SMILES IDX 8 1 9 2 6 3 7 4 5 5 4 6 3 7 2 8 1 9 10 11 11 12 15 13 16 14
REMARK SMILES IDX 17 15 12 17 13 18 14 19
REMARK H PARENT
REMARK Flexibility Score: 70.00
ROOT
ATOM      1  C   UNL     1      15.498 -29.302  22.660  1.00  0.00     0.136 C 
ATOM      2  O   UNL     1      15.290 -28.518  21.746  1.00  0.00    -0.299 OA
ENDROOT
BRANCH   1   3
ATOM      3  C   UNL     1      14.319 -29.756  23.504  1.00  0.00     0.053 C 
ATOM      4  C   UNL     1      13.226 -28.682  23.549  1.00  0.00     0.016 C 
BRANCH   3   5
ATOM      5  C   UNL     1      13.748 -31.106  23.029  1.00  0.00     0.015 C 
BRANCH   5   6
ATOM      6  C   UNL     1      14.465 -32.316  23.671  1.00  0.00     0.028 C 
BRANCH   6   7
ATOM      7  C   UNL     1      14.797 -33.358  22.631  1.00  0.00    -0.028 C 
ATOM      8  C   UNL     1      16.003 -33.512  22.033  1.00  0.00    -0.070 CG0
ATOM      9  C   UNL     1      16.130 -34.580  20.974  1.00  0.00     0.039 C 
ATOM     10  G   UNL     1      17.239 -32.712  22.423  1.00  0.00     0.000 G0
ENDBRANCH   6   7
ENDBRANCH   5   6
ENDBRANCH   3   5
ENDBRANCH   1   3
BRANCH   1  11
ATOM     11  C   UNL     1      16.919 -29.777  22.895  1.00  0.00     0.087 C 
BRANCH  11  12
ATOM     12  C   UNL     1      17.668 -30.182  21.596  1.00  0.00     0.066 C 
BRANCH  12  13
ATOM     13  C   UNL     1      17.711 -31.694  21.395  1.00  0.00     0.140 C 
ATOM     14  O   UNL     1      18.169 -32.132  20.349  1.00  0.00    -0.299 OA
BRANCH  13  15
ATOM     15  C   UNL     1      17.221 -32.705  22.416  1.00  0.00     0.106 CG0
ATOM     16  G   UNL     1      15.998 -33.523  22.019  1.00  0.00     0.000 G0
ENDBRANCH  13  15
ENDBRANCH  12  13
BRANCH  12  17
ATOM     17  C   UNL     1      19.084 -29.526  21.524  1.00  0.00    -0.006 C 
ATOM     18  C   UNL     1      19.928 -29.887  22.755  1.00  0.00     0.008 C 
ATOM     19  C   UNL     1      19.071 -27.998  21.338  1.00  0.00     0.008 C 
ENDBRANCH  12  17
ENDBRANCH  11  12
ENDBRANCH   1  11
TORSDOF 1
ENDMDL
MODEL 6
REMARK VINA RESULT:    -4.065      2.259      3.793
REMARK INTER + INTRA:          -6.375
REMARK INTER:                  -6.155
REMARK INTRA:                  -0.221
REMARK UNBOUND:                -0.171
REMARK SMILES CC1=CCC[C@H](C)C(=O)C[C@@H](C(C)C)C(=O)C1
REMARK SMILES IDX 8 1 9 2 6 3 7 4 5 5 4 6 3 7 2 8 1 9 10 11 11 12 15 13 16 14
REMARK SMILES IDX 17 15 12 17 13 18 14 19
REMARK H PARENT
REMARK Flexibility Score: 70.00
ROOT
ATOM      1  C   UNL     1      15.143 -33.778  21.063  1.00  0.00     0.136 C 
ATOM      2  O   UNL     1      14.243 -33.246  20.430  1.00  0.00    -0.299 OA
ENDROOT
BRANCH   1   3
ATOM      3  C   UNL     1      16.015 -34.803  20.356  1.00  0.00     0.053 C 
ATOM      4  C   UNL     1      16.736 -34.178  19.156  1.00  0.00     0.016 C 
BRANCH   3   5
ATOM      5  C   UNL     1      17.017 -35.476  21.314  1.00  0.00     0.015 C 
BRANCH   5   6
ATOM      6  C   UNL     1      18.463 -34.963  21.121  1.00  0.00     0.028 C 
BRANCH   6   7
ATOM      7  C   UNL     1      19.099 -34.635  22.450  1.00  0.00    -0.028 C 
ATOM      8  C   UNL     1      19.128 -33.407  23.024  1.00  0.00    -0.070 CG0
ATOM      9  C   UNL     1      19.858 -33.263  24.336  1.00  0.00     0.039 C 
ATOM     10  G   UNL     1      18.408 -32.197  22.445  1.00  0.00     0.000 G0
ENDBRANCH   6   7
ENDBRANCH   5   6
ENDBRANCH   3   5
ENDBRANCH   1   3
BRANCH   1  11
ATOM     11  C   UNL     1      15.339 -33.380  22.514  1.00  0.00     0.087 C 
BRANCH  11  12
ATOM     12  C   UNL     1      15.733 -31.891  22.708  1.00  0.00     0.066 C 
BRANCH  12  13
ATOM     13  C   UNL     1      17.165 -31.728  23.213  1.00  0.00     0.140 C 
ATOM     14  O   UNL     1      17.346 -31.193  24.296  1.00  0.00    -0.299 OA
BRANCH  13  15
ATOM     15  C   UNL     1      18.395 -32.192  22.453  1.00  0.00     0.106 CG0
ATOM     16  G   UNL     1      19.128 -33.396  23.029  1.00  0.00     0.000 G0
ENDBRANCH  13  15
ENDBRANCH  12  13
BRANCH  12  17
ATOM     17  C   UNL     1      14.695 -31.135  23.597  1.00  0.00    -0.006 C 
ATOM     18  C   UNL     1      13.812 -32.118  24.380  1.00  0.00     0.008 C 
ATOM     19  C   UNL     1      13.803 -30.141  22.830  1.00  0.00     0.008 C 
ENDBRANCH  12  17
ENDBRANCH  11  12
ENDBRANCH   1  11
TORSDOF 1
ENDMDL
MODEL 7
REMARK VINA RESULT:    -4.064      2.955      5.249
REMARK INTER + INTRA:          -6.374
REMARK INTER:                  -6.013
REMARK INTRA:                  -0.361
REMARK UNBOUND:                -0.171
REMARK SMILES CC1=CCC[C@H](C)C(=O)C[C@@H](C(C)C)C(=O)C1
REMARK SMILES IDX 8 1 9 2 6 3 7 4 5 5 4 6 3 7 2 8 1 9 10 11 11 12 15 13 16 14
REMARK SMILES IDX 17 15 12 17 13 18 14 19
REMARK H PARENT
REMARK Flexibility Score: 70.00
ROOT
ATOM      1  C   UNL     1      17.472 -34.732  22.918  1.00  0.00     0.136 C 
ATOM      2  O   UNL     1      18.565 -35.086  22.501  1.00  0.00    -0.299 OA
ENDROOT
BRANCH   1   3
ATOM      3  C   UNL     1      17.398 -34.089  24.293  1.00  0.00     0.053 C 
ATOM      4  C   UNL     1      18.598 -34.495  25.157  1.00  0.00     0.016 C 
BRANCH   3   5
ATOM      5  C   UNL     1      17.269 -32.555  24.213  1.00  0.00     0.015 C 
BRANCH   5   6
ATOM      6  C   UNL     1      15.807 -32.072  24.359  1.00  0.00     0.028 C 
BRANCH   6   7
ATOM      7  C   UNL     1      15.491 -31.002  23.342  1.00  0.00    -0.028 C 
ATOM      8  C   UNL     1      14.812 -31.196  22.186  1.00  0.00    -0.070 CG0
ATOM      9  C   UNL     1      14.638 -30.012  21.267  1.00  0.00     0.039 C 
ATOM     10  G   UNL     1      14.167 -32.523  21.807  1.00  0.00     0.000 G0
ENDBRANCH   6   7
ENDBRANCH   5   6
ENDBRANCH   3   5
ENDBRANCH   1   3
BRANCH   1  11
ATOM     11  C   UNL     1      16.257 -34.951  22.038  1.00  0.00     0.087 C 
BRANCH  11  12
ATOM     12  C   UNL     1      16.185 -33.994  20.817  1.00  0.00     0.066 C 
BRANCH  12  13
ATOM     13  C   UNL     1      14.824 -33.314  20.688  1.00  0.00     0.140 C 
ATOM     14  O   UNL     1      14.220 -33.412  19.630  1.00  0.00    -0.299 OA
BRANCH  13  15
ATOM     15  C   UNL     1      14.161 -32.517  21.795  1.00  0.00     0.106 CG0
ATOM     16  G   UNL     1      14.832 -31.203  22.174  1.00  0.00     0.000 G0
ENDBRANCH  13  15
ENDBRANCH  12  13
BRANCH  12  17
ATOM     17  C   UNL     1      16.625 -34.711  19.501  1.00  0.00    -0.006 C 
ATOM     18  C   UNL     1      16.602 -36.238  19.664  1.00  0.00     0.008 C 
ATOM     19  C   UNL     1      18.000 -34.272  18.964  1.00  0.00     0.008 C 
ENDBRANCH  12  17
ENDBRANCH  11  12
ENDBRANCH   1  11
TORSDOF 1
ENDMDL
MODEL 8
REMARK VINA RESULT:    -4.010      2.713      4.440
REMARK INTER + INTRA:          -6.291
REMARK INTER:                  -5.938
REMARK INTRA:                  -0.354
REMARK UNBOUND:                -0.171
REMARK SMILES CC1=CCC[C@H](C)C(=O)C[C@@H](C(C)C)C(=O)C1
REMARK SMILES IDX 8 1 9 2 6 3 7 4 5 5 4 6 3 7 2 8 1 9 10 11 11 12 15 13 16 14
REMARK SMILES IDX 17 15 12 17 13 18 14 19
REMARK H PARENT
REMARK Flexibility Score: 70.00
ROOT
ATOM      1  C   UNL     1      15.583 -34.363  20.554  1.00  0.00     0.136 C 
ATOM      2  O   UNL     1      14.706 -33.773  19.942  1.00  0.00    -0.299 OA
ENDROOT
BRANCH   1   3
ATOM      3  C   UNL     1      16.576 -35.201  19.766  1.00  0.00     0.053 C 
ATOM      4  C   UNL     1      17.658 -34.322  19.129  1.00  0.00     0.016 C 
BRANCH   3   5
ATOM      5  C   UNL     1      17.205 -36.318  20.623  1.00  0.00     0.015 C 
BRANCH   5   6
ATOM      6  C   UNL     1      18.672 -36.018  21.009  1.00  0.00     0.028 C 
BRANCH   6   7
ATOM      7  C   UNL     1      18.962 -36.476  22.418  1.00  0.00    -0.028 C 
ATOM      8  C   UNL     1      19.144 -35.660  23.485  1.00  0.00    -0.070 CG0
ATOM      9  C   UNL     1      19.478 -36.302  24.809  1.00  0.00     0.039 C 
ATOM     10  G   UNL     1      18.963 -34.149  23.423  1.00  0.00     0.000 G0
ENDBRANCH   6   7
ENDBRANCH   5   6
ENDBRANCH   3   5
ENDBRANCH   1   3
BRANCH   1  11
ATOM     11  C   UNL     1      15.633 -34.218  22.064  1.00  0.00     0.087 C 
BRANCH  11  12
ATOM     12  C   UNL     1      16.619 -33.125  22.558  1.00  0.00     0.066 C 
BRANCH  12  13
ATOM     13  C   UNL     1      17.542 -33.629  23.664  1.00  0.00     0.140 C 
ATOM     14  O   UNL     1      17.131 -33.626  24.815  1.00  0.00    -0.299 OA
BRANCH  13  15
ATOM     15  C   UNL     1      18.952 -34.142  23.431  1.00  0.00     0.106 CG0
ATOM     16  G   UNL     1      19.135 -35.653  23.485  1.00  0.00     0.000 G0
ENDBRANCH  13  15
ENDBRANCH  12  13
BRANCH  12  17
ATOM     17  C   UNL     1      15.869 -31.813  22.953  1.00  0.00    -0.006 C 
ATOM     18  C   UNL     1      14.474 -32.119  23.518  1.00  0.00     0.008 C 
ATOM     19  C   UNL     1      15.750 -30.779  21.818  1.00  0.00     0.008 C 
ENDBRANCH  12  17
ENDBRANCH  11  12
ENDBRANCH   1  11
TORSDOF 1
ENDMDL
MODEL 9
REMARK VINA RESULT:    -3.798      2.929      4.763
REMARK INTER + INTRA:          -5.968
REMARK INTER:                  -5.607
REMARK INTRA:                  -0.361
REMARK UNBOUND:                -0.171
REMARK SMILES CC1=CCC[C@H](C)C(=O)C[C@@H](C(C)C)C(=O)C1
REMARK SMILES IDX 8 1 9 2 6 3 7 4 5 5 4 6 3 7 2 8 1 9 10 11 11 12 15 13 16 14
REMARK SMILES IDX 17 15 12 17 13 18 14 19
REMARK H PARENT
REMARK Flexibility Score: 70.00
ROOT
ATOM      1  C   UNL     1      17.195 -31.908  22.149  1.00  0.00     0.136 C 
ATOM      2  O   UNL     1      16.878 -31.163  21.234  1.00  0.00    -0.299 OA
ENDROOT
BRANCH   1   3
ATOM      3  C   UNL     1      16.703 -31.582  23.550  1.00  0.00     0.053 C 
ATOM      4  C   UNL     1      15.417 -32.350  23.875  1.00  0.00     0.016 C 
BRANCH   3   5
ATOM      5  C   UNL     1      17.783 -31.833  24.621  1.00  0.00     0.015 C 
BRANCH   5   6
ATOM      6  C   UNL     1      17.607 -33.193  25.336  1.00  0.00     0.028 C 
BRANCH   6   7
ATOM      7  C   UNL     1      18.906 -33.960  25.359  1.00  0.00    -0.028 C 
ATOM      8  C   UNL     1      19.107 -35.177  24.797  1.00  0.00    -0.070 CG0
ATOM      9  C   UNL     1      20.464 -35.814  24.969  1.00  0.00     0.039 C 
ATOM     10  G   UNL     1      18.060 -35.892  23.953  1.00  0.00     0.000 G0
ENDBRANCH   6   7
ENDBRANCH   5   6
ENDBRANCH   3   5
ENDBRANCH   1   3
BRANCH   1  11
ATOM     11  C   UNL     1      18.057 -33.115  21.832  1.00  0.00     0.087 C 
BRANCH  11  12
ATOM     12  C   UNL     1      17.277 -34.458  21.820  1.00  0.00     0.066 C 
BRANCH  12  13
ATOM     13  C   UNL     1      18.066 -35.597  22.461  1.00  0.00     0.140 C 
ATOM     14  O   UNL     1      18.745 -36.314  21.742  1.00  0.00    -0.299 OA
BRANCH  13  15
ATOM     15  C   UNL     1      18.065 -35.903  23.948  1.00  0.00     0.106 CG0
ATOM     16  G   UNL     1      19.110 -35.177  24.785  1.00  0.00     0.000 G0
ENDBRANCH  13  15
ENDBRANCH  12  13
BRANCH  12  17
ATOM     17  C   UNL     1      16.769 -34.812  20.386  1.00  0.00    -0.006 C 
ATOM     18  C   UNL     1      17.676 -34.201  19.308  1.00  0.00     0.008 C 
ATOM     19  C   UNL     1      15.306 -34.418  20.112  1.00  0.00     0.008 C 
ENDBRANCH  12  17
ENDBRANCH  11  12
ENDBRANCH   1  11
TORSDOF 1
ENDMDL
