MODEL 1
REMARK VINA RESULT:    -3.600      0.000      0.000
REMARK INTER + INTRA:          -5.003
REMARK INTER:                  -4.653
REMARK INTRA:                  -0.350
REMARK UNBOUND:                -0.350
REMARK SMILES CCO[C@@H]1O[C@H](CO)[C@H](O)[C@@H](O)[C@@H]1O
REMARK SMILES IDX 4 1 13 2 11 3 9 4 6 5 5 6 3 7 2 8 1 9 14 10 12 12 7 14 8 15
REMARK SMILES IDX 10 17
REMARK H PARENT 14 11 12 13 8 16 10 18
REMARK Flexibility Score: inf
ROOT
ATOM      1  C   UNL     1       6.439  32.820  33.189  1.00  0.00     0.281 C 
ATOM      2  C   UNL     1       7.895  32.371  32.898  1.00  0.00     0.202 C 
ATOM      3  C   UNL     1       8.889  33.134  33.796  1.00  0.00     0.179 C 
ATOM      4  C   UNL     1       8.596  34.652  33.813  1.00  0.00     0.177 C 
ATOM      5  C   UNL     1       7.079  34.907  34.013  1.00  0.00     0.178 C 
ATOM      6  O   UNL     1       6.320  34.223  33.029  1.00  0.00    -0.341 OA
ENDROOT
BRANCH   1   7
ATOM      7  O   UNL     1       5.558  32.204  32.264  1.00  0.00    -0.350 OA
BRANCH   7   8
ATOM      8  C   UNL     1       4.371  31.744  32.889  1.00  0.00     0.160 C 
ATOM      9  C   UNL     1       4.693  30.632  33.881  1.00  0.00     0.035 C 
ENDBRANCH   7   8
ENDBRANCH   1   7
BRANCH   2  10
ATOM     10  O   UNL     1       8.213  32.588  31.547  1.00  0.00    -0.385 OA
ATOM     11  H   UNL     1       8.215  31.700  31.101  1.00  0.00     0.211 HD
ENDBRANCH   2  10
BRANCH   3  12
ATOM     12  O   UNL     1       8.806  32.621  35.103  1.00  0.00    -0.387 OA
ATOM     13  H   UNL     1       9.730  32.605  35.466  1.00  0.00     0.211 HD
ENDBRANCH   3  12
BRANCH   5  14
ATOM     14  C   UNL     1       6.730  36.404  33.991  1.00  0.00     0.191 C 
BRANCH  14  15
ATOM     15  O   UNL     1       6.927  36.963  32.719  1.00  0.00    -0.394 OA
ATOM     16  H   UNL     1       6.757  36.241  32.059  1.00  0.00     0.210 HD
ENDBRANCH  14  15
ENDBRANCH   5  14
BRANCH   4  17
ATOM     17  O   UNL     1       9.097  35.270  32.650  1.00  0.00    -0.387 OA
ATOM     18  H   UNL     1       8.768  36.204  32.626  1.00  0.00     0.211 HD
ENDBRANCH   4  17
TORSDOF 7
ENDMDL
MODEL 2
REMARK VINA RESULT:    -3.293      1.559      4.478
REMARK INTER + INTRA:          -4.605
REMARK INTER:                  -4.261
REMARK INTRA:                  -0.344
REMARK UNBOUND:                -0.350
REMARK SMILES CCO[C@@H]1O[C@H](CO)[C@H](O)[C@@H](O)[C@@H]1O
REMARK SMILES IDX 4 1 13 2 11 3 9 4 6 5 5 6 3 7 2 8 1 9 14 10 12 12 7 14 8 15
REMARK SMILES IDX 10 17
REMARK H PARENT 14 11 12 13 8 16 10 18
REMARK Flexibility Score: inf
ROOT
ATOM      1  C   UNL     1       8.478  32.954  34.416  1.00  0.00     0.281 C 
ATOM      2  C   UNL     1       8.356  34.047  33.323  1.00  0.00     0.202 C 
ATOM      3  C   UNL     1       6.879  34.437  33.108  1.00  0.00     0.179 C 
ATOM      4  C   UNL     1       5.970  33.191  32.983  1.00  0.00     0.177 C 
ATOM      5  C   UNL     1       6.306  32.166  34.099  1.00  0.00     0.178 C 
ATOM      6  O   UNL     1       7.683  31.831  34.077  1.00  0.00    -0.341 OA
ENDROOT
BRANCH   1   7
ATOM      7  O   UNL     1       9.825  32.518  34.504  1.00  0.00    -0.350 OA
BRANCH   7   8
ATOM      8  C   UNL     1      10.656  33.485  35.125  1.00  0.00     0.160 C 
ATOM      9  C   UNL     1      12.120  33.207  34.805  1.00  0.00     0.035 C 
ENDBRANCH   7   8
ENDBRANCH   1   7
BRANCH   2  10
ATOM     10  O   UNL     1       8.907  33.593  32.113  1.00  0.00    -0.385 OA
ATOM     11  H   UNL     1       8.159  33.227  31.571  1.00  0.00     0.211 HD
ENDBRANCH   2  10
BRANCH   3  12
ATOM     12  O   UNL     1       6.456  35.226  34.193  1.00  0.00    -0.387 OA
ATOM     13  H   UNL     1       5.605  34.833  34.521  1.00  0.00     0.211 HD
ENDBRANCH   3  12
BRANCH   5  14
ATOM     14  C   UNL     1       5.458  30.887  33.989  1.00  0.00     0.191 C 
BRANCH  14  15
ATOM     15  O   UNL     1       4.330  31.082  33.178  1.00  0.00    -0.394 OA
ATOM     16  H   UNL     1       4.361  32.024  32.865  1.00  0.00     0.210 HD
ENDBRANCH  14  15
ENDBRANCH   5  14
BRANCH   4  17
ATOM     17  O   UNL     1       6.061  32.634  31.693  1.00  0.00    -0.387 OA
ATOM     18  H   UNL     1       5.491  31.824  31.662  1.00  0.00     0.211 HD
ENDBRANCH   4  17
TORSDOF 7
ENDMDL
MODEL 3
REMARK VINA RESULT:    -3.116      3.131      5.898
REMARK INTER + INTRA:          -4.377
REMARK INTER:                  -3.974
REMARK INTRA:                  -0.402
REMARK UNBOUND:                -0.350
REMARK SMILES CCO[C@@H]1O[C@H](CO)[C@H](O)[C@@H](O)[C@@H]1O
REMARK SMILES IDX 4 1 13 2 11 3 9 4 6 5 5 6 3 7 2 8 1 9 14 10 12 12 7 14 8 15
REMARK SMILES IDX 10 17
REMARK H PARENT 14 11 12 13 8 16 10 18
REMARK Flexibility Score: inf
ROOT
ATOM      1  C   UNL     1      11.625  35.165  34.210  1.00  0.00     0.281 C 
ATOM      2  C   UNL     1      11.176  35.800  32.868  1.00  0.00     0.202 C 
ATOM      3  C   UNL     1       9.647  36.003  32.849  1.00  0.00     0.179 C 
ATOM      4  C   UNL     1       8.895  34.740  33.332  1.00  0.00     0.177 C 
ATOM      5  C   UNL     1       9.548  34.188  34.627  1.00  0.00     0.178 C 
ATOM      6  O   UNL     1      10.932  33.949  34.431  1.00  0.00    -0.341 OA
ENDROOT
BRANCH   1   7
ATOM      7  O   UNL     1      13.011  34.868  34.154  1.00  0.00    -0.350 OA
BRANCH   7   8
ATOM      8  C   UNL     1      13.809  36.024  34.340  1.00  0.00     0.160 C 
ATOM      9  C   UNL     1      14.857  36.126  33.238  1.00  0.00     0.035 C 
ENDBRANCH   7   8
ENDBRANCH   1   7
BRANCH   2  10
ATOM     10  O   UNL     1      11.560  34.988  31.789  1.00  0.00    -0.385 OA
ATOM     11  H   UNL     1      10.840  34.316  31.657  1.00  0.00     0.211 HD
ENDBRANCH   2  10
BRANCH   3  12
ATOM     12  O   UNL     1       9.323  37.093  33.676  1.00  0.00    -0.387 OA
ATOM     13  H   UNL     1       8.720  37.684  33.152  1.00  0.00     0.211 HD
ENDBRANCH   3  12
BRANCH   5  14
ATOM     14  C   UNL     1       8.863  32.903  35.123  1.00  0.00     0.191 C 
BRANCH  14  15
ATOM     15  O   UNL     1       7.519  32.846  34.724  1.00  0.00    -0.394 OA
ATOM     16  H   UNL     1       7.000  33.369  35.390  1.00  0.00     0.210 HD
ENDBRANCH  14  15
ENDBRANCH   5  14
BRANCH   4  17
ATOM     17  O   UNL     1       8.830  33.775  32.308  1.00  0.00    -0.387 OA
ATOM     18  H   UNL     1       9.519  33.086  32.485  1.00  0.00     0.211 HD
ENDBRANCH   4  17
TORSDOF 7
ENDMDL
MODEL 4
REMARK VINA RESULT:    -3.006      1.853      4.209
REMARK INTER + INTRA:          -4.235
REMARK INTER:                  -3.863
REMARK INTRA:                  -0.372
REMARK UNBOUND:                -0.350
REMARK SMILES CCO[C@@H]1O[C@H](CO)[C@H](O)[C@@H](O)[C@@H]1O
REMARK SMILES IDX 4 1 13 2 11 3 9 4 6 5 5 6 3 7 2 8 1 9 14 10 12 12 7 14 8 15
REMARK SMILES IDX 10 17
REMARK H PARENT 14 11 12 13 8 16 10 18
REMARK Flexibility Score: inf
ROOT
ATOM      1  C   UNL     1       9.662  34.194  33.906  1.00  0.00     0.281 C 
ATOM      2  C   UNL     1       8.929  32.828  33.857  1.00  0.00     0.202 C 
ATOM      3  C   UNL     1       7.781  32.865  32.828  1.00  0.00     0.179 C 
ATOM      4  C   UNL     1       6.917  34.138  32.978  1.00  0.00     0.177 C 
ATOM      5  C   UNL     1       7.823  35.391  33.114  1.00  0.00     0.178 C 
ATOM      6  O   UNL     1       8.741  35.234  34.184  1.00  0.00    -0.341 OA
ENDROOT
BRANCH   1   7
ATOM      7  O   UNL     1      10.625  34.180  34.948  1.00  0.00    -0.350 OA
BRANCH   7   8
ATOM      8  C   UNL     1      11.950  34.221  34.446  1.00  0.00     0.160 C 
ATOM      9  C   UNL     1      12.722  32.984  34.891  1.00  0.00     0.035 C 
ENDBRANCH   7   8
ENDBRANCH   1   7
BRANCH   2  10
ATOM     10  O   UNL     1       8.419  32.501  35.124  1.00  0.00    -0.385 OA
ATOM     11  H   UNL     1       8.954  31.737  35.467  1.00  0.00     0.211 HD
ENDBRANCH   2  10
BRANCH   3  12
ATOM     12  O   UNL     1       8.331  32.814  31.534  1.00  0.00    -0.387 OA
ATOM     13  H   UNL     1       8.404  31.854  31.289  1.00  0.00     0.211 HD
ENDBRANCH   3  12
BRANCH   5  14
ATOM     14  C   UNL     1       7.009  36.680  33.312  1.00  0.00     0.191 C 
BRANCH  14  15
ATOM     15  O   UNL     1       6.547  36.803  34.632  1.00  0.00    -0.394 OA
ATOM     16  H   UNL     1       5.729  37.364  34.598  1.00  0.00     0.210 HD
ENDBRANCH  14  15
ENDBRANCH   5  14
BRANCH   4  17
ATOM     17  O   UNL     1       6.015  34.006  34.051  1.00  0.00    -0.387 OA
ATOM     18  H   UNL     1       5.359  33.300  33.822  1.00  0.00     0.211 HD
ENDBRANCH   4  17
TORSDOF 7
ENDMDL
MODEL 5
REMARK VINA RESULT:    -2.884      1.367      4.360
REMARK INTER + INTRA:          -4.076
REMARK INTER:                  -3.753
REMARK INTRA:                  -0.323
REMARK UNBOUND:                -0.350
REMARK SMILES CCO[C@@H]1O[C@H](CO)[C@H](O)[C@@H](O)[C@@H]1O
REMARK SMILES IDX 4 1 13 2 11 3 9 4 6 5 5 6 3 7 2 8 1 9 14 10 12 12 7 14 8 15
REMARK SMILES IDX 10 17
REMARK H PARENT 14 11 12 13 8 16 10 18
REMARK Flexibility Score: inf
ROOT
ATOM      1  C   UNL     1       6.843  34.632  33.306  1.00  0.00     0.281 C 
ATOM      2  C   UNL     1       8.155  33.849  33.572  1.00  0.00     0.202 C 
ATOM      3  C   UNL     1       8.076  32.435  32.961  1.00  0.00     0.179 C 
ATOM      4  C   UNL     1       6.740  31.735  33.306  1.00  0.00     0.177 C 
ATOM      5  C   UNL     1       5.550  32.704  33.075  1.00  0.00     0.178 C 
ATOM      6  O   UNL     1       5.731  33.907  33.803  1.00  0.00    -0.341 OA
ENDROOT
BRANCH   1   7
ATOM      7  O   UNL     1       6.886  35.876  33.986  1.00  0.00    -0.350 OA
BRANCH   7   8
ATOM      8  C   UNL     1       7.690  36.825  33.306  1.00  0.00     0.160 C 
ATOM      9  C   UNL     1       6.812  37.815  32.549  1.00  0.00     0.035 C 
ENDBRANCH   7   8
ENDBRANCH   1   7
BRANCH   2  10
ATOM     10  O   UNL     1       8.399  33.756  34.952  1.00  0.00    -0.385 OA
ATOM     11  H   UNL     1       8.959  32.948  35.096  1.00  0.00     0.211 HD
ENDBRANCH   2  10
BRANCH   3  12
ATOM     12  O   UNL     1       8.212  32.535  31.565  1.00  0.00    -0.387 OA
ATOM     13  H   UNL     1       8.382  31.617  31.225  1.00  0.00     0.211 HD
ENDBRANCH   3  12
BRANCH   5  14
ATOM     14  C   UNL     1       4.200  32.069  33.448  1.00  0.00     0.191 C 
BRANCH  14  15
ATOM     15  O   UNL     1       4.105  30.747  32.986  1.00  0.00    -0.394 OA
ATOM     16  H   UNL     1       3.202  30.419  33.238  1.00  0.00     0.210 HD
ENDBRANCH  14  15
ENDBRANCH   5  14
BRANCH   4  17
ATOM     17  O   UNL     1       6.770  31.221  34.617  1.00  0.00    -0.387 OA
ATOM     18  H   UNL     1       6.147  31.753  35.175  1.00  0.00     0.211 HD
ENDBRANCH   4  17
TORSDOF 7
ENDMDL
MODEL 6
REMARK VINA RESULT:    -2.864      2.463      4.255
REMARK INTER + INTRA:          -4.051
REMARK INTER:                  -3.902
REMARK INTRA:                  -0.149
REMARK UNBOUND:                -0.350
REMARK SMILES CCO[C@@H]1O[C@H](CO)[C@H](O)[C@@H](O)[C@@H]1O
REMARK SMILES IDX 4 1 13 2 11 3 9 4 6 5 5 6 3 7 2 8 1 9 14 10 12 12 7 14 8 15
REMARK SMILES IDX 10 17
REMARK H PARENT 14 11 12 13 8 16 10 18
REMARK Flexibility Score: inf
ROOT
ATOM      1  C   UNL     1       8.915  34.419  33.150  1.00  0.00     0.281 C 
ATOM      2  C   UNL     1       8.218  35.678  33.728  1.00  0.00     0.202 C 
ATOM      3  C   UNL     1       9.004  36.952  33.358  1.00  0.00     0.179 C 
ATOM      4  C   UNL     1      10.519  36.787  33.621  1.00  0.00     0.177 C 
ATOM      5  C   UNL     1      11.017  35.427  33.064  1.00  0.00     0.178 C 
ATOM      6  O   UNL     1      10.258  34.355  33.598  1.00  0.00    -0.341 OA
ENDROOT
BRANCH   1   7
ATOM      7  O   UNL     1       8.250  33.254  33.611  1.00  0.00    -0.350 OA
BRANCH   7   8
ATOM      8  C   UNL     1       7.823  32.429  32.541  1.00  0.00     0.160 C 
ATOM      9  C   UNL     1       6.381  32.755  32.165  1.00  0.00     0.035 C 
ENDBRANCH   7   8
ENDBRANCH   1   7
BRANCH   2  10
ATOM     10  O   UNL     1       8.106  35.579  35.125  1.00  0.00    -0.385 OA
ATOM     11  H   UNL     1       8.791  36.182  35.516  1.00  0.00     0.211 HD
ENDBRANCH   2  10
BRANCH   3  12
ATOM     12  O   UNL     1       8.788  37.241  31.999  1.00  0.00    -0.387 OA
ATOM     13  H   UNL     1       9.616  36.987  31.514  1.00  0.00     0.211 HD
ENDBRANCH   3  12
BRANCH   5  14
ATOM     14  C   UNL     1      12.512  35.194  33.341  1.00  0.00     0.191 C 
BRANCH  14  15
ATOM     15  O   UNL     1      13.004  34.088  32.633  1.00  0.00    -0.394 OA
ATOM     16  H   UNL     1      12.840  33.289  33.199  1.00  0.00     0.210 HD
ENDBRANCH  14  15
ENDBRANCH   5  14
BRANCH   4  17
ATOM     17  O   UNL     1      10.809  36.946  34.990  1.00  0.00    -0.387 OA
ATOM     18  H   UNL     1      11.408  36.209  35.271  1.00  0.00     0.211 HD
ENDBRANCH   4  17
TORSDOF 7
ENDMDL
MODEL 7
REMARK VINA RESULT:    -2.796      2.486      5.437
REMARK INTER + INTRA:          -3.963
REMARK INTER:                  -3.532
REMARK INTRA:                  -0.431
REMARK UNBOUND:                -0.350
REMARK SMILES CCO[C@@H]1O[C@H](CO)[C@H](O)[C@@H](O)[C@@H]1O
REMARK SMILES IDX 4 1 13 2 11 3 9 4 6 5 5 6 3 7 2 8 1 9 14 10 12 12 7 14 8 15
REMARK SMILES IDX 10 17
REMARK H PARENT 14 11 12 13 8 16 10 18
REMARK Flexibility Score: inf
ROOT
ATOM      1  C   UNL     1       9.212  36.543  34.579  1.00  0.00     0.281 C 
ATOM      2  C   UNL     1       8.340  36.643  33.301  1.00  0.00     0.202 C 
ATOM      3  C   UNL     1       7.369  35.448  33.210  1.00  0.00     0.179 C 
ATOM      4  C   UNL     1       8.085  34.106  33.487  1.00  0.00     0.177 C 
ATOM      5  C   UNL     1       8.989  34.227  34.743  1.00  0.00     0.178 C 
ATOM      6  O   UNL     1       9.900  35.305  34.606  1.00  0.00    -0.341 OA
ENDROOT
BRANCH   1   7
ATOM      7  O   UNL     1      10.183  37.577  34.574  1.00  0.00    -0.350 OA
BRANCH   7   8
ATOM      8  C   UNL     1      11.495  37.073  34.756  1.00  0.00     0.160 C 
ATOM      9  C   UNL     1      12.425  37.617  33.677  1.00  0.00     0.035 C 
ENDBRANCH   7   8
ENDBRANCH   1   7
BRANCH   2  10
ATOM     10  O   UNL     1       9.152  36.681  32.155  1.00  0.00    -0.385 OA
ATOM     11  H   UNL     1      10.095  36.630  32.464  1.00  0.00     0.211 HD
ENDBRANCH   2  10
BRANCH   3  12
ATOM     12  O   UNL     1       6.333  35.634  34.143  1.00  0.00    -0.387 OA
ATOM     13  H   UNL     1       5.477  35.516  33.653  1.00  0.00     0.211 HD
ENDBRANCH   3  12
BRANCH   5  14
ATOM     14  C   UNL     1       9.760  32.928  35.034  1.00  0.00     0.191 C 
BRANCH  14  15
ATOM     15  O   UNL     1      11.020  32.925  34.417  1.00  0.00    -0.394 OA
ATOM     16  H   UNL     1      11.510  33.717  34.762  1.00  0.00     0.210 HD
ENDBRANCH  14  15
ENDBRANCH   5  14
BRANCH   4  17
ATOM     17  O   UNL     1       8.797  33.676  32.350  1.00  0.00    -0.387 OA
ATOM     18  H   UNL     1       9.763  33.827  32.511  1.00  0.00     0.211 HD
ENDBRANCH   4  17
TORSDOF 7
ENDMDL
