MODEL 1
REMARK VINA RESULT:    -3.821      0.000      0.000
REMARK INTER + INTRA:          -6.431
REMARK INTER:                  -5.831
REMARK INTRA:                  -0.599
REMARK UNBOUND:                -0.599
REMARK SMILES CCCCCCCCCCC(=O)[O-]
REMARK SMILES IDX 7 1 8 2 9 3 10 4 11 5 12 6 13 7 6 8 5 9 4 10 3 11 2 12 1 13
REMARK H PARENT
REMARK Flexibility Score: inf
ROOT
ATOM      1  C   UNL     1     -47.241 -52.316  37.269  1.00  0.00     0.000 C 
ENDROOT
BRANCH   1   2
ATOM      2  C   UNL     1     -47.987 -53.304  38.189  1.00  0.00     0.000 C 
BRANCH   2   3
ATOM      3  C   UNL     1     -47.599 -53.228  39.676  1.00  0.00     0.006 C 
BRANCH   3   4
ATOM      4  C   UNL     1     -48.818 -53.140  40.605  1.00  0.00     0.053 C 
BRANCH   4   5
ATOM      5  C   UNL     1     -48.513 -52.270  41.783  1.00  0.00     0.041 C 
ATOM      6  O   UNL     1     -48.323 -52.781  42.917  1.00  0.00    -0.550 OA
ATOM      7  O   UNL     1     -48.487 -50.889  41.638  1.00  0.00    -0.550 OA
ENDBRANCH   4   5
ENDBRANCH   3   4
ENDBRANCH   2   3
ENDBRANCH   1   2
BRANCH   1   8
ATOM      8  C   UNL     1     -46.759 -51.023  37.954  1.00  0.00     0.000 C 
BRANCH   8   9
ATOM      9  C   UNL     1     -47.164 -49.718  37.240  1.00  0.00    -0.000 C 
BRANCH   9  10
ATOM     10  C   UNL     1     -46.165 -48.555  37.396  1.00  0.00    -0.000 C 
BRANCH  10  11
ATOM     11  C   UNL     1     -44.681 -48.970  37.446  1.00  0.00    -0.000 C 
BRANCH  11  12
ATOM     12  C   UNL     1     -43.947 -48.911  36.095  1.00  0.00    -0.003 C 
ATOM     13  C   UNL     1     -44.024 -50.224  35.316  1.00  0.00     0.004 C 
ENDBRANCH  11  12
ENDBRANCH  10  11
ENDBRANCH   9  10
ENDBRANCH   8   9
ENDBRANCH   1   8
TORSDOF 9
ENDMDL
MODEL 2
REMARK VINA RESULT:    -3.819      2.735      5.136
REMARK INTER + INTRA:          -6.428
REMARK INTER:                  -5.387
REMARK INTRA:                  -1.041
REMARK UNBOUND:                -0.599
REMARK SMILES CCCCCCCCCCC(=O)[O-]
REMARK SMILES IDX 7 1 8 2 9 3 10 4 11 5 12 6 13 7 6 8 5 9 4 10 3 11 2 12 1 13
REMARK H PARENT
REMARK Flexibility Score: inf
ROOT
ATOM      1  C   UNL     1     -48.025 -53.738  38.387  1.00  0.00     0.000 C 
ENDROOT
BRANCH   1   2
ATOM      2  C   UNL     1     -46.868 -52.960  37.727  1.00  0.00     0.000 C 
BRANCH   2   3
ATOM      3  C   UNL     1     -47.198 -51.508  37.340  1.00  0.00     0.006 C 
BRANCH   3   4
ATOM      4  C   UNL     1     -46.022 -50.548  37.570  1.00  0.00     0.053 C 
BRANCH   4   5
ATOM      5  C   UNL     1     -46.483 -49.128  37.475  1.00  0.00     0.041 C 
ATOM      6  O   UNL     1     -47.684 -48.868  37.205  1.00  0.00    -0.550 OA
ATOM      7  O   UNL     1     -45.573 -48.091  37.639  1.00  0.00    -0.550 OA
ENDBRANCH   4   5
ENDBRANCH   3   4
ENDBRANCH   2   3
ENDBRANCH   1   2
BRANCH   1   8
ATOM      8  C   UNL     1     -47.897 -53.933  39.909  1.00  0.00     0.000 C 
BRANCH   8   9
ATOM      9  C   UNL     1     -48.951 -53.187  40.752  1.00  0.00    -0.000 C 
BRANCH   9  10
ATOM     10  C   UNL     1     -48.375 -52.202  41.787  1.00  0.00    -0.000 C 
BRANCH  10  11
ATOM     11  C   UNL     1     -47.720 -50.938  41.194  1.00  0.00    -0.000 C 
BRANCH  11  12
ATOM     12  C   UNL     1     -46.181 -50.950  41.187  1.00  0.00    -0.003 C 
ATOM     13  C   UNL     1     -45.590 -52.078  42.035  1.00  0.00     0.004 C 
ENDBRANCH  11  12
ENDBRANCH  10  11
ENDBRANCH   9  10
ENDBRANCH   8   9
ENDBRANCH   1   8
TORSDOF 9
ENDMDL
MODEL 3
REMARK VINA RESULT:    -3.803      5.217      6.670
REMARK INTER + INTRA:          -6.404
REMARK INTER:                  -5.726
REMARK INTRA:                  -0.678
REMARK UNBOUND:                -0.599
REMARK SMILES CCCCCCCCCCC(=O)[O-]
REMARK SMILES IDX 7 1 8 2 9 3 10 4 11 5 12 6 13 7 6 8 5 9 4 10 3 11 2 12 1 13
REMARK H PARENT
REMARK Flexibility Score: inf
ROOT
ATOM      1  C   UNL     1     -42.715 -48.354  38.157  1.00  0.00     0.000 C 
ENDROOT
BRANCH   1   2
ATOM      2  C   UNL     1     -42.372 -47.593  39.454  1.00  0.00     0.000 C 
BRANCH   2   3
ATOM      3  C   UNL     1     -43.578 -46.974  40.183  1.00  0.00     0.006 C 
BRANCH   3   4
ATOM      4  C   UNL     1     -43.432 -45.461  40.398  1.00  0.00     0.053 C 
BRANCH   4   5
ATOM      5  C   UNL     1     -42.244 -45.171  41.260  1.00  0.00     0.041 C 
ATOM      6  O   UNL     1     -42.102 -45.759  42.363  1.00  0.00    -0.550 OA
ATOM      7  O   UNL     1     -41.318 -44.213  40.867  1.00  0.00    -0.550 OA
ENDBRANCH   4   5
ENDBRANCH   3   4
ENDBRANCH   2   3
ENDBRANCH   1   2
BRANCH   1   8
ATOM      8  C   UNL     1     -44.185 -48.795  38.028  1.00  0.00     0.000 C 
BRANCH   8   9
ATOM      9  C   UNL     1     -44.670 -49.026  36.582  1.00  0.00    -0.000 C 
BRANCH   9  10
ATOM     10  C   UNL     1     -43.863 -50.068  35.785  1.00  0.00    -0.000 C 
BRANCH  10  11
ATOM     11  C   UNL     1     -43.381 -49.601  34.397  1.00  0.00    -0.000 C 
BRANCH  11  12
ATOM     12  C   UNL     1     -42.667 -48.238  34.385  1.00  0.00    -0.003 C 
ATOM     13  C   UNL     1     -41.194 -48.333  34.783  1.00  0.00     0.004 C 
ENDBRANCH  11  12
ENDBRANCH  10  11
ENDBRANCH   9  10
ENDBRANCH   8   9
ENDBRANCH   1   8
TORSDOF 9
ENDMDL
MODEL 4
REMARK VINA RESULT:    -3.796      2.926      5.981
REMARK INTER + INTRA:          -6.393
REMARK INTER:                  -5.646
REMARK INTRA:                  -0.747
REMARK UNBOUND:                -0.599
REMARK SMILES CCCCCCCCCCC(=O)[O-]
REMARK SMILES IDX 7 1 8 2 9 3 10 4 11 5 12 6 13 7 6 8 5 9 4 10 3 11 2 12 1 13
REMARK H PARENT
REMARK Flexibility Score: inf
ROOT
ATOM      1  C   UNL     1     -46.804 -52.428  37.342  1.00  0.00     0.000 C 
ENDROOT
BRANCH   1   2
ATOM      2  C   UNL     1     -46.637 -51.054  38.021  1.00  0.00     0.000 C 
BRANCH   2   3
ATOM      3  C   UNL     1     -47.011 -49.845  37.144  1.00  0.00     0.006 C 
BRANCH   3   4
ATOM      4  C   UNL     1     -46.186 -48.593  37.472  1.00  0.00     0.053 C 
BRANCH   4   5
ATOM      5  C   UNL     1     -44.746 -48.814  37.134  1.00  0.00     0.041 C 
ATOM      6  O   UNL     1     -44.422 -49.261  36.003  1.00  0.00    -0.550 OA
ATOM      7  O   UNL     1     -43.764 -48.571  38.085  1.00  0.00    -0.550 OA
ENDBRANCH   4   5
ENDBRANCH   3   4
ENDBRANCH   2   3
ENDBRANCH   1   2
BRANCH   1   8
ATOM      8  C   UNL     1     -48.000 -53.262  37.840  1.00  0.00     0.000 C 
BRANCH   8   9
ATOM      9  C   UNL     1     -47.653 -54.331  38.896  1.00  0.00    -0.000 C 
BRANCH   9  10
ATOM     10  C   UNL     1     -47.678 -53.835  40.355  1.00  0.00    -0.000 C 
BRANCH  10  11
ATOM     11  C   UNL     1     -48.999 -53.175  40.798  1.00  0.00    -0.000 C 
BRANCH  11  12
ATOM     12  C   UNL     1     -48.850 -52.103  41.892  1.00  0.00    -0.003 C 
ATOM     13  C   UNL     1     -47.924 -50.958  41.483  1.00  0.00     0.004 C 
ENDBRANCH  11  12
ENDBRANCH  10  11
ENDBRANCH   9  10
ENDBRANCH   8   9
ENDBRANCH   1   8
TORSDOF 9
ENDMDL
MODEL 5
REMARK VINA RESULT:    -3.714      2.964      5.878
REMARK INTER + INTRA:          -6.267
REMARK INTER:                  -5.200
REMARK INTRA:                  -1.067
REMARK UNBOUND:                -0.599
REMARK SMILES CCCCCCCCCCC(=O)[O-]
REMARK SMILES IDX 7 1 8 2 9 3 10 4 11 5 12 6 13 7 6 8 5 9 4 10 3 11 2 12 1 13
REMARK H PARENT
REMARK Flexibility Score: inf
ROOT
ATOM      1  C   UNL     1     -45.727 -52.054  38.908  1.00  0.00     0.000 C 
ENDROOT
BRANCH   1   2
ATOM      2  C   UNL     1     -47.025 -51.537  38.253  1.00  0.00     0.000 C 
BRANCH   2   3
ATOM      3  C   UNL     1     -46.819 -50.535  37.104  1.00  0.00     0.006 C 
BRANCH   3   4
ATOM      4  C   UNL     1     -45.349 -50.409  36.680  1.00  0.00     0.053 C 
BRANCH   4   5
ATOM      5  C   UNL     1     -44.846 -49.026  36.948  1.00  0.00     0.041 C 
ATOM      6  O   UNL     1     -45.379 -48.320  37.843  1.00  0.00    -0.550 OA
ATOM      7  O   UNL     1     -43.819 -48.499  36.175  1.00  0.00    -0.550 OA
ENDBRANCH   4   5
ENDBRANCH   3   4
ENDBRANCH   2   3
ENDBRANCH   1   2
BRANCH   1   8
ATOM      8  C   UNL     1     -45.362 -51.388  40.248  1.00  0.00     0.000 C 
BRANCH   8   9
ATOM      9  C   UNL     1     -46.539 -50.711  40.980  1.00  0.00    -0.000 C 
BRANCH   9  10
ATOM     10  C   UNL     1     -47.288 -51.614  41.978  1.00  0.00    -0.000 C 
BRANCH  10  11
ATOM     11  C   UNL     1     -48.810 -51.716  41.753  1.00  0.00    -0.000 C 
BRANCH  11  12
ATOM     12  C   UNL     1     -49.273 -52.998  41.038  1.00  0.00    -0.003 C 
ATOM     13  C   UNL     1     -48.198 -54.084  41.006  1.00  0.00     0.004 C 
ENDBRANCH  11  12
ENDBRANCH  10  11
ENDBRANCH   9  10
ENDBRANCH   8   9
ENDBRANCH   1   8
TORSDOF 9
ENDMDL
MODEL 6
REMARK VINA RESULT:    -3.698      1.487      2.238
REMARK INTER + INTRA:          -6.243
REMARK INTER:                  -5.335
REMARK INTRA:                  -0.908
REMARK UNBOUND:                -0.599
REMARK SMILES CCCCCCCCCCC(=O)[O-]
REMARK SMILES IDX 7 1 8 2 9 3 10 4 11 5 12 6 13 7 6 8 5 9 4 10 3 11 2 12 1 13
REMARK H PARENT
REMARK Flexibility Score: inf
ROOT
ATOM      1  C   UNL     1     -45.723 -51.620  39.638  1.00  0.00     0.000 C 
ENDROOT
BRANCH   1   2
ATOM      2  C   UNL     1     -46.162 -51.047  41.000  1.00  0.00     0.000 C 
BRANCH   2   3
ATOM      3  C   UNL     1     -47.682 -50.891  41.181  1.00  0.00     0.006 C 
BRANCH   3   4
ATOM      4  C   UNL     1     -48.266 -51.884  42.195  1.00  0.00     0.053 C 
BRANCH   4   5
ATOM      5  C   UNL     1     -48.714 -53.133  41.503  1.00  0.00     0.041 C 
ATOM      6  O   UNL     1     -49.825 -53.168  40.913  1.00  0.00    -0.550 OA
ATOM      7  O   UNL     1     -47.923 -54.274  41.551  1.00  0.00    -0.550 OA
ENDBRANCH   4   5
ENDBRANCH   3   4
ENDBRANCH   2   3
ENDBRANCH   1   2
BRANCH   1   8
ATOM      8  C   UNL     1     -46.855 -51.795  38.607  1.00  0.00     0.000 C 
BRANCH   8   9
ATOM      9  C   UNL     1     -46.758 -50.876  37.373  1.00  0.00    -0.000 C 
BRANCH   9  10
ATOM     10  C   UNL     1     -47.014 -49.383  37.653  1.00  0.00    -0.000 C 
BRANCH  10  11
ATOM     11  C   UNL     1     -45.810 -48.454  37.401  1.00  0.00    -0.000 C 
BRANCH  11  12
ATOM     12  C   UNL     1     -44.455 -49.173  37.267  1.00  0.00    -0.003 C 
ATOM     13  C   UNL     1     -43.820 -48.993  35.888  1.00  0.00     0.004 C 
ENDBRANCH  11  12
ENDBRANCH  10  11
ENDBRANCH   9  10
ENDBRANCH   8   9
ENDBRANCH   1   8
TORSDOF 9
ENDMDL
MODEL 7
REMARK VINA RESULT:    -3.695      2.886      5.562
REMARK INTER + INTRA:          -6.238
REMARK INTER:                  -5.080
REMARK INTRA:                  -1.158
REMARK UNBOUND:                -0.599
REMARK SMILES CCCCCCCCCCC(=O)[O-]
REMARK SMILES IDX 7 1 8 2 9 3 10 4 11 5 12 6 13 7 6 8 5 9 4 10 3 11 2 12 1 13
REMARK H PARENT
REMARK Flexibility Score: inf
ROOT
ATOM      1  C   UNL     1     -45.670 -51.237  41.343  1.00  0.00     0.000 C 
ENDROOT
BRANCH   1   2
ATOM      2  C   UNL     1     -46.127 -50.439  40.105  1.00  0.00     0.000 C 
BRANCH   2   3
ATOM      3  C   UNL     1     -45.651 -51.005  38.755  1.00  0.00     0.006 C 
BRANCH   3   4
ATOM      4  C   UNL     1     -46.590 -50.648  37.595  1.00  0.00     0.053 C 
BRANCH   4   5
ATOM      5  C   UNL     1     -46.599 -49.169  37.368  1.00  0.00     0.041 C 
ATOM      6  O   UNL     1     -47.689 -48.556  37.230  1.00  0.00    -0.550 OA
ATOM      7  O   UNL     1     -45.400 -48.476  37.260  1.00  0.00    -0.550 OA
ENDBRANCH   4   5
ENDBRANCH   3   4
ENDBRANCH   2   3
ENDBRANCH   1   2
BRANCH   1   8
ATOM      8  C   UNL     1     -46.784 -52.026  42.059  1.00  0.00     0.000 C 
BRANCH   8   9
ATOM      9  C   UNL     1     -48.220 -51.614  41.678  1.00  0.00    -0.000 C 
BRANCH   9  10
ATOM     10  C   UNL     1     -49.138 -52.778  41.254  1.00  0.00    -0.000 C 
BRANCH  10  11
ATOM     11  C   UNL     1     -48.426 -53.948  40.547  1.00  0.00    -0.000 C 
BRANCH  11  12
ATOM     12  C   UNL     1     -48.096 -53.703  39.064  1.00  0.00    -0.003 C 
ATOM     13  C   UNL     1     -46.922 -54.548  38.567  1.00  0.00     0.004 C 
ENDBRANCH  11  12
ENDBRANCH  10  11
ENDBRANCH   9  10
ENDBRANCH   8   9
ENDBRANCH   1   8
TORSDOF 9
ENDMDL
MODEL 8
REMARK VINA RESULT:    -3.665      2.082      3.844
REMARK INTER + INTRA:          -6.193
REMARK INTER:                  -4.934
REMARK INTRA:                  -1.259
REMARK UNBOUND:                -0.599
REMARK SMILES CCCCCCCCCCC(=O)[O-]
REMARK SMILES IDX 7 1 8 2 9 3 10 4 11 5 12 6 13 7 6 8 5 9 4 10 3 11 2 12 1 13
REMARK H PARENT
REMARK Flexibility Score: inf
ROOT
ATOM      1  C   UNL     1     -45.769 -50.924  39.833  1.00  0.00     0.000 C 
ENDROOT
BRANCH   1   2
ATOM      2  C   UNL     1     -46.320 -51.324  41.217  1.00  0.00     0.000 C 
BRANCH   2   3
ATOM      3  C   UNL     1     -47.789 -50.941  41.467  1.00  0.00     0.006 C 
BRANCH   3   4
ATOM      4  C   UNL     1     -48.695 -52.162  41.677  1.00  0.00     0.053 C 
BRANCH   4   5
ATOM      5  C   UNL     1     -48.111 -53.074  42.710  1.00  0.00     0.041 C 
ATOM      6  O   UNL     1     -48.012 -52.695  43.906  1.00  0.00    -0.550 OA
ATOM      7  O   UNL     1     -47.631 -54.323  42.341  1.00  0.00    -0.550 OA
ENDBRANCH   4   5
ENDBRANCH   3   4
ENDBRANCH   2   3
ENDBRANCH   1   2
BRANCH   1   8
ATOM      8  C   UNL     1     -46.838 -50.561  38.785  1.00  0.00     0.000 C 
BRANCH   8   9
ATOM      9  C   UNL     1     -46.570 -51.106  37.368  1.00  0.00    -0.000 C 
BRANCH   9  10
ATOM     10  C   UNL     1     -46.739 -52.630  37.216  1.00  0.00    -0.000 C 
BRANCH  10  11
ATOM     11  C   UNL     1     -47.968 -53.226  37.931  1.00  0.00    -0.000 C 
BRANCH  11  12
ATOM     12  C   UNL     1     -47.658 -54.399  38.879  1.00  0.00    -0.003 C 
ATOM     13  C   UNL     1     -46.177 -54.777  38.896  1.00  0.00     0.004 C 
ENDBRANCH  11  12
ENDBRANCH  10  11
ENDBRANCH   9  10
ENDBRANCH   8   9
ENDBRANCH   1   8
TORSDOF 9
ENDMDL
MODEL 9
REMARK VINA RESULT:    -3.647      1.931      2.947
REMARK INTER + INTRA:          -6.165
REMARK INTER:                  -5.096
REMARK INTRA:                  -1.069
REMARK UNBOUND:                -0.599
REMARK SMILES CCCCCCCCCCC(=O)[O-]
REMARK SMILES IDX 7 1 8 2 9 3 10 4 11 5 12 6 13 7 6 8 5 9 4 10 3 11 2 12 1 13
REMARK H PARENT
REMARK Flexibility Score: inf
ROOT
ATOM      1  C   UNL     1     -44.781 -50.249  40.930  1.00  0.00     0.000 C 
ENDROOT
BRANCH   1   2
ATOM      2  C   UNL     1     -45.821 -51.301  40.494  1.00  0.00     0.000 C 
BRANCH   2   3
ATOM      3  C   UNL     1     -47.288 -50.908  40.745  1.00  0.00     0.006 C 
BRANCH   3   4
ATOM      4  C   UNL     1     -47.892 -51.612  41.968  1.00  0.00     0.053 C 
BRANCH   4   5
ATOM      5  C   UNL     1     -48.507 -52.916  41.569  1.00  0.00     0.041 C 
ATOM      6  O   UNL     1     -49.579 -52.936  40.911  1.00  0.00    -0.550 OA
ATOM      7  O   UNL     1     -47.919 -54.110  41.965  1.00  0.00    -0.550 OA
ENDBRANCH   4   5
ENDBRANCH   3   4
ENDBRANCH   2   3
ENDBRANCH   1   2
BRANCH   1   8
ATOM      8  C   UNL     1     -43.968 -49.620  39.782  1.00  0.00     0.000 C 
BRANCH   8   9
ATOM      9  C   UNL     1     -44.588 -48.350  39.165  1.00  0.00    -0.000 C 
BRANCH   9  10
ATOM     10  C   UNL     1     -45.025 -48.490  37.694  1.00  0.00    -0.000 C 
BRANCH  10  11
ATOM     11  C   UNL     1     -46.523 -48.786  37.482  1.00  0.00    -0.000 C 
BRANCH  11  12
ATOM     12  C   UNL     1     -46.848 -50.241  37.100  1.00  0.00    -0.003 C 
ATOM     13  C   UNL     1     -45.602 -51.060  36.763  1.00  0.00     0.004 C 
ENDBRANCH  11  12
ENDBRANCH  10  11
ENDBRANCH   9  10
ENDBRANCH   8   9
ENDBRANCH   1   8
TORSDOF 9
ENDMDL
