MODEL 1
REMARK VINA RESULT:    -3.433      0.000      0.000
REMARK INTER + INTRA:          -5.692
REMARK INTER:                  -5.239
REMARK INTRA:                  -0.453
REMARK UNBOUND:                -0.453
REMARK SMILES O=C([O-])CCCCCCCCC(=O)[O-]
REMARK SMILES IDX 7 1 6 2 5 3 4 4 2 5 1 6 3 7 8 8 9 9 10 10 11 11 12 12 13 13
REMARK SMILES IDX 14 14
REMARK H PARENT
REMARK Flexibility Score: inf
ROOT
ATOM      1  C   UNL     1     -98.921 -40.154  91.924  1.00  0.00     0.000 C 
ENDROOT
BRANCH   1   2
ATOM      2  C   UNL     1     -99.347 -39.949  93.385  1.00  0.00     0.000 C 
BRANCH   2   3
ATOM      3  C   UNL     1    -100.468 -38.904  93.488  1.00  0.00     0.006 C 
BRANCH   3   4
ATOM      4  C   UNL     1    -100.455 -37.920  92.311  1.00  0.00     0.053 C 
BRANCH   4   5
ATOM      5  C   UNL     1    -100.892 -36.549  92.726  1.00  0.00     0.041 C 
ATOM      6  O   UNL     1    -100.247 -35.916  93.603  1.00  0.00    -0.550 OA
ATOM      7  O   UNL     1    -101.993 -35.956  92.120  1.00  0.00    -0.550 OA
ENDBRANCH   4   5
ENDBRANCH   3   4
ENDBRANCH   2   3
ENDBRANCH   1   2
BRANCH   1   8
ATOM      8  C   UNL     1     -97.751 -41.141  91.781  1.00  0.00     0.000 C 
BRANCH   8   9
ATOM      9  C   UNL     1     -97.086 -41.076  90.397  1.00  0.00     0.000 C 
BRANCH   9  10
ATOM     10  C   UNL     1     -97.874 -40.162  89.453  1.00  0.00     0.006 C 
BRANCH  10  11
ATOM     11  C   UNL     1     -97.160 -40.015  88.106  1.00  0.00     0.053 C 
BRANCH  11  12
ATOM     12  C   UNL     1     -97.054 -41.340  87.421  1.00  0.00     0.041 C 
ATOM     13  O   UNL     1     -98.084 -41.900  86.962  1.00  0.00    -0.550 OA
ATOM     14  O   UNL     1     -95.825 -41.981  87.331  1.00  0.00    -0.550 OA
ENDBRANCH  11  12
ENDBRANCH  10  11
ENDBRANCH   9  10
ENDBRANCH   8   9
ENDBRANCH   1   8
TORSDOF 9
ENDMDL
MODEL 2
REMARK VINA RESULT:    -3.413      0.613      6.886
REMARK INTER + INTRA:          -5.662
REMARK INTER:                  -5.151
REMARK INTRA:                  -0.511
REMARK UNBOUND:                -0.453
REMARK SMILES O=C([O-])CCCCCCCCC(=O)[O-]
REMARK SMILES IDX 7 1 6 2 5 3 4 4 2 5 1 6 3 7 8 8 9 9 10 10 11 11 12 12 13 13
REMARK SMILES IDX 14 14
REMARK H PARENT
REMARK Flexibility Score: inf
ROOT
ATOM      1  C   UNL     1     -97.980 -40.928  91.893  1.00  0.00     0.000 C 
ENDROOT
BRANCH   1   2
ATOM      2  C   UNL     1     -97.296 -41.098  90.528  1.00  0.00     0.000 C 
BRANCH   2   3
ATOM      3  C   UNL     1     -98.018 -40.280  89.446  1.00  0.00     0.006 C 
BRANCH   3   4
ATOM      4  C   UNL     1     -97.194 -40.167  88.157  1.00  0.00     0.053 C 
BRANCH   4   5
ATOM      5  C   UNL     1     -97.072 -41.486  87.457  1.00  0.00     0.041 C 
ATOM      6  O   UNL     1     -98.087 -42.029  86.947  1.00  0.00    -0.550 OA
ATOM      7  O   UNL     1     -95.831 -42.098  87.338  1.00  0.00    -0.550 OA
ENDBRANCH   4   5
ENDBRANCH   3   4
ENDBRANCH   2   3
ENDBRANCH   1   2
BRANCH   1   8
ATOM      8  C   UNL     1     -99.471 -40.576  91.769  1.00  0.00     0.000 C 
BRANCH   8   9
ATOM      9  C   UNL     1     -99.857 -39.336  92.590  1.00  0.00     0.000 C 
BRANCH   9  10
ATOM     10  C   UNL     1    -100.093 -38.126  91.679  1.00  0.00     0.006 C 
BRANCH  10  11
ATOM     11  C   UNL     1    -101.483 -37.526  91.910  1.00  0.00     0.053 C 
BRANCH  11  12
ATOM     12  C   UNL     1    -101.375 -36.200  92.593  1.00  0.00     0.041 C 
ATOM     13  O   UNL     1    -100.365 -35.929  93.294  1.00  0.00    -0.550 OA
ATOM     14  O   UNL     1    -102.412 -35.280  92.497  1.00  0.00    -0.550 OA
ENDBRANCH  11  12
ENDBRANCH  10  11
ENDBRANCH   9  10
ENDBRANCH   8   9
ENDBRANCH   1   8
TORSDOF 9
ENDMDL
MODEL 3
REMARK VINA RESULT:    -3.314      1.293      6.189
REMARK INTER + INTRA:          -5.511
REMARK INTER:                  -4.850
REMARK INTRA:                  -0.661
REMARK UNBOUND:                -0.453
REMARK SMILES O=C([O-])CCCCCCCCC(=O)[O-]
REMARK SMILES IDX 7 1 6 2 5 3 4 4 2 5 1 6 3 7 8 8 9 9 10 10 11 11 12 12 13 13
REMARK SMILES IDX 14 14
REMARK H PARENT
REMARK Flexibility Score: inf
ROOT
ATOM      1  C   UNL     1     -98.674 -41.042  92.337  1.00  0.00     0.000 C 
ENDROOT
BRANCH   1   2
ATOM      2  C   UNL     1     -97.211 -41.169  91.889  1.00  0.00     0.000 C 
BRANCH   2   3
ATOM      3  C   UNL     1     -97.116 -41.368  90.369  1.00  0.00     0.006 C 
BRANCH   3   4
ATOM      4  C   UNL     1     -97.976 -40.359  89.597  1.00  0.00     0.053 C 
BRANCH   4   5
ATOM      5  C   UNL     1     -97.252 -39.806  88.407  1.00  0.00     0.041 C 
ATOM      6  O   UNL     1     -97.043 -40.531  87.399  1.00  0.00    -0.550 OA
ATOM      7  O   UNL     1     -96.839 -38.480  88.399  1.00  0.00    -0.550 OA
ENDBRANCH   4   5
ENDBRANCH   3   4
ENDBRANCH   2   3
ENDBRANCH   1   2
BRANCH   1   8
ATOM      8  C   UNL     1     -98.815 -40.421  93.735  1.00  0.00     0.000 C 
BRANCH   8   9
ATOM      9  C   UNL     1     -99.900 -39.334  93.794  1.00  0.00     0.000 C 
BRANCH   9  10
ATOM     10  C   UNL     1    -100.496 -39.078  92.406  1.00  0.00     0.006 C 
BRANCH  10  11
ATOM     11  C   UNL     1    -100.281 -37.625  91.974  1.00  0.00     0.053 C 
BRANCH  11  12
ATOM     12  C   UNL     1    -100.963 -36.689  92.921  1.00  0.00     0.041 C 
ATOM     13  O   UNL     1    -102.216 -36.708  93.038  1.00  0.00    -0.550 OA
ATOM     14  O   UNL     1    -100.219 -35.761  93.639  1.00  0.00    -0.550 OA
ENDBRANCH  11  12
ENDBRANCH  10  11
ENDBRANCH   9  10
ENDBRANCH   8   9
ENDBRANCH   1   8
TORSDOF 9
ENDMDL
MODEL 4
REMARK VINA RESULT:    -3.313      1.493      1.781
REMARK INTER + INTRA:          -5.510
REMARK INTER:                  -4.835
REMARK INTRA:                  -0.675
REMARK UNBOUND:                -0.453
REMARK SMILES O=C([O-])CCCCCCCCC(=O)[O-]
REMARK SMILES IDX 7 1 6 2 5 3 4 4 2 5 1 6 3 7 8 8 9 9 10 10 11 11 12 12 13 13
REMARK SMILES IDX 14 14
REMARK H PARENT
REMARK Flexibility Score: inf
ROOT
ATOM      1  C   UNL     1     -98.388 -41.282  93.633  1.00  0.00     0.000 C 
ENDROOT
BRANCH   1   2
ATOM      2  C   UNL     1     -99.230 -40.001  93.719  1.00  0.00     0.000 C 
BRANCH   2   3
ATOM      3  C   UNL     1    -100.201 -39.901  92.533  1.00  0.00     0.006 C 
BRANCH   3   4
ATOM      4  C   UNL     1     -99.908 -38.686  91.643  1.00  0.00     0.053 C 
BRANCH   4   5
ATOM      5  C   UNL     1    -100.922 -37.600  91.831  1.00  0.00     0.041 C 
ATOM      6  O   UNL     1    -100.649 -36.594  92.537  1.00  0.00    -0.550 OA
ATOM      7  O   UNL     1    -102.156 -37.683  91.199  1.00  0.00    -0.550 OA
ENDBRANCH   4   5
ENDBRANCH   3   4
ENDBRANCH   2   3
ENDBRANCH   1   2
BRANCH   1   8
ATOM      8  C   UNL     1     -97.088 -41.086  92.838  1.00  0.00     0.000 C 
BRANCH   8   9
ATOM      9  C   UNL     1     -97.022 -41.968  91.581  1.00  0.00     0.000 C 
BRANCH   9  10
ATOM     10  C   UNL     1     -96.531 -41.164  90.372  1.00  0.00     0.006 C 
BRANCH  10  11
ATOM     11  C   UNL     1     -97.707 -40.560  89.599  1.00  0.00     0.053 C 
BRANCH  11  12
ATOM     12  C   UNL     1     -97.234 -39.953  88.316  1.00  0.00     0.041 C 
ATOM     13  O   UNL     1     -97.102 -40.669  87.288  1.00  0.00    -0.550 OA
ATOM     14  O   UNL     1     -96.892 -38.608  88.266  1.00  0.00    -0.550 OA
ENDBRANCH  11  12
ENDBRANCH  10  11
ENDBRANCH   9  10
ENDBRANCH   8   9
ENDBRANCH   1   8
TORSDOF 9
ENDMDL
MODEL 5
REMARK VINA RESULT:    -3.313     13.857     16.055
REMARK INTER + INTRA:          -5.510
REMARK INTER:                  -4.744
REMARK INTRA:                  -0.766
REMARK UNBOUND:                -0.453
REMARK SMILES O=C([O-])CCCCCCCCC(=O)[O-]
REMARK SMILES IDX 7 1 6 2 5 3 4 4 2 5 1 6 3 7 8 8 9 9 10 10 11 11 12 12 13 13
REMARK SMILES IDX 14 14
REMARK H PARENT
REMARK Flexibility Score: inf
ROOT
ATOM      1  C   UNL     1     -96.682 -26.880  79.849  1.00  0.00     0.000 C 
ENDROOT
BRANCH   1   2
ATOM      2  C   UNL     1     -96.061 -27.749  78.746  1.00  0.00     0.000 C 
BRANCH   2   3
ATOM      3  C   UNL     1     -96.425 -29.229  78.943  1.00  0.00     0.006 C 
BRANCH   3   4
ATOM      4  C   UNL     1     -97.726 -29.407  79.736  1.00  0.00     0.053 C 
BRANCH   4   5
ATOM      5  C   UNL     1     -98.589 -30.485  79.156  1.00  0.00     0.041 C 
ATOM      6  O   UNL     1     -99.620 -30.869  79.768  1.00  0.00    -0.550 OA
ATOM      7  O   UNL     1     -98.272 -31.041  77.923  1.00  0.00    -0.550 OA
ENDBRANCH   4   5
ENDBRANCH   3   4
ENDBRANCH   2   3
ENDBRANCH   1   2
BRANCH   1   8
ATOM      8  C   UNL     1     -95.625 -26.215  80.745  1.00  0.00     0.000 C 
BRANCH   8   9
ATOM      9  C   UNL     1     -95.933 -26.372  82.242  1.00  0.00     0.000 C 
BRANCH   9  10
ATOM     10  C   UNL     1     -96.155 -27.844  82.606  1.00  0.00     0.006 C 
BRANCH  10  11
ATOM     11  C   UNL     1     -97.376 -28.008  83.515  1.00  0.00     0.053 C 
BRANCH  11  12
ATOM     12  C   UNL     1     -97.150 -27.325  84.826  1.00  0.00     0.041 C 
ATOM     13  O   UNL     1     -96.159 -27.634  85.539  1.00  0.00    -0.550 OA
ATOM     14  O   UNL     1     -98.059 -26.381  85.286  1.00  0.00    -0.550 OA
ENDBRANCH  11  12
ENDBRANCH  10  11
ENDBRANCH   9  10
ENDBRANCH   8   9
ENDBRANCH   1   8
TORSDOF 9
ENDMDL
MODEL 6
REMARK VINA RESULT:    -3.267     14.085     15.335
REMARK INTER + INTRA:          -5.440
REMARK INTER:                  -4.365
REMARK INTRA:                  -1.075
REMARK UNBOUND:                -0.453
REMARK SMILES O=C([O-])CCCCCCCCC(=O)[O-]
REMARK SMILES IDX 7 1 6 2 5 3 4 4 2 5 1 6 3 7 8 8 9 9 10 10 11 11 12 12 13 13
REMARK SMILES IDX 14 14
REMARK H PARENT
REMARK Flexibility Score: inf
ROOT
ATOM      1  C   UNL     1     -96.967 -25.920  81.915  1.00  0.00     0.000 C 
ENDROOT
BRANCH   1   2
ATOM      2  C   UNL     1     -98.236 -26.776  82.032  1.00  0.00     0.000 C 
BRANCH   2   3
ATOM      3  C   UNL     1     -97.950 -28.083  82.786  1.00  0.00     0.006 C 
BRANCH   3   4
ATOM      4  C   UNL     1     -96.485 -28.190  83.228  1.00  0.00     0.053 C 
BRANCH   4   5
ATOM      5  C   UNL     1     -96.361 -28.337  84.714  1.00  0.00     0.041 C 
ATOM      6  O   UNL     1     -96.491 -27.334  85.464  1.00  0.00    -0.550 OA
ATOM      7  O   UNL     1     -96.135 -29.589  85.272  1.00  0.00    -0.550 OA
ENDBRANCH   4   5
ENDBRANCH   3   4
ENDBRANCH   2   3
ENDBRANCH   1   2
BRANCH   1   8
ATOM      8  C   UNL     1     -96.563 -25.653  80.456  1.00  0.00     0.000 C 
BRANCH   8   9
ATOM      9  C   UNL     1     -95.569 -26.693  79.917  1.00  0.00     0.000 C 
BRANCH   9  10
ATOM     10  C   UNL     1     -96.212 -27.551  78.821  1.00  0.00     0.006 C 
BRANCH  10  11
ATOM     11  C   UNL     1     -96.419 -28.990  79.301  1.00  0.00     0.053 C 
BRANCH  11  12
ATOM     12  C   UNL     1     -97.872 -29.349  79.270  1.00  0.00     0.041 C 
ATOM     13  O   UNL     1     -98.237 -30.532  79.496  1.00  0.00    -0.550 OA
ATOM     14  O   UNL     1     -98.819 -28.388  78.943  1.00  0.00    -0.550 OA
ENDBRANCH  11  12
ENDBRANCH  10  11
ENDBRANCH   9  10
ENDBRANCH   8   9
ENDBRANCH   1   8
TORSDOF 9
ENDMDL
MODEL 7
REMARK VINA RESULT:    -3.195     14.593     15.743
REMARK INTER + INTRA:          -5.329
REMARK INTER:                  -4.464
REMARK INTRA:                  -0.865
REMARK UNBOUND:                -0.453
REMARK SMILES O=C([O-])CCCCCCCCC(=O)[O-]
REMARK SMILES IDX 7 1 6 2 5 3 4 4 2 5 1 6 3 7 8 8 9 9 10 10 11 11 12 12 13 13
REMARK SMILES IDX 14 14
REMARK H PARENT
REMARK Flexibility Score: inf
ROOT
ATOM      1  C   UNL     1     -98.486 -27.567  81.898  1.00  0.00     0.000 C 
ENDROOT
BRANCH   1   2
ATOM      2  C   UNL     1     -97.625 -26.380  82.354  1.00  0.00     0.000 C 
BRANCH   2   3
ATOM      3  C   UNL     1     -96.478 -26.850  83.261  1.00  0.00     0.006 C 
BRANCH   3   4
ATOM      4  C   UNL     1     -96.656 -28.304  83.717  1.00  0.00     0.053 C 
BRANCH   4   5
ATOM      5  C   UNL     1     -96.147 -28.518  85.109  1.00  0.00     0.041 C 
ATOM      6  O   UNL     1     -95.969 -27.535  85.877  1.00  0.00    -0.550 OA
ATOM      7  O   UNL     1     -95.902 -29.804  85.570  1.00  0.00    -0.550 OA
ENDBRANCH   4   5
ENDBRANCH   3   4
ENDBRANCH   2   3
ENDBRANCH   1   2
BRANCH   1   8
ATOM      8  C   UNL     1     -98.337 -27.866  80.398  1.00  0.00     0.000 C 
BRANCH   8   9
ATOM      9  C   UNL     1     -97.208 -28.866  80.101  1.00  0.00     0.000 C 
BRANCH   9  10
ATOM     10  C   UNL     1     -96.257 -28.317  79.032  1.00  0.00     0.006 C 
BRANCH  10  11
ATOM     11  C   UNL     1     -96.489 -26.821  78.804  1.00  0.00     0.053 C 
BRANCH  11  12
ATOM     12  C   UNL     1     -95.241 -26.047  79.092  1.00  0.00     0.041 C 
ATOM     13  O   UNL     1     -94.689 -25.374  78.182  1.00  0.00    -0.550 OA
ATOM     14  O   UNL     1     -94.660 -26.107  80.352  1.00  0.00    -0.550 OA
ENDBRANCH  11  12
ENDBRANCH  10  11
ENDBRANCH   9  10
ENDBRANCH   8   9
ENDBRANCH   1   8
TORSDOF 9
ENDMDL
MODEL 8
REMARK VINA RESULT:    -3.192     14.888     16.586
REMARK INTER + INTRA:          -5.325
REMARK INTER:                  -4.623
REMARK INTRA:                  -0.702
REMARK UNBOUND:                -0.453
REMARK SMILES O=C([O-])CCCCCCCCC(=O)[O-]
REMARK SMILES IDX 7 1 6 2 5 3 4 4 2 5 1 6 3 7 8 8 9 9 10 10 11 11 12 12 13 13
REMARK SMILES IDX 14 14
REMARK H PARENT
REMARK Flexibility Score: inf
ROOT
ATOM      1  C   UNL     1     -97.055 -27.895  80.355  1.00  0.00     0.000 C 
ENDROOT
BRANCH   1   2
ATOM      2  C   UNL     1     -96.789 -26.694  79.436  1.00  0.00     0.000 C 
BRANCH   2   3
ATOM      3  C   UNL     1     -95.418 -26.817  78.754  1.00  0.00     0.006 C 
BRANCH   3   4
ATOM      4  C   UNL     1     -94.653 -25.488  78.745  1.00  0.00     0.053 C 
BRANCH   4   5
ATOM      5  C   UNL     1     -94.310 -25.033  80.131  1.00  0.00     0.041 C 
ATOM      6  O   UNL     1     -94.963 -24.102  80.672  1.00  0.00    -0.550 OA
ATOM      7  O   UNL     1     -93.292 -25.660  80.837  1.00  0.00    -0.550 OA
ENDBRANCH   4   5
ENDBRANCH   3   4
ENDBRANCH   2   3
ENDBRANCH   1   2
BRANCH   1   8
ATOM      8  C   UNL     1     -96.390 -27.747  81.733  1.00  0.00     0.000 C 
BRANCH   8   9
ATOM      9  C   UNL     1     -96.849 -26.486  82.480  1.00  0.00     0.000 C 
BRANCH   9  10
ATOM     10  C   UNL     1     -97.388 -26.837  83.871  1.00  0.00     0.006 C 
BRANCH  10  11
ATOM     11  C   UNL     1     -97.251 -28.336  84.152  1.00  0.00     0.053 C 
BRANCH  11  12
ATOM     12  C   UNL     1     -96.282 -28.575  85.266  1.00  0.00     0.041 C 
ATOM     13  O   UNL     1     -95.762 -27.601  85.872  1.00  0.00    -0.550 OA
ATOM     14  O   UNL     1     -95.914 -29.871  85.604  1.00  0.00    -0.550 OA
ENDBRANCH  11  12
ENDBRANCH  10  11
ENDBRANCH   9  10
ENDBRANCH   8   9
ENDBRANCH   1   8
TORSDOF 9
ENDMDL
MODEL 9
REMARK VINA RESULT:    -3.149      3.462      4.403
REMARK INTER + INTRA:          -5.259
REMARK INTER:                  -4.621
REMARK INTRA:                  -0.638
REMARK UNBOUND:                -0.453
REMARK SMILES O=C([O-])CCCCCCCCC(=O)[O-]
REMARK SMILES IDX 7 1 6 2 5 3 4 4 2 5 1 6 3 7 8 8 9 9 10 10 11 11 12 12 13 13
REMARK SMILES IDX 14 14
REMARK H PARENT
REMARK Flexibility Score: inf
ROOT
ATOM      1  C   UNL     1     -98.728 -40.992  90.805  1.00  0.00     0.000 C 
ENDROOT
BRANCH   1   2
ATOM      2  C   UNL     1     -98.954 -40.350  92.181  1.00  0.00     0.000 C 
BRANCH   2   3
ATOM      3  C   UNL     1     -98.060 -41.004  93.246  1.00  0.00     0.006 C 
BRANCH   3   4
ATOM      4  C   UNL     1     -96.610 -41.162  92.769  1.00  0.00     0.053 C 
BRANCH   4   5
ATOM      5  C   UNL     1     -95.661 -41.324  93.916  1.00  0.00     0.041 C 
ATOM      6  O   UNL     1     -95.338 -42.474  94.314  1.00  0.00    -0.550 OA
ATOM      7  O   UNL     1     -95.107 -40.205  94.524  1.00  0.00    -0.550 OA
ENDBRANCH   4   5
ENDBRANCH   3   4
ENDBRANCH   2   3
ENDBRANCH   1   2
BRANCH   1   8
ATOM      8  C   UNL     1     -98.429 -39.956  89.709  1.00  0.00     0.000 C 
BRANCH   8   9
ATOM      9  C   UNL     1     -97.032 -40.132  89.094  1.00  0.00     0.000 C 
BRANCH   9  10
ATOM     10  C   UNL     1     -97.126 -40.690  87.670  1.00  0.00     0.006 C 
BRANCH  10  11
ATOM     11  C   UNL     1     -96.281 -41.958  87.518  1.00  0.00     0.053 C 
BRANCH  11  12
ATOM     12  C   UNL     1     -96.877 -43.083  88.304  1.00  0.00     0.041 C 
ATOM     13  O   UNL     1     -96.205 -43.653  89.204  1.00  0.00    -0.550 OA
ATOM     14  O   UNL     1     -98.157 -43.536  88.010  1.00  0.00    -0.550 OA
ENDBRANCH  11  12
ENDBRANCH  10  11
ENDBRANCH   9  10
ENDBRANCH   8   9
ENDBRANCH   1   8
TORSDOF 9
ENDMDL
