MODEL 1
REMARK VINA RESULT:    -8.799      0.000      0.000
REMARK INTER + INTRA:         -11.435
REMARK INTER:                 -10.857
REMARK INTRA:                  -0.578
REMARK UNBOUND:                -0.578
REMARK SMILES COc1ccc(-c2cc3cc(O)c(OC)cc3o2)c(O)c1
REMARK SMILES IDX 7 1 8 2 9 3 10 4 11 5 13 6 16 7 17 8 18 9 6 10 3 11 21 12
REMARK SMILES IDX 4 13 19 14 5 15 2 16 1 17 20 18 12 20 14 22 15 23
REMARK H PARENT 20 19 12 21
REMARK Flexibility Score: inf
ROOT
ATOM      1  C   UNL     1      -0.458  44.834   1.178  1.00  0.00     0.139 A 
ATOM      2  C   UNL     1      -1.015  44.902  -0.102  1.00  0.00     0.060 A 
ATOM      3  C   UNL     1       0.058  44.767  -0.951  1.00  0.00     0.025 A 
ATOM      4  C   UNL     1       0.121  44.749  -2.339  1.00  0.00     0.062 A 
ATOM      5  C   UNL     1       1.384  44.584  -2.943  1.00  0.00     0.158 A 
ATOM      6  C   UNL     1       2.551  44.439  -2.142  1.00  0.00     0.164 A 
ATOM      7  C   UNL     1       2.436  44.459  -0.729  1.00  0.00     0.098 A 
ATOM      8  C   UNL     1       1.171  44.625  -0.174  1.00  0.00     0.138 A 
ATOM      9  O   UNL     1       0.851  44.663   1.096  1.00  0.00    -0.456 OA
ENDROOT
BRANCH   1  10
ATOM     10  C   UNL     1      -1.181  44.904   2.470  1.00  0.00     0.059 A 
ATOM     11  C   UNL     1      -2.631  44.959   4.893  1.00  0.00     0.122 A 
ATOM     12  C   UNL     1      -1.578  45.864   4.676  1.00  0.00     0.093 A 
ATOM     13  C   UNL     1      -2.943  44.025   3.902  1.00  0.00     0.047 A 
ATOM     14  C   UNL     1      -0.846  45.835   3.478  1.00  0.00     0.130 A 
ATOM     15  C   UNL     1      -2.224  43.993   2.705  1.00  0.00     0.020 A 
BRANCH  11  16
ATOM     16  O   UNL     1      -3.387  44.952   6.075  1.00  0.00    -0.497 OA
ATOM     17  C   UNL     1      -3.173  45.834   7.172  1.00  0.00     0.278 C 
ENDBRANCH  11  16
BRANCH  14  18
ATOM     18  O   UNL     1       0.224  46.714   3.310  1.00  0.00    -0.507 OA
ATOM     19  H   UNL     1       0.226  47.418   2.581  1.00  0.00     0.293 HD
ENDBRANCH  14  18
ENDBRANCH   1  10
BRANCH   5  20
ATOM     20  O   UNL     1       1.463  44.567  -4.334  1.00  0.00    -0.504 OA
ATOM     21  H   UNL     1       2.215  44.099  -4.825  1.00  0.00     0.293 HD
ENDBRANCH   5  20
BRANCH   6  22
ATOM     22  O   UNL     1       3.791  44.278  -2.779  1.00  0.00    -0.493 OA
ATOM     23  C   UNL     1       4.798  43.362  -2.361  1.00  0.00     0.278 C 
ENDBRANCH   6  22
TORSDOF 5
ENDMDL
MODEL 2
REMARK VINA RESULT:    -8.665      1.102      7.668
REMARK INTER + INTRA:         -11.269
REMARK INTER:                 -10.685
REMARK INTRA:                  -0.584
REMARK UNBOUND:                -0.578
REMARK SMILES COc1ccc(-c2cc3cc(O)c(OC)cc3o2)c(O)c1
REMARK SMILES IDX 7 1 8 2 9 3 10 4 11 5 13 6 16 7 17 8 18 9 6 10 3 11 21 12
REMARK SMILES IDX 4 13 19 14 5 15 2 16 1 17 20 18 12 20 14 22 15 23
REMARK H PARENT 20 19 12 21
REMARK Flexibility Score: inf
ROOT
ATOM      1  C   UNL     1      -0.079  44.595   0.983  1.00  0.00     0.139 A 
ATOM      2  C   UNL     1      -1.170  43.763   1.248  1.00  0.00     0.060 A 
ATOM      3  C   UNL     1      -1.652  44.205   2.458  1.00  0.00     0.025 A 
ATOM      4  C   UNL     1      -2.728  43.768   3.221  1.00  0.00     0.062 A 
ATOM      5  C   UNL     1      -2.991  44.431   4.436  1.00  0.00     0.158 A 
ATOM      6  C   UNL     1      -2.172  45.517   4.855  1.00  0.00     0.164 A 
ATOM      7  C   UNL     1      -1.088  45.930   4.041  1.00  0.00     0.098 A 
ATOM      8  C   UNL     1      -0.863  45.247   2.849  1.00  0.00     0.138 A 
ATOM      9  O   UNL     1       0.071  45.474   1.960  1.00  0.00    -0.456 OA
ENDROOT
BRANCH   1  10
ATOM     10  C   UNL     1       0.795  44.566  -0.215  1.00  0.00     0.059 A 
ATOM     11  C   UNL     1       2.365  44.511  -2.562  1.00  0.00     0.122 A 
ATOM     12  C   UNL     1       2.971  44.390  -1.299  1.00  0.00     0.093 A 
ATOM     13  C   UNL     1       0.980  44.670  -2.640  1.00  0.00     0.047 A 
ATOM     14  C   UNL     1       2.198  44.427  -0.127  1.00  0.00     0.130 A 
ATOM     15  C   UNL     1       0.202  44.702  -1.481  1.00  0.00     0.020 A 
BRANCH  11  16
ATOM     16  O   UNL     1       3.101  44.480  -3.756  1.00  0.00    -0.497 OA
ATOM     17  C   UNL     1       4.522  44.447  -3.825  1.00  0.00     0.278 C 
ENDBRANCH  11  16
BRANCH  14  18
ATOM     18  O   UNL     1       2.831  44.352   1.113  1.00  0.00    -0.507 OA
ATOM     19  H   UNL     1       2.538  44.923   1.897  1.00  0.00     0.293 HD
ENDBRANCH  14  18
ENDBRANCH   1  10
BRANCH   5  20
ATOM     20  O   UNL     1      -4.065  44.002   5.213  1.00  0.00    -0.504 OA
ATOM     21  H   UNL     1      -4.168  44.269   6.186  1.00  0.00     0.293 HD
ENDBRANCH   5  20
BRANCH   6  22
ATOM     22  O   UNL     1      -2.465  46.152   6.072  1.00  0.00    -0.493 OA
ATOM     23  C   UNL     1      -1.526  46.348   7.124  1.00  0.00     0.278 C 
ENDBRANCH   6  22
TORSDOF 5
ENDMDL
MODEL 3
REMARK VINA RESULT:    -8.481      4.751      9.633
REMARK INTER + INTRA:         -11.042
REMARK INTER:                 -10.427
REMARK INTRA:                  -0.616
REMARK UNBOUND:                -0.578
REMARK SMILES COc1ccc(-c2cc3cc(O)c(OC)cc3o2)c(O)c1
REMARK SMILES IDX 7 1 8 2 9 3 10 4 11 5 13 6 16 7 17 8 18 9 6 10 3 11 21 12
REMARK SMILES IDX 4 13 19 14 5 15 2 16 1 17 20 18 12 20 14 22 15 23
REMARK H PARENT 20 19 12 21
REMARK Flexibility Score: inf
ROOT
ATOM      1  C   UNL     1      -0.920  46.608   7.325  1.00  0.00     0.139 A 
ATOM      2  C   UNL     1      -0.210  47.811   7.344  1.00  0.00     0.060 A 
ATOM      3  C   UNL     1       0.280  47.900   8.626  1.00  0.00     0.025 A 
ATOM      4  C   UNL     1       1.065  48.873   9.233  1.00  0.00     0.062 A 
ATOM      5  C   UNL     1       1.425  48.687  10.582  1.00  0.00     0.158 A 
ATOM      6  C   UNL     1       0.991  47.532  11.290  1.00  0.00     0.164 A 
ATOM      7  C   UNL     1       0.195  46.564  10.627  1.00  0.00     0.098 A 
ATOM      8  C   UNL     1      -0.138  46.787   9.295  1.00  0.00     0.138 A 
ATOM      9  O   UNL     1      -0.851  46.020   8.508  1.00  0.00    -0.456 OA
ENDROOT
BRANCH   1  10
ATOM     10  C   UNL     1      -1.636  46.013   6.171  1.00  0.00     0.059 A 
ATOM     11  C   UNL     1      -2.916  44.919   3.903  1.00  0.00     0.122 A 
ATOM     12  C   UNL     1      -3.537  44.867   5.164  1.00  0.00     0.093 A 
ATOM     13  C   UNL     1      -1.654  45.507   3.790  1.00  0.00     0.047 A 
ATOM     14  C   UNL     1      -2.902  45.399   6.297  1.00  0.00     0.130 A 
ATOM     15  C   UNL     1      -1.017  46.044   4.910  1.00  0.00     0.020 A 
BRANCH  11  16
ATOM     16  O   UNL     1      -3.516  44.398   2.747  1.00  0.00    -0.497 OA
ATOM     17  C   UNL     1      -2.966  44.506   1.438  1.00  0.00     0.278 C 
ENDBRANCH  11  16
BRANCH  14  18
ATOM     18  O   UNL     1      -3.521  45.292   7.542  1.00  0.00    -0.507 OA
ATOM     19  H   UNL     1      -3.172  45.783   8.356  1.00  0.00     0.293 HD
ENDBRANCH  14  18
ENDBRANCH   1  10
BRANCH   5  20
ATOM     20  O   UNL     1       2.210  49.656  11.205  1.00  0.00    -0.504 OA
ATOM     21  H   UNL     1       3.076  49.426  11.678  1.00  0.00     0.293 HD
ENDBRANCH   5  20
BRANCH   6  22
ATOM     22  O   UNL     1       1.369  47.382  12.633  1.00  0.00    -0.493 OA
ATOM     23  C   UNL     1       2.521  46.669  13.071  1.00  0.00     0.278 C 
ENDBRANCH   6  22
TORSDOF 5
ENDMDL
MODEL 4
REMARK VINA RESULT:    -8.446      1.564      7.732
REMARK INTER + INTRA:         -10.999
REMARK INTER:                 -10.414
REMARK INTRA:                  -0.585
REMARK UNBOUND:                -0.578
REMARK SMILES COc1ccc(-c2cc3cc(O)c(OC)cc3o2)c(O)c1
REMARK SMILES IDX 7 1 8 2 9 3 10 4 11 5 13 6 16 7 17 8 18 9 6 10 3 11 21 12
REMARK SMILES IDX 4 13 19 14 5 15 2 16 1 17 20 18 12 20 14 22 15 23
REMARK H PARENT 20 19 12 21
REMARK Flexibility Score: inf
ROOT
ATOM      1  C   UNL     1      -0.969  45.308   2.146  1.00  0.00     0.139 A 
ATOM      2  C   UNL     1      -2.124  44.834   2.775  1.00  0.00     0.060 A 
ATOM      3  C   UNL     1      -2.002  45.255   4.078  1.00  0.00     0.025 A 
ATOM      4  C   UNL     1      -2.847  45.088   5.170  1.00  0.00     0.062 A 
ATOM      5  C   UNL     1      -2.455  45.648   6.402  1.00  0.00     0.158 A 
ATOM      6  C   UNL     1      -1.230  46.363   6.511  1.00  0.00     0.164 A 
ATOM      7  C   UNL     1      -0.403  46.512   5.368  1.00  0.00     0.098 A 
ATOM      8  C   UNL     1      -0.827  45.942   4.171  1.00  0.00     0.138 A 
ATOM      9  O   UNL     1      -0.220  45.971   3.011  1.00  0.00    -0.456 OA
ENDROOT
BRANCH   1  10
ATOM     10  C   UNL     1      -0.604  45.152   0.718  1.00  0.00     0.059 A 
ATOM     11  C   UNL     1      -0.013  44.885  -2.031  1.00  0.00     0.122 A 
ATOM     12  C   UNL     1       0.933  44.507  -1.062  1.00  0.00     0.093 A 
ATOM     13  C   UNL     1      -1.242  45.404  -1.618  1.00  0.00     0.047 A 
ATOM     14  C   UNL     1       0.650  44.647   0.307  1.00  0.00     0.130 A 
ATOM     15  C   UNL     1      -1.534  45.542  -0.259  1.00  0.00     0.020 A 
BRANCH  11  16
ATOM     16  O   UNL     1       0.230  44.762  -3.408  1.00  0.00    -0.497 OA
ATOM     17  C   UNL     1       1.377  44.134  -3.970  1.00  0.00     0.278 C 
ENDBRANCH  11  16
BRANCH  14  18
ATOM     18  O   UNL     1       1.625  44.308   1.244  1.00  0.00    -0.507 OA
ATOM     19  H   UNL     1       2.561  44.693   1.204  1.00  0.00     0.293 HD
ENDBRANCH  14  18
ENDBRANCH   1  10
BRANCH   5  20
ATOM     20  O   UNL     1      -3.291  45.486   7.505  1.00  0.00    -0.504 OA
ATOM     21  H   UNL     1      -4.292  45.626   7.449  1.00  0.00     0.293 HD
ENDBRANCH   5  20
BRANCH   6  22
ATOM     22  O   UNL     1      -0.874  46.906   7.755  1.00  0.00    -0.493 OA
ATOM     23  C   UNL     1       0.240  47.768   7.968  1.00  0.00     0.278 C 
ENDBRANCH   6  22
TORSDOF 5
ENDMDL
MODEL 5
REMARK VINA RESULT:    -8.393      1.811      7.663
REMARK INTER + INTRA:         -10.934
REMARK INTER:                 -10.351
REMARK INTRA:                  -0.583
REMARK UNBOUND:                -0.578
REMARK SMILES COc1ccc(-c2cc3cc(O)c(OC)cc3o2)c(O)c1
REMARK SMILES IDX 7 1 8 2 9 3 10 4 11 5 13 6 16 7 17 8 18 9 6 10 3 11 21 12
REMARK SMILES IDX 4 13 19 14 5 15 2 16 1 17 20 18 12 20 14 22 15 23
REMARK H PARENT 20 19 12 21
REMARK Flexibility Score: inf
ROOT
ATOM      1  C   UNL     1       0.375  44.587  -0.749  1.00  0.00     0.139 A 
ATOM      2  C   UNL     1      -0.877  45.020  -1.195  1.00  0.00     0.060 A 
ATOM      3  C   UNL     1      -1.681  44.951  -0.082  1.00  0.00     0.025 A 
ATOM      4  C   UNL     1      -3.025  45.263   0.089  1.00  0.00     0.062 A 
ATOM      5  C   UNL     1      -3.585  45.095   1.371  1.00  0.00     0.158 A 
ATOM      6  C   UNL     1      -2.787  44.622   2.450  1.00  0.00     0.164 A 
ATOM      7  C   UNL     1      -1.419  44.322   2.228  1.00  0.00     0.098 A 
ATOM      8  C   UNL     1      -0.906  44.500   0.947  1.00  0.00     0.138 A 
ATOM      9  O   UNL     1       0.321  44.289   0.539  1.00  0.00    -0.456 OA
ENDROOT
BRANCH   1  10
ATOM     10  C   UNL     1       1.621  44.488  -1.546  1.00  0.00     0.059 A 
ATOM     11  C   UNL     1       3.931  44.298  -3.161  1.00  0.00     0.122 A 
ATOM     12  C   UNL     1       4.035  44.225  -1.760  1.00  0.00     0.093 A 
ATOM     13  C   UNL     1       2.673  44.478  -3.741  1.00  0.00     0.047 A 
ATOM     14  C   UNL     1       2.892  44.329  -0.951  1.00  0.00     0.130 A 
ATOM     15  C   UNL     1       1.530  44.577  -2.945  1.00  0.00     0.020 A 
BRANCH  11  16
ATOM     16  O   UNL     1       5.047  44.200  -4.005  1.00  0.00    -0.497 OA
ATOM     17  C   UNL     1       5.181  44.886  -5.245  1.00  0.00     0.278 C 
ENDBRANCH  11  16
BRANCH  14  18
ATOM     18  O   UNL     1       3.031  44.299   0.436  1.00  0.00    -0.507 OA
ATOM     19  H   UNL     1       2.441  44.855   1.043  1.00  0.00     0.293 HD
ENDBRANCH  14  18
ENDBRANCH   1  10
BRANCH   5  20
ATOM     20  O   UNL     1      -4.932  45.401   1.557  1.00  0.00    -0.504 OA
ATOM     21  H   UNL     1      -5.361  46.221   1.143  1.00  0.00     0.293 HD
ENDBRANCH   5  20
BRANCH   6  22
ATOM     22  O   UNL     1      -3.381  44.468   3.712  1.00  0.00    -0.493 OA
ATOM     23  C   UNL     1      -2.835  44.972   4.926  1.00  0.00     0.278 C 
ENDBRANCH   6  22
TORSDOF 5
ENDMDL
MODEL 6
REMARK VINA RESULT:    -8.142      1.367      1.820
REMARK INTER + INTRA:         -10.624
REMARK INTER:                 -10.034
REMARK INTRA:                  -0.589
REMARK UNBOUND:                -0.578
REMARK SMILES COc1ccc(-c2cc3cc(O)c(OC)cc3o2)c(O)c1
REMARK SMILES IDX 7 1 8 2 9 3 10 4 11 5 13 6 16 7 17 8 18 9 6 10 3 11 21 12
REMARK SMILES IDX 4 13 19 14 5 15 2 16 1 17 20 18 12 20 14 22 15 23
REMARK H PARENT 20 19 12 21
REMARK Flexibility Score: inf
ROOT
ATOM      1  C   UNL     1      -0.945  45.506   2.262  1.00  0.00     0.139 A 
ATOM      2  C   UNL     1      -1.817  45.771   1.202  1.00  0.00     0.060 A 
ATOM      3  C   UNL     1      -1.100  45.438   0.077  1.00  0.00     0.025 A 
ATOM      4  C   UNL     1      -1.447  45.482  -1.268  1.00  0.00     0.062 A 
ATOM      5  C   UNL     1      -0.490  45.063  -2.214  1.00  0.00     0.158 A 
ATOM      6  C   UNL     1       0.789  44.608  -1.790  1.00  0.00     0.164 A 
ATOM      7  C   UNL     1       1.097  44.576  -0.406  1.00  0.00     0.098 A 
ATOM      8  C   UNL     1       0.123  45.000   0.494  1.00  0.00     0.138 A 
ATOM      9  O   UNL     1       0.204  45.041   1.800  1.00  0.00    -0.456 OA
ENDROOT
BRANCH   1  10
ATOM     10  C   UNL     1      -1.225  45.669   3.708  1.00  0.00     0.059 A 
ATOM     11  C   UNL     1      -1.860  45.933   6.448  1.00  0.00     0.122 A 
ATOM     12  C   UNL     1      -0.675  46.491   5.937  1.00  0.00     0.093 A 
ATOM     13  C   UNL     1      -2.712  45.238   5.587  1.00  0.00     0.047 A 
ATOM     14  C   UNL     1      -0.348  46.354   4.578  1.00  0.00     0.130 A 
ATOM     15  C   UNL     1      -2.398  45.102   4.233  1.00  0.00     0.020 A 
BRANCH  11  16
ATOM     16  O   UNL     1      -2.224  46.046   7.798  1.00  0.00    -0.497 OA
ATOM     17  C   UNL     1      -1.306  46.270   8.863  1.00  0.00     0.278 C 
ENDBRANCH  11  16
BRANCH  14  18
ATOM     18  O   UNL     1       0.857  46.877   4.109  1.00  0.00    -0.507 OA
ATOM     19  H   UNL     1       1.626  46.279   3.831  1.00  0.00     0.293 HD
ENDBRANCH  14  18
ENDBRANCH   1  10
BRANCH   5  20
ATOM     20  O   UNL     1      -0.824  45.105  -3.566  1.00  0.00    -0.504 OA
ATOM     21  H   UNL     1      -0.521  44.391  -4.218  1.00  0.00     0.293 HD
ENDBRANCH   5  20
BRANCH   6  22
ATOM     22  O   UNL     1       1.716  44.200  -2.761  1.00  0.00    -0.493 OA
ATOM     23  C   UNL     1       3.103  43.993  -2.513  1.00  0.00     0.278 C 
ENDBRANCH   6  22
TORSDOF 5
ENDMDL
MODEL 7
REMARK VINA RESULT:    -8.113      2.185      7.971
REMARK INTER + INTRA:         -10.588
REMARK INTER:                 -10.042
REMARK INTRA:                  -0.547
REMARK UNBOUND:                -0.578
REMARK SMILES COc1ccc(-c2cc3cc(O)c(OC)cc3o2)c(O)c1
REMARK SMILES IDX 7 1 8 2 9 3 10 4 11 5 13 6 16 7 17 8 18 9 6 10 3 11 21 12
REMARK SMILES IDX 4 13 19 14 5 15 2 16 1 17 20 18 12 20 14 22 15 23
REMARK H PARENT 20 19 12 21
REMARK Flexibility Score: inf
ROOT
ATOM      1  C   UNL     1       0.516  44.599  -0.813  1.00  0.00     0.139 A 
ATOM      2  C   UNL     1       0.497  44.489   0.580  1.00  0.00     0.060 A 
ATOM      3  C   UNL     1      -0.825  44.654   0.920  1.00  0.00     0.025 A 
ATOM      4  C   UNL     1      -1.453  44.637   2.160  1.00  0.00     0.062 A 
ATOM      5  C   UNL     1      -2.848  44.830   2.198  1.00  0.00     0.158 A 
ATOM      6  C   UNL     1      -3.580  45.033   0.994  1.00  0.00     0.164 A 
ATOM      7  C   UNL     1      -2.896  45.037  -0.248  1.00  0.00     0.098 A 
ATOM      8  C   UNL     1      -1.518  44.844  -0.240  1.00  0.00     0.138 A 
ATOM      9  O   UNL     1      -0.709  44.805  -1.269  1.00  0.00    -0.456 OA
ENDROOT
BRANCH   1  10
ATOM     10  C   UNL     1       1.696  44.476  -1.702  1.00  0.00     0.059 A 
ATOM     11  C   UNL     1       4.011  44.240  -3.303  1.00  0.00     0.122 A 
ATOM     12  C   UNL     1       2.755  44.451  -3.898  1.00  0.00     0.093 A 
ATOM     13  C   UNL     1       4.097  44.138  -1.912  1.00  0.00     0.047 A 
ATOM     14  C   UNL     1       1.598  44.558  -3.109  1.00  0.00     0.130 A 
ATOM     15  C   UNL     1       2.953  44.249  -1.119  1.00  0.00     0.020 A 
BRANCH  11  16
ATOM     16  O   UNL     1       5.191  44.126  -4.054  1.00  0.00    -0.497 OA
ATOM     17  C   UNL     1       5.709  45.148  -4.899  1.00  0.00     0.278 C 
ENDBRANCH  11  16
BRANCH  14  18
ATOM     18  O   UNL     1       0.360  44.720  -3.729  1.00  0.00    -0.507 OA
ATOM     19  H   UNL     1      -0.412  44.089  -3.551  1.00  0.00     0.293 HD
ENDBRANCH  14  18
ENDBRANCH   1  10
BRANCH   5  20
ATOM     20  O   UNL     1      -3.491  44.818   3.434  1.00  0.00    -0.504 OA
ATOM     21  H   UNL     1      -3.067  45.210   4.266  1.00  0.00     0.293 HD
ENDBRANCH   5  20
BRANCH   6  22
ATOM     22  O   UNL     1      -4.968  45.223   1.073  1.00  0.00    -0.493 OA
ATOM     23  C   UNL     1      -5.889  44.862   0.048  1.00  0.00     0.278 C 
ENDBRANCH   6  22
TORSDOF 5
ENDMDL
MODEL 8
REMARK VINA RESULT:    -8.025      1.208      2.417
REMARK INTER + INTRA:         -10.480
REMARK INTER:                  -9.876
REMARK INTRA:                  -0.605
REMARK UNBOUND:                -0.578
REMARK SMILES COc1ccc(-c2cc3cc(O)c(OC)cc3o2)c(O)c1
REMARK SMILES IDX 7 1 8 2 9 3 10 4 11 5 13 6 16 7 17 8 18 9 6 10 3 11 21 12
REMARK SMILES IDX 4 13 19 14 5 15 2 16 1 17 20 18 12 20 14 22 15 23
REMARK H PARENT 20 19 12 21
REMARK Flexibility Score: inf
ROOT
ATOM      1  C   UNL     1      -0.178  44.889   1.695  1.00  0.00     0.139 A 
ATOM      2  C   UNL     1       1.213  44.767   1.731  1.00  0.00     0.060 A 
ATOM      3  C   UNL     1       1.584  44.676   0.410  1.00  0.00     0.025 A 
ATOM      4  C   UNL     1       2.839  44.547  -0.174  1.00  0.00     0.062 A 
ATOM      5  C   UNL     1       2.911  44.485  -1.580  1.00  0.00     0.158 A 
ATOM      6  C   UNL     1       1.727  44.557  -2.366  1.00  0.00     0.164 A 
ATOM      7  C   UNL     1       0.469  44.693  -1.725  1.00  0.00     0.098 A 
ATOM      8  C   UNL     1       0.443  44.749  -0.334  1.00  0.00     0.138 A 
ATOM      9  O   UNL     1      -0.603  44.880   0.442  1.00  0.00    -0.456 OA
ENDROOT
BRANCH   1  10
ATOM     10  C   UNL     1      -1.090  45.044   2.853  1.00  0.00     0.059 A 
ATOM     11  C   UNL     1      -2.745  45.394   5.116  1.00  0.00     0.122 A 
ATOM     12  C   UNL     1      -3.180  44.609   4.032  1.00  0.00     0.093 A 
ATOM     13  C   UNL     1      -1.492  46.006   5.053  1.00  0.00     0.047 A 
ATOM     14  C   UNL     1      -2.367  44.440   2.900  1.00  0.00     0.130 A 
ATOM     15  C   UNL     1      -0.674  45.839   3.934  1.00  0.00     0.020 A 
BRANCH  11  16
ATOM     16  O   UNL     1      -3.526  45.590   6.264  1.00  0.00    -0.497 OA
ATOM     17  C   UNL     1      -3.007  45.960   7.537  1.00  0.00     0.278 C 
ENDBRANCH  11  16
BRANCH  14  18
ATOM     18  O   UNL     1      -2.843  43.695   1.822  1.00  0.00    -0.507 OA
ATOM     19  H   UNL     1      -2.810  44.049   0.873  1.00  0.00     0.293 HD
ENDBRANCH  14  18
ENDBRANCH   1  10
BRANCH   5  20
ATOM     20  O   UNL     1       4.162  44.353  -2.180  1.00  0.00    -0.504 OA
ATOM     21  H   UNL     1       4.504  43.463  -2.524  1.00  0.00     0.293 HD
ENDBRANCH   5  20
BRANCH   6  22
ATOM     22  O   UNL     1       1.839  44.491  -3.763  1.00  0.00    -0.493 OA
ATOM     23  C   UNL     1       0.756  44.213  -4.645  1.00  0.00     0.278 C 
ENDBRANCH   6  22
TORSDOF 5
ENDMDL
MODEL 9
REMARK VINA RESULT:    -7.679      2.763      4.364
REMARK INTER + INTRA:         -10.053
REMARK INTER:                  -9.448
REMARK INTRA:                  -0.606
REMARK UNBOUND:                -0.578
REMARK SMILES COc1ccc(-c2cc3cc(O)c(OC)cc3o2)c(O)c1
REMARK SMILES IDX 7 1 8 2 9 3 10 4 11 5 13 6 16 7 17 8 18 9 6 10 3 11 21 12
REMARK SMILES IDX 4 13 19 14 5 15 2 16 1 17 20 18 12 20 14 22 15 23
REMARK H PARENT 20 19 12 21
REMARK Flexibility Score: inf
ROOT
ATOM      1  C   UNL     1      -1.470  45.835   4.039  1.00  0.00     0.139 A 
ATOM      2  C   UNL     1      -2.424  44.898   3.632  1.00  0.00     0.060 A 
ATOM      3  C   UNL     1      -2.386  44.944   2.258  1.00  0.00     0.025 A 
ATOM      4  C   UNL     1      -3.104  44.231   1.306  1.00  0.00     0.062 A 
ATOM      5  C   UNL     1      -2.841  44.490  -0.054  1.00  0.00     0.158 A 
ATOM      6  C   UNL     1      -1.863  45.455  -0.426  1.00  0.00     0.164 A 
ATOM      7  C   UNL     1      -1.151  46.154   0.582  1.00  0.00     0.098 A 
ATOM      8  C   UNL     1      -1.444  45.868   1.912  1.00  0.00     0.138 A 
ATOM      9  O   UNL     1      -0.900  46.392   2.982  1.00  0.00    -0.456 OA
ENDROOT
BRANCH   1  10
ATOM     10  C   UNL     1      -1.087  46.172   5.431  1.00  0.00     0.059 A 
ATOM     11  C   UNL     1      -0.467  46.796   8.115  1.00  0.00     0.122 A 
ATOM     12  C   UNL     1       0.501  46.955   7.107  1.00  0.00     0.093 A 
ATOM     13  C   UNL     1      -1.733  46.315   7.773  1.00  0.00     0.047 A 
ATOM     14  C   UNL     1       0.202  46.637   5.772  1.00  0.00     0.130 A 
ATOM     15  C   UNL     1      -2.040  46.001   6.448  1.00  0.00     0.020 A 
BRANCH  11  16
ATOM     16  O   UNL     1      -0.210  47.101   9.460  1.00  0.00    -0.497 OA
ATOM     17  C   UNL     1       0.588  48.195   9.898  1.00  0.00     0.278 C 
ENDBRANCH  11  16
BRANCH  14  18
ATOM     18  O   UNL     1       1.196  46.760   4.801  1.00  0.00    -0.507 OA
ATOM     19  H   UNL     1       1.713  45.957   4.463  1.00  0.00     0.293 HD
ENDBRANCH  14  18
ENDBRANCH   1  10
BRANCH   5  20
ATOM     20  O   UNL     1      -3.555  43.785  -1.020  1.00  0.00    -0.504 OA
ATOM     21  H   UNL     1      -3.567  42.773  -1.050  1.00  0.00     0.293 HD
ENDBRANCH   5  20
BRANCH   6  22
ATOM     22  O   UNL     1      -1.628  45.687  -1.790  1.00  0.00    -0.493 OA
ATOM     23  C   UNL     1      -0.512  45.178  -2.513  1.00  0.00     0.278 C 
ENDBRANCH   6  22
TORSDOF 5
ENDMDL
