MODEL 1
REMARK VINA RESULT:    -4.806      0.000      0.000
REMARK INTER + INTRA:          -6.583
REMARK INTER:                  -6.491
REMARK INTRA:                  -0.091
REMARK UNBOUND:                -0.091
REMARK SMILES [NH3+]CCCC[C@H]([NH3+])C(=O)[O-]
REMARK SMILES IDX 4 1 3 2 2 3 1 4 5 8 6 9 7 10 8 14 9 15 10 16
REMARK H PARENT 1 5 1 6 1 7 7 11 7 12 7 13
REMARK Flexibility Score: inf
ROOT
ATOM      1  C   UNL     1      11.380  26.592  16.742  1.00  0.00     0.012 C 
ENDROOT
BRANCH   1   2
ATOM      2  C   UNL     1      11.445  27.240  15.347  1.00  0.00     0.061 C 
BRANCH   2   3
ATOM      3  C   UNL     1      11.985  28.682  15.326  1.00  0.00     0.258 C 
BRANCH   3   4
ATOM      4  N   UNL     1      13.280  28.803  16.000  1.00  0.00    -0.358 N 
ATOM      5  H   UNL     1      14.057  28.812  15.301  1.00  0.00     0.344 HD
ATOM      6  H   UNL     1      13.409  27.984  16.637  1.00  0.00     0.344 HD
ATOM      7  H   UNL     1      13.306  29.674  16.579  1.00  0.00     0.344 HD
ENDBRANCH   3   4
ENDBRANCH   2   3
ENDBRANCH   1   2
BRANCH   1   8
ATOM      8  C   UNL     1       9.951  26.169  17.136  1.00  0.00     0.072 C 
BRANCH   8   9
ATOM      9  C   UNL     1       9.891  25.045  18.197  1.00  0.00     0.227 C 
BRANCH   9  10
ATOM     10  N   UNL     1      11.229  24.601  18.612  1.00  0.00    -0.350 N 
ATOM     11  H   UNL     1      11.449  23.686  18.155  1.00  0.00     0.345 HD
ATOM     12  H   UNL     1      11.253  24.461  19.648  1.00  0.00     0.345 HD
ATOM     13  H   UNL     1      11.964  25.292  18.342  1.00  0.00     0.345 HD
ENDBRANCH   9  10
BRANCH   9  14
ATOM     14  C   UNL     1       9.049  23.885  17.728  1.00  0.00     0.099 C 
ATOM     15  O   UNL     1       8.941  22.857  18.448  1.00  0.00    -0.544 OA
ATOM     16  O   UNL     1       8.347  23.955  16.530  1.00  0.00    -0.544 OA
ENDBRANCH   9  14
ENDBRANCH   8   9
ENDBRANCH   1   8
TORSDOF 7
ENDMDL
MODEL 2
REMARK VINA RESULT:    -4.572      2.665      5.100
REMARK INTER + INTRA:          -6.267
REMARK INTER:                  -6.159
REMARK INTRA:                  -0.108
REMARK UNBOUND:                -0.091
REMARK SMILES [NH3+]CCCC[C@H]([NH3+])C(=O)[O-]
REMARK SMILES IDX 4 1 3 2 2 3 1 4 5 8 6 9 7 10 8 14 9 15 10 16
REMARK H PARENT 1 5 1 6 1 7 7 11 7 12 7 13
REMARK Flexibility Score: inf
ROOT
ATOM      1  C   UNL     1      11.223  25.954  17.463  1.00  0.00     0.012 C 
ENDROOT
BRANCH   1   2
ATOM      2  C   UNL     1       9.806  25.500  17.860  1.00  0.00     0.061 C 
BRANCH   2   3
ATOM      3  C   UNL     1       9.726  24.098  18.491  1.00  0.00     0.258 C 
BRANCH   3   4
ATOM      4  N   UNL     1      10.762  23.883  19.506  1.00  0.00    -0.358 N 
ATOM      5  H   UNL     1      10.361  23.990  20.465  1.00  0.00     0.344 HD
ATOM      6  H   UNL     1      11.517  24.594  19.375  1.00  0.00     0.344 HD
ATOM      7  H   UNL     1      11.185  22.933  19.395  1.00  0.00     0.344 HD
ENDBRANCH   3   4
ENDBRANCH   2   3
ENDBRANCH   1   2
BRANCH   1   8
ATOM      8  C   UNL     1      11.269  27.423  16.997  1.00  0.00     0.072 C 
BRANCH   8   9
ATOM      9  C   UNL     1      12.219  27.681  15.803  1.00  0.00     0.227 C 
BRANCH   9  10
ATOM     10  N   UNL     1      13.187  28.749  16.086  1.00  0.00    -0.350 N 
ATOM     11  H   UNL     1      14.033  28.339  16.546  1.00  0.00     0.345 HD
ATOM     12  H   UNL     1      12.767  29.448  16.741  1.00  0.00     0.345 HD
ATOM     13  H   UNL     1      13.489  29.236  15.212  1.00  0.00     0.345 HD
ENDBRANCH   9  10
BRANCH   9  14
ATOM     14  C   UNL     1      11.451  27.957  14.535  1.00  0.00     0.099 C 
ATOM     15  O   UNL     1      11.533  29.088  13.986  1.00  0.00    -0.544 OA
ATOM     16  O   UNL     1      10.690  26.961  13.933  1.00  0.00    -0.544 OA
ENDBRANCH   9  14
ENDBRANCH   8   9
ENDBRANCH   1   8
TORSDOF 7
ENDMDL
MODEL 3
REMARK VINA RESULT:    -4.553      3.402      4.481
REMARK INTER + INTRA:          -6.242
REMARK INTER:                  -6.159
REMARK INTRA:                  -0.083
REMARK UNBOUND:                -0.091
REMARK SMILES [NH3+]CCCC[C@H]([NH3+])C(=O)[O-]
REMARK SMILES IDX 4 1 3 2 2 3 1 4 5 8 6 9 7 10 8 14 9 15 10 16
REMARK H PARENT 1 5 1 6 1 7 7 11 7 12 7 13
REMARK Flexibility Score: inf
ROOT
ATOM      1  C   UNL     1      10.562  26.908  14.539  1.00  0.00     0.012 C 
ENDROOT
BRANCH   1   2
ATOM      2  C   UNL     1      11.914  27.639  14.630  1.00  0.00     0.061 C 
BRANCH   2   3
ATOM      3  C   UNL     1      12.175  28.356  15.968  1.00  0.00     0.258 C 
BRANCH   3   4
ATOM      4  N   UNL     1      13.492  28.996  16.010  1.00  0.00    -0.358 N 
ATOM      5  H   UNL     1      13.480  29.892  15.472  1.00  0.00     0.344 HD
ATOM      6  H   UNL     1      14.196  28.354  15.579  1.00  0.00     0.344 HD
ATOM      7  H   UNL     1      13.776  29.174  17.001  1.00  0.00     0.344 HD
ENDBRANCH   3   4
ENDBRANCH   2   3
ENDBRANCH   1   2
BRANCH   1   8
ATOM      8  C   UNL     1      10.515  25.885  13.386  1.00  0.00     0.072 C 
BRANCH   8   9
ATOM      9  C   UNL     1       9.358  26.110  12.384  1.00  0.00     0.227 C 
BRANCH   9  10
ATOM     10  N   UNL     1       9.422  27.435  11.751  1.00  0.00    -0.350 N 
ATOM     11  H   UNL     1       9.970  28.085  12.361  1.00  0.00     0.345 HD
ATOM     12  H   UNL     1       8.458  27.826  11.644  1.00  0.00     0.345 HD
ATOM     13  H   UNL     1       9.882  27.393  10.814  1.00  0.00     0.345 HD
ENDBRANCH   9  10
BRANCH   9  14
ATOM     14  C   UNL     1       8.015  25.873  13.026  1.00  0.00     0.099 C 
ATOM     15  O   UNL     1       6.997  26.475  12.593  1.00  0.00    -0.544 OA
ATOM     16  O   UNL     1       7.874  24.956  14.062  1.00  0.00    -0.544 OA
ENDBRANCH   9  14
ENDBRANCH   8   9
ENDBRANCH   1   8
TORSDOF 7
ENDMDL
MODEL 4
REMARK VINA RESULT:    -4.457      2.813      3.302
REMARK INTER + INTRA:          -6.111
REMARK INTER:                  -5.976
REMARK INTRA:                  -0.135
REMARK UNBOUND:                -0.091
REMARK SMILES [NH3+]CCCC[C@H]([NH3+])C(=O)[O-]
REMARK SMILES IDX 4 1 3 2 2 3 1 4 5 8 6 9 7 10 8 14 9 15 10 16
REMARK H PARENT 1 5 1 6 1 7 7 11 7 12 7 13
REMARK Flexibility Score: inf
ROOT
ATOM      1  C   UNL     1      10.571  26.942  13.771  1.00  0.00     0.012 C 
ENDROOT
BRANCH   1   2
ATOM      2  C   UNL     1      11.420  27.267  15.014  1.00  0.00     0.061 C 
BRANCH   2   3
ATOM      3  C   UNL     1      12.093  28.652  14.996  1.00  0.00     0.258 C 
BRANCH   3   4
ATOM      4  N   UNL     1      13.205  28.744  15.946  1.00  0.00    -0.358 N 
ATOM      5  H   UNL     1      13.921  28.010  15.743  1.00  0.00     0.344 HD
ATOM      6  H   UNL     1      12.838  28.599  16.914  1.00  0.00     0.344 HD
ATOM      7  H   UNL     1      13.640  29.694  15.901  1.00  0.00     0.344 HD
ENDBRANCH   3   4
ENDBRANCH   2   3
ENDBRANCH   1   2
BRANCH   1   8
ATOM      8  C   UNL     1      10.079  25.481  13.752  1.00  0.00     0.072 C 
BRANCH   8   9
ATOM      9  C   UNL     1       8.545  25.325  13.871  1.00  0.00     0.227 C 
BRANCH   9  10
ATOM     10  N   UNL     1       7.828  26.521  13.405  1.00  0.00    -0.350 N 
ATOM     11  H   UNL     1       7.694  27.180  14.205  1.00  0.00     0.345 HD
ATOM     12  H   UNL     1       6.884  26.252  13.043  1.00  0.00     0.345 HD
ATOM     13  H   UNL     1       8.356  27.016  12.651  1.00  0.00     0.345 HD
ENDBRANCH   9  10
BRANCH   9  14
ATOM     14  C   UNL     1       8.134  24.951  15.273  1.00  0.00     0.099 C 
ATOM     15  O   UNL     1       7.161  24.171  15.455  1.00  0.00    -0.544 OA
ATOM     16  O   UNL     1       8.848  25.417  16.372  1.00  0.00    -0.544 OA
ENDBRANCH   9  14
ENDBRANCH   8   9
ENDBRANCH   1   8
TORSDOF 7
ENDMDL
MODEL 5
REMARK VINA RESULT:    -4.437      2.013      2.385
REMARK INTER + INTRA:          -6.085
REMARK INTER:                  -5.994
REMARK INTRA:                  -0.091
REMARK UNBOUND:                -0.091
REMARK SMILES [NH3+]CCCC[C@H]([NH3+])C(=O)[O-]
REMARK SMILES IDX 4 1 3 2 2 3 1 4 5 8 6 9 7 10 8 14 9 15 10 16
REMARK H PARENT 1 5 1 6 1 7 7 11 7 12 7 13
REMARK Flexibility Score: inf
ROOT
ATOM      1  C   UNL     1       9.989  25.950  17.797  1.00  0.00     0.012 C 
ENDROOT
BRANCH   1   2
ATOM      2  C   UNL     1      11.324  26.268  17.099  1.00  0.00     0.061 C 
BRANCH   2   3
ATOM      3  C   UNL     1      11.441  27.700  16.543  1.00  0.00     0.258 C 
BRANCH   3   4
ATOM      4  N   UNL     1      12.817  28.045  16.176  1.00  0.00    -0.358 N 
ATOM      5  H   UNL     1      13.222  28.716  16.867  1.00  0.00     0.344 HD
ATOM      6  H   UNL     1      12.814  28.494  15.232  1.00  0.00     0.344 HD
ATOM      7  H   UNL     1      13.404  27.181  16.124  1.00  0.00     0.344 HD
ENDBRANCH   3   4
ENDBRANCH   2   3
ENDBRANCH   1   2
BRANCH   1   8
ATOM      8  C   UNL     1      10.143  24.922  18.936  1.00  0.00     0.072 C 
BRANCH   8   9
ATOM      9  C   UNL     1       9.668  23.496  18.572  1.00  0.00     0.227 C 
BRANCH   9  10
ATOM     10  N   UNL     1       8.585  23.508  17.578  1.00  0.00    -0.350 N 
ATOM     11  H   UNL     1       7.846  24.186  17.878  1.00  0.00     0.345 HD
ATOM     12  H   UNL     1       8.149  22.559  17.514  1.00  0.00     0.345 HD
ATOM     13  H   UNL     1       8.932  23.792  16.635  1.00  0.00     0.345 HD
ENDBRANCH   9  10
BRANCH   9  14
ATOM     14  C   UNL     1       9.277  22.713  19.800  1.00  0.00     0.099 C 
ATOM     15  O   UNL     1       9.624  21.506  19.912  1.00  0.00    -0.544 OA
ATOM     16  O   UNL     1       8.580  23.320  20.839  1.00  0.00    -0.544 OA
ENDBRANCH   9  14
ENDBRANCH   8   9
ENDBRANCH   1   8
TORSDOF 7
ENDMDL
MODEL 6
REMARK VINA RESULT:    -4.391      3.969      4.368
REMARK INTER + INTRA:          -6.022
REMARK INTER:                  -5.959
REMARK INTRA:                  -0.063
REMARK UNBOUND:                -0.091
REMARK SMILES [NH3+]CCCC[C@H]([NH3+])C(=O)[O-]
REMARK SMILES IDX 4 1 3 2 2 3 1 4 5 8 6 9 7 10 8 14 9 15 10 16
REMARK H PARENT 1 5 1 6 1 7 7 11 7 12 7 13
REMARK Flexibility Score: inf
ROOT
ATOM      1  C   UNL     1      10.839  26.607  14.719  1.00  0.00     0.012 C 
ENDROOT
BRANCH   1   2
ATOM      2  C   UNL     1      11.781  27.825  14.694  1.00  0.00     0.061 C 
BRANCH   2   3
ATOM      3  C   UNL     1      12.220  28.335  16.078  1.00  0.00     0.258 C 
BRANCH   3   4
ATOM      4  N   UNL     1      13.517  29.015  16.037  1.00  0.00    -0.358 N 
ATOM      5  H   UNL     1      14.086  28.669  15.231  1.00  0.00     0.344 HD
ATOM      6  H   UNL     1      14.034  28.814  16.924  1.00  0.00     0.344 HD
ATOM      7  H   UNL     1      13.382  30.049  15.965  1.00  0.00     0.344 HD
ENDBRANCH   3   4
ENDBRANCH   2   3
ENDBRANCH   1   2
BRANCH   1   8
ATOM      8  C   UNL     1      10.072  26.419  13.395  1.00  0.00     0.072 C 
BRANCH   8   9
ATOM      9  C   UNL     1       8.584  26.035  13.572  1.00  0.00     0.227 C 
BRANCH   9  10
ATOM     10  N   UNL     1       8.409  24.902  14.492  1.00  0.00    -0.350 N 
ATOM     11  H   UNL     1       7.548  25.052  15.068  1.00  0.00     0.345 HD
ATOM     12  H   UNL     1       9.227  24.839  15.140  1.00  0.00     0.345 HD
ATOM     13  H   UNL     1       8.310  23.999  13.976  1.00  0.00     0.345 HD
ENDBRANCH   9  10
BRANCH   9  14
ATOM     14  C   UNL     1       7.919  25.771  12.244  1.00  0.00     0.099 C 
ATOM     15  O   UNL     1       6.746  26.182  12.038  1.00  0.00    -0.544 OA
ATOM     16  O   UNL     1       8.603  25.123  11.222  1.00  0.00    -0.544 OA
ENDBRANCH   9  14
ENDBRANCH   8   9
ENDBRANCH   1   8
TORSDOF 7
ENDMDL
MODEL 7
REMARK VINA RESULT:    -4.322      2.634      3.069
REMARK INTER + INTRA:          -5.930
REMARK INTER:                  -5.812
REMARK INTRA:                  -0.117
REMARK UNBOUND:                -0.091
REMARK SMILES [NH3+]CCCC[C@H]([NH3+])C(=O)[O-]
REMARK SMILES IDX 4 1 3 2 2 3 1 4 5 8 6 9 7 10 8 14 9 15 10 16
REMARK H PARENT 1 5 1 6 1 7 7 11 7 12 7 13
REMARK Flexibility Score: inf
ROOT
ATOM      1  C   UNL     1      10.064  26.300  17.403  1.00  0.00     0.012 C 
ENDROOT
BRANCH   1   2
ATOM      2  C   UNL     1      11.462  26.618  16.840  1.00  0.00     0.061 C 
BRANCH   2   3
ATOM      3  C   UNL     1      11.613  28.026  16.236  1.00  0.00     0.258 C 
BRANCH   3   4
ATOM      4  N   UNL     1      13.016  28.420  16.083  1.00  0.00    -0.358 N 
ATOM      5  H   UNL     1      13.240  28.592  15.076  1.00  0.00     0.344 HD
ATOM      6  H   UNL     1      13.626  27.648  16.437  1.00  0.00     0.344 HD
ATOM      7  H   UNL     1      13.214  29.278  16.647  1.00  0.00     0.344 HD
ENDBRANCH   3   4
ENDBRANCH   2   3
ENDBRANCH   1   2
BRANCH   1   8
ATOM      8  C   UNL     1       9.424  25.062  16.744  1.00  0.00     0.072 C 
BRANCH   8   9
ATOM      9  C   UNL     1       8.155  25.368  15.915  1.00  0.00     0.227 C 
BRANCH   9  10
ATOM     10  N   UNL     1       7.131  24.324  16.062  1.00  0.00    -0.350 N 
ATOM     11  H   UNL     1       6.236  24.651  15.631  1.00  0.00     0.345 HD
ATOM     12  H   UNL     1       6.955  24.138  17.076  1.00  0.00     0.345 HD
ATOM     13  H   UNL     1       7.419  23.435  15.595  1.00  0.00     0.345 HD
ENDBRANCH   9  10
BRANCH   9  14
ATOM     14  C   UNL     1       8.486  25.611  14.464  1.00  0.00     0.099 C 
ATOM     15  O   UNL     1       9.690  25.672  14.097  1.00  0.00    -0.544 OA
ATOM     16  O   UNL     1       7.478  25.720  13.513  1.00  0.00    -0.544 OA
ENDBRANCH   9  14
ENDBRANCH   8   9
ENDBRANCH   1   8
TORSDOF 7
ENDMDL
MODEL 8
REMARK VINA RESULT:    -4.151      1.759      1.947
REMARK INTER + INTRA:          -5.699
REMARK INTER:                  -5.593
REMARK INTRA:                  -0.106
REMARK UNBOUND:                -0.091
REMARK SMILES [NH3+]CCCC[C@H]([NH3+])C(=O)[O-]
REMARK SMILES IDX 4 1 3 2 2 3 1 4 5 8 6 9 7 10 8 14 9 15 10 16
REMARK H PARENT 1 5 1 6 1 7 7 11 7 12 7 13
REMARK Flexibility Score: inf
ROOT
ATOM      1  C   UNL     1      11.254  26.492  16.969  1.00  0.00     0.012 C 
ENDROOT
BRANCH   1   2
ATOM      2  C   UNL     1      11.199  26.946  15.499  1.00  0.00     0.061 C 
BRANCH   2   3
ATOM      3  C   UNL     1      11.939  28.262  15.197  1.00  0.00     0.258 C 
BRANCH   3   4
ATOM      4  N   UNL     1      11.480  28.888  13.954  1.00  0.00    -0.358 N 
ATOM      5  H   UNL     1      11.910  29.834  13.841  1.00  0.00     0.344 HD
ATOM      6  H   UNL     1      10.441  28.992  13.990  1.00  0.00     0.344 HD
ATOM      7  H   UNL     1      11.719  28.283  13.136  1.00  0.00     0.344 HD
ENDBRANCH   3   4
ENDBRANCH   2   3
ENDBRANCH   1   2
BRANCH   1   8
ATOM      8  C   UNL     1       9.874  26.075  17.516  1.00  0.00     0.072 C 
BRANCH   8   9
ATOM      9  C   UNL     1       9.620  24.549  17.503  1.00  0.00     0.227 C 
BRANCH   9  10
ATOM     10  N   UNL     1       8.362  24.202  16.827  1.00  0.00    -0.350 N 
ATOM     11  H   UNL     1       7.880  23.442  17.360  1.00  0.00     0.345 HD
ATOM     12  H   UNL     1       8.561  23.848  15.863  1.00  0.00     0.345 HD
ATOM     13  H   UNL     1       7.720  25.023  16.765  1.00  0.00     0.345 HD
ENDBRANCH   9  10
BRANCH   9  14
ATOM     14  C   UNL     1       9.676  23.967  18.893  1.00  0.00     0.099 C 
ATOM     15  O   UNL     1      10.145  24.651  19.841  1.00  0.00    -0.544 OA
ATOM     16  O   UNL     1       9.168  22.699  19.153  1.00  0.00    -0.544 OA
ENDBRANCH   9  14
ENDBRANCH   8   9
ENDBRANCH   1   8
TORSDOF 7
ENDMDL
MODEL 9
REMARK VINA RESULT:    -4.015      2.849      4.164
REMARK INTER + INTRA:          -5.515
REMARK INTER:                  -5.073
REMARK INTRA:                  -0.442
REMARK UNBOUND:                -0.091
REMARK SMILES [NH3+]CCCC[C@H]([NH3+])C(=O)[O-]
REMARK SMILES IDX 4 1 3 2 2 3 1 4 5 8 6 9 7 10 8 14 9 15 10 16
REMARK H PARENT 1 5 1 6 1 7 7 11 7 12 7 13
REMARK Flexibility Score: inf
ROOT
ATOM      1  C   UNL     1      10.198  26.848  13.794  1.00  0.00     0.012 C 
ENDROOT
BRANCH   1   2
ATOM      2  C   UNL     1       9.938  25.424  13.267  1.00  0.00     0.061 C 
BRANCH   2   3
ATOM      3  C   UNL     1       8.606  24.798  13.719  1.00  0.00     0.258 C 
BRANCH   3   4
ATOM      4  N   UNL     1       8.102  25.395  14.959  1.00  0.00    -0.358 N 
ATOM      5  H   UNL     1       7.104  25.685  14.846  1.00  0.00     0.344 HD
ATOM      6  H   UNL     1       8.674  26.239  15.187  1.00  0.00     0.344 HD
ATOM      7  H   UNL     1       8.192  24.716  15.750  1.00  0.00     0.344 HD
ENDBRANCH   3   4
ENDBRANCH   2   3
ENDBRANCH   1   2
BRANCH   1   8
ATOM      8  C   UNL     1      11.583  26.994  14.455  1.00  0.00     0.072 C 
BRANCH   8   9
ATOM      9  C   UNL     1      11.542  27.543  15.901  1.00  0.00     0.227 C 
BRANCH   9  10
ATOM     10  N   UNL     1      12.800  28.200  16.281  1.00  0.00    -0.350 N 
ATOM     11  H   UNL     1      13.530  27.473  16.465  1.00  0.00     0.345 HD
ATOM     12  H   UNL     1      12.663  28.752  17.159  1.00  0.00     0.345 HD
ATOM     13  H   UNL     1      13.146  28.834  15.527  1.00  0.00     0.345 HD
ENDBRANCH   9  10
BRANCH   9  14
ATOM     14  C   UNL     1      11.163  26.469  16.890  1.00  0.00     0.099 C 
ATOM     15  O   UNL     1      12.062  25.799  17.464  1.00  0.00    -0.544 OA
ATOM     16  O   UNL     1       9.830  26.241  17.216  1.00  0.00    -0.544 OA
ENDBRANCH   9  14
ENDBRANCH   8   9
ENDBRANCH   1   8
TORSDOF 7
ENDMDL
