MODEL 1
REMARK VINA RESULT:    -1.942      0.000      0.000
REMARK INTER + INTRA:          -2.843
REMARK INTER:                  -2.624
REMARK INTRA:                  -0.220
REMARK UNBOUND:                -0.220
REMARK SMILES CCCCCCC=CC(=O)[O-]
REMARK SMILES IDX 5 1 6 2 7 3 8 4 9 5 10 6 11 7 4 8 3 9 2 10 1 11
REMARK H PARENT
REMARK Flexibility Score: inf
ROOT
ATOM      1  C   UNL     1      52.955 147.266  -0.365  1.00  0.00     0.004 C 
ENDROOT
BRANCH   1   2
ATOM      2  C   UNL     1      53.803 148.125  -1.312  1.00  0.00     0.027 C 
BRANCH   2   3
ATOM      3  C   UNL     1      53.237 148.124  -2.702  1.00  0.00    -0.025 C 
ATOM      4  C   UNL     1      53.976 147.770  -3.758  1.00  0.00     0.020 C 
BRANCH   4   5
ATOM      5  C   UNL     1      53.437 147.778  -5.126  1.00  0.00     0.064 C 
ATOM      6  O   UNL     1      54.223 147.892  -6.102  1.00  0.00    -0.545 OA
ATOM      7  O   UNL     1      52.071 147.660  -5.359  1.00  0.00    -0.545 OA
ENDBRANCH   4   5
ENDBRANCH   2   3
ENDBRANCH   1   2
BRANCH   1   8
ATOM      8  C   UNL     1      52.320 148.125   0.736  1.00  0.00     0.000 C 
BRANCH   8   9
ATOM      9  C   UNL     1      51.310 147.308   1.556  1.00  0.00    -0.000 C 
BRANCH   9  10
ATOM     10  C   UNL     1      49.954 148.016   1.695  1.00  0.00    -0.003 C 
ATOM     11  C   UNL     1      49.085 147.883   0.444  1.00  0.00     0.004 C 
ENDBRANCH   9  10
ENDBRANCH   8   9
ENDBRANCH   1   8
TORSDOF 6
ENDMDL
MODEL 2
REMARK VINA RESULT:    -1.495     22.032     23.100
REMARK INTER + INTRA:          -2.239
REMARK INTER:                  -1.868
REMARK INTRA:                  -0.371
REMARK UNBOUND:                -0.220
REMARK SMILES CCCCCCC=CC(=O)[O-]
REMARK SMILES IDX 5 1 6 2 7 3 8 4 9 5 10 6 11 7 4 8 3 9 2 10 1 11
REMARK H PARENT
REMARK Flexibility Score: inf
ROOT
ATOM      1  C   UNL     1      64.230 130.059  -7.473  1.00  0.00     0.004 C 
ENDROOT
BRANCH   1   2
ATOM      2  C   UNL     1      64.113 128.607  -7.954  1.00  0.00     0.027 C 
BRANCH   2   3
ATOM      3  C   UNL     1      62.801 128.002  -7.545  1.00  0.00    -0.025 C 
ATOM      4  C   UNL     1      61.861 128.725  -6.929  1.00  0.00     0.020 C 
BRANCH   4   5
ATOM      5  C   UNL     1      60.577 128.141  -6.511  1.00  0.00     0.064 C 
ATOM      6  O   UNL     1      59.703 127.879  -7.377  1.00  0.00    -0.545 OA
ATOM      7  O   UNL     1      60.313 127.875  -5.172  1.00  0.00    -0.545 OA
ENDBRANCH   4   5
ENDBRANCH   2   3
ENDBRANCH   1   2
BRANCH   1   8
ATOM      8  C   UNL     1      65.430 130.759  -8.125  1.00  0.00     0.000 C 
BRANCH   8   9
ATOM      9  C   UNL     1      66.747 130.081  -7.721  1.00  0.00    -0.000 C 
BRANCH   9  10
ATOM     10  C   UNL     1      66.929 130.009  -6.197  1.00  0.00    -0.003 C 
ATOM     11  C   UNL     1      67.018 128.574  -5.679  1.00  0.00     0.004 C 
ENDBRANCH   9  10
ENDBRANCH   8   9
ENDBRANCH   1   8
TORSDOF 6
ENDMDL
MODEL 3
REMARK VINA RESULT:    -0.398     21.090     22.382
REMARK INTER + INTRA:          -0.757
REMARK INTER:                  -0.276
REMARK INTRA:                  -0.481
REMARK UNBOUND:                -0.220
REMARK SMILES CCCCCCC=CC(=O)[O-]
REMARK SMILES IDX 5 1 6 2 7 3 8 4 9 5 10 6 11 7 4 8 3 9 2 10 1 11
REMARK H PARENT
REMARK Flexibility Score: inf
ROOT
ATOM      1  C   UNL     1      62.130 130.787  -7.041  1.00  0.00     0.004 C 
ENDROOT
BRANCH   1   2
ATOM      2  C   UNL     1      62.952 131.560  -8.080  1.00  0.00     0.027 C 
BRANCH   2   3
ATOM      3  C   UNL     1      64.370 131.070  -8.124  1.00  0.00    -0.025 C 
ATOM      4  C   UNL     1      64.945 130.496  -7.063  1.00  0.00     0.020 C 
BRANCH   4   5
ATOM      5  C   UNL     1      66.338 130.024  -7.089  1.00  0.00     0.064 C 
ATOM      6  O   UNL     1      67.104 130.401  -8.012  1.00  0.00    -0.545 OA
ATOM      7  O   UNL     1      66.823 129.167  -6.106  1.00  0.00    -0.545 OA
ENDBRANCH   4   5
ENDBRANCH   2   3
ENDBRANCH   1   2
BRANCH   1   8
ATOM      8  C   UNL     1      61.454 129.563  -7.673  1.00  0.00     0.000 C 
BRANCH   8   9
ATOM      9  C   UNL     1      61.549 128.344  -6.745  1.00  0.00    -0.000 C 
BRANCH   9  10
ATOM     10  C   UNL     1      62.997 127.875  -6.534  1.00  0.00    -0.003 C 
ATOM     11  C   UNL     1      63.415 127.887  -5.064  1.00  0.00     0.004 C 
ENDBRANCH   9  10
ENDBRANCH   8   9
ENDBRANCH   1   8
TORSDOF 6
ENDMDL
MODEL 4
REMARK VINA RESULT:    -0.313     21.167     22.406
REMARK INTER + INTRA:          -0.642
REMARK INTER:                  -0.511
REMARK INTRA:                  -0.131
REMARK UNBOUND:                -0.220
REMARK SMILES CCCCCCC=CC(=O)[O-]
REMARK SMILES IDX 5 1 6 2 7 3 8 4 9 5 10 6 11 7 4 8 3 9 2 10 1 11
REMARK H PARENT
REMARK Flexibility Score: inf
ROOT
ATOM      1  C   UNL     1      62.407 130.906  -6.551  1.00  0.00     0.004 C 
ENDROOT
BRANCH   1   2
ATOM      2  C   UNL     1      62.820 130.583  -7.992  1.00  0.00     0.027 C 
BRANCH   2   3
ATOM      3  C   UNL     1      64.313 130.499  -8.125  1.00  0.00    -0.025 C 
ATOM      4  C   UNL     1      64.971 129.357  -7.902  1.00  0.00     0.020 C 
BRANCH   4   5
ATOM      5  C   UNL     1      66.435 129.264  -8.015  1.00  0.00     0.064 C 
ATOM      6  O   UNL     1      67.122 130.317  -8.066  1.00  0.00    -0.545 OA
ATOM      7  O   UNL     1      67.073 128.030  -8.065  1.00  0.00    -0.545 OA
ENDBRANCH   4   5
ENDBRANCH   2   3
ENDBRANCH   1   2
BRANCH   1   8
ATOM      8  C   UNL     1      62.379 129.636  -5.689  1.00  0.00     0.000 C 
BRANCH   8   9
ATOM      9  C   UNL     1      61.971 128.414  -6.525  1.00  0.00    -0.000 C 
BRANCH   9  10
ATOM     10  C   UNL     1      60.476 128.085  -6.396  1.00  0.00    -0.003 C 
ATOM     11  C   UNL     1      60.008 128.016  -4.942  1.00  0.00     0.004 C 
ENDBRANCH   9  10
ENDBRANCH   8   9
ENDBRANCH   1   8
TORSDOF 6
ENDMDL
MODEL 5
REMARK VINA RESULT:     0.008      1.791      2.468
REMARK INTER + INTRA:          -0.209
REMARK INTER:                   0.082
REMARK INTRA:                  -0.291
REMARK UNBOUND:                -0.220
REMARK SMILES CCCCCCC=CC(=O)[O-]
REMARK SMILES IDX 5 1 6 2 7 3 8 4 9 5 10 6 11 7 4 8 3 9 2 10 1 11
REMARK H PARENT
REMARK Flexibility Score: inf
ROOT
ATOM      1  C   UNL     1      53.237 147.122   1.860  1.00  0.00     0.004 C 
ENDROOT
BRANCH   1   2
ATOM      2  C   UNL     1      53.426 148.125   0.715  1.00  0.00     0.027 C 
BRANCH   2   3
ATOM      3  C   UNL     1      54.264 147.542  -0.386  1.00  0.00    -0.025 C 
ATOM      4  C   UNL     1      54.331 148.115  -1.592  1.00  0.00     0.020 C 
BRANCH   4   5
ATOM      5  C   UNL     1      55.137 147.547  -2.683  1.00  0.00     0.064 C 
ATOM      6  O   UNL     1      54.934 147.923  -3.866  1.00  0.00    -0.545 OA
ATOM      7  O   UNL     1      56.122 146.598  -2.428  1.00  0.00    -0.545 OA
ENDBRANCH   4   5
ENDBRANCH   2   3
ENDBRANCH   1   2
BRANCH   1   8
ATOM      8  C   UNL     1      51.765 146.714   1.997  1.00  0.00     0.000 C 
BRANCH   8   9
ATOM      9  C   UNL     1      50.837 147.831   1.497  1.00  0.00    -0.000 C 
BRANCH   9  10
ATOM     10  C   UNL     1      49.359 147.410   1.489  1.00  0.00    -0.003 C 
ATOM     11  C   UNL     1      48.564 148.060   0.357  1.00  0.00     0.004 C 
ENDBRANCH   9  10
ENDBRANCH   8   9
ENDBRANCH   1   8
TORSDOF 6
ENDMDL
