MODEL 1
REMARK VINA RESULT:    -7.061      0.000      0.000
REMARK INTER + INTRA:         -10.795
REMARK INTER:                  -9.537
REMARK INTRA:                  -1.258
REMARK UNBOUND:                -1.258
REMARK SMILES O=c1c(-c2ccc(O)cc2)coc2c([C@H]3O[C@H](CO)[C@H](O)[C@@H](O)[C@@H]3O)c(O)ccc12
REMARK SMILES IDX 3 1 11 2 12 3 13 4 30 5 2 6 1 7 29 8 28 9 26 10 14 11 4 12
REMARK SMILES IDX 5 13 6 14 7 15 10 16 9 17 8 18 15 20 24 21 16 22 22 23 17 24
REMARK SMILES IDX 20 25 25 26 23 28 18 30 19 31 21 33 27 35
REMARK H PARENT 8 19 25 27 23 29 19 32 21 34 27 36
REMARK Flexibility Score: inf
ROOT
ATOM      1  C   UNL     1       8.574 -56.572  16.965  1.00  0.00     0.065 A 
ATOM      2  C   UNL     1       9.593 -57.119  17.740  1.00  0.00     0.208 A 
ATOM      3  O   UNL     1      10.681 -56.413  18.020  1.00  0.00    -0.463 OA
ATOM      4  C   UNL     1      10.867 -55.159  17.606  1.00  0.00     0.147 A 
ATOM      5  C   UNL     1       9.909 -54.565  16.747  1.00  0.00     0.066 A 
ATOM      6  C   UNL     1       8.749 -55.287  16.425  1.00  0.00     0.200 A 
ATOM      7  O   UNL     1       7.853 -54.769  15.702  1.00  0.00    -0.288 OA
ATOM      8  C   UNL     1      10.084 -53.246  16.316  1.00  0.00     0.020 A 
ATOM      9  C   UNL     1      11.050 -52.463  16.917  1.00  0.00     0.047 A 
ATOM     10  C   UNL     1      11.924 -53.000  17.865  1.00  0.00     0.125 A 
ATOM     11  C   UNL     1      11.989 -54.403  18.074  1.00  0.00     0.069 A 
ENDROOT
BRANCH   1  12
ATOM     12  C   UNL     1       7.291 -57.305  16.817  1.00  0.00    -0.011 A 
ATOM     13  C   UNL     1       7.104 -58.232  15.777  1.00  0.00     0.013 A 
ATOM     14  C   UNL     1       5.861 -58.863  15.614  1.00  0.00     0.047 A 
ATOM     15  C   UNL     1       4.786 -58.532  16.448  1.00  0.00     0.115 A 
ATOM     16  C   UNL     1       6.221 -57.019  17.684  1.00  0.00     0.013 A 
ATOM     17  C   UNL     1       4.973 -57.620  17.493  1.00  0.00     0.047 A 
BRANCH  15  18
ATOM     18  O   UNL     1       3.537 -59.101  16.221  1.00  0.00    -0.508 OA
ATOM     19  H   UNL     1       2.915 -58.750  15.501  1.00  0.00     0.293 HD
ENDBRANCH  15  18
ENDBRANCH   1  12
BRANCH  11  20
ATOM     20  C   UNL     1      13.160 -55.073  18.847  1.00  0.00     0.188 C 
ATOM     21  C   UNL     1      12.891 -55.227  20.392  1.00  0.00     0.179 C 
ATOM     22  O   UNL     1      14.335 -54.293  18.630  1.00  0.00    -0.362 OA
ATOM     23  C   UNL     1      14.165 -55.536  21.228  1.00  0.00     0.177 C 
ATOM     24  C   UNL     1      15.509 -54.840  19.207  1.00  0.00     0.176 C 
ATOM     25  C   UNL     1      15.412 -54.789  20.744  1.00  0.00     0.177 C 
BRANCH  21  26
ATOM     26  O   UNL     1      11.959 -56.241  20.663  1.00  0.00    -0.387 OA
ATOM     27  H   UNL     1      11.471 -56.430  19.810  1.00  0.00     0.211 HD
ENDBRANCH  21  26
BRANCH  23  28
ATOM     28  O   UNL     1      13.965 -55.262  22.595  1.00  0.00    -0.387 OA
ATOM     29  H   UNL     1      13.477 -56.025  23.004  1.00  0.00     0.211 HD
ENDBRANCH  23  28
BRANCH  24  30
ATOM     30  C   UNL     1      15.892 -56.219  18.609  1.00  0.00     0.191 C 
BRANCH  30  31
ATOM     31  O   UNL     1      16.316 -56.084  17.275  1.00  0.00    -0.394 OA
ATOM     32  H   UNL     1      16.042 -56.912  16.795  1.00  0.00     0.210 HD
ENDBRANCH  30  31
ENDBRANCH  24  30
BRANCH  25  33
ATOM     33  O   UNL     1      16.555 -55.330  21.354  1.00  0.00    -0.388 OA
ATOM     34  H   UNL     1      16.327 -56.255  21.629  1.00  0.00     0.211 HD
ENDBRANCH  25  33
ENDBRANCH  11  20
BRANCH  10  35
ATOM     35  O   UNL     1      12.662 -52.108  18.646  1.00  0.00    -0.507 OA
ATOM     36  H   UNL     1      13.673 -52.081  18.614  1.00  0.00     0.293 HD
ENDBRANCH  10  35
TORSDOF 9
ENDMDL
MODEL 2
REMARK VINA RESULT:    -6.844      1.829      8.293
REMARK INTER + INTRA:         -10.503
REMARK INTER:                  -9.560
REMARK INTRA:                  -0.943
REMARK UNBOUND:                -1.258
REMARK SMILES O=c1c(-c2ccc(O)cc2)coc2c([C@H]3O[C@H](CO)[C@H](O)[C@@H](O)[C@@H]3O)c(O)ccc12
REMARK SMILES IDX 3 1 11 2 12 3 13 4 30 5 2 6 1 7 29 8 28 9 26 10 14 11 4 12
REMARK SMILES IDX 5 13 6 14 7 15 10 16 9 17 8 18 15 20 24 21 16 22 22 23 17 24
REMARK SMILES IDX 20 25 25 26 23 28 18 30 19 31 21 33 27 35
REMARK H PARENT 8 19 25 27 23 29 19 32 21 34 27 36
REMARK Flexibility Score: inf
ROOT
ATOM      1  C   UNL     1      13.047 -54.462  20.080  1.00  0.00     0.065 A 
ATOM      2  C   UNL     1      12.024 -55.407  20.061  1.00  0.00     0.208 A 
ATOM      3  O   UNL     1      11.089 -55.372  19.120  1.00  0.00    -0.463 OA
ATOM      4  C   UNL     1      11.069 -54.465  18.141  1.00  0.00     0.147 A 
ATOM      5  C   UNL     1      12.032 -53.425  18.143  1.00  0.00     0.066 A 
ATOM      6  C   UNL     1      13.030 -53.429  19.129  1.00  0.00     0.200 A 
ATOM      7  O   UNL     1      13.931 -52.544  19.129  1.00  0.00    -0.288 OA
ATOM      8  C   UNL     1      12.030 -52.476  17.116  1.00  0.00     0.020 A 
ATOM      9  C   UNL     1      11.255 -52.697  15.994  1.00  0.00     0.047 A 
ATOM     10  C   UNL     1      10.393 -53.793  15.920  1.00  0.00     0.125 A 
ATOM     11  C   UNL     1      10.126 -54.580  17.072  1.00  0.00     0.069 A 
ENDROOT
BRANCH   1  12
ATOM     12  C   UNL     1      14.180 -54.626  21.025  1.00  0.00    -0.011 A 
ATOM     13  C   UNL     1      14.551 -53.587  21.896  1.00  0.00     0.013 A 
ATOM     14  C   UNL     1      15.669 -53.737  22.732  1.00  0.00     0.047 A 
ATOM     15  C   UNL     1      16.450 -54.896  22.665  1.00  0.00     0.115 A 
ATOM     16  C   UNL     1      14.940 -55.809  21.002  1.00  0.00     0.013 A 
ATOM     17  C   UNL     1      16.076 -55.938  21.809  1.00  0.00     0.047 A 
BRANCH  15  18
ATOM     18  O   UNL     1      17.603 -54.995  23.437  1.00  0.00    -0.508 OA
ATOM     19  H   UNL     1      17.587 -54.845  24.440  1.00  0.00     0.293 HD
ENDBRANCH  15  18
ENDBRANCH   1  12
BRANCH  11  20
ATOM     20  C   UNL     1       8.934 -55.577  17.136  1.00  0.00     0.188 C 
ATOM     21  C   UNL     1       9.327 -57.056  16.757  1.00  0.00     0.179 C 
ATOM     22  O   UNL     1       7.913 -55.102  16.260  1.00  0.00    -0.362 OA
ATOM     23  C   UNL     1       8.110 -57.974  16.450  1.00  0.00     0.177 C 
ATOM     24  C   UNL     1       6.722 -55.872  16.285  1.00  0.00     0.176 C 
ATOM     25  C   UNL     1       6.985 -57.268  15.688  1.00  0.00     0.177 C 
BRANCH  21  26
ATOM     26  O   UNL     1      10.072 -57.676  17.772  1.00  0.00    -0.387 OA
ATOM     27  H   UNL     1      10.636 -58.379  17.337  1.00  0.00     0.211 HD
ENDBRANCH  21  26
BRANCH  23  28
ATOM     28  O   UNL     1       8.499 -59.124  15.737  1.00  0.00    -0.387 OA
ATOM     29  H   UNL     1       8.526 -59.894  16.365  1.00  0.00     0.211 HD
ENDBRANCH  23  28
BRANCH  24  30
ATOM     30  C   UNL     1       6.024 -55.861  17.671  1.00  0.00     0.191 C 
BRANCH  30  31
ATOM     31  O   UNL     1       5.632 -54.556  18.021  1.00  0.00    -0.394 OA
ATOM     32  H   UNL     1       6.385 -53.950  17.782  1.00  0.00     0.210 HD
ENDBRANCH  30  31
ENDBRANCH  24  30
BRANCH  25  33
ATOM     33  O   UNL     1       5.830 -58.064  15.702  1.00  0.00    -0.388 OA
ATOM     34  H   UNL     1       5.383 -57.944  14.825  1.00  0.00     0.211 HD
ENDBRANCH  25  33
ENDBRANCH  11  20
BRANCH  10  35
ATOM     35  O   UNL     1       9.875 -54.128  14.667  1.00  0.00    -0.507 OA
ATOM     36  H   UNL     1       9.444 -55.027  14.490  1.00  0.00     0.293 HD
ENDBRANCH  10  35
TORSDOF 9
ENDMDL
MODEL 3
REMARK VINA RESULT:    -6.566      3.192      8.967
REMARK INTER + INTRA:         -10.126
REMARK INTER:                  -9.997
REMARK INTRA:                  -0.129
REMARK UNBOUND:                -1.258
REMARK SMILES O=c1c(-c2ccc(O)cc2)coc2c([C@H]3O[C@H](CO)[C@H](O)[C@@H](O)[C@@H]3O)c(O)ccc12
REMARK SMILES IDX 3 1 11 2 12 3 13 4 30 5 2 6 1 7 29 8 28 9 26 10 14 11 4 12
REMARK SMILES IDX 5 13 6 14 7 15 10 16 9 17 8 18 15 20 24 21 16 22 22 23 17 24
REMARK SMILES IDX 20 25 25 26 23 28 18 30 19 31 21 33 27 35
REMARK H PARENT 8 19 25 27 23 29 19 32 21 34 27 36
REMARK Flexibility Score: inf
ROOT
ATOM      1  C   UNL     1      15.241 -53.629  19.561  1.00  0.00     0.065 A 
ATOM      2  C   UNL     1      14.131 -52.818  19.335  1.00  0.00     0.208 A 
ATOM      3  O   UNL     1      13.198 -53.178  18.464  1.00  0.00    -0.463 OA
ATOM      4  C   UNL     1      13.242 -54.317  17.772  1.00  0.00     0.147 A 
ATOM      5  C   UNL     1      14.380 -55.154  17.890  1.00  0.00     0.066 A 
ATOM      6  C   UNL     1      15.389 -54.799  18.798  1.00  0.00     0.200 A 
ATOM      7  O   UNL     1      16.393 -55.547  18.962  1.00  0.00    -0.288 OA
ATOM      8  C   UNL     1      14.433 -56.358  17.181  1.00  0.00     0.020 A 
ATOM      9  C   UNL     1      13.290 -56.832  16.567  1.00  0.00     0.047 A 
ATOM     10  C   UNL     1      12.116 -56.074  16.552  1.00  0.00     0.125 A 
ATOM     11  C   UNL     1      12.127 -54.717  16.969  1.00  0.00     0.069 A 
ENDROOT
BRANCH   1  12
ATOM     12  C   UNL     1      16.176 -53.303  20.667  1.00  0.00    -0.011 A 
ATOM     13  C   UNL     1      17.358 -52.582  20.424  1.00  0.00     0.013 A 
ATOM     14  C   UNL     1      18.262 -52.344  21.471  1.00  0.00     0.047 A 
ATOM     15  C   UNL     1      18.020 -52.867  22.747  1.00  0.00     0.115 A 
ATOM     16  C   UNL     1      15.914 -53.780  21.964  1.00  0.00     0.013 A 
ATOM     17  C   UNL     1      16.837 -53.573  22.995  1.00  0.00     0.047 A 
BRANCH  15  18
ATOM     18  O   UNL     1      18.965 -52.697  23.752  1.00  0.00    -0.508 OA
ATOM     19  H   UNL     1      19.942 -52.931  23.611  1.00  0.00     0.293 HD
ENDBRANCH  15  18
ENDBRANCH   1  12
BRANCH  11  20
ATOM     20  C   UNL     1      10.956 -53.744  16.653  1.00  0.00     0.188 C 
ATOM     21  C   UNL     1       9.640 -54.471  16.180  1.00  0.00     0.179 C 
ATOM     22  O   UNL     1      11.398 -52.831  15.650  1.00  0.00    -0.362 OA
ATOM     23  C   UNL     1       8.602 -53.527  15.510  1.00  0.00     0.177 C 
ATOM     24  C   UNL     1      10.455 -51.823  15.326  1.00  0.00     0.176 C 
ATOM     25  C   UNL     1       9.235 -52.450  14.625  1.00  0.00     0.177 C 
BRANCH  21  26
ATOM     26  O   UNL     1       8.990 -55.120  17.242  1.00  0.00    -0.387 OA
ATOM     27  H   UNL     1       9.273 -54.662  18.086  1.00  0.00     0.211 HD
ENDBRANCH  21  26
BRANCH  23  28
ATOM     28  O   UNL     1       7.660 -54.251  14.754  1.00  0.00    -0.387 OA
ATOM     29  H   UNL     1       6.759 -53.865  14.914  1.00  0.00     0.211 HD
ENDBRANCH  23  28
BRANCH  24  30
ATOM     30  C   UNL     1      10.129 -50.892  16.524  1.00  0.00     0.191 C 
BRANCH  30  31
ATOM     31  O   UNL     1      11.242 -50.100  16.856  1.00  0.00    -0.394 OA
ATOM     32  H   UNL     1      11.445 -49.532  16.064  1.00  0.00     0.210 HD
ENDBRANCH  30  31
ENDBRANCH  24  30
BRANCH  25  33
ATOM     33  O   UNL     1       8.273 -51.483  14.294  1.00  0.00    -0.388 OA
ATOM     34  H   UNL     1       7.472 -51.969  13.971  1.00  0.00     0.211 HD
ENDBRANCH  25  33
ENDBRANCH  11  20
BRANCH  10  35
ATOM     35  O   UNL     1      10.932 -56.722  16.193  1.00  0.00    -0.507 OA
ATOM     36  H   UNL     1      10.024 -56.302  16.352  1.00  0.00     0.293 HD
ENDBRANCH  10  35
TORSDOF 9
ENDMDL
MODEL 4
REMARK VINA RESULT:    -6.542      1.951      3.336
REMARK INTER + INTRA:         -10.094
REMARK INTER:                  -8.783
REMARK INTRA:                  -1.312
REMARK UNBOUND:                -1.258
REMARK SMILES O=c1c(-c2ccc(O)cc2)coc2c([C@H]3O[C@H](CO)[C@H](O)[C@@H](O)[C@@H]3O)c(O)ccc12
REMARK SMILES IDX 3 1 11 2 12 3 13 4 30 5 2 6 1 7 29 8 28 9 26 10 14 11 4 12
REMARK SMILES IDX 5 13 6 14 7 15 10 16 9 17 8 18 15 20 24 21 16 22 22 23 17 24
REMARK SMILES IDX 20 25 25 26 23 28 18 30 19 31 21 33 27 35
REMARK H PARENT 8 19 25 27 23 29 19 32 21 34 27 36
REMARK Flexibility Score: inf
ROOT
ATOM      1  C   UNL     1       8.863 -56.960  16.771  1.00  0.00     0.065 A 
ATOM      2  C   UNL     1       9.241 -56.032  17.739  1.00  0.00     0.208 A 
ATOM      3  O   UNL     1      10.502 -55.954  18.143  1.00  0.00    -0.463 OA
ATOM      4  C   UNL     1      11.477 -56.723  17.655  1.00  0.00     0.147 A 
ATOM      5  C   UNL     1      11.153 -57.743  16.726  1.00  0.00     0.066 A 
ATOM      6  C   UNL     1       9.826 -57.858  16.283  1.00  0.00     0.200 A 
ATOM      7  O   UNL     1       9.513 -58.725  15.420  1.00  0.00    -0.288 OA
ATOM      8  C   UNL     1      12.166 -58.547  16.196  1.00  0.00     0.020 A 
ATOM      9  C   UNL     1      13.485 -58.189  16.395  1.00  0.00     0.047 A 
ATOM     10  C   UNL     1      13.821 -57.103  17.206  1.00  0.00     0.125 A 
ATOM     11  C   UNL     1      12.839 -56.478  18.019  1.00  0.00     0.069 A 
ENDROOT
BRANCH   1  12
ATOM     12  C   UNL     1       7.493 -56.909  16.202  1.00  0.00    -0.011 A 
ATOM     13  C   UNL     1       6.425 -57.577  16.826  1.00  0.00     0.013 A 
ATOM     14  C   UNL     1       5.153 -57.574  16.234  1.00  0.00     0.047 A 
ATOM     15  C   UNL     1       4.952 -56.955  14.995  1.00  0.00     0.115 A 
ATOM     16  C   UNL     1       7.269 -56.244  14.982  1.00  0.00     0.013 A 
ATOM     17  C   UNL     1       6.009 -56.277  14.377  1.00  0.00     0.047 A 
BRANCH  15  18
ATOM     18  O   UNL     1       3.707 -57.034  14.379  1.00  0.00    -0.508 OA
ATOM     19  H   UNL     1       3.078 -56.239  14.345  1.00  0.00     0.293 HD
ENDBRANCH  15  18
ENDBRANCH   1  12
BRANCH  11  20
ATOM     20  C   UNL     1      13.215 -55.512  19.178  1.00  0.00     0.188 C 
ATOM     21  C   UNL     1      13.592 -54.061  18.694  1.00  0.00     0.179 C 
ATOM     22  O   UNL     1      14.304 -56.088  19.897  1.00  0.00    -0.362 OA
ATOM     23  C   UNL     1      14.322 -53.206  19.768  1.00  0.00     0.177 C 
ATOM     24  C   UNL     1      14.696 -55.351  21.044  1.00  0.00     0.176 C 
ATOM     25  C   UNL     1      15.313 -54.005  20.619  1.00  0.00     0.177 C 
BRANCH  21  26
ATOM     26  O   UNL     1      12.464 -53.336  18.280  1.00  0.00    -0.387 OA
ATOM     27  H   UNL     1      11.677 -53.951  18.345  1.00  0.00     0.211 HD
ENDBRANCH  21  26
BRANCH  23  28
ATOM     28  O   UNL     1      14.990 -52.110  19.188  1.00  0.00    -0.387 OA
ATOM     29  H   UNL     1      14.380 -51.673  18.538  1.00  0.00     0.211 HD
ENDBRANCH  23  28
BRANCH  24  30
ATOM     30  C   UNL     1      13.580 -55.263  22.117  1.00  0.00     0.191 C 
BRANCH  30  31
ATOM     31  O   UNL     1      14.131 -55.260  23.411  1.00  0.00    -0.394 OA
ATOM     32  H   UNL     1      14.402 -54.323  23.612  1.00  0.00     0.210 HD
ENDBRANCH  30  31
ENDBRANCH  24  30
BRANCH  25  33
ATOM     33  O   UNL     1      15.707 -53.242  21.729  1.00  0.00    -0.388 OA
ATOM     34  H   UNL     1      16.352 -53.791  22.245  1.00  0.00     0.211 HD
ENDBRANCH  25  33
ENDBRANCH  11  20
BRANCH  10  35
ATOM     35  O   UNL     1      15.126 -56.611  17.125  1.00  0.00    -0.507 OA
ATOM     36  H   UNL     1      15.586 -56.184  17.919  1.00  0.00     0.293 HD
ENDBRANCH  10  35
TORSDOF 9
ENDMDL
MODEL 5
REMARK VINA RESULT:    -6.515      3.606      5.027
REMARK INTER + INTRA:         -10.058
REMARK INTER:                  -9.057
REMARK INTRA:                  -1.001
REMARK UNBOUND:                -1.258
REMARK SMILES O=c1c(-c2ccc(O)cc2)coc2c([C@H]3O[C@H](CO)[C@H](O)[C@@H](O)[C@@H]3O)c(O)ccc12
REMARK SMILES IDX 3 1 11 2 12 3 13 4 30 5 2 6 1 7 29 8 28 9 26 10 14 11 4 12
REMARK SMILES IDX 5 13 6 14 7 15 10 16 9 17 8 18 15 20 24 21 16 22 22 23 17 24
REMARK SMILES IDX 20 25 25 26 23 28 18 30 19 31 21 33 27 35
REMARK H PARENT 8 19 25 27 23 29 19 32 21 34 27 36
REMARK Flexibility Score: inf
ROOT
ATOM      1  C   UNL     1      10.920 -53.540  15.865  1.00  0.00     0.065 A 
ATOM      2  C   UNL     1      11.256 -53.033  17.118  1.00  0.00     0.208 A 
ATOM      3  O   UNL     1      12.235 -53.580  17.827  1.00  0.00    -0.463 OA
ATOM      4  C   UNL     1      12.960 -54.615  17.399  1.00  0.00     0.147 A 
ATOM      5  C   UNL     1      12.622 -55.233  16.169  1.00  0.00     0.066 A 
ATOM      6  C   UNL     1      11.587 -54.684  15.397  1.00  0.00     0.200 A 
ATOM      7  O   UNL     1      11.293 -55.182  14.274  1.00  0.00    -0.288 OA
ATOM      8  C   UNL     1      13.382 -56.310  15.702  1.00  0.00     0.020 A 
ATOM      9  C   UNL     1      14.585 -56.604  16.313  1.00  0.00     0.047 A 
ATOM     10  C   UNL     1      14.997 -55.914  17.456  1.00  0.00     0.125 A 
ATOM     11  C   UNL     1      14.101 -55.054  18.143  1.00  0.00     0.069 A 
ENDROOT
BRANCH   1  12
ATOM     12  C   UNL     1       9.952 -52.805  15.012  1.00  0.00    -0.011 A 
ATOM     13  C   UNL     1      10.378 -51.764  14.169  1.00  0.00     0.013 A 
ATOM     14  C   UNL     1       9.437 -51.036  13.423  1.00  0.00     0.047 A 
ATOM     15  C   UNL     1       8.070 -51.305  13.555  1.00  0.00     0.115 A 
ATOM     16  C   UNL     1       8.580 -53.104  15.099  1.00  0.00     0.013 A 
ATOM     17  C   UNL     1       7.644 -52.350  14.383  1.00  0.00     0.047 A 
BRANCH  15  18
ATOM     18  O   UNL     1       7.145 -50.520  12.876  1.00  0.00    -0.508 OA
ATOM     19  H   UNL     1       7.343 -49.557  12.628  1.00  0.00     0.293 HD
ENDBRANCH  15  18
ENDBRANCH   1  12
BRANCH  11  20
ATOM     20  C   UNL     1      14.384 -54.541  19.584  1.00  0.00     0.188 C 
ATOM     21  C   UNL     1      15.666 -53.632  19.690  1.00  0.00     0.179 C 
ATOM     22  O   UNL     1      14.517 -55.676  20.438  1.00  0.00    -0.362 OA
ATOM     23  C   UNL     1      16.176 -53.425  21.144  1.00  0.00     0.177 C 
ATOM     24  C   UNL     1      14.689 -55.354  21.808  1.00  0.00     0.176 C 
ATOM     25  C   UNL     1      16.056 -54.675  22.020  1.00  0.00     0.177 C 
BRANCH  21  26
ATOM     26  O   UNL     1      15.453 -52.359  19.137  1.00  0.00    -0.387 OA
ATOM     27  H   UNL     1      15.333 -51.722  19.900  1.00  0.00     0.211 HD
ENDBRANCH  21  26
BRANCH  23  28
ATOM     28  O   UNL     1      17.509 -52.973  21.164  1.00  0.00    -0.387 OA
ATOM     29  H   UNL     1      17.864 -53.068  22.087  1.00  0.00     0.211 HD
ENDBRANCH  23  28
BRANCH  24  30
ATOM     30  C   UNL     1      13.473 -54.604  22.412  1.00  0.00     0.191 C 
BRANCH  30  31
ATOM     31  O   UNL     1      13.271 -54.980  23.752  1.00  0.00    -0.394 OA
ATOM     32  H   UNL     1      14.171 -55.083  24.166  1.00  0.00     0.210 HD
ENDBRANCH  30  31
ENDBRANCH  24  30
BRANCH  25  33
ATOM     33  O   UNL     1      16.262 -54.333  23.365  1.00  0.00    -0.388 OA
ATOM     34  H   UNL     1      15.369 -54.176  23.765  1.00  0.00     0.211 HD
ENDBRANCH  25  33
ENDBRANCH  11  20
BRANCH  10  35
ATOM     35  O   UNL     1      16.333 -56.041  17.843  1.00  0.00    -0.507 OA
ATOM     36  H   UNL     1      17.094 -55.905  17.189  1.00  0.00     0.293 HD
ENDBRANCH  10  35
TORSDOF 9
ENDMDL
MODEL 6
REMARK VINA RESULT:    -6.422      2.743      8.009
REMARK INTER + INTRA:          -9.933
REMARK INTER:                  -9.378
REMARK INTRA:                  -0.556
REMARK UNBOUND:                -1.258
REMARK SMILES O=c1c(-c2ccc(O)cc2)coc2c([C@H]3O[C@H](CO)[C@H](O)[C@@H](O)[C@@H]3O)c(O)ccc12
REMARK SMILES IDX 3 1 11 2 12 3 13 4 30 5 2 6 1 7 29 8 28 9 26 10 14 11 4 12
REMARK SMILES IDX 5 13 6 14 7 15 10 16 9 17 8 18 15 20 24 21 16 22 22 23 17 24
REMARK SMILES IDX 20 25 25 26 23 28 18 30 19 31 21 33 27 35
REMARK H PARENT 8 19 25 27 23 29 19 32 21 34 27 36
REMARK Flexibility Score: inf
ROOT
ATOM      1  C   UNL     1      13.243 -55.490  18.911  1.00  0.00     0.065 A 
ATOM      2  C   UNL     1      13.076 -54.349  18.130  1.00  0.00     0.208 A 
ATOM      3  O   UNL     1      12.240 -54.351  17.100  1.00  0.00    -0.463 OA
ATOM      4  C   UNL     1      11.507 -55.410  16.754  1.00  0.00     0.147 A 
ATOM      5  C   UNL     1      11.683 -56.631  17.453  1.00  0.00     0.066 A 
ATOM      6  C   UNL     1      12.565 -56.664  18.544  1.00  0.00     0.200 A 
ATOM      7  O   UNL     1      12.708 -57.723  19.218  1.00  0.00    -0.288 OA
ATOM      8  C   UNL     1      10.911 -57.745  17.111  1.00  0.00     0.020 A 
ATOM      9  C   UNL     1       9.828 -57.583  16.269  1.00  0.00     0.047 A 
ATOM     10  C   UNL     1       9.562 -56.349  15.670  1.00  0.00     0.125 A 
ATOM     11  C   UNL     1      10.512 -55.296  15.732  1.00  0.00     0.069 A 
ENDROOT
BRANCH   1  12
ATOM     12  C   UNL     1      14.038 -55.413  20.162  1.00  0.00    -0.011 A 
ATOM     13  C   UNL     1      15.359 -55.890  20.209  1.00  0.00     0.013 A 
ATOM     14  C   UNL     1      16.069 -55.872  21.420  1.00  0.00     0.047 A 
ATOM     15  C   UNL     1      15.449 -55.432  22.596  1.00  0.00     0.115 A 
ATOM     16  C   UNL     1      13.440 -54.923  21.338  1.00  0.00     0.013 A 
ATOM     17  C   UNL     1      14.139 -54.944  22.550  1.00  0.00     0.047 A 
BRANCH  15  18
ATOM     18  O   UNL     1      16.136 -55.500  23.803  1.00  0.00    -0.508 OA
ATOM     19  H   UNL     1      16.819 -54.798  24.069  1.00  0.00     0.293 HD
ENDBRANCH  15  18
ENDBRANCH   1  12
BRANCH  11  20
ATOM     20  C   UNL     1      10.426 -54.046  14.811  1.00  0.00     0.188 C 
ATOM     21  C   UNL     1      11.711 -53.823  13.928  1.00  0.00     0.179 C 
ATOM     22  O   UNL     1      10.193 -52.905  15.635  1.00  0.00    -0.362 OA
ATOM     23  C   UNL     1      11.805 -52.405  13.296  1.00  0.00     0.177 C 
ATOM     24  C   UNL     1      10.002 -51.698  14.914  1.00  0.00     0.176 C 
ATOM     25  C   UNL     1      11.315 -51.287  14.220  1.00  0.00     0.177 C 
BRANCH  21  26
ATOM     26  O   UNL     1      11.796 -54.753  12.880  1.00  0.00    -0.387 OA
ATOM     27  H   UNL     1      11.818 -55.664  13.294  1.00  0.00     0.211 HD
ENDBRANCH  21  26
BRANCH  23  28
ATOM     28  O   UNL     1      13.118 -52.114  12.875  1.00  0.00    -0.387 OA
ATOM     29  H   UNL     1      13.076 -51.447  12.141  1.00  0.00     0.211 HD
ENDBRANCH  23  28
BRANCH  24  30
ATOM     30  C   UNL     1       8.748 -51.730  14.002  1.00  0.00     0.191 C 
BRANCH  30  31
ATOM     31  O   UNL     1       7.604 -51.328  14.714  1.00  0.00    -0.394 OA
ATOM     32  H   UNL     1       6.860 -51.257  14.057  1.00  0.00     0.210 HD
ENDBRANCH  30  31
ENDBRANCH  24  30
BRANCH  25  33
ATOM     33  O   UNL     1      11.165 -50.099  13.489  1.00  0.00    -0.388 OA
ATOM     34  H   UNL     1      11.214 -49.351  14.138  1.00  0.00     0.211 HD
ENDBRANCH  25  33
ENDBRANCH  11  20
BRANCH  10  35
ATOM     35  O   UNL     1       8.306 -56.170  15.085  1.00  0.00    -0.507 OA
ATOM     36  H   UNL     1       8.201 -55.934  14.106  1.00  0.00     0.293 HD
ENDBRANCH  10  35
TORSDOF 9
ENDMDL
MODEL 7
REMARK VINA RESULT:    -6.408      2.393      8.500
REMARK INTER + INTRA:          -9.914
REMARK INTER:                  -8.532
REMARK INTRA:                  -1.381
REMARK UNBOUND:                -1.258
REMARK SMILES O=c1c(-c2ccc(O)cc2)coc2c([C@H]3O[C@H](CO)[C@H](O)[C@@H](O)[C@@H]3O)c(O)ccc12
REMARK SMILES IDX 3 1 11 2 12 3 13 4 30 5 2 6 1 7 29 8 28 9 26 10 14 11 4 12
REMARK SMILES IDX 5 13 6 14 7 15 10 16 9 17 8 18 15 20 24 21 16 22 22 23 17 24
REMARK SMILES IDX 20 25 25 26 23 28 18 30 19 31 21 33 27 35
REMARK H PARENT 8 19 25 27 23 29 19 32 21 34 27 36
REMARK Flexibility Score: inf
ROOT
ATOM      1  C   UNL     1      13.351 -55.073  18.805  1.00  0.00     0.065 A 
ATOM      2  C   UNL     1      11.959 -55.069  18.778  1.00  0.00     0.208 A 
ATOM      3  O   UNL     1      11.303 -55.524  17.718  1.00  0.00    -0.463 OA
ATOM      4  C   UNL     1      11.909 -56.019  16.638  1.00  0.00     0.147 A 
ATOM      5  C   UNL     1      13.324 -55.981  16.562  1.00  0.00     0.066 A 
ATOM      6  C   UNL     1      14.048 -55.499  17.662  1.00  0.00     0.200 A 
ATOM      7  O   UNL     1      15.311 -55.497  17.645  1.00  0.00    -0.288 OA
ATOM      8  C   UNL     1      13.973 -56.509  15.441  1.00  0.00     0.020 A 
ATOM      9  C   UNL     1      13.255 -57.272  14.541  1.00  0.00     0.047 A 
ATOM     10  C   UNL     1      11.873 -57.428  14.674  1.00  0.00     0.125 A 
ATOM     11  C   UNL     1      11.143 -56.637  15.599  1.00  0.00     0.069 A 
ENDROOT
BRANCH   1  12
ATOM     12  C   UNL     1      14.061 -54.734  20.064  1.00  0.00    -0.011 A 
ATOM     13  C   UNL     1      14.385 -53.402  20.374  1.00  0.00     0.013 A 
ATOM     14  C   UNL     1      15.118 -53.110  21.536  1.00  0.00     0.047 A 
ATOM     15  C   UNL     1      15.576 -54.145  22.360  1.00  0.00     0.115 A 
ATOM     16  C   UNL     1      14.480 -55.763  20.926  1.00  0.00     0.013 A 
ATOM     17  C   UNL     1      15.244 -55.471  22.061  1.00  0.00     0.047 A 
BRANCH  15  18
ATOM     18  O   UNL     1      16.373 -53.847  23.460  1.00  0.00    -0.508 OA
ATOM     19  H   UNL     1      17.364 -54.063  23.474  1.00  0.00     0.293 HD
ENDBRANCH  15  18
ENDBRANCH   1  12
BRANCH  11  20
ATOM     20  C   UNL     1       9.592 -56.520  15.548  1.00  0.00     0.188 C 
ATOM     21  C   UNL     1       8.845 -57.735  16.218  1.00  0.00     0.179 C 
ATOM     22  O   UNL     1       9.204 -56.400  14.180  1.00  0.00    -0.362 OA
ATOM     23  C   UNL     1       7.337 -57.828  15.852  1.00  0.00     0.177 C 
ATOM     24  C   UNL     1       7.814 -56.195  13.988  1.00  0.00     0.176 C 
ATOM     25  C   UNL     1       7.034 -57.459  14.397  1.00  0.00     0.177 C 
BRANCH  21  26
ATOM     26  O   UNL     1       8.933 -57.696  17.618  1.00  0.00    -0.387 OA
ATOM     27  H   UNL     1       8.186 -58.259  17.977  1.00  0.00     0.211 HD
ENDBRANCH  21  26
BRANCH  23  28
ATOM     28  O   UNL     1       6.820 -59.111  16.120  1.00  0.00    -0.387 OA
ATOM     29  H   UNL     1       6.013 -59.252  15.558  1.00  0.00     0.211 HD
ENDBRANCH  23  28
BRANCH  24  30
ATOM     30  C   UNL     1       7.306 -54.868  14.611  1.00  0.00     0.191 C 
BRANCH  30  31
ATOM     31  O   UNL     1       6.115 -54.450  13.991  1.00  0.00    -0.394 OA
ATOM     32  H   UNL     1       6.208 -53.476  13.806  1.00  0.00     0.210 HD
ENDBRANCH  30  31
ENDBRANCH  24  30
BRANCH  25  33
ATOM     33  O   UNL     1       5.651 -57.293  14.228  1.00  0.00    -0.388 OA
ATOM     34  H   UNL     1       5.280 -58.179  13.982  1.00  0.00     0.211 HD
ENDBRANCH  25  33
ENDBRANCH  11  20
BRANCH  10  35
ATOM     35  O   UNL     1      11.260 -58.437  13.928  1.00  0.00    -0.507 OA
ATOM     36  H   UNL     1      10.673 -59.139  14.361  1.00  0.00     0.293 HD
ENDBRANCH  10  35
TORSDOF 9
ENDMDL
MODEL 8
REMARK VINA RESULT:    -6.336      1.788      7.921
REMARK INTER + INTRA:          -9.816
REMARK INTER:                  -9.054
REMARK INTRA:                  -0.762
REMARK UNBOUND:                -1.258
REMARK SMILES O=c1c(-c2ccc(O)cc2)coc2c([C@H]3O[C@H](CO)[C@H](O)[C@@H](O)[C@@H]3O)c(O)ccc12
REMARK SMILES IDX 3 1 11 2 12 3 13 4 30 5 2 6 1 7 29 8 28 9 26 10 14 11 4 12
REMARK SMILES IDX 5 13 6 14 7 15 10 16 9 17 8 18 15 20 24 21 16 22 22 23 17 24
REMARK SMILES IDX 20 25 25 26 23 28 18 30 19 31 21 33 27 35
REMARK H PARENT 8 19 25 27 23 29 19 32 21 34 27 36
REMARK Flexibility Score: inf
ROOT
ATOM      1  C   UNL     1      11.998 -54.897  18.929  1.00  0.00     0.065 A 
ATOM      2  C   UNL     1      11.026 -55.844  18.614  1.00  0.00     0.208 A 
ATOM      3  O   UNL     1      10.116 -55.594  17.682  1.00  0.00    -0.463 OA
ATOM      4  C   UNL     1      10.074 -54.456  16.986  1.00  0.00     0.147 A 
ATOM      5  C   UNL     1      10.981 -53.416  17.307  1.00  0.00     0.066 A 
ATOM      6  C   UNL     1      11.952 -53.646  18.293  1.00  0.00     0.200 A 
ATOM      7  O   UNL     1      12.806 -52.757  18.569  1.00  0.00    -0.288 OA
ATOM      8  C   UNL     1      10.957 -52.224  16.577  1.00  0.00     0.020 A 
ATOM      9  C   UNL     1      10.224 -52.163  15.408  1.00  0.00     0.047 A 
ATOM     10  C   UNL     1       9.421 -53.234  15.006  1.00  0.00     0.125 A 
ATOM     11  C   UNL     1       9.165 -54.315  15.890  1.00  0.00     0.069 A 
ENDROOT
BRANCH   1  12
ATOM     12  C   UNL     1      13.113 -55.265  19.837  1.00  0.00    -0.011 A 
ATOM     13  C   UNL     1      13.000 -55.090  21.227  1.00  0.00     0.013 A 
ATOM     14  C   UNL     1      14.092 -55.378  22.062  1.00  0.00     0.047 A 
ATOM     15  C   UNL     1      15.313 -55.787  21.512  1.00  0.00     0.115 A 
ATOM     16  C   UNL     1      14.327 -55.727  19.298  1.00  0.00     0.013 A 
ATOM     17  C   UNL     1      15.424 -55.975  20.130  1.00  0.00     0.047 A 
BRANCH  15  18
ATOM     18  O   UNL     1      16.410 -55.986  22.343  1.00  0.00    -0.508 OA
ATOM     19  H   UNL     1      17.353 -55.768  22.042  1.00  0.00     0.293 HD
ENDBRANCH  15  18
ENDBRANCH   1  12
BRANCH  11  20
ATOM     20  C   UNL     1       8.026 -55.342  15.634  1.00  0.00     0.188 C 
ATOM     21  C   UNL     1       7.100 -55.582  16.886  1.00  0.00     0.179 C 
ATOM     22  O   UNL     1       8.622 -56.571  15.224  1.00  0.00    -0.362 OA
ATOM     23  C   UNL     1       6.210 -56.853  16.780  1.00  0.00     0.177 C 
ATOM     24  C   UNL     1       7.690 -57.579  14.868  1.00  0.00     0.176 C 
ATOM     25  C   UNL     1       6.913 -58.040  16.116  1.00  0.00     0.177 C 
BRANCH  21  26
ATOM     26  O   UNL     1       6.245 -54.494  17.123  1.00  0.00    -0.387 OA
ATOM     27  H   UNL     1       6.815 -53.732  17.433  1.00  0.00     0.211 HD
ENDBRANCH  21  26
BRANCH  23  28
ATOM     28  O   UNL     1       5.725 -57.250  18.041  1.00  0.00    -0.387 OA
ATOM     29  H   UNL     1       4.905 -57.795  17.910  1.00  0.00     0.211 HD
ENDBRANCH  23  28
BRANCH  24  30
ATOM     30  C   UNL     1       6.816 -57.191  13.646  1.00  0.00     0.191 C 
BRANCH  30  31
ATOM     31  O   UNL     1       6.061 -58.292  13.204  1.00  0.00    -0.394 OA
ATOM     32  H   UNL     1       6.483 -58.618  12.363  1.00  0.00     0.210 HD
ENDBRANCH  30  31
ENDBRANCH  24  30
BRANCH  25  33
ATOM     33  O   UNL     1       5.973 -59.034  15.804  1.00  0.00    -0.388 OA
ATOM     34  H   UNL     1       5.651 -58.850  14.884  1.00  0.00     0.211 HD
ENDBRANCH  25  33
ENDBRANCH  11  20
BRANCH  10  35
ATOM     35  O   UNL     1       8.954 -53.236  13.690  1.00  0.00    -0.507 OA
ATOM     36  H   UNL     1       9.382 -53.806  12.972  1.00  0.00     0.293 HD
ENDBRANCH  10  35
TORSDOF 9
ENDMDL
MODEL 9
REMARK VINA RESULT:    -6.276      2.098      8.399
REMARK INTER + INTRA:          -9.736
REMARK INTER:                  -8.988
REMARK INTRA:                  -0.748
REMARK UNBOUND:                -1.258
REMARK SMILES O=c1c(-c2ccc(O)cc2)coc2c([C@H]3O[C@H](CO)[C@H](O)[C@@H](O)[C@@H]3O)c(O)ccc12
REMARK SMILES IDX 3 1 11 2 12 3 13 4 30 5 2 6 1 7 29 8 28 9 26 10 14 11 4 12
REMARK SMILES IDX 5 13 6 14 7 15 10 16 9 17 8 18 15 20 24 21 16 22 22 23 17 24
REMARK SMILES IDX 20 25 25 26 23 28 18 30 19 31 21 33 27 35
REMARK H PARENT 8 19 25 27 23 29 19 32 21 34 27 36
REMARK Flexibility Score: inf
ROOT
ATOM      1  C   UNL     1      13.118 -55.183  18.964  1.00  0.00     0.065 A 
ATOM      2  C   UNL     1      11.735 -55.032  18.915  1.00  0.00     0.208 A 
ATOM      3  O   UNL     1      11.028 -55.594  17.943  1.00  0.00    -0.463 OA
ATOM      4  C   UNL     1      11.571 -56.337  16.978  1.00  0.00     0.147 A 
ATOM      5  C   UNL     1      12.981 -56.469  16.918  1.00  0.00     0.066 A 
ATOM      6  C   UNL     1      13.759 -55.880  17.926  1.00  0.00     0.200 A 
ATOM      7  O   UNL     1      15.014 -56.020  17.929  1.00  0.00    -0.288 OA
ATOM      8  C   UNL     1      13.563 -57.256  15.919  1.00  0.00     0.020 A 
ATOM      9  C   UNL     1      12.760 -58.083  15.158  1.00  0.00     0.047 A 
ATOM     10  C   UNL     1      11.370 -58.060  15.295  1.00  0.00     0.125 A 
ATOM     11  C   UNL     1      10.736 -57.042  16.054  1.00  0.00     0.069 A 
ENDROOT
BRANCH   1  12
ATOM     12  C   UNL     1      13.867 -54.705  20.153  1.00  0.00    -0.011 A 
ATOM     13  C   UNL     1      14.427 -53.416  20.185  1.00  0.00     0.013 A 
ATOM     14  C   UNL     1      15.190 -53.010  21.290  1.00  0.00     0.047 A 
ATOM     15  C   UNL     1      15.444 -53.900  22.340  1.00  0.00     0.115 A 
ATOM     16  C   UNL     1      14.083 -55.576  21.237  1.00  0.00     0.013 A 
ATOM     17  C   UNL     1      14.877 -55.180  22.318  1.00  0.00     0.047 A 
BRANCH  15  18
ATOM     18  O   UNL     1      16.272 -53.512  23.388  1.00  0.00    -0.508 OA
ATOM     19  H   UNL     1      16.133 -53.853  24.332  1.00  0.00     0.293 HD
ENDBRANCH  15  18
ENDBRANCH   1  12
BRANCH  11  20
ATOM     20  C   UNL     1       9.208 -56.767  15.959  1.00  0.00     0.188 C 
ATOM     21  C   UNL     1       8.857 -55.341  15.387  1.00  0.00     0.179 C 
ATOM     22  O   UNL     1       8.649 -56.923  17.262  1.00  0.00    -0.362 OA
ATOM     23  C   UNL     1       7.384 -54.907  15.633  1.00  0.00     0.177 C 
ATOM     24  C   UNL     1       7.238 -56.789  17.308  1.00  0.00     0.176 C 
ATOM     25  C   UNL     1       6.838 -55.334  16.998  1.00  0.00     0.177 C 
BRANCH  21  26
ATOM     26  O   UNL     1       9.091 -55.258  14.006  1.00  0.00    -0.387 OA
ATOM     27  H   UNL     1      10.084 -55.254  13.874  1.00  0.00     0.211 HD
ENDBRANCH  21  26
BRANCH  23  28
ATOM     28  O   UNL     1       7.226 -53.515  15.487  1.00  0.00    -0.387 OA
ATOM     29  H   UNL     1       8.050 -53.142  15.076  1.00  0.00     0.211 HD
ENDBRANCH  23  28
BRANCH  24  30
ATOM     30  C   UNL     1       6.499 -57.874  16.481  1.00  0.00     0.191 C 
BRANCH  30  31
ATOM     31  O   UNL     1       5.151 -57.966  16.871  1.00  0.00    -0.394 OA
ATOM     32  H   UNL     1       4.939 -58.934  16.965  1.00  0.00     0.210 HD
ENDBRANCH  30  31
ENDBRANCH  24  30
BRANCH  25  33
ATOM     33  O   UNL     1       5.446 -55.161  17.027  1.00  0.00    -0.388 OA
ATOM     34  H   UNL     1       5.238 -54.380  16.452  1.00  0.00     0.211 HD
ENDBRANCH  25  33
ENDBRANCH  11  20
BRANCH  10  35
ATOM     35  O   UNL     1      10.646 -59.113  14.731  1.00  0.00    -0.507 OA
ATOM     36  H   UNL     1      10.025 -58.973  13.945  1.00  0.00     0.293 HD
ENDBRANCH  10  35
TORSDOF 9
ENDMDL
