MODEL 1
REMARK VINA RESULT:    -6.331      0.000      0.000
REMARK INTER + INTRA:          -7.107
REMARK INTER:                  -7.071
REMARK INTRA:                  -0.036
REMARK UNBOUND:                -0.036
REMARK SMILES O=C([O-])c1ccc(O)c(O)c1
REMARK SMILES IDX 4 1 11 2 5 3 9 4 6 5 7 6 2 7 1 8 3 9 10 10 8 12
REMARK H PARENT 10 11 8 13
REMARK Flexibility Score: inf
ROOT
ATOM      1  C   UNL     1      12.508   7.789  28.410  1.00  0.00     0.001 A 
ATOM      2  C   UNL     1      11.234   7.634  27.836  1.00  0.00     0.060 A 
ATOM      3  C   UNL     1      12.646   8.587  29.559  1.00  0.00     0.014 A 
ATOM      4  C   UNL     1      10.115   8.265  28.400  1.00  0.00     0.158 A 
ATOM      5  C   UNL     1      11.531   9.216  30.122  1.00  0.00     0.051 A 
ATOM      6  C   UNL     1      10.264   9.056  29.545  1.00  0.00     0.157 A 
ENDROOT
BRANCH   1   7
ATOM      7  C   UNL     1      13.690   7.125  27.817  1.00  0.00     0.072 C 
ATOM      8  O   UNL     1      14.419   7.734  26.990  1.00  0.00    -0.545 OA
ATOM      9  O   UNL     1      14.013   5.818  28.166  1.00  0.00    -0.545 OA
ENDBRANCH   1   7
BRANCH   4  10
ATOM     10  O   UNL     1       8.854   8.109  27.829  1.00  0.00    -0.504 OA
ATOM     11  H   UNL     1       8.182   8.868  27.812  1.00  0.00     0.293 HD
ENDBRANCH   4  10
BRANCH   6  12
ATOM     12  O   UNL     1       9.152   9.682  30.103  1.00  0.00    -0.504 OA
ATOM     13  H   UNL     1       8.745  10.512  29.687  1.00  0.00     0.293 HD
ENDBRANCH   6  12
TORSDOF 3
ENDMDL
MODEL 2
REMARK VINA RESULT:    -6.262      0.888      2.002
REMARK INTER + INTRA:          -7.030
REMARK INTER:                  -6.994
REMARK INTRA:                  -0.036
REMARK UNBOUND:                -0.036
REMARK SMILES O=C([O-])c1ccc(O)c(O)c1
REMARK SMILES IDX 4 1 11 2 5 3 9 4 6 5 7 6 2 7 1 8 3 9 10 10 8 12
REMARK H PARENT 10 11 8 13
REMARK Flexibility Score: inf
ROOT
ATOM      1  C   UNL     1      12.277   7.589  28.288  1.00  0.00     0.001 A 
ATOM      2  C   UNL     1      12.230   8.321  29.488  1.00  0.00     0.060 A 
ATOM      3  C   UNL     1      11.177   7.641  27.414  1.00  0.00     0.014 A 
ATOM      4  C   UNL     1      11.103   9.092  29.810  1.00  0.00     0.158 A 
ATOM      5  C   UNL     1      10.054   8.409  27.735  1.00  0.00     0.051 A 
ATOM      6  C   UNL     1      10.014   9.137  28.932  1.00  0.00     0.157 A 
ENDROOT
BRANCH   1   7
ATOM      7  C   UNL     1      13.464   6.775  27.945  1.00  0.00     0.072 C 
ATOM      8  O   UNL     1      14.354   7.232  27.180  1.00  0.00    -0.545 OA
ATOM      9  O   UNL     1      13.613   5.493  28.462  1.00  0.00    -0.545 OA
ENDBRANCH   1   7
BRANCH   4  10
ATOM     10  O   UNL     1      11.060   9.816  31.000  1.00  0.00    -0.504 OA
ATOM     11  H   UNL     1      11.753   9.682  31.728  1.00  0.00     0.293 HD
ENDBRANCH   4  10
BRANCH   6  12
ATOM     12  O   UNL     1       8.896   9.903  29.254  1.00  0.00    -0.504 OA
ATOM     13  H   UNL     1       7.955   9.564  29.089  1.00  0.00     0.293 HD
ENDBRANCH   6  12
TORSDOF 3
ENDMDL
MODEL 3
REMARK VINA RESULT:    -6.165      1.791      2.687
REMARK INTER + INTRA:          -6.922
REMARK INTER:                  -6.879
REMARK INTRA:                  -0.043
REMARK UNBOUND:                -0.036
REMARK SMILES O=C([O-])c1ccc(O)c(O)c1
REMARK SMILES IDX 4 1 11 2 5 3 9 4 6 5 7 6 2 7 1 8 3 9 10 10 8 12
REMARK H PARENT 10 11 8 13
REMARK Flexibility Score: inf
ROOT
ATOM      1  C   UNL     1      11.522   8.852  28.810  1.00  0.00     0.001 A 
ATOM      2  C   UNL     1      10.309   9.538  28.996  1.00  0.00     0.060 A 
ATOM      3  C   UNL     1      12.671   9.303  29.482  1.00  0.00     0.014 A 
ATOM      4  C   UNL     1      10.245  10.657  29.840  1.00  0.00     0.158 A 
ATOM      5  C   UNL     1      12.608  10.418  30.323  1.00  0.00     0.051 A 
ATOM      6  C   UNL     1      11.395  11.098  30.505  1.00  0.00     0.157 A 
ENDROOT
BRANCH   1   7
ATOM      7  C   UNL     1      11.594   7.672  27.921  1.00  0.00     0.072 C 
ATOM      8  O   UNL     1      12.493   6.804  28.079  1.00  0.00    -0.545 OA
ATOM      9  O   UNL     1      10.668   7.503  26.897  1.00  0.00    -0.545 OA
ENDBRANCH   1   7
BRANCH   4  10
ATOM     10  O   UNL     1       9.041  11.336  30.022  1.00  0.00    -0.504 OA
ATOM     11  H   UNL     1       8.957  12.098  30.686  1.00  0.00     0.293 HD
ENDBRANCH   4  10
BRANCH   6  12
ATOM     12  O   UNL     1      11.329  12.209  31.341  1.00  0.00    -0.504 OA
ATOM     13  H   UNL     1      10.664  12.260  32.104  1.00  0.00     0.293 HD
ENDBRANCH   6  12
TORSDOF 3
ENDMDL
MODEL 4
REMARK VINA RESULT:    -5.882      2.350      3.509
REMARK INTER + INTRA:          -6.605
REMARK INTER:                  -6.561
REMARK INTRA:                  -0.044
REMARK UNBOUND:                -0.036
REMARK SMILES O=C([O-])c1ccc(O)c(O)c1
REMARK SMILES IDX 4 1 11 2 5 3 9 4 6 5 7 6 2 7 1 8 3 9 10 10 8 12
REMARK H PARENT 10 11 8 13
REMARK Flexibility Score: inf
ROOT
ATOM      1  C   UNL     1      11.375   9.099  28.799  1.00  0.00     0.001 A 
ATOM      2  C   UNL     1      12.349   9.154  29.812  1.00  0.00     0.060 A 
ATOM      3  C   UNL     1      10.498  10.186  28.635  1.00  0.00     0.014 A 
ATOM      4  C   UNL     1      12.445  10.277  30.648  1.00  0.00     0.158 A 
ATOM      5  C   UNL     1      10.594  11.304  29.468  1.00  0.00     0.051 A 
ATOM      6  C   UNL     1      11.567  11.354  30.476  1.00  0.00     0.157 A 
ENDROOT
BRANCH   1   7
ATOM      7  C   UNL     1      11.270   7.917  27.915  1.00  0.00     0.072 C 
ATOM      8  O   UNL     1      12.119   6.989  27.983  1.00  0.00    -0.545 OA
ATOM      9  O   UNL     1      10.233   7.815  26.994  1.00  0.00    -0.545 OA
ENDBRANCH   1   7
BRANCH   4  10
ATOM     10  O   UNL     1      13.411  10.329  31.651  1.00  0.00    -0.504 OA
ATOM     11  H   UNL     1      13.974   9.518  31.888  1.00  0.00     0.293 HD
ENDBRANCH   4  10
BRANCH   6  12
ATOM     12  O   UNL     1      11.665  12.466  31.308  1.00  0.00    -0.504 OA
ATOM     13  H   UNL     1      12.274  13.245  31.084  1.00  0.00     0.293 HD
ENDBRANCH   6  12
TORSDOF 3
ENDMDL
MODEL 5
REMARK VINA RESULT:    -5.761      1.583      4.159
REMARK INTER + INTRA:          -6.470
REMARK INTER:                  -6.427
REMARK INTRA:                  -0.043
REMARK UNBOUND:                -0.036
REMARK SMILES O=C([O-])c1ccc(O)c(O)c1
REMARK SMILES IDX 4 1 11 2 5 3 9 4 6 5 7 6 2 7 1 8 3 9 10 10 8 12
REMARK H PARENT 10 11 8 13
REMARK Flexibility Score: inf
ROOT
ATOM      1  C   UNL     1      11.282   9.888  29.550  1.00  0.00     0.001 A 
ATOM      2  C   UNL     1      10.684   9.168  28.501  1.00  0.00     0.060 A 
ATOM      3  C   UNL     1      12.513   9.445  30.067  1.00  0.00     0.014 A 
ATOM      4  C   UNL     1      11.305   8.024  27.976  1.00  0.00     0.158 A 
ATOM      5  C   UNL     1      13.131   8.306  29.544  1.00  0.00     0.051 A 
ATOM      6  C   UNL     1      12.530   7.593  28.498  1.00  0.00     0.157 A 
ENDROOT
BRANCH   1   7
ATOM      7  C   UNL     1      10.631  11.095  30.106  1.00  0.00     0.072 C 
ATOM      8  O   UNL     1       9.402  11.301  29.923  1.00  0.00    -0.545 OA
ATOM      9  O   UNL     1      11.368  12.019  30.839  1.00  0.00    -0.545 OA
ENDBRANCH   1   7
BRANCH   4  10
ATOM     10  O   UNL     1      10.709   7.312  26.936  1.00  0.00    -0.504 OA
ATOM     11  H   UNL     1      10.704   7.666  25.986  1.00  0.00     0.293 HD
ENDBRANCH   4  10
BRANCH   6  12
ATOM     12  O   UNL     1      13.143   6.456  27.975  1.00  0.00    -0.504 OA
ATOM     13  H   UNL     1      13.868   6.522  27.269  1.00  0.00     0.293 HD
ENDBRANCH   6  12
TORSDOF 3
ENDMDL
MODEL 6
REMARK VINA RESULT:    -5.698      1.404      4.657
REMARK INTER + INTRA:          -6.400
REMARK INTER:                  -6.358
REMARK INTRA:                  -0.043
REMARK UNBOUND:                -0.036
REMARK SMILES O=C([O-])c1ccc(O)c(O)c1
REMARK SMILES IDX 4 1 11 2 5 3 9 4 6 5 7 6 2 7 1 8 3 9 10 10 8 12
REMARK H PARENT 10 11 8 13
REMARK Flexibility Score: inf
ROOT
ATOM      1  C   UNL     1      10.569   9.569  29.078  1.00  0.00     0.001 A 
ATOM      2  C   UNL     1      11.798   9.280  29.698  1.00  0.00     0.060 A 
ATOM      3  C   UNL     1      10.157   8.791  27.982  1.00  0.00     0.014 A 
ATOM      4  C   UNL     1      12.602   8.230  29.230  1.00  0.00     0.158 A 
ATOM      5  C   UNL     1      10.960   7.745  27.516  1.00  0.00     0.051 A 
ATOM      6  C   UNL     1      12.183   7.461  28.138  1.00  0.00     0.157 A 
ENDROOT
BRANCH   1   7
ATOM      7  C   UNL     1       9.717  10.675  29.569  1.00  0.00     0.072 C 
ATOM      8  O   UNL     1      10.222  11.639  30.204  1.00  0.00    -0.545 OA
ATOM      9  O   UNL     1       8.346  10.666  29.336  1.00  0.00    -0.545 OA
ENDBRANCH   1   7
BRANCH   4  10
ATOM     10  O   UNL     1      13.820   7.946  29.846  1.00  0.00    -0.504 OA
ATOM     11  H   UNL     1      13.891   7.259  30.589  1.00  0.00     0.293 HD
ENDBRANCH   4  10
BRANCH   6  12
ATOM     12  O   UNL     1      12.984   6.420  27.675  1.00  0.00    -0.504 OA
ATOM     13  H   UNL     1      12.603   5.500  27.489  1.00  0.00     0.293 HD
ENDBRANCH   6  12
TORSDOF 3
ENDMDL
MODEL 7
REMARK VINA RESULT:    -5.586      2.190      3.849
REMARK INTER + INTRA:          -6.275
REMARK INTER:                  -6.231
REMARK INTRA:                  -0.044
REMARK UNBOUND:                -0.036
REMARK SMILES O=C([O-])c1ccc(O)c(O)c1
REMARK SMILES IDX 4 1 11 2 5 3 9 4 6 5 7 6 2 7 1 8 3 9 10 10 8 12
REMARK H PARENT 10 11 8 13
REMARK Flexibility Score: inf
ROOT
ATOM      1  C   UNL     1      11.366  10.183  29.972  1.00  0.00     0.001 A 
ATOM      2  C   UNL     1      11.942   9.053  29.364  1.00  0.00     0.060 A 
ATOM      3  C   UNL     1      10.059  10.557  29.615  1.00  0.00     0.014 A 
ATOM      4  C   UNL     1      11.224   8.309  28.415  1.00  0.00     0.158 A 
ATOM      5  C   UNL     1       9.344   9.816  28.669  1.00  0.00     0.051 A 
ATOM      6  C   UNL     1       9.923   8.691  28.068  1.00  0.00     0.157 A 
ENDROOT
BRANCH   1   7
ATOM      7  C   UNL     1      12.119  10.969  30.973  1.00  0.00     0.072 C 
ATOM      8  O   UNL     1      11.741  12.127  31.295  1.00  0.00    -0.545 OA
ATOM      9  O   UNL     1      13.257  10.441  31.573  1.00  0.00    -0.545 OA
ENDBRANCH   1   7
BRANCH   4  10
ATOM     10  O   UNL     1      11.798   7.190  27.815  1.00  0.00    -0.504 OA
ATOM     11  H   UNL     1      12.461   6.604  28.310  1.00  0.00     0.293 HD
ENDBRANCH   4  10
BRANCH   6  12
ATOM     12  O   UNL     1       9.213   7.951  27.125  1.00  0.00    -0.504 OA
ATOM     13  H   UNL     1       9.554   7.833  26.178  1.00  0.00     0.293 HD
ENDBRANCH   6  12
TORSDOF 3
ENDMDL
MODEL 8
REMARK VINA RESULT:    -5.494      1.963      4.527
REMARK INTER + INTRA:          -6.173
REMARK INTER:                  -6.135
REMARK INTRA:                  -0.038
REMARK UNBOUND:                -0.036
REMARK SMILES O=C([O-])c1ccc(O)c(O)c1
REMARK SMILES IDX 4 1 11 2 5 3 9 4 6 5 7 6 2 7 1 8 3 9 10 10 8 12
REMARK H PARENT 10 11 8 13
REMARK Flexibility Score: inf
ROOT
ATOM      1  C   UNL     1      12.755   8.349  29.461  1.00  0.00     0.001 A 
ATOM      2  C   UNL     1      12.704   6.963  29.695  1.00  0.00     0.060 A 
ATOM      3  C   UNL     1      13.455   8.826  28.340  1.00  0.00     0.014 A 
ATOM      4  C   UNL     1      13.343   6.069  28.823  1.00  0.00     0.158 A 
ATOM      5  C   UNL     1      14.092   7.935  27.471  1.00  0.00     0.051 A 
ATOM      6  C   UNL     1      14.037   6.555  27.709  1.00  0.00     0.157 A 
ENDROOT
BRANCH   1   7
ATOM      7  C   UNL     1      12.082   9.295  30.379  1.00  0.00     0.072 C 
ATOM      8  O   UNL     1      10.834   9.251  30.542  1.00  0.00    -0.545 OA
ATOM      9  O   UNL     1      12.820  10.248  31.074  1.00  0.00    -0.545 OA
ENDBRANCH   1   7
BRANCH   4  10
ATOM     10  O   UNL     1      13.291   4.696  29.057  1.00  0.00    -0.504 OA
ATOM     11  H   UNL     1      13.895   4.050  28.560  1.00  0.00     0.293 HD
ENDBRANCH   4  10
BRANCH   6  12
ATOM     12  O   UNL     1      14.671   5.665  26.845  1.00  0.00    -0.504 OA
ATOM     13  H   UNL     1      15.189   5.988  26.037  1.00  0.00     0.293 HD
ENDBRANCH   6  12
TORSDOF 3
ENDMDL
MODEL 9
REMARK VINA RESULT:    -5.443     12.436     13.639
REMARK INTER + INTRA:          -6.115
REMARK INTER:                  -6.078
REMARK INTRA:                  -0.037
REMARK UNBOUND:                -0.036
REMARK SMILES O=C([O-])c1ccc(O)c(O)c1
REMARK SMILES IDX 4 1 11 2 5 3 9 4 6 5 7 6 2 7 1 8 3 9 10 10 8 12
REMARK H PARENT 10 11 8 13
REMARK Flexibility Score: inf
ROOT
ATOM      1  C   UNL     1      15.320  20.428  26.234  1.00  0.00     0.001 A 
ATOM      2  C   UNL     1      16.657  20.748  25.933  1.00  0.00     0.060 A 
ATOM      3  C   UNL     1      15.029  19.175  26.799  1.00  0.00     0.014 A 
ATOM      4  C   UNL     1      17.685  19.830  26.194  1.00  0.00     0.158 A 
ATOM      5  C   UNL     1      16.054  18.260  27.058  1.00  0.00     0.051 A 
ATOM      6  C   UNL     1      17.384  18.585  26.757  1.00  0.00     0.157 A 
ENDROOT
BRANCH   1   7
ATOM      7  C   UNL     1      14.233  21.394  25.961  1.00  0.00     0.072 C 
ATOM      8  O   UNL     1      13.358  21.144  25.090  1.00  0.00    -0.545 OA
ATOM      9  O   UNL     1      14.162  22.592  26.664  1.00  0.00    -0.545 OA
ENDBRANCH   1   7
BRANCH   4  10
ATOM     10  O   UNL     1      19.008  20.150  25.895  1.00  0.00    -0.504 OA
ATOM     11  H   UNL     1      19.475  20.938  26.330  1.00  0.00     0.293 HD
ENDBRANCH   4  10
BRANCH   6  12
ATOM     12  O   UNL     1      18.407  17.675  27.014  1.00  0.00    -0.504 OA
ATOM     13  H   UNL     1      18.214  16.698  27.201  1.00  0.00     0.293 HD
ENDBRANCH   6  12
TORSDOF 3
ENDMDL
