MODEL 1
REMARK VINA RESULT:    13.742      0.000      0.000
REMARK INTER + INTRA:          19.723
REMARK INTER:                  20.168
REMARK INTRA:                  -0.445
REMARK UNBOUND:                -0.445
REMARK SMILES O=c1c(O[C@@H]2O[C@@H](CO)[C@H](O)[C@H](O)[C@H]2O)c(-c2ccc(O)c(O)c2)oc2cc(O)cc(O)c12
REMARK SMILES IDX 4 1 3 2 16 3 25 4 2 5 26 6 1 7 33 8 27 9 31 10 28 11 30 12
REMARK SMILES IDX 17 13 18 14 19 15 20 16 24 17 22 18 21 19 23 21 32 23 29 25
REMARK SMILES IDX 5 27 14 28 6 29 12 30 7 31 10 32 15 33 13 35 8 37 9 38 11 40
REMARK H PARENT 21 20 23 22 32 24 29 26 15 34 13 36 9 39 11 41
REMARK Flexibility Score: inf
ROOT
ATOM      1  O   UNL     1       1.565  12.056  13.772  1.00  0.00    -0.454 OA
ENDROOT
BRANCH   1   2
ATOM      2  C   UNL     1       1.795  12.535  15.060  1.00  0.00     0.214 A 
ATOM      3  C   UNL     1       2.788  13.522  15.210  1.00  0.00     0.180 A 
ATOM      4  O   UNL     1       3.192  13.895  16.414  1.00  0.00    -0.452 OA
ATOM      5  C   UNL     1       1.098  12.126  16.215  1.00  0.00     0.239 A 
ATOM      6  C   UNL     1       2.631  13.449  17.536  1.00  0.00     0.146 A 
ATOM      7  O   UNL     1       0.049  11.426  16.117  1.00  0.00    -0.285 OA
ATOM      8  C   UNL     1       1.537  12.555  17.488  1.00  0.00     0.111 A 
ATOM      9  C   UNL     1       3.087  13.954  18.757  1.00  0.00     0.094 A 
ATOM     10  C   UNL     1       0.943  12.131  18.700  1.00  0.00     0.134 A 
ATOM     11  C   UNL     1       2.475  13.552  19.957  1.00  0.00     0.123 A 
ATOM     12  C   UNL     1       1.408  12.647  19.921  1.00  0.00     0.093 A 
BRANCH   3  13
ATOM     13  C   UNL     1       3.355  14.226  14.047  1.00  0.00     0.025 A 
ATOM     14  C   UNL     1       3.298  15.630  13.983  1.00  0.00     0.016 A 
ATOM     15  C   UNL     1       3.905  16.318  12.931  1.00  0.00     0.051 A 
ATOM     16  C   UNL     1       4.587  15.616  11.932  1.00  0.00     0.157 A 
ATOM     17  C   UNL     1       4.004  13.524  13.006  1.00  0.00     0.062 A 
ATOM     18  C   UNL     1       4.603  14.223  11.942  1.00  0.00     0.158 A 
BRANCH  16  19
ATOM     19  O   UNL     1       5.204  16.295  10.877  1.00  0.00    -0.504 OA
ATOM     20  H   UNL     1       5.180  17.303  10.798  1.00  0.00     0.293 HD
ENDBRANCH  16  19
BRANCH  18  21
ATOM     21  O   UNL     1       5.194  13.550  10.879  1.00  0.00    -0.504 OA
ATOM     22  H   UNL     1       5.923  12.840  11.005  1.00  0.00     0.293 HD
ENDBRANCH  18  21
ENDBRANCH   3  13
BRANCH  10  23
ATOM     23  O   UNL     1      -0.125  11.227  18.706  1.00  0.00    -0.507 OA
ATOM     24  H   UNL     1      -0.881  11.305  19.384  1.00  0.00     0.293 HD
ENDBRANCH  10  23
BRANCH  11  25
ATOM     25  O   UNL     1       2.937  14.036  21.181  1.00  0.00    -0.508 OA
ATOM     26  H   UNL     1       3.793  14.580  21.235  1.00  0.00     0.293 HD
ENDBRANCH  11  25
ENDBRANCH   1   2
BRANCH   1  27
ATOM     27  C   UNL     1       2.131  10.962  13.049  1.00  0.00     0.339 C 
ATOM     28  C   UNL     1       2.185  11.175  11.508  1.00  0.00     0.214 C 
ATOM     29  O   UNL     1       3.396  10.612  13.573  1.00  0.00    -0.332 OA
ATOM     30  C   UNL     1       3.314  10.318  10.875  1.00  0.00     0.180 C 
ATOM     31  C   UNL     1       3.783   9.297  13.152  1.00  0.00     0.179 C 
ATOM     32  C   UNL     1       3.406   8.981  11.661  1.00  0.00     0.177 C 
BRANCH  28  33
ATOM     33  O   UNL     1       0.949  10.909  10.877  1.00  0.00    -0.384 OA
ATOM     34  H   UNL     1       0.530  11.772  10.607  1.00  0.00     0.211 HD
ENDBRANCH  28  33
BRANCH  30  35
ATOM     35  O   UNL     1       4.545  11.000  10.953  1.00  0.00    -0.387 OA
ATOM     36  H   UNL     1       4.489  11.778  10.342  1.00  0.00     0.211 HD
ENDBRANCH  30  35
BRANCH  31  37
ATOM     37  C   UNL     1       3.238   8.246  14.140  1.00  0.00     0.191 C 
BRANCH  37  38
ATOM     38  O   UNL     1       3.376   6.965  13.572  1.00  0.00    -0.394 OA
ATOM     39  H   UNL     1       2.505   6.504  13.687  1.00  0.00     0.210 HD
ENDBRANCH  37  38
ENDBRANCH  31  37
BRANCH  32  40
ATOM     40  O   UNL     1       4.352   8.090  11.107  1.00  0.00    -0.387 OA
ATOM     41  H   UNL     1       4.643   7.485  11.837  1.00  0.00     0.211 HD
ENDBRANCH  32  40
ENDBRANCH   1  27
TORSDOF 12
ENDMDL
MODEL 2
REMARK VINA RESULT:    13.817      4.385      6.667
REMARK INTER + INTRA:          19.834
REMARK INTER:                   9.640
REMARK INTRA:                  10.195
REMARK UNBOUND:                -0.445
REMARK SMILES O=c1c(O[C@@H]2O[C@@H](CO)[C@H](O)[C@H](O)[C@H]2O)c(-c2ccc(O)c(O)c2)oc2cc(O)cc(O)c12
REMARK SMILES IDX 4 1 3 2 16 3 25 4 2 5 26 6 1 7 33 8 27 9 31 10 28 11 30 12
REMARK SMILES IDX 17 13 18 14 19 15 20 16 24 17 22 18 21 19 23 21 32 23 29 25
REMARK SMILES IDX 5 27 14 28 6 29 12 30 7 31 10 32 15 33 13 35 8 37 9 38 11 40
REMARK H PARENT 21 20 23 22 32 24 29 26 15 34 13 36 9 39 11 41
REMARK Flexibility Score: inf
ROOT
ATOM      1  O   UNL     1       3.391   7.982  12.014  1.00  0.00    -0.454 OA
ENDROOT
BRANCH   1   2
ATOM      2  C   UNL     1       3.460   9.352  11.768  1.00  0.00     0.214 A 
ATOM      3  C   UNL     1       4.730   9.955  11.847  1.00  0.00     0.180 A 
ATOM      4  O   UNL     1       4.856  11.272  11.807  1.00  0.00    -0.452 OA
ATOM      5  C   UNL     1       2.365  10.172  11.428  1.00  0.00     0.239 A 
ATOM      6  C   UNL     1       3.827  12.091  11.595  1.00  0.00     0.146 A 
ATOM      7  O   UNL     1       1.253   9.659  11.114  1.00  0.00    -0.285 OA
ATOM      8  C   UNL     1       2.530  11.574  11.372  1.00  0.00     0.111 A 
ATOM      9  C   UNL     1       4.073  13.463  11.506  1.00  0.00     0.094 A 
ATOM     10  C   UNL     1       1.469  12.473  11.114  1.00  0.00     0.134 A 
ATOM     11  C   UNL     1       3.021  14.350  11.220  1.00  0.00     0.123 A 
ATOM     12  C   UNL     1       1.729  13.851  11.024  1.00  0.00     0.093 A 
BRANCH   3  13
ATOM     13  C   UNL     1       5.962   9.150  11.896  1.00  0.00     0.025 A 
ATOM     14  C   UNL     1       6.218   8.200  10.891  1.00  0.00     0.016 A 
ATOM     15  C   UNL     1       7.419   7.488  10.875  1.00  0.00     0.051 A 
ATOM     16  C   UNL     1       8.389   7.723  11.854  1.00  0.00     0.157 A 
ATOM     17  C   UNL     1       6.929   9.343  12.909  1.00  0.00     0.062 A 
ATOM     18  C   UNL     1       8.132   8.614  12.895  1.00  0.00     0.158 A 
BRANCH  16  19
ATOM     19  O   UNL     1       9.598   7.021  11.845  1.00  0.00    -0.504 OA
ATOM     20  H   UNL     1      10.272   7.100  12.595  1.00  0.00     0.293 HD
ENDBRANCH  16  19
BRANCH  18  21
ATOM     21  O   UNL     1       9.068   8.745  13.914  1.00  0.00    -0.504 OA
ATOM     22  H   UNL     1       9.683   9.561  14.004  1.00  0.00     0.293 HD
ENDBRANCH  18  21
ENDBRANCH   3  13
BRANCH  10  23
ATOM     23  O   UNL     1       0.163  12.013  10.913  1.00  0.00    -0.507 OA
ATOM     24  H   UNL     1      -0.610  12.659  10.760  1.00  0.00     0.293 HD
ENDBRANCH  10  23
BRANCH  11  25
ATOM     25  O   UNL     1       3.255  15.723  11.150  1.00  0.00    -0.508 OA
ATOM     26  H   UNL     1       2.796  16.362  11.791  1.00  0.00     0.293 HD
ENDBRANCH  11  25
ENDBRANCH   1   2
BRANCH   1  27
ATOM     27  C   UNL     1       4.162   7.128  12.860  1.00  0.00     0.339 C 
ATOM     28  C   UNL     1       4.204   5.641  12.398  1.00  0.00     0.214 C 
ATOM     29  O   UNL     1       5.460   7.651  13.056  1.00  0.00    -0.332 OA
ATOM     30  C   UNL     1       5.483   4.939  12.927  1.00  0.00     0.180 C 
ATOM     31  C   UNL     1       6.090   7.052  14.197  1.00  0.00     0.179 C 
ATOM     32  C   UNL     1       5.806   5.514  14.334  1.00  0.00     0.177 C 
BRANCH  28  33
ATOM     33  O   UNL     1       3.049   4.920  12.778  1.00  0.00    -0.384 OA
ATOM     34  H   UNL     1       3.170   4.584  13.709  1.00  0.00     0.211 HD
ENDBRANCH  28  33
BRANCH  30  35
ATOM     35  O   UNL     1       6.565   5.178  12.057  1.00  0.00    -0.387 OA
ATOM     36  H   UNL     1       6.243   5.794  11.350  1.00  0.00     0.211 HD
ENDBRANCH  30  35
BRANCH  31  37
ATOM     37  C   UNL     1       5.731   7.841  15.472  1.00  0.00     0.191 C 
BRANCH  37  38
ATOM     38  O   UNL     1       6.851   8.588  15.883  1.00  0.00    -0.394 OA
ATOM     39  H   UNL     1       7.596   8.347  15.274  1.00  0.00     0.210 HD
ENDBRANCH  37  38
ENDBRANCH  31  37
BRANCH  32  40
ATOM     40  O   UNL     1       6.909   4.875  14.941  1.00  0.00    -0.387 OA
ATOM     41  H   UNL     1       7.705   5.440  14.764  1.00  0.00     0.211 HD
ENDBRANCH  32  40
ENDBRANCH   1  27
TORSDOF 12
ENDMDL
MODEL 3
REMARK VINA RESULT:    14.406      2.594      8.215
REMARK INTER + INTRA:          20.699
REMARK INTER:                  21.339
REMARK INTRA:                  -0.640
REMARK UNBOUND:                -0.445
REMARK SMILES O=c1c(O[C@@H]2O[C@@H](CO)[C@H](O)[C@H](O)[C@H]2O)c(-c2ccc(O)c(O)c2)oc2cc(O)cc(O)c12
REMARK SMILES IDX 4 1 3 2 16 3 25 4 2 5 26 6 1 7 33 8 27 9 31 10 28 11 30 12
REMARK SMILES IDX 17 13 18 14 19 15 20 16 24 17 22 18 21 19 23 21 32 23 29 25
REMARK SMILES IDX 5 27 14 28 6 29 12 30 7 31 10 32 15 33 13 35 8 37 9 38 11 40
REMARK H PARENT 21 20 23 22 32 24 29 26 15 34 13 36 9 39 11 41
REMARK Flexibility Score: inf
ROOT
ATOM      1  O   UNL     1       3.269  15.066  16.093  1.00  0.00    -0.454 OA
ENDROOT
BRANCH   1   2
ATOM      2  C   UNL     1       3.096  14.020  15.189  1.00  0.00     0.214 A 
ATOM      3  C   UNL     1       2.495  12.843  15.676  1.00  0.00     0.180 A 
ATOM      4  O   UNL     1       2.462  11.746  14.936  1.00  0.00    -0.452 OA
ATOM      5  C   UNL     1       3.455  14.057  13.826  1.00  0.00     0.239 A 
ATOM      6  C   UNL     1       2.891  11.710  13.676  1.00  0.00     0.146 A 
ATOM      7  O   UNL     1       3.778  15.149  13.278  1.00  0.00    -0.285 OA
ATOM      8  C   UNL     1       3.391  12.876  13.052  1.00  0.00     0.111 A 
ATOM      9  C   UNL     1       2.753  10.520  12.957  1.00  0.00     0.094 A 
ATOM     10  C   UNL     1       3.804  12.808  11.701  1.00  0.00     0.134 A 
ATOM     11  C   UNL     1       3.138  10.465  11.607  1.00  0.00     0.123 A 
ATOM     12  C   UNL     1       3.658  11.607  10.987  1.00  0.00     0.093 A 
BRANCH   3  13
ATOM     13  C   UNL     1       1.818  12.809  16.984  1.00  0.00     0.025 A 
ATOM     14  C   UNL     1       0.501  12.327  17.078  1.00  0.00     0.016 A 
ATOM     15  C   UNL     1      -0.125  12.208  18.320  1.00  0.00     0.051 A 
ATOM     16  C   UNL     1       0.558  12.558  19.488  1.00  0.00     0.157 A 
ATOM     17  C   UNL     1       2.482  13.207  18.167  1.00  0.00     0.062 A 
ATOM     18  C   UNL     1       1.841  13.097  19.414  1.00  0.00     0.158 A 
BRANCH  16  19
ATOM     19  O   UNL     1      -0.056  12.438  20.738  1.00  0.00    -0.504 OA
ATOM     20  H   UNL     1       0.375  12.781  21.586  1.00  0.00     0.293 HD
ENDBRANCH  16  19
BRANCH  18  21
ATOM     21  O   UNL     1       2.453  13.538  20.582  1.00  0.00    -0.504 OA
ATOM     22  H   UNL     1       1.925  13.854  21.402  1.00  0.00     0.293 HD
ENDBRANCH  18  21
ENDBRANCH   3  13
BRANCH  10  23
ATOM     23  O   UNL     1       4.330  13.928  11.047  1.00  0.00    -0.507 OA
ATOM     24  H   UNL     1       3.762  14.757  10.878  1.00  0.00     0.293 HD
ENDBRANCH  10  23
BRANCH  11  25
ATOM     25  O   UNL     1       3.021   9.275  10.888  1.00  0.00    -0.508 OA
ATOM     26  H   UNL     1       3.816   8.653  10.781  1.00  0.00     0.293 HD
ENDBRANCH  11  25
ENDBRANCH   1   2
BRANCH   1  27
ATOM     27  C   UNL     1       2.565  16.295  16.272  1.00  0.00     0.339 C 
ATOM     28  C   UNL     1       2.114  16.566  17.738  1.00  0.00     0.214 C 
ATOM     29  O   UNL     1       3.300  17.379  15.742  1.00  0.00    -0.332 OA
ATOM     30  C   UNL     1       1.949  18.089  17.987  1.00  0.00     0.180 C 
ATOM     31  C   UNL     1       2.460  18.522  15.539  1.00  0.00     0.179 C 
ATOM     32  C   UNL     1       1.408  18.738  16.684  1.00  0.00     0.177 C 
BRANCH  28  33
ATOM     33  O   UNL     1       0.929  15.876  18.080  1.00  0.00    -0.384 OA
ATOM     34  H   UNL     1       0.169  16.522  18.085  1.00  0.00     0.211 HD
ENDBRANCH  28  33
BRANCH  30  35
ATOM     35  O   UNL     1       3.190  18.664  18.325  1.00  0.00    -0.387 OA
ATOM     36  H   UNL     1       3.118  18.993  19.257  1.00  0.00     0.211 HD
ENDBRANCH  30  35
BRANCH  31  37
ATOM     37  C   UNL     1       1.814  18.460  14.140  1.00  0.00     0.191 C 
BRANCH  37  38
ATOM     38  O   UNL     1       2.820  18.260  13.176  1.00  0.00    -0.394 OA
ATOM     39  H   UNL     1       3.646  18.681  13.530  1.00  0.00     0.210 HD
ENDBRANCH  37  38
ENDBRANCH  31  37
BRANCH  32  40
ATOM     40  O   UNL     1       1.141  20.117  16.835  1.00  0.00    -0.387 OA
ATOM     41  H   UNL     1       2.010  20.590  16.765  1.00  0.00     0.211 HD
ENDBRANCH  32  40
ENDBRANCH   1  27
TORSDOF 12
ENDMDL
MODEL 4
REMARK VINA RESULT:    14.586      2.963      6.677
REMARK INTER + INTRA:          20.963
REMARK INTER:                  15.753
REMARK INTRA:                   5.210
REMARK UNBOUND:                -0.445
REMARK SMILES O=c1c(O[C@@H]2O[C@@H](CO)[C@H](O)[C@H](O)[C@H]2O)c(-c2ccc(O)c(O)c2)oc2cc(O)cc(O)c12
REMARK SMILES IDX 4 1 3 2 16 3 25 4 2 5 26 6 1 7 33 8 27 9 31 10 28 11 30 12
REMARK SMILES IDX 17 13 18 14 19 15 20 16 24 17 22 18 21 19 23 21 32 23 29 25
REMARK SMILES IDX 5 27 14 28 6 29 12 30 7 31 10 32 15 33 13 35 8 37 9 38 11 40
REMARK H PARENT 21 20 23 22 32 24 29 26 15 34 13 36 9 39 11 41
REMARK Flexibility Score: inf
ROOT
ATOM      1  O   UNL     1       2.842   9.386  11.640  1.00  0.00    -0.454 OA
ENDROOT
BRANCH   1   2
ATOM      2  C   UNL     1       4.138   8.976  11.944  1.00  0.00     0.214 A 
ATOM      3  C   UNL     1       5.126   9.976  12.023  1.00  0.00     0.180 A 
ATOM      4  O   UNL     1       6.406   9.655  12.126  1.00  0.00    -0.452 OA
ATOM      5  C   UNL     1       4.530   7.646  12.198  1.00  0.00     0.239 A 
ATOM      6  C   UNL     1       6.828   8.398  12.259  1.00  0.00     0.146 A 
ATOM      7  O   UNL     1       3.662   6.743  12.371  1.00  0.00    -0.285 OA
ATOM      8  C   UNL     1       5.903   7.331  12.323  1.00  0.00     0.111 A 
ATOM      9  C   UNL     1       8.196   8.167  12.425  1.00  0.00     0.094 A 
ATOM     10  C   UNL     1       6.386   6.014  12.502  1.00  0.00     0.134 A 
ATOM     11  C   UNL     1       8.669   6.860  12.631  1.00  0.00     0.123 A 
ATOM     12  C   UNL     1       7.763   5.794  12.670  1.00  0.00     0.093 A 
BRANCH   3  13
ATOM     13  C   UNL     1       4.772  11.405  12.074  1.00  0.00     0.025 A 
ATOM     14  C   UNL     1       4.580  12.121  10.880  1.00  0.00     0.016 A 
ATOM     15  C   UNL     1       4.160  13.453  10.910  1.00  0.00     0.051 A 
ATOM     16  C   UNL     1       3.915  14.086  12.132  1.00  0.00     0.157 A 
ATOM     17  C   UNL     1       4.569  12.069  13.306  1.00  0.00     0.062 A 
ATOM     18  C   UNL     1       4.158  13.415  13.329  1.00  0.00     0.158 A 
BRANCH  16  19
ATOM     19  O   UNL     1       3.489  15.416  12.175  1.00  0.00    -0.504 OA
ATOM     20  H   UNL     1       3.871  16.124  11.561  1.00  0.00     0.293 HD
ENDBRANCH  16  19
BRANCH  18  21
ATOM     21  O   UNL     1       4.011  14.104  14.527  1.00  0.00    -0.504 OA
ATOM     22  H   UNL     1       4.793  14.284  15.166  1.00  0.00     0.293 HD
ENDBRANCH  18  21
ENDBRANCH   3  13
BRANCH  10  23
ATOM     23  O   UNL     1       5.512   4.922  12.546  1.00  0.00    -0.507 OA
ATOM     24  H   UNL     1       5.614   4.136  11.905  1.00  0.00     0.293 HD
ENDBRANCH  10  23
BRANCH  11  25
ATOM     25  O   UNL     1      10.035   6.619  12.778  1.00  0.00    -0.508 OA
ATOM     26  H   UNL     1      10.513   5.958  12.174  1.00  0.00     0.293 HD
ENDBRANCH  11  25
ENDBRANCH   1   2
BRANCH   1  27
ATOM     27  C   UNL     1       1.943  10.272  12.308  1.00  0.00     0.339 C 
ATOM     28  C   UNL     1       1.798  10.003  13.835  1.00  0.00     0.214 C 
ATOM     29  O   UNL     1       2.275  11.620  12.044  1.00  0.00    -0.332 OA
ATOM     30  C   UNL     1       1.360  11.293  14.579  1.00  0.00     0.180 C 
ATOM     31  C   UNL     1       1.178  12.491  12.349  1.00  0.00     0.179 C 
ATOM     32  C   UNL     1       0.400  12.087  13.652  1.00  0.00     0.177 C 
BRANCH  28  33
ATOM     33  O   UNL     1       0.909   8.941  14.118  1.00  0.00    -0.384 OA
ATOM     34  H   UNL     1       0.009   9.166  13.751  1.00  0.00     0.211 HD
ENDBRANCH  28  33
BRANCH  30  35
ATOM     35  O   UNL     1       2.485  12.083  14.886  1.00  0.00    -0.387 OA
ATOM     36  H   UNL     1       3.010  11.594  15.571  1.00  0.00     0.211 HD
ENDBRANCH  30  35
BRANCH  31  37
ATOM     37  C   UNL     1       0.255  12.625  11.121  1.00  0.00     0.191 C 
BRANCH  37  38
ATOM     38  O   UNL     1       0.009  13.989  10.875  1.00  0.00    -0.394 OA
ATOM     39  H   UNL     1      -0.975  14.098  10.813  1.00  0.00     0.210 HD
ENDBRANCH  37  38
ENDBRANCH  31  37
BRANCH  32  40
ATOM     40  O   UNL     1      -0.125  13.241  14.274  1.00  0.00    -0.387 OA
ATOM     41  H   UNL     1       0.063  14.005  13.671  1.00  0.00     0.211 HD
ENDBRANCH  32  40
ENDBRANCH   1  27
TORSDOF 12
ENDMDL
MODEL 5
REMARK VINA RESULT:    15.355      1.604      6.322
REMARK INTER + INTRA:          22.091
REMARK INTER:                  21.960
REMARK INTRA:                   0.130
REMARK UNBOUND:                -0.445
REMARK SMILES O=c1c(O[C@@H]2O[C@@H](CO)[C@H](O)[C@H](O)[C@H]2O)c(-c2ccc(O)c(O)c2)oc2cc(O)cc(O)c12
REMARK SMILES IDX 4 1 3 2 16 3 25 4 2 5 26 6 1 7 33 8 27 9 31 10 28 11 30 12
REMARK SMILES IDX 17 13 18 14 19 15 20 16 24 17 22 18 21 19 23 21 32 23 29 25
REMARK SMILES IDX 5 27 14 28 6 29 12 30 7 31 10 32 15 33 13 35 8 37 9 38 11 40
REMARK H PARENT 21 20 23 22 32 24 29 26 15 34 13 36 9 39 11 41
REMARK Flexibility Score: inf
ROOT
ATOM      1  O   UNL     1       2.277  13.106  14.757  1.00  0.00    -0.454 OA
ENDROOT
BRANCH   1   2
ATOM      2  C   UNL     1       2.786  12.033  14.028  1.00  0.00     0.214 A 
ATOM      3  C   UNL     1       3.150  12.281  12.690  1.00  0.00     0.180 A 
ATOM      4  O   UNL     1       3.468  11.283  11.881  1.00  0.00    -0.452 OA
ATOM      5  C   UNL     1       2.984  10.731  14.531  1.00  0.00     0.239 A 
ATOM      6  C   UNL     1       3.560  10.020  12.292  1.00  0.00     0.146 A 
ATOM      7  O   UNL     1       2.900  10.502  15.771  1.00  0.00    -0.285 OA
ATOM      8  C   UNL     1       3.343   9.686  13.649  1.00  0.00     0.111 A 
ATOM      9  C   UNL     1       3.966   9.047  11.375  1.00  0.00     0.094 A 
ATOM     10  C   UNL     1       3.486   8.339  14.055  1.00  0.00     0.134 A 
ATOM     11  C   UNL     1       4.135   7.715  11.790  1.00  0.00     0.123 A 
ATOM     12  C   UNL     1       3.897   7.370  13.125  1.00  0.00     0.093 A 
BRANCH   3  13
ATOM     13  C   UNL     1       3.267  13.653  12.167  1.00  0.00     0.025 A 
ATOM     14  C   UNL     1       2.253  14.177  11.346  1.00  0.00     0.016 A 
ATOM     15  C   UNL     1       2.306  15.503  10.911  1.00  0.00     0.051 A 
ATOM     16  C   UNL     1       3.365  16.329  11.299  1.00  0.00     0.157 A 
ATOM     17  C   UNL     1       4.358  14.482  12.512  1.00  0.00     0.062 A 
ATOM     18  C   UNL     1       4.412  15.813  12.060  1.00  0.00     0.158 A 
BRANCH  16  19
ATOM     19  O   UNL     1       3.425  17.659  10.875  1.00  0.00    -0.504 OA
ATOM     20  H   UNL     1       3.770  17.918   9.960  1.00  0.00     0.293 HD
ENDBRANCH  16  19
BRANCH  18  21
ATOM     21  O   UNL     1       5.504  16.627  12.338  1.00  0.00    -0.504 OA
ATOM     22  H   UNL     1       5.453  17.430  12.974  1.00  0.00     0.293 HD
ENDBRANCH  18  21
ENDBRANCH   3  13
BRANCH  10  23
ATOM     23  O   UNL     1       3.256   7.954  15.381  1.00  0.00    -0.507 OA
ATOM     24  H   UNL     1       3.388   8.607  16.152  1.00  0.00     0.293 HD
ENDBRANCH  10  23
BRANCH  11  25
ATOM     25  O   UNL     1       4.520   6.735  10.875  1.00  0.00    -0.508 OA
ATOM     26  H   UNL     1       4.565   5.758  11.148  1.00  0.00     0.293 HD
ENDBRANCH  11  25
ENDBRANCH   1   2
BRANCH   1  27
ATOM     27  C   UNL     1       2.043  13.281  16.154  1.00  0.00     0.339 C 
ATOM     28  C   UNL     1       1.271  12.107  16.825  1.00  0.00     0.214 C 
ATOM     29  O   UNL     1       3.247  13.571  16.835  1.00  0.00    -0.332 OA
ATOM     30  C   UNL     1       1.591  12.036  18.342  1.00  0.00     0.180 C 
ATOM     31  C   UNL     1       2.987  14.145  18.122  1.00  0.00     0.179 C 
ATOM     32  C   UNL     1       1.772  13.487  18.868  1.00  0.00     0.177 C 
BRANCH  28  33
ATOM     33  O   UNL     1      -0.125  12.183  16.616  1.00  0.00    -0.384 OA
ATOM     34  H   UNL     1      -0.320  12.953  16.014  1.00  0.00     0.211 HD
ENDBRANCH  28  33
BRANCH  30  35
ATOM     35  O   UNL     1       2.774  11.302  18.557  1.00  0.00    -0.387 OA
ATOM     36  H   UNL     1       2.759  10.988  19.497  1.00  0.00     0.211 HD
ENDBRANCH  30  35
BRANCH  31  37
ATOM     37  C   UNL     1       2.852  15.676  17.999  1.00  0.00     0.191 C 
BRANCH  37  38
ATOM     38  O   UNL     1       1.812  16.116  18.839  1.00  0.00    -0.394 OA
ATOM     39  H   UNL     1       1.393  16.897  18.394  1.00  0.00     0.210 HD
ENDBRANCH  37  38
ENDBRANCH  31  37
BRANCH  32  40
ATOM     40  O   UNL     1       1.983  13.536  20.264  1.00  0.00    -0.387 OA
ATOM     41  H   UNL     1       2.392  14.417  20.464  1.00  0.00     0.211 HD
ENDBRANCH  32  40
ENDBRANCH   1  27
TORSDOF 12
ENDMDL
MODEL 6
REMARK VINA RESULT:    16.650      1.581      6.346
REMARK INTER + INTRA:          23.992
REMARK INTER:                  25.069
REMARK INTRA:                  -1.078
REMARK UNBOUND:                -0.445
REMARK SMILES O=c1c(O[C@@H]2O[C@@H](CO)[C@H](O)[C@H](O)[C@H]2O)c(-c2ccc(O)c(O)c2)oc2cc(O)cc(O)c12
REMARK SMILES IDX 4 1 3 2 16 3 25 4 2 5 26 6 1 7 33 8 27 9 31 10 28 11 30 12
REMARK SMILES IDX 17 13 18 14 19 15 20 16 24 17 22 18 21 19 23 21 32 23 29 25
REMARK SMILES IDX 5 27 14 28 6 29 12 30 7 31 10 32 15 33 13 35 8 37 9 38 11 40
REMARK H PARENT 21 20 23 22 32 24 29 26 15 34 13 36 9 39 11 41
REMARK Flexibility Score: inf
ROOT
ATOM      1  O   UNL     1       2.133  12.704  14.740  1.00  0.00    -0.454 OA
ENDROOT
BRANCH   1   2
ATOM      2  C   UNL     1       2.688  11.651  14.015  1.00  0.00     0.214 A 
ATOM      3  C   UNL     1       3.053  11.913  12.680  1.00  0.00     0.180 A 
ATOM      4  O   UNL     1       3.414  10.928  11.874  1.00  0.00    -0.452 OA
ATOM      5  C   UNL     1       2.928  10.357  14.519  1.00  0.00     0.239 A 
ATOM      6  C   UNL     1       3.550   9.669  12.284  1.00  0.00     0.146 A 
ATOM      7  O   UNL     1       2.842  10.125  15.758  1.00  0.00    -0.285 OA
ATOM      8  C   UNL     1       3.333   9.326  13.639  1.00  0.00     0.111 A 
ATOM      9  C   UNL     1       3.998   8.712  11.370  1.00  0.00     0.094 A 
ATOM     10  C   UNL     1       3.522   7.985  14.047  1.00  0.00     0.134 A 
ATOM     11  C   UNL     1       4.213   7.387  11.787  1.00  0.00     0.123 A 
ATOM     12  C   UNL     1       3.976   7.033  13.119  1.00  0.00     0.093 A 
BRANCH   3  13
ATOM     13  C   UNL     1       3.124  13.288  12.158  1.00  0.00     0.025 A 
ATOM     14  C   UNL     1       2.075  13.792  11.369  1.00  0.00     0.016 A 
ATOM     15  C   UNL     1       2.085  15.120  10.938  1.00  0.00     0.051 A 
ATOM     16  C   UNL     1       3.137  15.968  11.296  1.00  0.00     0.157 A 
ATOM     17  C   UNL     1       4.207  14.141  12.473  1.00  0.00     0.062 A 
ATOM     18  C   UNL     1       4.217  15.474  12.025  1.00  0.00     0.158 A 
BRANCH  16  19
ATOM     19  O   UNL     1       3.155  17.301  10.875  1.00  0.00    -0.504 OA
ATOM     20  H   UNL     1       2.487  17.665  10.209  1.00  0.00     0.293 HD
ENDBRANCH  16  19
BRANCH  18  21
ATOM     21  O   UNL     1       5.299  16.311  12.273  1.00  0.00    -0.504 OA
ATOM     22  H   UNL     1       6.265  15.971  12.327  1.00  0.00     0.293 HD
ENDBRANCH  18  21
ENDBRANCH   3  13
BRANCH  10  23
ATOM     23  O   UNL     1       3.295   7.592  15.370  1.00  0.00    -0.507 OA
ATOM     24  H   UNL     1       3.149   6.614  15.615  1.00  0.00     0.293 HD
ENDBRANCH  10  23
BRANCH  11  25
ATOM     25  O   UNL     1       4.641   6.422  10.875  1.00  0.00    -0.508 OA
ATOM     26  H   UNL     1       4.121   6.246  10.021  1.00  0.00     0.293 HD
ENDBRANCH  11  25
ENDBRANCH   1   2
BRANCH   1  27
ATOM     27  C   UNL     1       2.152  13.013  16.133  1.00  0.00     0.339 C 
ATOM     28  C   UNL     1       3.196  14.097  16.533  1.00  0.00     0.214 C 
ATOM     29  O   UNL     1       0.857  13.340  16.594  1.00  0.00    -0.332 OA
ATOM     30  C   UNL     1       2.764  14.819  17.837  1.00  0.00     0.180 C 
ATOM     31  C   UNL     1       0.779  13.248  18.023  1.00  0.00     0.179 C 
ATOM     32  C   UNL     1       2.060  13.783  18.756  1.00  0.00     0.177 C 
BRANCH  28  33
ATOM     33  O   UNL     1       4.502  13.572  16.667  1.00  0.00    -0.384 OA
ATOM     34  H   UNL     1       4.908  13.482  15.761  1.00  0.00     0.211 HD
ENDBRANCH  28  33
BRANCH  30  35
ATOM     35  O   UNL     1       1.875  15.871  17.540  1.00  0.00    -0.387 OA
ATOM     36  H   UNL     1       1.758  15.887  16.556  1.00  0.00     0.211 HD
ENDBRANCH  30  35
BRANCH  31  37
ATOM     37  C   UNL     1       0.411  11.809  18.439  1.00  0.00     0.191 C 
BRANCH  37  38
ATOM     38  O   UNL     1       0.285  11.753  19.839  1.00  0.00    -0.394 OA
ATOM     39  H   UNL     1       1.169  11.996  20.218  1.00  0.00     0.210 HD
ENDBRANCH  37  38
ENDBRANCH  31  37
BRANCH  32  40
ATOM     40  O   UNL     1       1.703  14.324  20.011  1.00  0.00    -0.387 OA
ATOM     41  H   UNL     1       2.306  15.093  20.177  1.00  0.00     0.211 HD
ENDBRANCH  32  40
ENDBRANCH   1  27
TORSDOF 12
ENDMDL
