MODEL 1
REMARK VINA RESULT:    27.559      0.000      0.000
REMARK INTER + INTRA:          32.848
REMARK INTER:                  33.198
REMARK INTRA:                  -0.350
REMARK UNBOUND:                -0.350
REMARK SMILES COc1ccc([C@@H]2CC(=O)c3c(O)cc(O)cc3O2)cc1O
REMARK SMILES IDX 7 1 8 2 9 3 10 4 11 5 12 6 14 7 15 8 17 9 18 10 19 11 6 12
REMARK SMILES IDX 3 13 21 14 4 15 20 16 5 17 2 18 1 19 22 20 13 22 16 24
REMARK H PARENT 22 21 13 23 16 25
REMARK Flexibility Score: inf
ROOT
ATOM      1  C   UNL     1      -6.657   8.650  17.359  1.00  0.00     0.211 C 
ATOM      2  C   UNL     1      -7.440   8.527  18.676  1.00  0.00     0.131 C 
ATOM      3  C   UNL     1      -7.829   9.891  19.173  1.00  0.00     0.174 C 
ATOM      4  O   UNL     1      -7.891  10.101  20.414  1.00  0.00    -0.294 OA
ATOM      5  C   UNL     1      -8.195  10.945  18.196  1.00  0.00     0.102 A 
ATOM      6  C   UNL     1      -8.786  12.168  18.578  1.00  0.00     0.133 A 
ATOM      7  C   UNL     1      -9.150  13.101  17.595  1.00  0.00     0.093 A 
ATOM      8  C   UNL     1      -8.940  12.825  16.241  1.00  0.00     0.123 A 
ATOM      9  C   UNL     1      -8.351  11.613  15.861  1.00  0.00     0.093 A 
ATOM     10  C   UNL     1      -7.966  10.684  16.831  1.00  0.00     0.138 A 
ATOM     11  O   UNL     1      -7.355   9.488  16.434  1.00  0.00    -0.484 OA
ENDROOT
BRANCH   1  12
ATOM     12  C   UNL     1      -6.422   7.290  16.748  1.00  0.00    -0.003 A 
ATOM     13  C   UNL     1      -6.055   4.727  15.623  1.00  0.00     0.160 A 
ATOM     14  C   UNL     1      -5.962   4.913  17.015  1.00  0.00     0.158 A 
ATOM     15  C   UNL     1      -6.342   5.835  14.802  1.00  0.00     0.051 A 
ATOM     16  C   UNL     1      -6.150   6.184  17.570  1.00  0.00     0.057 A 
ATOM     17  C   UNL     1      -6.531   7.101  15.361  1.00  0.00     0.011 A 
BRANCH  13  18
ATOM     18  O   UNL     1      -5.859   3.441  15.095  1.00  0.00    -0.493 OA
ATOM     19  C   UNL     1      -5.982   3.108  13.716  1.00  0.00     0.278 C 
ENDBRANCH  13  18
BRANCH  14  20
ATOM     20  O   UNL     1      -5.685   3.843  17.866  1.00  0.00    -0.504 OA
ATOM     21  H   UNL     1      -5.742   3.925  18.874  1.00  0.00     0.293 HD
ENDBRANCH  14  20
ENDBRANCH   1  12
BRANCH   6  22
ATOM     22  O   UNL     1      -9.021  12.456  19.922  1.00  0.00    -0.507 OA
ATOM     23  H   UNL     1      -8.554  11.949  20.664  1.00  0.00     0.293 HD
ENDBRANCH   6  22
BRANCH   8  24
ATOM     24  O   UNL     1      -9.319  13.761  15.281  1.00  0.00    -0.508 OA
ATOM     25  H   UNL     1      -8.647  14.163  14.638  1.00  0.00     0.293 HD
ENDBRANCH   8  24
TORSDOF 5
ENDMDL
MODEL 2
REMARK VINA RESULT:    28.602      1.626      7.853
REMARK INTER + INTRA:          34.105
REMARK INTER:                  34.472
REMARK INTRA:                  -0.368
REMARK UNBOUND:                -0.350
REMARK SMILES COc1ccc([C@@H]2CC(=O)c3c(O)cc(O)cc3O2)cc1O
REMARK SMILES IDX 7 1 8 2 9 3 10 4 11 5 12 6 14 7 15 8 17 9 18 10 19 11 6 12
REMARK SMILES IDX 3 13 21 14 4 15 20 16 5 17 2 18 1 19 22 20 13 22 16 24
REMARK H PARENT 22 21 13 23 16 25
REMARK Flexibility Score: inf
ROOT
ATOM      1  C   UNL     1      -6.320   7.335  16.313  1.00  0.00     0.211 C 
ATOM      2  C   UNL     1      -7.136   7.033  15.046  1.00  0.00     0.131 C 
ATOM      3  C   UNL     1      -6.707   5.719  14.457  1.00  0.00     0.174 C 
ATOM      4  O   UNL     1      -6.739   5.562  13.207  1.00  0.00    -0.294 OA
ATOM      5  C   UNL     1      -6.316   4.610  15.361  1.00  0.00     0.102 A 
ATOM      6  C   UNL     1      -6.124   3.287  14.908  1.00  0.00     0.133 A 
ATOM      7  C   UNL     1      -5.801   2.277  15.827  1.00  0.00     0.093 A 
ATOM      8  C   UNL     1      -5.677   2.569  17.188  1.00  0.00     0.123 A 
ATOM      9  C   UNL     1      -5.865   3.881  17.639  1.00  0.00     0.093 A 
ATOM     10  C   UNL     1      -6.168   4.899  16.731  1.00  0.00     0.138 A 
ATOM     11  O   UNL     1      -6.328   6.210  17.196  1.00  0.00    -0.484 OA
ENDROOT
BRANCH   1  12
ATOM     12  C   UNL     1      -6.862   8.553  17.020  1.00  0.00    -0.003 A 
ATOM     13  C   UNL     1      -7.811  10.835  18.383  1.00  0.00     0.160 A 
ATOM     14  C   UNL     1      -7.876   9.567  18.989  1.00  0.00     0.158 A 
ATOM     15  C   UNL     1      -7.259  10.950  17.092  1.00  0.00     0.051 A 
ATOM     16  C   UNL     1      -7.399   8.438  18.312  1.00  0.00     0.057 A 
ATOM     17  C   UNL     1      -6.783   9.820  16.422  1.00  0.00     0.011 A 
BRANCH  13  18
ATOM     18  O   UNL     1      -8.299  11.949  19.084  1.00  0.00    -0.493 OA
ATOM     19  C   UNL     1      -9.223  12.894  18.555  1.00  0.00     0.278 C 
ENDBRANCH  13  18
BRANCH  14  20
ATOM     20  O   UNL     1      -8.410   9.408  20.268  1.00  0.00    -0.504 OA
ATOM     21  H   UNL     1      -8.846   8.544  20.568  1.00  0.00     0.293 HD
ENDBRANCH  14  20
ENDBRANCH   1  12
BRANCH   6  22
ATOM     22  O   UNL     1      -6.259   2.970  13.556  1.00  0.00    -0.507 OA
ATOM     23  H   UNL     1      -5.475   3.019  12.917  1.00  0.00     0.293 HD
ENDBRANCH   6  22
BRANCH   8  24
ATOM     24  O   UNL     1      -5.366   1.549  18.085  1.00  0.00    -0.508 OA
ATOM     25  H   UNL     1      -4.545   0.968  17.963  1.00  0.00     0.293 HD
ENDBRANCH   8  24
TORSDOF 5
ENDMDL
MODEL 3
REMARK VINA RESULT:    30.162      2.984      7.195
REMARK INTER + INTRA:          35.983
REMARK INTER:                  36.243
REMARK INTRA:                  -0.260
REMARK UNBOUND:                -0.350
REMARK SMILES COc1ccc([C@@H]2CC(=O)c3c(O)cc(O)cc3O2)cc1O
REMARK SMILES IDX 7 1 8 2 9 3 10 4 11 5 12 6 14 7 15 8 17 9 18 10 19 11 6 12
REMARK SMILES IDX 3 13 21 14 4 15 20 16 5 17 2 18 1 19 22 20 13 22 16 24
REMARK H PARENT 22 21 13 23 16 25
REMARK Flexibility Score: inf
ROOT
ATOM      1  C   UNL     1      -6.154   7.531  16.884  1.00  0.00     0.211 C 
ATOM      2  C   UNL     1      -5.194   6.547  17.570  1.00  0.00     0.131 C 
ATOM      3  C   UNL     1      -5.722   5.145  17.454  1.00  0.00     0.174 C 
ATOM      4  O   UNL     1      -5.503   4.324  18.383  1.00  0.00    -0.294 OA
ATOM      5  C   UNL     1      -6.435   4.737  16.219  1.00  0.00     0.102 A 
ATOM      6  C   UNL     1      -6.758   3.392  15.933  1.00  0.00     0.133 A 
ATOM      7  C   UNL     1      -7.392   3.073  14.723  1.00  0.00     0.093 A 
ATOM      8  C   UNL     1      -7.698   4.072  13.795  1.00  0.00     0.123 A 
ATOM      9  C   UNL     1      -7.380   5.406  14.078  1.00  0.00     0.093 A 
ATOM     10  C   UNL     1      -6.767   5.741  15.288  1.00  0.00     0.138 A 
ATOM     11  O   UNL     1      -6.479   7.082  15.566  1.00  0.00    -0.484 OA
ENDROOT
BRANCH   1  12
ATOM     12  C   UNL     1      -5.551   8.914  16.826  1.00  0.00    -0.003 A 
ATOM     13  C   UNL     1      -4.442  11.502  16.643  1.00  0.00     0.160 A 
ATOM     14  C   UNL     1      -3.699  10.380  16.233  1.00  0.00     0.158 A 
ATOM     15  C   UNL     1      -5.747  11.317  17.137  1.00  0.00     0.051 A 
ATOM     16  C   UNL     1      -4.255   9.098  16.320  1.00  0.00     0.057 A 
ATOM     17  C   UNL     1      -6.298  10.036  17.220  1.00  0.00     0.011 A 
BRANCH  13  18
ATOM     18  O   UNL     1      -3.857  12.775  16.547  1.00  0.00    -0.493 OA
ATOM     19  C   UNL     1      -3.740  13.520  15.339  1.00  0.00     0.278 C 
ENDBRANCH  13  18
BRANCH  14  20
ATOM     20  O   UNL     1      -2.404  10.518  15.732  1.00  0.00    -0.504 OA
ATOM     21  H   UNL     1      -1.584  10.395  16.313  1.00  0.00     0.293 HD
ENDBRANCH  14  20
ENDBRANCH   1  12
BRANCH   6  22
ATOM     22  O   UNL     1      -6.447   2.378  16.837  1.00  0.00    -0.507 OA
ATOM     23  H   UNL     1      -6.160   2.581  17.787  1.00  0.00     0.293 HD
ENDBRANCH   6  22
BRANCH   8  24
ATOM     24  O   UNL     1      -8.317   3.730  12.595  1.00  0.00    -0.508 OA
ATOM     25  H   UNL     1      -8.169   4.268  11.749  1.00  0.00     0.293 HD
ENDBRANCH   8  24
TORSDOF 5
ENDMDL
MODEL 4
REMARK VINA RESULT:    30.386      2.015      2.946
REMARK INTER + INTRA:          36.254
REMARK INTER:                  36.586
REMARK INTRA:                  -0.332
REMARK UNBOUND:                -0.350
REMARK SMILES COc1ccc([C@@H]2CC(=O)c3c(O)cc(O)cc3O2)cc1O
REMARK SMILES IDX 7 1 8 2 9 3 10 4 11 5 12 6 14 7 15 8 17 9 18 10 19 11 6 12
REMARK SMILES IDX 3 13 21 14 4 15 20 16 5 17 2 18 1 19 22 20 13 22 16 24
REMARK H PARENT 22 21 13 23 16 25
REMARK Flexibility Score: inf
ROOT
ATOM      1  C   UNL     1      -6.097   8.106  15.893  1.00  0.00     0.211 C 
ATOM      2  C   UNL     1      -4.757   8.527  16.518  1.00  0.00     0.131 C 
ATOM      3  C   UNL     1      -4.706  10.021  16.671  1.00  0.00     0.174 C 
ATOM      4  O   UNL     1      -3.602  10.617  16.554  1.00  0.00    -0.294 OA
ATOM      5  C   UNL     1      -5.944  10.759  17.020  1.00  0.00     0.102 A 
ATOM      6  C   UNL     1      -5.941  12.118  17.404  1.00  0.00     0.133 A 
ATOM      7  C   UNL     1      -7.144  12.740  17.768  1.00  0.00     0.093 A 
ATOM      8  C   UNL     1      -8.345  12.024  17.761  1.00  0.00     0.123 A 
ATOM      9  C   UNL     1      -8.350  10.678  17.377  1.00  0.00     0.093 A 
ATOM     10  C   UNL     1      -7.162  10.051  16.994  1.00  0.00     0.138 A 
ATOM     11  O   UNL     1      -7.189   8.711  16.590  1.00  0.00    -0.484 OA
ENDROOT
BRANCH   1  12
ATOM     12  C   UNL     1      -6.244   6.604  15.905  1.00  0.00    -0.003 A 
ATOM     13  C   UNL     1      -6.450   3.789  15.892  1.00  0.00     0.160 A 
ATOM     14  C   UNL     1      -6.795   4.533  14.749  1.00  0.00     0.158 A 
ATOM     15  C   UNL     1      -5.993   4.468  17.039  1.00  0.00     0.051 A 
ATOM     16  C   UNL     1      -6.686   5.928  14.757  1.00  0.00     0.057 A 
ATOM     17  C   UNL     1      -5.885   5.860  17.041  1.00  0.00     0.011 A 
BRANCH  13  18
ATOM     18  O   UNL     1      -6.573   2.391  15.856  1.00  0.00    -0.493 OA
ATOM     19  C   UNL     1      -6.327   1.530  16.963  1.00  0.00     0.278 C 
ENDBRANCH  13  18
BRANCH  14  20
ATOM     20  O   UNL     1      -7.247   3.901  13.590  1.00  0.00    -0.504 OA
ATOM     21  H   UNL     1      -8.079   3.322  13.579  1.00  0.00     0.293 HD
ENDBRANCH  14  20
ENDBRANCH   1  12
BRANCH   6  22
ATOM     22  O   UNL     1      -4.752  12.846  17.435  1.00  0.00    -0.507 OA
ATOM     23  H   UNL     1      -3.856  12.396  17.584  1.00  0.00     0.293 HD
ENDBRANCH   6  22
BRANCH   8  24
ATOM     24  O   UNL     1      -9.527  12.660  18.135  1.00  0.00    -0.508 OA
ATOM     25  H   UNL     1     -10.034  12.387  18.969  1.00  0.00     0.293 HD
ENDBRANCH   8  24
TORSDOF 5
ENDMDL
