MODEL 1
REMARK VINA RESULT:    -3.076      0.000      0.000
REMARK INTER + INTRA:          -7.608
REMARK INTER:                  -6.673
REMARK INTRA:                  -0.935
REMARK UNBOUND:                -0.935
REMARK SMILES CCCCCCCCCCCCCCCCCCCCCC(=O)[O-]
REMARK SMILES IDX 12 1 11 2 10 3 9 4 8 5 7 6 6 7 5 8 4 9 3 10 2 11 1 12 13 13
REMARK SMILES IDX 14 14 15 15 16 16 17 17 18 18 19 19 20 20 21 21 22 22 23 23
REMARK SMILES IDX 24 24
REMARK H PARENT
REMARK Flexibility Score: inf
ROOT
ATOM      1  C   UNL     1    -117.513 -98.217  41.068  1.00  0.00     0.000 C 
ENDROOT
BRANCH   1   2
ATOM      2  C   UNL     1    -118.516 -99.240  40.509  1.00  0.00     0.000 C 
BRANCH   2   3
ATOM      3  C   UNL     1    -117.950-100.015  39.306  1.00  0.00     0.000 C 
BRANCH   3   4
ATOM      4  C   UNL     1    -117.185 -99.094  38.339  1.00  0.00    -0.000 C 
BRANCH   4   5
ATOM      5  C   UNL     1    -116.485 -99.867  37.200  1.00  0.00    -0.000 C 
BRANCH   5   6
ATOM      6  C   UNL     1    -117.333 -99.988  35.918  1.00  0.00    -0.000 C 
BRANCH   6   7
ATOM      7  C   UNL     1    -117.162 -98.834  34.911  1.00  0.00    -0.000 C 
BRANCH   7   8
ATOM      8  C   UNL     1    -115.996 -99.008  33.919  1.00  0.00    -0.000 C 
BRANCH   8   9
ATOM      9  C   UNL     1    -115.771 -97.819  32.968  1.00  0.00    -0.000 C 
BRANCH   9  10
ATOM     10  C   UNL     1    -117.031 -96.956  32.785  1.00  0.00    -0.000 C 
BRANCH  10  11
ATOM     11  C   UNL     1    -118.003 -97.557  31.755  1.00  0.00    -0.003 C 
ATOM     12  C   UNL     1    -118.072 -96.738  30.466  1.00  0.00     0.004 C 
ENDBRANCH  10  11
ENDBRANCH   9  10
ENDBRANCH   8   9
ENDBRANCH   7   8
ENDBRANCH   6   7
ENDBRANCH   5   6
ENDBRANCH   4   5
ENDBRANCH   3   4
ENDBRANCH   2   3
ENDBRANCH   1   2
BRANCH   1  13
ATOM     13  C   UNL     1    -117.166 -98.489  42.542  1.00  0.00     0.000 C 
BRANCH  13  14
ATOM     14  C   UNL     1    -117.919 -99.706  43.100  1.00  0.00     0.000 C 
BRANCH  14  15
ATOM     15  C   UNL     1    -118.478 -99.416  44.501  1.00  0.00     0.000 C 
BRANCH  15  16
ATOM     16  C   UNL     1    -117.674-100.106  45.615  1.00  0.00     0.000 C 
BRANCH  16  17
ATOM     17  C   UNL     1    -117.524 -99.237  46.872  1.00  0.00     0.000 C 
BRANCH  17  18
ATOM     18  C   UNL     1    -118.743 -99.399  47.794  1.00  0.00     0.000 C 
BRANCH  18  19
ATOM     19  C   UNL     1    -118.629 -98.576  49.091  1.00  0.00     0.000 C 
BRANCH  19  20
ATOM     20  C   UNL     1    -119.123 -97.119  48.981  1.00  0.00     0.006 C 
BRANCH  20  21
ATOM     21  C   UNL     1    -118.004 -96.068  48.895  1.00  0.00     0.053 C 
BRANCH  21  22
ATOM     22  C   UNL     1    -118.384 -94.910  48.023  1.00  0.00     0.041 C 
ATOM     23  O   UNL     1    -118.778 -93.831  48.537  1.00  0.00    -0.550 OA
ATOM     24  O   UNL     1    -118.338 -95.035  46.640  1.00  0.00    -0.550 OA
ENDBRANCH  21  22
ENDBRANCH  20  21
ENDBRANCH  19  20
ENDBRANCH  18  19
ENDBRANCH  17  18
ENDBRANCH  16  17
ENDBRANCH  15  16
ENDBRANCH  14  15
ENDBRANCH  13  14
ENDBRANCH   1  13
TORSDOF 20
ENDMDL
MODEL 2
REMARK VINA RESULT:    -2.836      4.768     12.504
REMARK INTER + INTRA:          -7.087
REMARK INTER:                  -6.271
REMARK INTRA:                  -0.816
REMARK UNBOUND:                -0.935
REMARK SMILES CCCCCCCCCCCCCCCCCCCCCC(=O)[O-]
REMARK SMILES IDX 12 1 11 2 10 3 9 4 8 5 7 6 6 7 5 8 4 9 3 10 2 11 1 12 13 13
REMARK SMILES IDX 14 14 15 15 16 16 17 17 18 18 19 19 20 20 21 21 22 22 23 23
REMARK SMILES IDX 24 24
REMARK H PARENT
REMARK Flexibility Score: inf
ROOT
ATOM      1  C   UNL     1    -116.944 -98.187  41.480  1.00  0.00     0.000 C 
ENDROOT
BRANCH   1   2
ATOM      2  C   UNL     1    -116.335 -98.870  42.716  1.00  0.00     0.000 C 
BRANCH   2   3
ATOM      3  C   UNL     1    -117.372 -99.700  43.494  1.00  0.00     0.000 C 
BRANCH   3   4
ATOM      4  C   UNL     1    -117.672 -99.094  44.876  1.00  0.00    -0.000 C 
BRANCH   4   5
ATOM      5  C   UNL     1    -118.348-100.094  45.837  1.00  0.00    -0.000 C 
BRANCH   5   6
ATOM      6  C   UNL     1    -117.883 -99.961  47.302  1.00  0.00    -0.000 C 
BRANCH   6   7
ATOM      7  C   UNL     1    -118.896 -99.291  48.250  1.00  0.00    -0.000 C 
BRANCH   7   8
ATOM      8  C   UNL     1    -118.321 -98.148  49.108  1.00  0.00    -0.000 C 
BRANCH   8   9
ATOM      9  C   UNL     1    -119.125 -96.836  49.065  1.00  0.00    -0.000 C 
BRANCH   9  10
ATOM     10  C   UNL     1    -118.237 -95.602  48.836  1.00  0.00    -0.000 C 
BRANCH  10  11
ATOM     11  C   UNL     1    -118.197 -95.178  47.358  1.00  0.00    -0.003 C 
ATOM     12  C   UNL     1    -118.678 -96.284  46.417  1.00  0.00     0.004 C 
ENDBRANCH  10  11
ENDBRANCH   9  10
ENDBRANCH   8   9
ENDBRANCH   7   8
ENDBRANCH   6   7
ENDBRANCH   5   6
ENDBRANCH   4   5
ENDBRANCH   3   4
ENDBRANCH   2   3
ENDBRANCH   1   2
BRANCH   1  13
ATOM     13  C   UNL     1    -118.222 -98.895  40.996  1.00  0.00     0.000 C 
BRANCH  13  14
ATOM     14  C   UNL     1    -117.966 -99.772  39.760  1.00  0.00     0.000 C 
BRANCH  14  15
ATOM     15  C   UNL     1    -116.845 -99.187  38.889  1.00  0.00     0.000 C 
BRANCH  15  16
ATOM     16  C   UNL     1    -116.562-100.035  37.638  1.00  0.00     0.000 C 
BRANCH  16  17
ATOM     17  C   UNL     1    -117.679 -99.946  36.588  1.00  0.00     0.000 C 
BRANCH  17  18
ATOM     18  C   UNL     1    -117.246 -99.063  35.407  1.00  0.00     0.000 C 
BRANCH  18  19
ATOM     19  C   UNL     1    -117.189 -99.830  34.073  1.00  0.00     0.000 C 
BRANCH  19  20
ATOM     20  C   UNL     1    -117.979 -99.183  32.917  1.00  0.00     0.006 C 
BRANCH  20  21
ATOM     21  C   UNL     1    -117.261 -98.009  32.230  1.00  0.00     0.053 C 
BRANCH  21  22
ATOM     22  C   UNL     1    -118.142 -97.315  31.235  1.00  0.00     0.041 C 
ATOM     23  O   UNL     1    -118.511 -96.129  31.434  1.00  0.00    -0.550 OA
ATOM     24  O   UNL     1    -118.584 -97.991  30.104  1.00  0.00    -0.550 OA
ENDBRANCH  21  22
ENDBRANCH  20  21
ENDBRANCH  19  20
ENDBRANCH  18  19
ENDBRANCH  17  18
ENDBRANCH  16  17
ENDBRANCH  15  16
ENDBRANCH  14  15
ENDBRANCH  13  14
ENDBRANCH   1  13
TORSDOF 20
ENDMDL
MODEL 3
REMARK VINA RESULT:    -2.284      4.393     11.943
REMARK INTER + INTRA:          -5.889
REMARK INTER:                  -7.007
REMARK INTRA:                   1.117
REMARK UNBOUND:                -0.935
REMARK SMILES CCCCCCCCCCCCCCCCCCCCCC(=O)[O-]
REMARK SMILES IDX 12 1 11 2 10 3 9 4 8 5 7 6 6 7 5 8 4 9 3 10 2 11 1 12 13 13
REMARK SMILES IDX 14 14 15 15 16 16 17 17 18 18 19 19 20 20 21 21 22 22 23 23
REMARK SMILES IDX 24 24
REMARK H PARENT
REMARK Flexibility Score: inf
ROOT
ATOM      1  C   UNL     1    -117.547 -97.873  41.035  1.00  0.00     0.000 C 
ENDROOT
BRANCH   1   2
ATOM      2  C   UNL     1    -118.735 -97.855  42.010  1.00  0.00     0.000 C 
BRANCH   2   3
ATOM      3  C   UNL     1    -118.299 -98.102  43.465  1.00  0.00     0.000 C 
BRANCH   3   4
ATOM      4  C   UNL     1    -118.556 -99.554  43.904  1.00  0.00    -0.000 C 
BRANCH   4   5
ATOM      5  C   UNL     1    -118.767 -99.694  45.426  1.00  0.00    -0.000 C 
BRANCH   5   6
ATOM      6  C   UNL     1    -119.125 -98.369  46.130  1.00  0.00    -0.000 C 
BRANCH   6   7
ATOM      7  C   UNL     1    -118.146 -97.208  45.872  1.00  0.00    -0.000 C 
BRANCH   7   8
ATOM      8  C   UNL     1    -118.432 -95.928  46.681  1.00  0.00    -0.000 C 
BRANCH   8   9
ATOM      9  C   UNL     1    -118.733 -96.157  48.173  1.00  0.00    -0.000 C 
BRANCH   9  10
ATOM     10  C   UNL     1    -117.597 -96.894  48.903  1.00  0.00    -0.000 C 
BRANCH  10  11
ATOM     11  C   UNL     1    -117.916 -98.382  49.125  1.00  0.00    -0.003 C 
ATOM     12  C   UNL     1    -117.101 -99.299  48.211  1.00  0.00     0.004 C 
ENDBRANCH  10  11
ENDBRANCH   9  10
ENDBRANCH   8   9
ENDBRANCH   7   8
ENDBRANCH   6   7
ENDBRANCH   5   6
ENDBRANCH   4   5
ENDBRANCH   3   4
ENDBRANCH   2   3
ENDBRANCH   1   2
BRANCH   1  13
ATOM     13  C   UNL     1    -116.519 -98.962  41.392  1.00  0.00     0.000 C 
BRANCH  13  14
ATOM     14  C   UNL     1    -116.392-100.025  40.290  1.00  0.00     0.000 C 
BRANCH  14  15
ATOM     15  C   UNL     1    -117.656-100.073  39.419  1.00  0.00     0.000 C 
BRANCH  15  16
ATOM     16  C   UNL     1    -117.339-100.083  37.915  1.00  0.00     0.000 C 
BRANCH  16  17
ATOM     17  C   UNL     1    -116.555 -98.843  37.459  1.00  0.00     0.000 C 
BRANCH  17  18
ATOM     18  C   UNL     1    -116.008 -99.038  36.036  1.00  0.00     0.000 C 
BRANCH  18  19
ATOM     19  C   UNL     1    -117.087 -99.488  35.034  1.00  0.00     0.000 C 
BRANCH  19  20
ATOM     20  C   UNL     1    -116.545-100.042  33.701  1.00  0.00     0.006 C 
BRANCH  20  21
ATOM     21  C   UNL     1    -115.732 -99.033  32.872  1.00  0.00     0.053 C 
BRANCH  21  22
ATOM     22  C   UNL     1    -116.346 -97.665  32.888  1.00  0.00     0.041 C 
ATOM     23  O   UNL     1    -115.776 -96.722  33.495  1.00  0.00    -0.550 OA
ATOM     24  O   UNL     1    -117.566 -97.442  32.263  1.00  0.00    -0.550 OA
ENDBRANCH  21  22
ENDBRANCH  20  21
ENDBRANCH  19  20
ENDBRANCH  18  19
ENDBRANCH  17  18
ENDBRANCH  16  17
ENDBRANCH  15  16
ENDBRANCH  14  15
ENDBRANCH  13  14
ENDBRANCH   1  13
TORSDOF 20
ENDMDL
MODEL 4
REMARK VINA RESULT:    -2.041      1.476      3.678
REMARK INTER + INTRA:          -5.361
REMARK INTER:                  -5.060
REMARK INTRA:                  -0.302
REMARK UNBOUND:                -0.935
REMARK SMILES CCCCCCCCCCCCCCCCCCCCCC(=O)[O-]
REMARK SMILES IDX 12 1 11 2 10 3 9 4 8 5 7 6 6 7 5 8 4 9 3 10 2 11 1 12 13 13
REMARK SMILES IDX 14 14 15 15 16 16 17 17 18 18 19 19 20 20 21 21 22 22 23 23
REMARK SMILES IDX 24 24
REMARK H PARENT
REMARK Flexibility Score: inf
ROOT
ATOM      1  C   UNL     1    -116.767 -98.812  37.439  1.00  0.00     0.000 C 
ENDROOT
BRANCH   1   2
ATOM      2  C   UNL     1    -115.760 -99.417  36.446  1.00  0.00     0.000 C 
BRANCH   2   3
ATOM      3  C   UNL     1    -116.456-100.125  35.270  1.00  0.00     0.000 C 
BRANCH   3   4
ATOM      4  C   UNL     1    -117.279 -99.145  34.416  1.00  0.00    -0.000 C 
BRANCH   4   5
ATOM      5  C   UNL     1    -116.903 -97.669  34.664  1.00  0.00    -0.000 C 
BRANCH   5   6
ATOM      6  C   UNL     1    -115.831 -97.128  33.697  1.00  0.00    -0.000 C 
BRANCH   6   7
ATOM      7  C   UNL     1    -116.047 -97.490  32.215  1.00  0.00    -0.000 C 
BRANCH   7   8
ATOM      8  C   UNL     1    -117.086 -96.621  31.480  1.00  0.00    -0.000 C 
BRANCH   8   9
ATOM      9  C   UNL     1    -118.494 -96.628  32.103  1.00  0.00    -0.000 C 
BRANCH   9  10
ATOM     10  C   UNL     1    -119.120 -98.031  32.142  1.00  0.00    -0.000 C 
BRANCH  10  11
ATOM     11  C   UNL     1    -119.110 -98.712  30.763  1.00  0.00    -0.003 C 
ATOM     12  C   UNL     1    -118.413-100.073  30.785  1.00  0.00     0.004 C 
ENDBRANCH  10  11
ENDBRANCH   9  10
ENDBRANCH   8   9
ENDBRANCH   7   8
ENDBRANCH   6   7
ENDBRANCH   5   6
ENDBRANCH   4   5
ENDBRANCH   3   4
ENDBRANCH   2   3
ENDBRANCH   1   2
BRANCH   1  13
ATOM     13  C   UNL     1    -116.841 -99.614  38.751  1.00  0.00     0.000 C 
BRANCH  13  14
ATOM     14  C   UNL     1    -118.261-100.125  39.039  1.00  0.00     0.000 C 
BRANCH  14  15
ATOM     15  C   UNL     1    -118.616 -99.965  40.525  1.00  0.00     0.000 C 
BRANCH  15  16
ATOM     16  C   UNL     1    -118.099 -98.644  41.119  1.00  0.00     0.000 C 
BRANCH  16  17
ATOM     17  C   UNL     1    -118.730 -98.311  42.479  1.00  0.00     0.000 C 
BRANCH  17  18
ATOM     18  C   UNL     1    -117.649 -98.176  43.562  1.00  0.00     0.000 C 
BRANCH  18  19
ATOM     19  C   UNL     1    -117.786 -99.226  44.681  1.00  0.00     0.000 C 
BRANCH  19  20
ATOM     20  C   UNL     1    -118.418 -98.706  45.987  1.00  0.00     0.006 C 
BRANCH  20  21
ATOM     21  C   UNL     1    -118.950 -97.265  45.911  1.00  0.00     0.053 C 
BRANCH  21  22
ATOM     22  C   UNL     1    -118.298 -96.368  46.920  1.00  0.00     0.041 C 
ATOM     23  O   UNL     1    -118.134 -95.146  46.671  1.00  0.00    -0.550 OA
ATOM     24  O   UNL     1    -117.838 -96.892  48.122  1.00  0.00    -0.550 OA
ENDBRANCH  21  22
ENDBRANCH  20  21
ENDBRANCH  19  20
ENDBRANCH  18  19
ENDBRANCH  17  18
ENDBRANCH  16  17
ENDBRANCH  15  16
ENDBRANCH  14  15
ENDBRANCH  13  14
ENDBRANCH   1  13
TORSDOF 20
ENDMDL
MODEL 5
REMARK VINA RESULT:    -1.856      3.987     11.990
REMARK INTER + INTRA:          -4.962
REMARK INTER:                  -4.226
REMARK INTRA:                  -0.736
REMARK UNBOUND:                -0.935
REMARK SMILES CCCCCCCCCCCCCCCCCCCCCC(=O)[O-]
REMARK SMILES IDX 12 1 11 2 10 3 9 4 8 5 7 6 6 7 5 8 4 9 3 10 2 11 1 12 13 13
REMARK SMILES IDX 14 14 15 15 16 16 17 17 18 18 19 19 20 20 21 21 22 22 23 23
REMARK SMILES IDX 24 24
REMARK H PARENT
REMARK Flexibility Score: inf
ROOT
ATOM      1  C   UNL     1    -117.547 -98.590  39.597  1.00  0.00     0.000 C 
ENDROOT
BRANCH   1   2
ATOM      2  C   UNL     1    -118.937 -98.668  40.252  1.00  0.00     0.000 C 
BRANCH   2   3
ATOM      3  C   UNL     1    -119.089 -99.908  41.150  1.00  0.00     0.000 C 
BRANCH   3   4
ATOM      4  C   UNL     1    -119.038 -99.546  42.644  1.00  0.00    -0.000 C 
BRANCH   4   5
ATOM      5  C   UNL     1    -118.818 -98.038  42.890  1.00  0.00    -0.000 C 
BRANCH   5   6
ATOM      6  C   UNL     1    -118.581 -97.677  44.371  1.00  0.00    -0.000 C 
BRANCH   6   7
ATOM      7  C   UNL     1    -118.002 -98.814  45.235  1.00  0.00    -0.000 C 
BRANCH   7   8
ATOM      8  C   UNL     1    -118.690 -99.002  46.601  1.00  0.00    -0.000 C 
BRANCH   8   9
ATOM      9  C   UNL     1    -117.758 -98.876  47.819  1.00  0.00    -0.000 C 
BRANCH   9  10
ATOM     10  C   UNL     1    -118.333 -97.964  48.916  1.00  0.00    -0.000 C 
BRANCH  10  11
ATOM     11  C   UNL     1    -117.876 -96.504  48.759  1.00  0.00    -0.003 C 
ATOM     12  C   UNL     1    -118.232 -95.921  47.391  1.00  0.00     0.004 C 
ENDBRANCH  10  11
ENDBRANCH   9  10
ENDBRANCH   8   9
ENDBRANCH   7   8
ENDBRANCH   6   7
ENDBRANCH   5   6
ENDBRANCH   4   5
ENDBRANCH   3   4
ENDBRANCH   2   3
ENDBRANCH   1   2
BRANCH   1  13
ATOM     13  C   UNL     1    -117.082 -99.955  39.060  1.00  0.00     0.000 C 
BRANCH  13  14
ATOM     14  C   UNL     1    -116.629 -99.878  37.594  1.00  0.00     0.000 C 
BRANCH  14  15
ATOM     15  C   UNL     1    -117.704 -99.221  36.716  1.00  0.00     0.000 C 
BRANCH  15  16
ATOM     16  C   UNL     1    -118.157-100.124  35.557  1.00  0.00     0.000 C 
BRANCH  16  17
ATOM     17  C   UNL     1    -119.125 -99.422  34.593  1.00  0.00     0.000 C 
BRANCH  17  18
ATOM     18  C   UNL     1    -118.546 -99.388  33.170  1.00  0.00     0.000 C 
BRANCH  18  19
ATOM     19  C   UNL     1    -118.211 -97.963  32.691  1.00  0.00     0.000 C 
BRANCH  19  20
ATOM     20  C   UNL     1    -116.718 -97.708  32.403  1.00  0.00     0.006 C 
BRANCH  20  21
ATOM     21  C   UNL     1    -115.923 -97.149  33.595  1.00  0.00     0.053 C 
BRANCH  21  22
ATOM     22  C   UNL     1    -115.361 -98.238  34.458  1.00  0.00     0.041 C 
ATOM     23  O   UNL     1    -114.731 -97.952  35.509  1.00  0.00    -0.550 OA
ATOM     24  O   UNL     1    -115.503 -99.568  34.083  1.00  0.00    -0.550 OA
ENDBRANCH  21  22
ENDBRANCH  20  21
ENDBRANCH  19  20
ENDBRANCH  18  19
ENDBRANCH  17  18
ENDBRANCH  16  17
ENDBRANCH  15  16
ENDBRANCH  14  15
ENDBRANCH  13  14
ENDBRANCH   1  13
TORSDOF 20
ENDMDL
MODEL 6
REMARK VINA RESULT:    -0.385      4.710     12.415
REMARK INTER + INTRA:          -1.770
REMARK INTER:                  -0.561
REMARK INTRA:                  -1.209
REMARK UNBOUND:                -0.935
REMARK SMILES CCCCCCCCCCCCCCCCCCCCCC(=O)[O-]
REMARK SMILES IDX 12 1 11 2 10 3 9 4 8 5 7 6 6 7 5 8 4 9 3 10 2 11 1 12 13 13
REMARK SMILES IDX 14 14 15 15 16 16 17 17 18 18 19 19 20 20 21 21 22 22 23 23
REMARK SMILES IDX 24 24
REMARK H PARENT
REMARK Flexibility Score: inf
ROOT
ATOM      1  C   UNL     1    -117.191 -98.407  39.909  1.00  0.00     0.000 C 
ENDROOT
BRANCH   1   2
ATOM      2  C   UNL     1    -118.643 -98.831  40.185  1.00  0.00     0.000 C 
BRANCH   2   3
ATOM      3  C   UNL     1    -118.725-100.116  41.028  1.00  0.00     0.000 C 
BRANCH   3   4
ATOM      4  C   UNL     1    -118.544 -99.830  42.528  1.00  0.00    -0.000 C 
BRANCH   4   5
ATOM      5  C   UNL     1    -119.007 -98.414  42.932  1.00  0.00    -0.000 C 
BRANCH   5   6
ATOM      6  C   UNL     1    -118.896 -98.130  44.444  1.00  0.00    -0.000 C 
BRANCH   6   7
ATOM      7  C   UNL     1    -117.899 -99.026  45.204  1.00  0.00    -0.000 C 
BRANCH   7   8
ATOM      8  C   UNL     1    -118.453 -99.659  46.496  1.00  0.00    -0.000 C 
BRANCH   8   9
ATOM      9  C   UNL     1    -117.707 -99.265  47.783  1.00  0.00    -0.000 C 
BRANCH   9  10
ATOM     10  C   UNL     1    -118.611 -98.543  48.796  1.00  0.00    -0.000 C 
BRANCH  10  11
ATOM     11  C   UNL     1    -118.532 -97.012  48.661  1.00  0.00    -0.003 C 
ATOM     12  C   UNL     1    -117.098 -96.513  48.473  1.00  0.00     0.004 C 
ENDBRANCH  10  11
ENDBRANCH   9  10
ENDBRANCH   8   9
ENDBRANCH   7   8
ENDBRANCH   6   7
ENDBRANCH   5   6
ENDBRANCH   4   5
ENDBRANCH   3   4
ENDBRANCH   2   3
ENDBRANCH   1   2
BRANCH   1  13
ATOM     13  C   UNL     1    -116.313 -99.593  39.475  1.00  0.00     0.000 C 
BRANCH  13  14
ATOM     14  C   UNL     1    -116.135 -99.657  37.950  1.00  0.00     0.000 C 
BRANCH  14  15
ATOM     15  C   UNL     1    -117.348 -99.055  37.226  1.00  0.00     0.000 C 
BRANCH  15  16
ATOM     16  C   UNL     1    -118.344-100.125  36.749  1.00  0.00     0.000 C 
BRANCH  16  17
ATOM     17  C   UNL     1    -118.885 -99.853  35.337  1.00  0.00     0.000 C 
BRANCH  17  18
ATOM     18  C   UNL     1    -117.766 -99.984  34.292  1.00  0.00     0.000 C 
BRANCH  18  19
ATOM     19  C   UNL     1    -117.437 -98.651  33.594  1.00  0.00     0.000 C 
BRANCH  19  20
ATOM     20  C   UNL     1    -117.635 -98.652  32.065  1.00  0.00     0.006 C 
BRANCH  20  21
ATOM     21  C   UNL     1    -118.769 -97.740  31.565  1.00  0.00     0.053 C 
BRANCH  21  22
ATOM     22  C   UNL     1    -118.258 -96.410  31.099  1.00  0.00     0.041 C 
ATOM     23  O   UNL     1    -117.831 -95.568  31.930  1.00  0.00    -0.550 OA
ATOM     24  O   UNL     1    -118.286 -96.088  29.748  1.00  0.00    -0.550 OA
ENDBRANCH  21  22
ENDBRANCH  20  21
ENDBRANCH  19  20
ENDBRANCH  18  19
ENDBRANCH  17  18
ENDBRANCH  16  17
ENDBRANCH  15  16
ENDBRANCH  14  15
ENDBRANCH  13  14
ENDBRANCH   1  13
TORSDOF 20
ENDMDL
MODEL 7
REMARK VINA RESULT:    -0.290      4.648     12.411
REMARK INTER + INTRA:          -1.564
REMARK INTER:                  -1.668
REMARK INTRA:                   0.104
REMARK UNBOUND:                -0.935
REMARK SMILES CCCCCCCCCCCCCCCCCCCCCC(=O)[O-]
REMARK SMILES IDX 12 1 11 2 10 3 9 4 8 5 7 6 6 7 5 8 4 9 3 10 2 11 1 12 13 13
REMARK SMILES IDX 14 14 15 15 16 16 17 17 18 18 19 19 20 20 21 21 22 22 23 23
REMARK SMILES IDX 24 24
REMARK H PARENT
REMARK Flexibility Score: inf
ROOT
ATOM      1  C   UNL     1    -114.828 -97.019  35.004  1.00  0.00     0.000 C 
ENDROOT
BRANCH   1   2
ATOM      2  C   UNL     1    -114.909 -98.342  35.785  1.00  0.00     0.000 C 
BRANCH   2   3
ATOM      3  C   UNL     1    -116.362 -98.753  36.085  1.00  0.00     0.000 C 
BRANCH   3   4
ATOM      4  C   UNL     1    -116.442 -99.800  37.209  1.00  0.00    -0.000 C 
BRANCH   4   5
ATOM      5  C   UNL     1    -116.887 -99.200  38.559  1.00  0.00    -0.000 C 
BRANCH   5   6
ATOM      6  C   UNL     1    -118.005-100.001  39.258  1.00  0.00    -0.000 C 
BRANCH   6   7
ATOM      7  C   UNL     1    -117.944 -99.998  40.797  1.00  0.00    -0.000 C 
BRANCH   7   8
ATOM      8  C   UNL     1    -117.475 -98.671  41.425  1.00  0.00    -0.000 C 
BRANCH   8   9
ATOM      9  C   UNL     1    -116.805 -98.807  42.804  1.00  0.00    -0.000 C 
BRANCH   9  10
ATOM     10  C   UNL     1    -117.661 -98.224  43.941  1.00  0.00    -0.000 C 
BRANCH  10  11
ATOM     11  C   UNL     1    -118.103 -99.299  44.948  1.00  0.00    -0.003 C 
ATOM     12  C   UNL     1    -118.080 -98.796  46.392  1.00  0.00     0.004 C 
ENDBRANCH  10  11
ENDBRANCH   9  10
ENDBRANCH   8   9
ENDBRANCH   7   8
ENDBRANCH   6   7
ENDBRANCH   5   6
ENDBRANCH   4   5
ENDBRANCH   3   4
ENDBRANCH   2   3
ENDBRANCH   1   2
BRANCH   1  13
ATOM     13  C   UNL     1    -115.567 -97.095  33.656  1.00  0.00     0.000 C 
BRANCH  13  14
ATOM     14  C   UNL     1    -115.904 -98.541  33.260  1.00  0.00     0.000 C 
BRANCH  14  15
ATOM     15  C   UNL     1    -117.414 -98.717  33.044  1.00  0.00     0.000 C 
BRANCH  15  16
ATOM     16  C   UNL     1    -117.773-100.091  32.454  1.00  0.00     0.000 C 
BRANCH  16  17
ATOM     17  C   UNL     1    -117.694-100.124  30.921  1.00  0.00     0.000 C 
BRANCH  17  18
ATOM     18  C   UNL     1    -118.844 -99.315  30.300  1.00  0.00     0.000 C 
BRANCH  18  19
ATOM     19  C   UNL     1    -118.375 -97.991  29.669  1.00  0.00     0.000 C 
BRANCH  19  20
ATOM     20  C   UNL     1    -119.125 -96.736  30.160  1.00  0.00     0.006 C 
BRANCH  20  21
ATOM     21  C   UNL     1    -118.991 -96.459  31.667  1.00  0.00     0.053 C 
BRANCH  21  22
ATOM     22  C   UNL     1    -118.456 -95.086  31.942  1.00  0.00     0.041 C 
ATOM     23  O   UNL     1    -119.008 -94.077  31.434  1.00  0.00    -0.550 OA
ATOM     24  O   UNL     1    -117.325 -94.925  32.733  1.00  0.00    -0.550 OA
ENDBRANCH  21  22
ENDBRANCH  20  21
ENDBRANCH  19  20
ENDBRANCH  18  19
ENDBRANCH  17  18
ENDBRANCH  16  17
ENDBRANCH  15  16
ENDBRANCH  14  15
ENDBRANCH  13  14
ENDBRANCH   1  13
TORSDOF 20
ENDMDL
