MODEL 1
REMARK VINA RESULT:    -5.402      0.000      0.000
REMARK INTER + INTRA:         -12.388
REMARK INTER:                 -10.454
REMARK INTRA:                  -1.934
REMARK UNBOUND:                -1.934
REMARK SMILES CCCCCCCCCCCCCCCCCC(=O)[O-]
REMARK SMILES IDX 10 1 11 2 12 3 13 4 14 5 15 6 16 7 17 8 18 9 19 10 20 11
REMARK SMILES IDX 9 12 8 13 7 14 6 15 5 16 4 17 3 18 2 19 1 20
REMARK H PARENT
REMARK Flexibility Score: inf
ROOT
ATOM      1  C   UNL     1      10.117  11.582  39.076  1.00  0.00     0.000 C 
ENDROOT
BRANCH   1   2
ATOM      2  C   UNL     1       9.348  12.914  39.106  1.00  0.00     0.000 C 
BRANCH   2   3
ATOM      3  C   UNL     1       9.340  13.572  40.498  1.00  0.00     0.000 C 
BRANCH   3   4
ATOM      4  C   UNL     1       8.999  12.629  41.667  1.00  0.00     0.000 C 
BRANCH   4   5
ATOM      5  C   UNL     1       7.519  12.684  42.071  1.00  0.00     0.000 C 
BRANCH   5   6
ATOM      6  C   UNL     1       6.860  13.975  41.565  1.00  0.00     0.000 C 
BRANCH   6   7
ATOM      7  C   UNL     1       6.591  14.991  42.691  1.00  0.00     0.006 C 
BRANCH   7   8
ATOM      8  C   UNL     1       7.848  15.700  43.219  1.00  0.00     0.053 C 
BRANCH   8   9
ATOM      9  C   UNL     1       8.205  16.899  42.394  1.00  0.00     0.041 C 
ATOM     10  O   UNL     1       7.303  17.670  41.972  1.00  0.00    -0.550 OA
ATOM     11  O   UNL     1       9.531  17.145  42.065  1.00  0.00    -0.550 OA
ENDBRANCH   8   9
ENDBRANCH   7   8
ENDBRANCH   6   7
ENDBRANCH   5   6
ENDBRANCH   4   5
ENDBRANCH   3   4
ENDBRANCH   2   3
ENDBRANCH   1   2
BRANCH   1  12
ATOM     12  C   UNL     1       9.347  10.473  38.341  1.00  0.00     0.000 C 
BRANCH  12  13
ATOM     13  C   UNL     1       8.212   9.878  39.187  1.00  0.00    -0.000 C 
BRANCH  13  14
ATOM     14  C   UNL     1       8.762   8.903  40.236  1.00  0.00    -0.000 C 
BRANCH  14  15
ATOM     15  C   UNL     1       8.090   9.126  41.599  1.00  0.00    -0.000 C 
BRANCH  15  16
ATOM     16  C   UNL     1       9.028   8.825  42.780  1.00  0.00    -0.000 C 
BRANCH  16  17
ATOM     17  C   UNL     1       8.742   9.716  44.002  1.00  0.00    -0.000 C 
BRANCH  17  18
ATOM     18  C   UNL     1       9.730   9.471  45.154  1.00  0.00    -0.000 C 
BRANCH  18  19
ATOM     19  C   UNL     1      10.656   8.272  44.896  1.00  0.00    -0.003 C 
ATOM     20  C   UNL     1      12.036   8.504  45.506  1.00  0.00     0.004 C 
ENDBRANCH  18  19
ENDBRANCH  17  18
ENDBRANCH  16  17
ENDBRANCH  15  16
ENDBRANCH  14  15
ENDBRANCH  13  14
ENDBRANCH  12  13
ENDBRANCH   1  12
TORSDOF 16
ENDMDL
MODEL 2
REMARK VINA RESULT:    -5.359     10.481     13.007
REMARK INTER + INTRA:         -12.306
REMARK INTER:                 -10.423
REMARK INTRA:                  -1.883
REMARK UNBOUND:                -1.934
REMARK SMILES CCCCCCCCCCCCCCCCCC(=O)[O-]
REMARK SMILES IDX 10 1 11 2 12 3 13 4 14 5 15 6 16 7 17 8 18 9 19 10 20 11
REMARK SMILES IDX 9 12 8 13 7 14 6 15 5 16 4 17 3 18 2 19 1 20
REMARK H PARENT
REMARK Flexibility Score: inf
ROOT
ATOM      1  C   UNL     1      19.515  11.929  46.171  1.00  0.00     0.000 C 
ENDROOT
BRANCH   1   2
ATOM      2  C   UNL     1      19.206  13.058  45.173  1.00  0.00     0.000 C 
BRANCH   2   3
ATOM      3  C   UNL     1      20.457  13.554  44.423  1.00  0.00     0.000 C 
BRANCH   3   4
ATOM      4  C   UNL     1      20.515  13.187  42.929  1.00  0.00     0.000 C 
BRANCH   4   5
ATOM      5  C   UNL     1      21.894  12.678  42.488  1.00  0.00     0.000 C 
BRANCH   5   6
ATOM      6  C   UNL     1      22.998  13.668  42.889  1.00  0.00     0.000 C 
BRANCH   6   7
ATOM      7  C   UNL     1      23.525  14.490  41.698  1.00  0.00     0.006 C 
BRANCH   7   8
ATOM      8  C   UNL     1      23.426  16.012  41.886  1.00  0.00     0.053 C 
BRANCH   8   9
ATOM      9  C   UNL     1      22.004  16.484  41.911  1.00  0.00     0.041 C 
ATOM     10  O   UNL     1      21.564  17.117  42.907  1.00  0.00    -0.550 OA
ATOM     11  O   UNL     1      21.157  16.195  40.849  1.00  0.00    -0.550 OA
ENDBRANCH   8   9
ENDBRANCH   7   8
ENDBRANCH   6   7
ENDBRANCH   5   6
ENDBRANCH   4   5
ENDBRANCH   3   4
ENDBRANCH   2   3
ENDBRANCH   1   2
BRANCH   1  12
ATOM     12  C   UNL     1      19.892  10.612  45.472  1.00  0.00     0.000 C 
BRANCH  12  13
ATOM     13  C   UNL     1      21.368  10.237  45.669  1.00  0.00    -0.000 C 
BRANCH  13  14
ATOM     14  C   UNL     1      21.936   9.565  44.412  1.00  0.00    -0.000 C 
BRANCH  14  15
ATOM     15  C   UNL     1      20.826   8.867  43.612  1.00  0.00    -0.000 C 
BRANCH  15  16
ATOM     16  C   UNL     1      20.916   9.146  42.103  1.00  0.00    -0.000 C 
BRANCH  16  17
ATOM     17  C   UNL     1      20.066   8.169  41.271  1.00  0.00    -0.000 C 
BRANCH  17  18
ATOM     18  C   UNL     1      19.872   8.643  39.822  1.00  0.00    -0.000 C 
BRANCH  18  19
ATOM     19  C   UNL     1      18.483   9.255  39.579  1.00  0.00    -0.003 C 
ATOM     20  C   UNL     1      17.417   8.168  39.474  1.00  0.00     0.004 C 
ENDBRANCH  18  19
ENDBRANCH  17  18
ENDBRANCH  16  17
ENDBRANCH  15  16
ENDBRANCH  14  15
ENDBRANCH  13  14
ENDBRANCH  12  13
ENDBRANCH   1  12
TORSDOF 16
ENDMDL
MODEL 3
REMARK VINA RESULT:    -5.283     10.437     12.733
REMARK INTER + INTRA:         -12.158
REMARK INTER:                 -10.945
REMARK INTRA:                  -1.213
REMARK UNBOUND:                -1.934
REMARK SMILES CCCCCCCCCCCCCCCCCC(=O)[O-]
REMARK SMILES IDX 10 1 11 2 12 3 13 4 14 5 15 6 16 7 17 8 18 9 19 10 20 11
REMARK SMILES IDX 9 12 8 13 7 14 6 15 5 16 4 17 3 18 2 19 1 20
REMARK H PARENT
REMARK Flexibility Score: inf
ROOT
ATOM      1  C   UNL     1      20.322  10.590  46.048  1.00  0.00     0.000 C 
ENDROOT
BRANCH   1   2
ATOM      2  C   UNL     1      19.598  11.862  45.573  1.00  0.00     0.000 C 
BRANCH   2   3
ATOM      3  C   UNL     1      20.233  12.478  44.313  1.00  0.00     0.000 C 
BRANCH   3   4
ATOM      4  C   UNL     1      20.075  14.004  44.177  1.00  0.00     0.000 C 
BRANCH   4   5
ATOM      5  C   UNL     1      19.229  14.415  42.965  1.00  0.00     0.000 C 
BRANCH   5   6
ATOM      6  C   UNL     1      19.407  15.909  42.653  1.00  0.00     0.000 C 
BRANCH   6   7
ATOM      7  C   UNL     1      20.885  16.317  42.503  1.00  0.00     0.006 C 
BRANCH   7   8
ATOM      8  C   UNL     1      21.531  15.883  41.179  1.00  0.00     0.053 C 
BRANCH   8   9
ATOM      9  C   UNL     1      22.986  15.566  41.341  1.00  0.00     0.041 C 
ATOM     10  O   UNL     1      23.357  14.383  41.563  1.00  0.00    -0.550 OA
ATOM     11  O   UNL     1      23.930  16.583  41.281  1.00  0.00    -0.550 OA
ENDBRANCH   8   9
ENDBRANCH   7   8
ENDBRANCH   6   7
ENDBRANCH   5   6
ENDBRANCH   4   5
ENDBRANCH   3   4
ENDBRANCH   2   3
ENDBRANCH   1   2
BRANCH   1  12
ATOM     12  C   UNL     1      20.164   9.420  45.063  1.00  0.00     0.000 C 
BRANCH  12  13
ATOM     13  C   UNL     1      21.463   8.622  44.878  1.00  0.00    -0.000 C 
BRANCH  13  14
ATOM     14  C   UNL     1      21.841   8.525  43.395  1.00  0.00    -0.000 C 
BRANCH  14  15
ATOM     15  C   UNL     1      20.605   8.701  42.500  1.00  0.00    -0.000 C 
BRANCH  15  16
ATOM     16  C   UNL     1      20.639  10.009  41.691  1.00  0.00    -0.000 C 
BRANCH  16  17
ATOM     17  C   UNL     1      20.584   9.765  40.173  1.00  0.00    -0.000 C 
BRANCH  17  18
ATOM     18  C   UNL     1      19.144   9.683  39.641  1.00  0.00    -0.000 C 
BRANCH  18  19
ATOM     19  C   UNL     1      18.653   8.236  39.481  1.00  0.00    -0.003 C 
ATOM     20  C   UNL     1      17.143   8.144  39.678  1.00  0.00     0.004 C 
ENDBRANCH  18  19
ENDBRANCH  17  18
ENDBRANCH  16  17
ENDBRANCH  15  16
ENDBRANCH  14  15
ENDBRANCH  13  14
ENDBRANCH  12  13
ENDBRANCH   1  12
TORSDOF 16
ENDMDL
MODEL 4
REMARK VINA RESULT:    -5.249      1.218      2.056
REMARK INTER + INTRA:         -12.093
REMARK INTER:                 -10.431
REMARK INTRA:                  -1.662
REMARK UNBOUND:                -1.934
REMARK SMILES CCCCCCCCCCCCCCCCCC(=O)[O-]
REMARK SMILES IDX 10 1 11 2 12 3 13 4 14 5 15 6 16 7 17 8 18 9 19 10 20 11
REMARK SMILES IDX 9 12 8 13 7 14 6 15 5 16 4 17 3 18 2 19 1 20
REMARK H PARENT
REMARK Flexibility Score: inf
ROOT
ATOM      1  C   UNL     1       9.722   9.402  38.902  1.00  0.00     0.000 C 
ENDROOT
BRANCH   1   2
ATOM      2  C   UNL     1       9.088  10.746  38.504  1.00  0.00     0.000 C 
BRANCH   2   3
ATOM      3  C   UNL     1      10.099  11.908  38.495  1.00  0.00     0.000 C 
BRANCH   3   4
ATOM      4  C   UNL     1       9.749  13.090  39.418  1.00  0.00     0.000 C 
BRANCH   4   5
ATOM      5  C   UNL     1       8.693  12.736  40.474  1.00  0.00     0.000 C 
BRANCH   5   6
ATOM      6  C   UNL     1       9.105  13.258  41.858  1.00  0.00     0.000 C 
BRANCH   6   7
ATOM      7  C   UNL     1       9.761  14.650  41.801  1.00  0.00     0.006 C 
BRANCH   7   8
ATOM      8  C   UNL     1       8.791  15.795  41.471  1.00  0.00     0.053 C 
BRANCH   8   9
ATOM      9  C   UNL     1       7.788  16.014  42.562  1.00  0.00     0.041 C 
ATOM     10  O   UNL     1       8.023  16.840  43.483  1.00  0.00    -0.550 OA
ATOM     11  O   UNL     1       6.609  15.281  42.579  1.00  0.00    -0.550 OA
ENDBRANCH   8   9
ENDBRANCH   7   8
ENDBRANCH   6   7
ENDBRANCH   5   6
ENDBRANCH   4   5
ENDBRANCH   3   4
ENDBRANCH   2   3
ENDBRANCH   1   2
BRANCH   1  12
ATOM     12  C   UNL     1       9.080   8.799  40.162  1.00  0.00     0.000 C 
BRANCH  12  13
ATOM     13  C   UNL     1       7.547   8.896  40.152  1.00  0.00    -0.000 C 
BRANCH  13  14
ATOM     14  C   UNL     1       7.019   9.386  41.506  1.00  0.00    -0.000 C 
BRANCH  14  15
ATOM     15  C   UNL     1       8.174   9.807  42.427  1.00  0.00    -0.000 C 
BRANCH  15  16
ATOM     16  C   UNL     1       7.785   9.792  43.914  1.00  0.00    -0.000 C 
BRANCH  16  17
ATOM     17  C   UNL     1       8.993  10.009  44.843  1.00  0.00    -0.000 C 
BRANCH  17  18
ATOM     18  C   UNL     1       9.531   8.693  45.428  1.00  0.00    -0.000 C 
BRANCH  18  19
ATOM     19  C   UNL     1      10.745   8.154  44.655  1.00  0.00    -0.003 C 
ATOM     20  C   UNL     1      12.023   8.289  45.479  1.00  0.00     0.004 C 
ENDBRANCH  18  19
ENDBRANCH  17  18
ENDBRANCH  16  17
ENDBRANCH  15  16
ENDBRANCH  14  15
ENDBRANCH  13  14
ENDBRANCH  12  13
ENDBRANCH   1  12
TORSDOF 16
ENDMDL
MODEL 5
REMARK VINA RESULT:    -5.089      3.212      6.279
REMARK INTER + INTRA:         -11.783
REMARK INTER:                  -9.597
REMARK INTRA:                  -2.186
REMARK UNBOUND:                -1.934
REMARK SMILES CCCCCCCCCCCCCCCCCC(=O)[O-]
REMARK SMILES IDX 10 1 11 2 12 3 13 4 14 5 15 6 16 7 17 8 18 9 19 10 20 11
REMARK SMILES IDX 9 12 8 13 7 14 6 15 5 16 4 17 3 18 2 19 1 20
REMARK H PARENT
REMARK Flexibility Score: inf
ROOT
ATOM      1  C   UNL     1       9.711  12.286  38.446  1.00  0.00     0.000 C 
ENDROOT
BRANCH   1   2
ATOM      2  C   UNL     1       9.755  10.771  38.704  1.00  0.00     0.000 C 
BRANCH   2   3
ATOM      3  C   UNL     1       8.441  10.225  39.294  1.00  0.00     0.000 C 
BRANCH   3   4
ATOM      4  C   UNL     1       8.600   9.031  40.254  1.00  0.00     0.000 C 
BRANCH   4   5
ATOM      5  C   UNL     1       7.971   9.281  41.632  1.00  0.00     0.000 C 
BRANCH   5   6
ATOM      6  C   UNL     1       8.983   9.006  42.755  1.00  0.00     0.000 C 
BRANCH   6   7
ATOM      7  C   UNL     1       8.763   9.898  43.990  1.00  0.00     0.006 C 
BRANCH   7   8
ATOM      8  C   UNL     1      10.043  10.218  44.778  1.00  0.00     0.053 C 
BRANCH   8   9
ATOM      9  C   UNL     1      10.695   8.980  45.314  1.00  0.00     0.041 C 
ATOM     10  O   UNL     1      10.041   8.177  46.030  1.00  0.00    -0.550 OA
ATOM     11  O   UNL     1      12.035   8.731  45.049  1.00  0.00    -0.550 OA
ENDBRANCH   8   9
ENDBRANCH   7   8
ENDBRANCH   6   7
ENDBRANCH   5   6
ENDBRANCH   4   5
ENDBRANCH   3   4
ENDBRANCH   2   3
ENDBRANCH   1   2
BRANCH   1  12
ATOM     12  C   UNL     1      10.164  13.105  39.666  1.00  0.00     0.000 C 
BRANCH  12  13
ATOM     13  C   UNL     1       8.984  13.652  40.484  1.00  0.00    -0.000 C 
BRANCH  13  14
ATOM     14  C   UNL     1       8.880  12.943  41.840  1.00  0.00    -0.000 C 
BRANCH  14  15
ATOM     15  C   UNL     1       7.437  12.973  42.367  1.00  0.00    -0.000 C 
BRANCH  15  16
ATOM     16  C   UNL     1       6.611  14.125  41.771  1.00  0.00    -0.000 C 
BRANCH  16  17
ATOM     17  C   UNL     1       6.059  15.074  42.850  1.00  0.00    -0.000 C 
BRANCH  17  18
ATOM     18  C   UNL     1       6.679  16.478  42.773  1.00  0.00    -0.000 C 
BRANCH  18  19
ATOM     19  C   UNL     1       8.126  16.517  43.287  1.00  0.00    -0.003 C 
ATOM     20  C   UNL     1       9.094  16.905  42.173  1.00  0.00     0.004 C 
ENDBRANCH  18  19
ENDBRANCH  17  18
ENDBRANCH  16  17
ENDBRANCH  15  16
ENDBRANCH  14  15
ENDBRANCH  13  14
ENDBRANCH  12  13
ENDBRANCH   1  12
TORSDOF 16
ENDMDL
MODEL 6
REMARK VINA RESULT:    -5.049      1.477      2.966
REMARK INTER + INTRA:         -11.706
REMARK INTER:                  -9.869
REMARK INTRA:                  -1.837
REMARK UNBOUND:                -1.934
REMARK SMILES CCCCCCCCCCCCCCCCCC(=O)[O-]
REMARK SMILES IDX 10 1 11 2 12 3 13 4 14 5 15 6 16 7 17 8 18 9 19 10 20 11
REMARK SMILES IDX 9 12 8 13 7 14 6 15 5 16 4 17 3 18 2 19 1 20
REMARK H PARENT
REMARK Flexibility Score: inf
ROOT
ATOM      1  C   UNL     1       8.601  10.438  41.560  1.00  0.00     0.000 C 
ENDROOT
BRANCH   1   2
ATOM      2  C   UNL     1       8.149  10.388  40.091  1.00  0.00     0.000 C 
BRANCH   2   3
ATOM      3  C   UNL     1       9.299  10.065  39.119  1.00  0.00     0.000 C 
BRANCH   3   4
ATOM      4  C   UNL     1      10.099  11.283  38.621  1.00  0.00     0.000 C 
BRANCH   4   5
ATOM      5  C   UNL     1       9.358  12.611  38.820  1.00  0.00     0.000 C 
BRANCH   5   6
ATOM      6  C   UNL     1      10.038  13.463  39.903  1.00  0.00     0.000 C 
BRANCH   6   7
ATOM      7  C   UNL     1       9.034  14.269  40.748  1.00  0.00     0.006 C 
BRANCH   7   8
ATOM      8  C   UNL     1       9.617  14.840  42.050  1.00  0.00     0.053 C 
BRANCH   8   9
ATOM      9  C   UNL     1       8.901  16.081  42.489  1.00  0.00     0.041 C 
ATOM     10  O   UNL     1       9.282  17.210  42.082  1.00  0.00    -0.550 OA
ATOM     11  O   UNL     1       7.834  15.992  43.373  1.00  0.00    -0.550 OA
ENDBRANCH   8   9
ENDBRANCH   7   8
ENDBRANCH   6   7
ENDBRANCH   5   6
ENDBRANCH   4   5
ENDBRANCH   3   4
ENDBRANCH   2   3
ENDBRANCH   1   2
BRANCH   1  12
ATOM     12  C   UNL     1       7.686  11.318  42.428  1.00  0.00     0.000 C 
BRANCH  12  13
ATOM     13  C   UNL     1       6.242  10.799  42.483  1.00  0.00    -0.000 C 
BRANCH  13  14
ATOM     14  C   UNL     1       6.182   9.409  43.127  1.00  0.00    -0.000 C 
BRANCH  14  15
ATOM     15  C   UNL     1       6.680   9.454  44.580  1.00  0.00    -0.000 C 
BRANCH  15  16
ATOM     16  C   UNL     1       7.461   8.191  44.980  1.00  0.00    -0.000 C 
BRANCH  16  17
ATOM     17  C   UNL     1       8.754   8.515  45.748  1.00  0.00    -0.000 C 
BRANCH  17  18
ATOM     18  C   UNL     1       9.450   9.781  45.221  1.00  0.00    -0.000 C 
BRANCH  18  19
ATOM     19  C   UNL     1      10.982   9.698  45.316  1.00  0.00    -0.003 C 
ATOM     20  C   UNL     1      11.447   8.248  45.418  1.00  0.00     0.004 C 
ENDBRANCH  18  19
ENDBRANCH  17  18
ENDBRANCH  16  17
ENDBRANCH  15  16
ENDBRANCH  14  15
ENDBRANCH  13  14
ENDBRANCH  12  13
ENDBRANCH   1  12
TORSDOF 16
ENDMDL
MODEL 7
REMARK VINA RESULT:    -5.026     11.088     13.109
REMARK INTER + INTRA:         -11.660
REMARK INTER:                  -9.813
REMARK INTRA:                  -1.848
REMARK UNBOUND:                -1.934
REMARK SMILES CCCCCCCCCCCCCCCCCC(=O)[O-]
REMARK SMILES IDX 10 1 11 2 12 3 13 4 14 5 15 6 16 7 17 8 18 9 19 10 20 11
REMARK SMILES IDX 9 12 8 13 7 14 6 15 5 16 4 17 3 18 2 19 1 20
REMARK H PARENT
REMARK Flexibility Score: inf
ROOT
ATOM      1  C   UNL     1      23.121  14.633  41.525  1.00  0.00     0.000 C 
ENDROOT
BRANCH   1   2
ATOM      2  C   UNL     1      22.674  16.076  41.811  1.00  0.00     0.000 C 
BRANCH   2   3
ATOM      3  C   UNL     1      21.217  16.348  41.391  1.00  0.00     0.000 C 
BRANCH   3   4
ATOM      4  C   UNL     1      20.236  16.597  42.552  1.00  0.00     0.000 C 
BRANCH   4   5
ATOM      5  C   UNL     1      19.130  15.536  42.642  1.00  0.00     0.000 C 
BRANCH   5   6
ATOM      6  C   UNL     1      19.730  14.127  42.761  1.00  0.00     0.000 C 
BRANCH   6   7
ATOM      7  C   UNL     1      20.003  13.715  44.220  1.00  0.00     0.006 C 
BRANCH   7   8
ATOM      8  C   UNL     1      20.278  12.216  44.415  1.00  0.00     0.053 C 
BRANCH   8   9
ATOM      9  C   UNL     1      19.759  11.716  45.728  1.00  0.00     0.041 C 
ATOM     10  O   UNL     1      19.204  12.509  46.535  1.00  0.00    -0.550 OA
ATOM     11  O   UNL     1      19.917  10.381  46.075  1.00  0.00    -0.550 OA
ENDBRANCH   8   9
ENDBRANCH   7   8
ENDBRANCH   6   7
ENDBRANCH   5   6
ENDBRANCH   4   5
ENDBRANCH   3   4
ENDBRANCH   2   3
ENDBRANCH   1   2
BRANCH   1  12
ATOM     12  C   UNL     1      23.535  13.881  42.800  1.00  0.00     0.000 C 
BRANCH  12  13
ATOM     13  C   UNL     1      24.157  12.508  42.505  1.00  0.00    -0.000 C 
BRANCH  13  14
ATOM     14  C   UNL     1      23.336  11.383  43.146  1.00  0.00    -0.000 C 
BRANCH  14  15
ATOM     15  C   UNL     1      22.612  10.552  42.076  1.00  0.00    -0.000 C 
BRANCH  15  16
ATOM     16  C   UNL     1      21.892   9.326  42.663  1.00  0.00    -0.000 C 
BRANCH  16  17
ATOM     17  C   UNL     1      20.564   9.024  41.946  1.00  0.00    -0.000 C 
BRANCH  17  18
ATOM     18  C   UNL     1      20.234  10.056  40.856  1.00  0.00    -0.000 C 
BRANCH  18  19
ATOM     19  C   UNL     1      19.799   9.404  39.535  1.00  0.00    -0.003 C 
ATOM     20  C   UNL     1      18.382   8.848  39.638  1.00  0.00     0.004 C 
ENDBRANCH  18  19
ENDBRANCH  17  18
ENDBRANCH  16  17
ENDBRANCH  15  16
ENDBRANCH  14  15
ENDBRANCH  13  14
ENDBRANCH  12  13
ENDBRANCH   1  12
TORSDOF 16
ENDMDL
MODEL 8
REMARK VINA RESULT:    -4.959     11.535     13.978
REMARK INTER + INTRA:         -11.532
REMARK INTER:                  -9.257
REMARK INTRA:                  -2.275
REMARK UNBOUND:                -1.934
REMARK SMILES CCCCCCCCCCCCCCCCCC(=O)[O-]
REMARK SMILES IDX 10 1 11 2 12 3 13 4 14 5 15 6 16 7 17 8 18 9 19 10 20 11
REMARK SMILES IDX 9 12 8 13 7 14 6 15 5 16 4 17 3 18 2 19 1 20
REMARK H PARENT
REMARK Flexibility Score: inf
ROOT
ATOM      1  C   UNL     1      20.046  14.376  42.702  1.00  0.00     0.000 C 
ENDROOT
BRANCH   1   2
ATOM      2  C   UNL     1      20.304  13.610  44.010  1.00  0.00     0.000 C 
BRANCH   2   3
ATOM      3  C   UNL     1      20.659  12.129  43.778  1.00  0.00     0.000 C 
BRANCH   3   4
ATOM      4  C   UNL     1      20.647  11.674  42.307  1.00  0.00     0.000 C 
BRANCH   4   5
ATOM      5  C   UNL     1      20.799  10.156  42.146  1.00  0.00     0.000 C 
BRANCH   5   6
ATOM      6  C   UNL     1      21.791   9.819  41.023  1.00  0.00     0.000 C 
BRANCH   6   7
ATOM      7  C   UNL     1      21.121   9.131  39.820  1.00  0.00     0.006 C 
BRANCH   7   8
ATOM      8  C   UNL     1      19.887   8.288  40.178  1.00  0.00     0.053 C 
BRANCH   8   9
ATOM      9  C   UNL     1      18.627   8.868  39.612  1.00  0.00     0.041 C 
ATOM     10  O   UNL     1      17.676   8.114  39.276  1.00  0.00    -0.550 OA
ATOM     11  O   UNL     1      18.516  10.240  39.426  1.00  0.00    -0.550 OA
ENDBRANCH   8   9
ENDBRANCH   7   8
ENDBRANCH   6   7
ENDBRANCH   5   6
ENDBRANCH   4   5
ENDBRANCH   3   4
ENDBRANCH   2   3
ENDBRANCH   1   2
BRANCH   1  12
ATOM     12  C   UNL     1      19.464  15.778  42.946  1.00  0.00     0.000 C 
BRANCH  12  13
ATOM     13  C   UNL     1      20.189  16.869  42.144  1.00  0.00    -0.000 C 
BRANCH  13  14
ATOM     14  C   UNL     1      21.370  16.282  41.362  1.00  0.00    -0.000 C 
BRANCH  14  15
ATOM     15  C   UNL     1      22.663  17.059  41.654  1.00  0.00    -0.000 C 
BRANCH  15  16
ATOM     16  C   UNL     1      23.780  16.164  42.217  1.00  0.00    -0.000 C 
BRANCH  16  17
ATOM     17  C   UNL     1      23.594  14.683  41.843  1.00  0.00    -0.000 C 
BRANCH  17  18
ATOM     18  C   UNL     1      23.949  13.734  42.998  1.00  0.00    -0.000 C 
BRANCH  18  19
ATOM     19  C   UNL     1      24.219  12.298  42.524  1.00  0.00    -0.003 C 
ATOM     20  C   UNL     1      24.318  11.339  43.707  1.00  0.00     0.004 C 
ENDBRANCH  18  19
ENDBRANCH  17  18
ENDBRANCH  16  17
ENDBRANCH  15  16
ENDBRANCH  14  15
ENDBRANCH  13  14
ENDBRANCH  12  13
ENDBRANCH   1  12
TORSDOF 16
ENDMDL
MODEL 9
REMARK VINA RESULT:    -4.935     12.022     14.001
REMARK INTER + INTRA:         -11.484
REMARK INTER:                  -9.839
REMARK INTRA:                  -1.645
REMARK UNBOUND:                -1.934
REMARK SMILES CCCCCCCCCCCCCCCCCC(=O)[O-]
REMARK SMILES IDX 10 1 11 2 12 3 13 4 14 5 15 6 16 7 17 8 18 9 19 10 20 11
REMARK SMILES IDX 9 12 8 13 7 14 6 15 5 16 4 17 3 18 2 19 1 20
REMARK H PARENT
REMARK Flexibility Score: inf
ROOT
ATOM      1  C   UNL     1      20.564  15.241  43.337  1.00  0.00     0.000 C 
ENDROOT
BRANCH   1   2
ATOM      2  C   UNL     1      20.209  16.203  42.190  1.00  0.00     0.000 C 
BRANCH   2   3
ATOM      3  C   UNL     1      21.410  16.524  41.282  1.00  0.00     0.000 C 
BRANCH   3   4
ATOM      4  C   UNL     1      22.459  17.473  41.891  1.00  0.00     0.000 C 
BRANCH   4   5
ATOM      5  C   UNL     1      23.880  16.895  41.865  1.00  0.00     0.000 C 
BRANCH   5   6
ATOM      6  C   UNL     1      23.892  15.497  41.229  1.00  0.00     0.000 C 
BRANCH   6   7
ATOM      7  C   UNL     1      24.559  14.437  42.126  1.00  0.00     0.006 C 
BRANCH   7   8
ATOM      8  C   UNL     1      23.691  13.198  42.396  1.00  0.00     0.053 C 
BRANCH   8   9
ATOM      9  C   UNL     1      24.397  12.195  43.257  1.00  0.00     0.041 C 
ATOM     10  O   UNL     1      24.800  12.518  44.405  1.00  0.00    -0.550 OA
ATOM     11  O   UNL     1      24.636  10.914  42.778  1.00  0.00    -0.550 OA
ENDBRANCH   8   9
ENDBRANCH   7   8
ENDBRANCH   6   7
ENDBRANCH   5   6
ENDBRANCH   4   5
ENDBRANCH   3   4
ENDBRANCH   2   3
ENDBRANCH   1   2
BRANCH   1  12
ATOM     12  C   UNL     1      20.088  13.804  43.068  1.00  0.00     0.000 C 
BRANCH  12  13
ATOM     13  C   UNL     1      20.285  12.878  44.278  1.00  0.00    -0.000 C 
BRANCH  13  14
ATOM     14  C   UNL     1      20.806  11.505  43.838  1.00  0.00    -0.000 C 
BRANCH  14  15
ATOM     15  C   UNL     1      20.669  11.324  42.319  1.00  0.00    -0.000 C 
BRANCH  15  16
ATOM     16  C   UNL     1      20.662   9.846  41.894  1.00  0.00    -0.000 C 
BRANCH  16  17
ATOM     17  C   UNL     1      20.732   9.671  40.367  1.00  0.00    -0.000 C 
BRANCH  17  18
ATOM     18  C   UNL     1      19.344   9.686  39.708  1.00  0.00    -0.000 C 
BRANCH  18  19
ATOM     19  C   UNL     1      18.796   8.274  39.448  1.00  0.00    -0.003 C 
ATOM     20  C   UNL     1      17.295   8.211  39.717  1.00  0.00     0.004 C 
ENDBRANCH  18  19
ENDBRANCH  17  18
ENDBRANCH  16  17
ENDBRANCH  15  16
ENDBRANCH  14  15
ENDBRANCH  13  14
ENDBRANCH  12  13
ENDBRANCH   1  12
TORSDOF 16
ENDMDL
