MODEL 1
REMARK VINA RESULT:    -4.541      0.000      0.000
REMARK INTER + INTRA:          -5.438
REMARK INTER:                  -5.337
REMARK INTRA:                  -0.100
REMARK UNBOUND:                -0.100
REMARK SMILES CCCCC(=O)[O-]
REMARK SMILES IDX 4 1 5 2 6 3 7 4 3 5 2 6 1 7
REMARK H PARENT
REMARK Flexibility Score: inf
ROOT
ATOM      1  C   UNL     1      28.386  -1.376  42.032  1.00  0.00     0.053 C 
ENDROOT
BRANCH   1   2
ATOM      2  C   UNL     1      29.458  -0.799  41.164  1.00  0.00     0.041 C 
ATOM      3  O   UNL     1      29.154  -0.116  40.150  1.00  0.00    -0.550 OA
ATOM      4  O   UNL     1      30.794  -1.055  41.445  1.00  0.00    -0.550 OA
ENDBRANCH   1   2
BRANCH   1   5
ATOM      5  C   UNL     1      28.434  -0.746  43.430  1.00  0.00     0.006 C 
BRANCH   5   6
ATOM      6  C   UNL     1      29.063  -1.680  44.476  1.00  0.00    -0.003 C 
ATOM      7  C   UNL     1      30.300  -1.075  45.139  1.00  0.00     0.004 C 
ENDBRANCH   5   6
ENDBRANCH   1   5
TORSDOF 3
ENDMDL
MODEL 2
REMARK VINA RESULT:    -4.315      2.339      4.159
REMARK INTER + INTRA:          -5.172
REMARK INTER:                  -5.079
REMARK INTRA:                  -0.092
REMARK UNBOUND:                -0.100
REMARK SMILES CCCCC(=O)[O-]
REMARK SMILES IDX 4 1 5 2 6 3 7 4 3 5 2 6 1 7
REMARK H PARENT
REMARK Flexibility Score: inf
ROOT
ATOM      1  C   UNL     1      28.920  -0.628  41.018  1.00  0.00     0.053 C 
ENDROOT
BRANCH   1   2
ATOM      2  C   UNL     1      30.273  -0.927  41.582  1.00  0.00     0.041 C 
ATOM      3  O   UNL     1      30.427  -1.054  42.825  1.00  0.00    -0.550 OA
ATOM      4  O   UNL     1      31.373  -1.016  40.739  1.00  0.00    -0.550 OA
ENDBRANCH   1   2
BRANCH   1   5
ATOM      5  C   UNL     1      28.920  -0.823  39.497  1.00  0.00     0.006 C 
BRANCH   5   6
ATOM      6  C   UNL     1      28.894   0.509  38.731  1.00  0.00    -0.003 C 
ATOM      7  C   UNL     1      30.211   0.802  38.012  1.00  0.00     0.004 C 
ENDBRANCH   5   6
ENDBRANCH   1   5
TORSDOF 3
ENDMDL
MODEL 3
REMARK VINA RESULT:    -4.310      2.192      3.548
REMARK INTER + INTRA:          -5.167
REMARK INTER:                  -5.074
REMARK INTRA:                  -0.093
REMARK UNBOUND:                -0.100
REMARK SMILES CCCCC(=O)[O-]
REMARK SMILES IDX 4 1 5 2 6 3 7 4 3 5 2 6 1 7
REMARK H PARENT
REMARK Flexibility Score: inf
ROOT
ATOM      1  C   UNL     1      28.425  -0.679  43.395  1.00  0.00     0.053 C 
ENDROOT
BRANCH   1   2
ATOM      2  C   UNL     1      29.289  -1.322  44.433  1.00  0.00     0.041 C 
ATOM      3  O   UNL     1      28.790  -2.122  45.266  1.00  0.00    -0.550 OA
ATOM      4  O   UNL     1      30.638  -1.001  44.510  1.00  0.00    -0.550 OA
ENDBRANCH   1   2
BRANCH   1   5
ATOM      5  C   UNL     1      28.401  -1.528  42.118  1.00  0.00     0.006 C 
BRANCH   5   6
ATOM      6  C   UNL     1      28.884  -0.750  40.883  1.00  0.00    -0.003 C 
ATOM      7  C   UNL     1      30.406  -0.633  40.817  1.00  0.00     0.004 C 
ENDBRANCH   5   6
ENDBRANCH   1   5
TORSDOF 3
ENDMDL
MODEL 4
REMARK VINA RESULT:    -4.214      2.085      3.988
REMARK INTER + INTRA:          -5.053
REMARK INTER:                  -5.029
REMARK INTRA:                  -0.024
REMARK UNBOUND:                -0.100
REMARK SMILES CCCCC(=O)[O-]
REMARK SMILES IDX 4 1 5 2 6 3 7 4 3 5 2 6 1 7
REMARK H PARENT
REMARK Flexibility Score: inf
ROOT
ATOM      1  C   UNL     1      28.496  -0.997  42.042  1.00  0.00     0.053 C 
ENDROOT
BRANCH   1   2
ATOM      2  C   UNL     1      29.253  -1.255  43.307  1.00  0.00     0.041 C 
ATOM      3  O   UNL     1      30.501  -1.091  43.343  1.00  0.00    -0.550 OA
ATOM      4  O   UNL     1      28.588  -1.723  44.432  1.00  0.00    -0.550 OA
ENDBRANCH   1   2
BRANCH   1   5
ATOM      5  C   UNL     1      29.451  -0.545  40.931  1.00  0.00     0.006 C 
BRANCH   5   6
ATOM      6  C   UNL     1      28.843  -0.708  39.528  1.00  0.00    -0.003 C 
ATOM      7  C   UNL     1      29.127   0.487  38.619  1.00  0.00     0.004 C 
ENDBRANCH   5   6
ENDBRANCH   1   5
TORSDOF 3
ENDMDL
MODEL 5
REMARK VINA RESULT:    -4.125      1.187      1.767
REMARK INTER + INTRA:          -4.948
REMARK INTER:                  -4.855
REMARK INTRA:                  -0.094
REMARK UNBOUND:                -0.100
REMARK SMILES CCCCC(=O)[O-]
REMARK SMILES IDX 4 1 5 2 6 3 7 4 3 5 2 6 1 7
REMARK H PARENT
REMARK Flexibility Score: inf
ROOT
ATOM      1  C   UNL     1      29.021  -0.327  40.513  1.00  0.00     0.053 C 
ENDROOT
BRANCH   1   2
ATOM      2  C   UNL     1      30.475   0.010  40.609  1.00  0.00     0.041 C 
ATOM      3  O   UNL     1      30.900   1.112  40.173  1.00  0.00    -0.550 OA
ATOM      4  O   UNL     1      31.369  -0.912  41.136  1.00  0.00    -0.550 OA
ENDBRANCH   1   2
BRANCH   1   5
ATOM      5  C   UNL     1      28.635  -1.343  41.594  1.00  0.00     0.006 C 
BRANCH   5   6
ATOM      6  C   UNL     1      28.274  -0.675  42.930  1.00  0.00    -0.003 C 
ATOM      7  C   UNL     1      28.841  -1.422  44.137  1.00  0.00     0.004 C 
ENDBRANCH   5   6
ENDBRANCH   1   5
TORSDOF 3
ENDMDL
MODEL 6
REMARK VINA RESULT:    -4.081      2.117      3.880
REMARK INTER + INTRA:          -4.897
REMARK INTER:                  -4.800
REMARK INTRA:                  -0.097
REMARK UNBOUND:                -0.100
REMARK SMILES CCCCC(=O)[O-]
REMARK SMILES IDX 4 1 5 2 6 3 7 4 3 5 2 6 1 7
REMARK H PARENT
REMARK Flexibility Score: inf
ROOT
ATOM      1  C   UNL     1      30.105  -0.820  42.172  1.00  0.00     0.053 C 
ENDROOT
BRANCH   1   2
ATOM      2  C   UNL     1      28.789  -1.430  42.539  1.00  0.00     0.041 C 
ATOM      3  O   UNL     1      28.015  -1.855  41.642  1.00  0.00    -0.550 OA
ATOM      4  O   UNL     1      28.395  -1.483  43.870  1.00  0.00    -0.550 OA
ENDBRANCH   1   2
BRANCH   1   5
ATOM      5  C   UNL     1      30.369  -0.986  40.670  1.00  0.00     0.006 C 
BRANCH   5   6
ATOM      6  C   UNL     1      30.147   0.316  39.885  1.00  0.00    -0.003 C 
ATOM      7  C   UNL     1      29.087   0.173  38.793  1.00  0.00     0.004 C 
ENDBRANCH   5   6
ENDBRANCH   1   5
TORSDOF 3
ENDMDL
MODEL 7
REMARK VINA RESULT:    -4.078      2.570      3.609
REMARK INTER + INTRA:          -4.894
REMARK INTER:                  -4.816
REMARK INTRA:                  -0.078
REMARK UNBOUND:                -0.100
REMARK SMILES CCCCC(=O)[O-]
REMARK SMILES IDX 4 1 5 2 6 3 7 4 3 5 2 6 1 7
REMARK H PARENT
REMARK Flexibility Score: inf
ROOT
ATOM      1  C   UNL     1      29.447   0.847  38.986  1.00  0.00     0.053 C 
ENDROOT
BRANCH   1   2
ATOM      2  C   UNL     1      30.891   1.159  39.220  1.00  0.00     0.041 C 
ATOM      3  O   UNL     1      31.786   0.420  38.733  1.00  0.00    -0.550 OA
ATOM      4  O   UNL     1      31.248   2.239  40.017  1.00  0.00    -0.550 OA
ENDBRANCH   1   2
BRANCH   1   5
ATOM      5  C   UNL     1      29.102  -0.538  39.546  1.00  0.00     0.006 C 
BRANCH   5   6
ATOM      6  C   UNL     1      29.371  -0.647  41.056  1.00  0.00    -0.003 C 
ATOM      7  C   UNL     1      28.271  -1.404  41.798  1.00  0.00     0.004 C 
ENDBRANCH   5   6
ENDBRANCH   1   5
TORSDOF 3
ENDMDL
MODEL 8
REMARK VINA RESULT:    -4.049      2.423      4.100
REMARK INTER + INTRA:          -4.860
REMARK INTER:                  -4.792
REMARK INTRA:                  -0.068
REMARK UNBOUND:                -0.100
REMARK SMILES CCCCC(=O)[O-]
REMARK SMILES IDX 4 1 5 2 6 3 7 4 3 5 2 6 1 7
REMARK H PARENT
REMARK Flexibility Score: inf
ROOT
ATOM      1  C   UNL     1      30.357  -0.804  40.004  1.00  0.00     0.053 C 
ENDROOT
BRANCH   1   2
ATOM      2  C   UNL     1      29.777  -0.876  41.381  1.00  0.00     0.041 C 
ATOM      3  O   UNL     1      28.533  -0.782  41.551  1.00  0.00    -0.550 OA
ATOM      4  O   UNL     1      30.614  -0.998  42.482  1.00  0.00    -0.550 OA
ENDBRANCH   1   2
BRANCH   1   5
ATOM      5  C   UNL     1      31.775  -0.222  40.051  1.00  0.00     0.006 C 
BRANCH   5   6
ATOM      6  C   UNL     1      31.909   1.071  39.231  1.00  0.00    -0.003 C 
ATOM      7  C   UNL     1      31.379   2.298  39.972  1.00  0.00     0.004 C 
ENDBRANCH   5   6
ENDBRANCH   1   5
TORSDOF 3
ENDMDL
MODEL 9
REMARK VINA RESULT:    -3.901      1.800      2.681
REMARK INTER + INTRA:          -4.686
REMARK INTER:                  -4.654
REMARK INTRA:                  -0.032
REMARK UNBOUND:                -0.100
REMARK SMILES CCCCC(=O)[O-]
REMARK SMILES IDX 4 1 5 2 6 3 7 4 3 5 2 6 1 7
REMARK H PARENT
REMARK Flexibility Score: inf
ROOT
ATOM      1  C   UNL     1      30.907  -0.304  40.624  1.00  0.00     0.053 C 
ENDROOT
BRANCH   1   2
ATOM      2  C   UNL     1      30.424   0.312  39.350  1.00  0.00     0.041 C 
ATOM      3  O   UNL     1      31.228   0.531  38.407  1.00  0.00    -0.550 OA
ATOM      4  O   UNL     1      29.093   0.688  39.220  1.00  0.00    -0.550 OA
ENDBRANCH   1   2
BRANCH   1   5
ATOM      5  C   UNL     1      29.770  -1.068  41.314  1.00  0.00     0.006 C 
BRANCH   5   6
ATOM      6  C   UNL     1      29.790  -0.903  42.842  1.00  0.00    -0.003 C 
ATOM      7  C   UNL     1      28.389  -0.839  43.447  1.00  0.00     0.004 C 
ENDBRANCH   5   6
ENDBRANCH   1   5
TORSDOF 3
ENDMDL
