MODEL 1
REMARK VINA RESULT:    -5.254      0.000      0.000
REMARK INTER + INTRA:         -11.789
REMARK INTER:                 -10.168
REMARK INTRA:                  -1.621
REMARK UNBOUND:                -1.621
REMARK SMILES CCCCCCCCCCCCCCCCCC(=O)[O-]
REMARK SMILES IDX 10 1 11 2 12 3 13 4 14 5 15 6 16 7 17 8 18 9 19 10 20 11
REMARK SMILES IDX 9 12 8 13 7 14 6 15 5 16 4 17 3 18 2 19 1 20
REMARK H PARENT
REMARK Flexibility Score: inf
ROOT
ATOM      1  C   UNL     1     -24.224 -29.141  39.264  1.00  0.00     0.000 C 
ENDROOT
BRANCH   1   2
ATOM      2  C   UNL     1     -25.160 -28.609  40.355  1.00  0.00     0.000 C 
BRANCH   2   3
ATOM      3  C   UNL     1     -24.365 -28.120  41.573  1.00  0.00     0.000 C 
BRANCH   3   4
ATOM      4  C   UNL     1     -24.730 -26.670  41.920  1.00  0.00     0.000 C 
BRANCH   4   5
ATOM      5  C   UNL     1     -26.134 -26.278  41.430  1.00  0.00     0.000 C 
BRANCH   5   6
ATOM      6  C   UNL     1     -26.499 -24.827  41.779  1.00  0.00     0.000 C 
BRANCH   6   7
ATOM      7  C   UNL     1     -27.876 -24.756  42.451  1.00  0.00     0.006 C 
BRANCH   7   8
ATOM      8  C   UNL     1     -28.497 -26.149  42.583  1.00  0.00     0.053 C 
BRANCH   8   9
ATOM      9  C   UNL     1     -29.973 -26.091  42.346  1.00  0.00     0.041 C 
ATOM     10  O   UNL     1     -30.759 -25.874  43.305  1.00  0.00    -0.550 OA
ATOM     11  O   UNL     1     -30.476 -26.225  41.059  1.00  0.00    -0.550 OA
ENDBRANCH   8   9
ENDBRANCH   7   8
ENDBRANCH   6   7
ENDBRANCH   5   6
ENDBRANCH   4   5
ENDBRANCH   3   4
ENDBRANCH   2   3
ENDBRANCH   1   2
BRANCH   1  12
ATOM     12  C   UNL     1     -22.796 -28.617  39.459  1.00  0.00     0.000 C 
BRANCH  12  13
ATOM     13  C   UNL     1     -22.213 -28.103  38.134  1.00  0.00    -0.000 C 
BRANCH  13  14
ATOM     14  C   UNL     1     -21.158 -27.000  38.333  1.00  0.00    -0.000 C 
BRANCH  14  15
ATOM     15  C   UNL     1     -20.932 -26.574  39.797  1.00  0.00    -0.000 C 
BRANCH  15  16
ATOM     16  C   UNL     1     -20.374 -25.148  39.987  1.00  0.00    -0.000 C 
BRANCH  16  17
ATOM     17  C   UNL     1     -21.419 -24.021  39.904  1.00  0.00    -0.000 C 
BRANCH  17  18
ATOM     18  C   UNL     1     -22.372 -24.001  41.111  1.00  0.00    -0.000 C 
BRANCH  18  19
ATOM     19  C   UNL     1     -23.367 -22.831  41.055  1.00  0.00    -0.003 C 
ATOM     20  C   UNL     1     -22.735 -21.495  41.446  1.00  0.00     0.004 C 
ENDBRANCH  18  19
ENDBRANCH  17  18
ENDBRANCH  16  17
ENDBRANCH  15  16
ENDBRANCH  14  15
ENDBRANCH  13  14
ENDBRANCH  12  13
ENDBRANCH   1  12
TORSDOF 16
ENDMDL
MODEL 2
REMARK VINA RESULT:    -5.095      2.636      5.386
REMARK INTER + INTRA:         -11.482
REMARK INTER:                  -9.558
REMARK INTRA:                  -1.923
REMARK UNBOUND:                -1.621
REMARK SMILES CCCCCCCCCCCCCCCCCC(=O)[O-]
REMARK SMILES IDX 10 1 11 2 12 3 13 4 14 5 15 6 16 7 17 8 18 9 19 10 20 11
REMARK SMILES IDX 9 12 8 13 7 14 6 15 5 16 4 17 3 18 2 19 1 20
REMARK H PARENT
REMARK Flexibility Score: inf
ROOT
ATOM      1  C   UNL     1     -21.834 -27.771  38.173  1.00  0.00     0.000 C 
ENDROOT
BRANCH   1   2
ATOM      2  C   UNL     1     -21.368 -27.066  39.452  1.00  0.00     0.000 C 
BRANCH   2   3
ATOM      3  C   UNL     1     -20.134 -26.195  39.184  1.00  0.00     0.000 C 
BRANCH   3   4
ATOM      4  C   UNL     1     -20.194 -24.894  39.996  1.00  0.00     0.000 C 
BRANCH   4   5
ATOM      5  C   UNL     1     -21.565 -24.204  39.910  1.00  0.00     0.000 C 
BRANCH   5   6
ATOM      6  C   UNL     1     -22.102 -23.780  41.285  1.00  0.00     0.000 C 
BRANCH   6   7
ATOM      7  C   UNL     1     -23.241 -22.764  41.139  1.00  0.00     0.006 C 
BRANCH   7   8
ATOM      8  C   UNL     1     -23.494 -22.429  39.667  1.00  0.00     0.053 C 
BRANCH   8   9
ATOM      9  C   UNL     1     -24.571 -21.397  39.541  1.00  0.00     0.041 C 
ATOM     10  O   UNL     1     -25.769 -21.701  39.775  1.00  0.00    -0.550 OA
ATOM     11  O   UNL     1     -24.243 -20.087  39.214  1.00  0.00    -0.550 OA
ENDBRANCH   8   9
ENDBRANCH   7   8
ENDBRANCH   6   7
ENDBRANCH   5   6
ENDBRANCH   4   5
ENDBRANCH   3   4
ENDBRANCH   2   3
ENDBRANCH   1   2
BRANCH   1  12
ATOM     12  C   UNL     1     -22.914 -28.815  38.482  1.00  0.00     0.000 C 
BRANCH  12  13
ATOM     13  C   UNL     1     -22.893 -29.205  39.968  1.00  0.00    -0.000 C 
BRANCH  13  14
ATOM     14  C   UNL     1     -24.287 -29.157  40.618  1.00  0.00    -0.000 C 
BRANCH  14  15
ATOM     15  C   UNL     1     -24.418 -28.183  41.805  1.00  0.00    -0.000 C 
BRANCH  15  16
ATOM     16  C   UNL     1     -24.420 -26.687  41.430  1.00  0.00    -0.000 C 
BRANCH  16  17
ATOM     17  C   UNL     1     -25.195 -25.772  42.396  1.00  0.00    -0.000 C 
BRANCH  17  18
ATOM     18  C   UNL     1     -26.260 -24.921  41.684  1.00  0.00    -0.000 C 
BRANCH  18  19
ATOM     19  C   UNL     1     -27.558 -24.803  42.499  1.00  0.00    -0.003 C 
ATOM     20  C   UNL     1     -28.297 -26.134  42.635  1.00  0.00     0.004 C 
ENDBRANCH  18  19
ENDBRANCH  17  18
ENDBRANCH  16  17
ENDBRANCH  15  16
ENDBRANCH  14  15
ENDBRANCH  13  14
ENDBRANCH  12  13
ENDBRANCH   1  12
TORSDOF 16
ENDMDL
MODEL 3
REMARK VINA RESULT:    -5.084      2.063      6.211
REMARK INTER + INTRA:         -11.461
REMARK INTER:                 -10.019
REMARK INTRA:                  -1.442
REMARK UNBOUND:                -1.621
REMARK SMILES CCCCCCCCCCCCCCCCCC(=O)[O-]
REMARK SMILES IDX 10 1 11 2 12 3 13 4 14 5 15 6 16 7 17 8 18 9 19 10 20 11
REMARK SMILES IDX 9 12 8 13 7 14 6 15 5 16 4 17 3 18 2 19 1 20
REMARK H PARENT
REMARK Flexibility Score: inf
ROOT
ATOM      1  C   UNL     1     -21.397 -23.942  39.799  1.00  0.00     0.000 C 
ENDROOT
BRANCH   1   2
ATOM      2  C   UNL     1     -20.069 -24.690  39.629  1.00  0.00     0.000 C 
BRANCH   2   3
ATOM      3  C   UNL     1     -20.282 -26.208  39.677  1.00  0.00     0.000 C 
BRANCH   3   4
ATOM      4  C   UNL     1     -20.932 -26.712  38.381  1.00  0.00     0.000 C 
BRANCH   4   5
ATOM      5  C   UNL     1     -21.940 -27.847  38.626  1.00  0.00     0.000 C 
BRANCH   5   6
ATOM      6  C   UNL     1     -22.435 -27.895  40.080  1.00  0.00     0.000 C 
BRANCH   6   7
ATOM      7  C   UNL     1     -22.874 -29.314  40.462  1.00  0.00     0.006 C 
BRANCH   7   8
ATOM      8  C   UNL     1     -24.270 -29.306  41.093  1.00  0.00     0.053 C 
BRANCH   8   9
ATOM      9  C   UNL     1     -25.324 -29.238  40.033  1.00  0.00     0.041 C 
ATOM     10  O   UNL     1     -25.529 -30.225  39.280  1.00  0.00    -0.550 OA
ATOM     11  O   UNL     1     -26.114 -28.102  39.911  1.00  0.00    -0.550 OA
ENDBRANCH   8   9
ENDBRANCH   7   8
ENDBRANCH   6   7
ENDBRANCH   5   6
ENDBRANCH   4   5
ENDBRANCH   3   4
ENDBRANCH   2   3
ENDBRANCH   1   2
BRANCH   1  12
ATOM     12  C   UNL     1     -21.884 -24.006  41.251  1.00  0.00     0.000 C 
BRANCH  12  13
ATOM     13  C   UNL     1     -23.337 -24.502  41.323  1.00  0.00    -0.000 C 
BRANCH  13  14
ATOM     14  C   UNL     1     -24.342 -23.494  40.738  1.00  0.00    -0.000 C 
BRANCH  14  15
ATOM     15  C   UNL     1     -25.769 -23.592  41.310  1.00  0.00    -0.000 C 
BRANCH  15  16
ATOM     16  C   UNL     1     -26.216 -25.010  41.721  1.00  0.00    -0.000 C 
BRANCH  16  17
ATOM     17  C   UNL     1     -27.558 -25.082  42.471  1.00  0.00    -0.000 C 
BRANCH  17  18
ATOM     18  C   UNL     1     -28.369 -26.341  42.123  1.00  0.00    -0.000 C 
BRANCH  18  19
ATOM     19  C   UNL     1     -29.792 -26.011  41.647  1.00  0.00    -0.003 C 
ATOM     20  C   UNL     1     -30.872 -26.713  42.471  1.00  0.00     0.004 C 
ENDBRANCH  18  19
ENDBRANCH  17  18
ENDBRANCH  16  17
ENDBRANCH  15  16
ENDBRANCH  14  15
ENDBRANCH  13  14
ENDBRANCH  12  13
ENDBRANCH   1  12
TORSDOF 16
ENDMDL
MODEL 4
REMARK VINA RESULT:    -5.065      0.954      3.973
REMARK INTER + INTRA:         -11.425
REMARK INTER:                  -9.640
REMARK INTRA:                  -1.784
REMARK UNBOUND:                -1.621
REMARK SMILES CCCCCCCCCCCCCCCCCC(=O)[O-]
REMARK SMILES IDX 10 1 11 2 12 3 13 4 14 5 15 6 16 7 17 8 18 9 19 10 20 11
REMARK SMILES IDX 9 12 8 13 7 14 6 15 5 16 4 17 3 18 2 19 1 20
REMARK H PARENT
REMARK Flexibility Score: inf
ROOT
ATOM      1  C   UNL     1     -21.906 -23.098  40.840  1.00  0.00     0.000 C 
ENDROOT
BRANCH   1   2
ATOM      2  C   UNL     1     -23.380 -23.512  40.925  1.00  0.00     0.000 C 
BRANCH   2   3
ATOM      3  C   UNL     1     -23.519 -24.950  41.440  1.00  0.00     0.000 C 
BRANCH   3   4
ATOM      4  C   UNL     1     -24.986 -25.285  41.745  1.00  0.00     0.000 C 
BRANCH   4   5
ATOM      5  C   UNL     1     -25.938 -24.120  41.427  1.00  0.00     0.000 C 
BRANCH   5   6
ATOM      6  C   UNL     1     -27.277 -24.229  42.173  1.00  0.00     0.000 C 
BRANCH   6   7
ATOM      7  C   UNL     1     -27.398 -25.582  42.886  1.00  0.00     0.006 C 
BRANCH   7   8
ATOM      8  C   UNL     1     -28.304 -26.537  42.103  1.00  0.00     0.053 C 
BRANCH   8   9
ATOM      9  C   UNL     1     -29.720 -26.054  42.127  1.00  0.00     0.041 C 
ATOM     10  O   UNL     1     -30.382 -25.982  41.059  1.00  0.00    -0.550 OA
ATOM     11  O   UNL     1     -30.325 -25.732  43.335  1.00  0.00    -0.550 OA
ENDBRANCH   8   9
ENDBRANCH   7   8
ENDBRANCH   6   7
ENDBRANCH   5   6
ENDBRANCH   4   5
ENDBRANCH   3   4
ENDBRANCH   2   3
ENDBRANCH   1   2
BRANCH   1  12
ATOM     12  C   UNL     1     -21.312 -23.457  39.473  1.00  0.00     0.000 C 
BRANCH  12  13
ATOM     13  C   UNL     1     -20.136 -24.434  39.624  1.00  0.00    -0.000 C 
BRANCH  13  14
ATOM     14  C   UNL     1     -20.591 -25.883  39.872  1.00  0.00    -0.000 C 
BRANCH  14  15
ATOM     15  C   UNL     1     -20.823 -26.719  38.598  1.00  0.00    -0.000 C 
BRANCH  15  16
ATOM     16  C   UNL     1     -21.979 -27.737  38.682  1.00  0.00    -0.000 C 
BRANCH  16  17
ATOM     17  C   UNL     1     -22.313 -28.230  40.102  1.00  0.00    -0.000 C 
BRANCH  17  18
ATOM     18  C   UNL     1     -23.455 -29.260  40.120  1.00  0.00    -0.000 C 
BRANCH  18  19
ATOM     19  C   UNL     1     -24.681 -28.764  40.902  1.00  0.00    -0.003 C 
ATOM     20  C   UNL     1     -25.876 -28.455  39.999  1.00  0.00     0.004 C 
ENDBRANCH  18  19
ENDBRANCH  17  18
ENDBRANCH  16  17
ENDBRANCH  15  16
ENDBRANCH  14  15
ENDBRANCH  13  14
ENDBRANCH  12  13
ENDBRANCH   1  12
TORSDOF 16
ENDMDL
MODEL 5
REMARK VINA RESULT:    -5.034      2.571      5.392
REMARK INTER + INTRA:         -11.365
REMARK INTER:                  -9.473
REMARK INTRA:                  -1.892
REMARK UNBOUND:                -1.621
REMARK SMILES CCCCCCCCCCCCCCCCCC(=O)[O-]
REMARK SMILES IDX 10 1 11 2 12 3 13 4 14 5 15 6 16 7 17 8 18 9 19 10 20 11
REMARK SMILES IDX 9 12 8 13 7 14 6 15 5 16 4 17 3 18 2 19 1 20
REMARK H PARENT
REMARK Flexibility Score: inf
ROOT
ATOM      1  C   UNL     1     -21.218 -26.420  40.052  1.00  0.00     0.000 C 
ENDROOT
BRANCH   1   2
ATOM      2  C   UNL     1     -21.217 -24.948  40.482  1.00  0.00     0.000 C 
BRANCH   2   3
ATOM      3  C   UNL     1     -20.298 -24.113  39.582  1.00  0.00     0.000 C 
BRANCH   3   4
ATOM      4  C   UNL     1     -20.931 -22.751  39.264  1.00  0.00     0.000 C 
BRANCH   4   5
ATOM      5  C   UNL     1     -22.237 -22.878  38.462  1.00  0.00     0.000 C 
BRANCH   5   6
ATOM      6  C   UNL     1     -23.299 -21.856  38.895  1.00  0.00     0.000 C 
BRANCH   6   7
ATOM      7  C   UNL     1     -23.565 -21.947  40.403  1.00  0.00     0.006 C 
BRANCH   7   8
ATOM      8  C   UNL     1     -24.300 -23.244  40.755  1.00  0.00     0.053 C 
BRANCH   8   9
ATOM      9  C   UNL     1     -25.746 -22.969  41.025  1.00  0.00     0.041 C 
ATOM     10  O   UNL     1     -26.261 -21.878  40.667  1.00  0.00    -0.550 OA
ATOM     11  O   UNL     1     -26.537 -23.940  41.627  1.00  0.00    -0.550 OA
ENDBRANCH   8   9
ENDBRANCH   7   8
ENDBRANCH   6   7
ENDBRANCH   5   6
ENDBRANCH   4   5
ENDBRANCH   3   4
ENDBRANCH   2   3
ENDBRANCH   1   2
BRANCH   1  12
ATOM     12  C   UNL     1     -20.449 -26.612  38.740  1.00  0.00     0.000 C 
BRANCH  12  13
ATOM     13  C   UNL     1     -21.318 -27.324  37.692  1.00  0.00    -0.000 C 
BRANCH  13  14
ATOM     14  C   UNL     1     -22.339 -28.291  38.319  1.00  0.00    -0.000 C 
BRANCH  14  15
ATOM     15  C   UNL     1     -23.393 -28.846  37.342  1.00  0.00    -0.000 C 
BRANCH  15  16
ATOM     16  C   UNL     1     -24.755 -29.196  37.976  1.00  0.00    -0.000 C 
BRANCH  16  17
ATOM     17  C   UNL     1     -24.680 -29.876  39.355  1.00  0.00    -0.000 C 
BRANCH  17  18
ATOM     18  C   UNL     1     -25.342 -29.044  40.467  1.00  0.00    -0.000 C 
BRANCH  18  19
ATOM     19  C   UNL     1     -24.314 -28.428  41.429  1.00  0.00    -0.003 C 
ATOM     20  C   UNL     1     -23.101 -29.329  41.660  1.00  0.00     0.004 C 
ENDBRANCH  18  19
ENDBRANCH  17  18
ENDBRANCH  16  17
ENDBRANCH  15  16
ENDBRANCH  14  15
ENDBRANCH  13  14
ENDBRANCH  12  13
ENDBRANCH   1  12
TORSDOF 16
ENDMDL
MODEL 6
REMARK VINA RESULT:    -5.015      1.531      2.854
REMARK INTER + INTRA:         -11.328
REMARK INTER:                  -9.636
REMARK INTRA:                  -1.692
REMARK UNBOUND:                -1.621
REMARK SMILES CCCCCCCCCCCCCCCCCC(=O)[O-]
REMARK SMILES IDX 10 1 11 2 12 3 13 4 14 5 15 6 16 7 17 8 18 9 19 10 20 11
REMARK SMILES IDX 9 12 8 13 7 14 6 15 5 16 4 17 3 18 2 19 1 20
REMARK H PARENT
REMARK Flexibility Score: inf
ROOT
ATOM      1  C   UNL     1     -22.137 -28.113  38.193  1.00  0.00     0.000 C 
ENDROOT
BRANCH   1   2
ATOM      2  C   UNL     1     -22.801 -28.763  39.412  1.00  0.00     0.000 C 
BRANCH   2   3
ATOM      3  C   UNL     1     -24.195 -29.298  39.061  1.00  0.00     0.000 C 
BRANCH   3   4
ATOM      4  C   UNL     1     -25.096 -29.340  40.303  1.00  0.00     0.000 C 
BRANCH   4   5
ATOM      5  C   UNL     1     -25.541 -27.941  40.760  1.00  0.00     0.000 C 
BRANCH   5   6
ATOM      6  C   UNL     1     -24.740 -27.431  41.968  1.00  0.00     0.000 C 
BRANCH   6   7
ATOM      7  C   UNL     1     -25.056 -25.958  42.253  1.00  0.00     0.006 C 
BRANCH   7   8
ATOM      8  C   UNL     1     -26.314 -25.511  41.502  1.00  0.00     0.053 C 
BRANCH   8   9
ATOM      9  C   UNL     1     -27.441 -25.278  42.458  1.00  0.00     0.041 C 
ATOM     10  O   UNL     1     -27.615 -24.141  42.968  1.00  0.00    -0.550 OA
ATOM     11  O   UNL     1     -28.330 -26.306  42.748  1.00  0.00    -0.550 OA
ENDBRANCH   8   9
ENDBRANCH   7   8
ENDBRANCH   6   7
ENDBRANCH   5   6
ENDBRANCH   4   5
ENDBRANCH   3   4
ENDBRANCH   2   3
ENDBRANCH   1   2
BRANCH   1  12
ATOM     12  C   UNL     1     -21.177 -26.996  38.619  1.00  0.00     0.000 C 
BRANCH  12  13
ATOM     13  C   UNL     1     -21.436 -26.573  40.074  1.00  0.00    -0.000 C 
BRANCH  13  14
ATOM     14  C   UNL     1     -21.034 -25.114  40.353  1.00  0.00    -0.000 C 
BRANCH  14  15
ATOM     15  C   UNL     1     -22.213 -24.143  40.562  1.00  0.00    -0.000 C 
BRANCH  15  16
ATOM     16  C   UNL     1     -22.083 -22.788  39.837  1.00  0.00    -0.000 C 
BRANCH  16  17
ATOM     17  C   UNL     1     -23.397 -22.225  39.264  1.00  0.00    -0.000 C 
BRANCH  17  18
ATOM     18  C   UNL     1     -23.741 -20.833  39.819  1.00  0.00    -0.000 C 
BRANCH  18  19
ATOM     19  C   UNL     1     -24.950 -20.862  40.767  1.00  0.00    -0.003 C 
ATOM     20  C   UNL     1     -25.848 -22.079  40.547  1.00  0.00     0.004 C 
ENDBRANCH  18  19
ENDBRANCH  17  18
ENDBRANCH  16  17
ENDBRANCH  15  16
ENDBRANCH  14  15
ENDBRANCH  13  14
ENDBRANCH  12  13
ENDBRANCH   1  12
TORSDOF 16
ENDMDL
MODEL 7
REMARK VINA RESULT:    -5.005      5.860      8.863
REMARK INTER + INTRA:         -11.307
REMARK INTER:                  -9.826
REMARK INTRA:                  -1.482
REMARK UNBOUND:                -1.621
REMARK SMILES CCCCCCCCCCCCCCCCCC(=O)[O-]
REMARK SMILES IDX 10 1 11 2 12 3 13 4 14 5 15 6 16 7 17 8 18 9 19 10 20 11
REMARK SMILES IDX 9 12 8 13 7 14 6 15 5 16 4 17 3 18 2 19 1 20
REMARK H PARENT
REMARK Flexibility Score: inf
ROOT
ATOM      1  C   UNL     1     -22.283 -28.112  39.618  1.00  0.00     0.000 C 
ENDROOT
BRANCH   1   2
ATOM      2  C   UNL     1     -22.015 -28.128  38.109  1.00  0.00     0.000 C 
BRANCH   2   3
ATOM      3  C   UNL     1     -21.018 -27.031  37.715  1.00  0.00     0.000 C 
BRANCH   3   4
ATOM      4  C   UNL     1     -20.398 -26.380  38.959  1.00  0.00     0.000 C 
BRANCH   4   5
ATOM      5  C   UNL     1     -18.873 -26.217  38.846  1.00  0.00     0.000 C 
BRANCH   5   6
ATOM      6  C   UNL     1     -18.268 -27.076  37.725  1.00  0.00     0.000 C 
BRANCH   6   7
ATOM      7  C   UNL     1     -16.864 -26.584  37.354  1.00  0.00     0.006 C 
BRANCH   7   8
ATOM      8  C   UNL     1     -16.643 -26.640  35.840  1.00  0.00     0.053 C 
BRANCH   8   9
ATOM      9  C   UNL     1     -15.244 -27.070  35.529  1.00  0.00     0.041 C 
ATOM     10  O   UNL     1     -15.029 -28.197  35.013  1.00  0.00    -0.550 OA
ATOM     11  O   UNL     1     -14.183 -26.205  35.763  1.00  0.00    -0.550 OA
ENDBRANCH   8   9
ENDBRANCH   7   8
ENDBRANCH   6   7
ENDBRANCH   5   6
ENDBRANCH   4   5
ENDBRANCH   3   4
ENDBRANCH   2   3
ENDBRANCH   1   2
BRANCH   1  12
ATOM     12  C   UNL     1     -23.185 -29.282  40.029  1.00  0.00     0.000 C 
BRANCH  12  13
ATOM     13  C   UNL     1     -24.413 -29.379  39.111  1.00  0.00    -0.000 C 
BRANCH  13  14
ATOM     14  C   UNL     1     -25.715 -28.946  39.807  1.00  0.00    -0.000 C 
BRANCH  14  15
ATOM     15  C   UNL     1     -25.523 -28.210  41.148  1.00  0.00    -0.000 C 
BRANCH  15  16
ATOM     16  C   UNL     1     -25.932 -26.723  41.145  1.00  0.00    -0.000 C 
BRANCH  16  17
ATOM     17  C   UNL     1     -25.107 -25.816  42.075  1.00  0.00    -0.000 C 
BRANCH  17  18
ATOM     18  C   UNL     1     -24.345 -24.718  41.313  1.00  0.00    -0.000 C 
BRANCH  18  19
ATOM     19  C   UNL     1     -22.820 -24.897  41.396  1.00  0.00    -0.003 C 
ATOM     20  C   UNL     1     -22.055 -23.603  41.119  1.00  0.00     0.004 C 
ENDBRANCH  18  19
ENDBRANCH  17  18
ENDBRANCH  16  17
ENDBRANCH  15  16
ENDBRANCH  14  15
ENDBRANCH  13  14
ENDBRANCH  12  13
ENDBRANCH   1  12
TORSDOF 16
ENDMDL
MODEL 8
REMARK VINA RESULT:    -4.997      3.671      6.137
REMARK INTER + INTRA:         -11.293
REMARK INTER:                  -9.527
REMARK INTRA:                  -1.766
REMARK UNBOUND:                -1.621
REMARK SMILES CCCCCCCCCCCCCCCCCC(=O)[O-]
REMARK SMILES IDX 10 1 11 2 12 3 13 4 14 5 15 6 16 7 17 8 18 9 19 10 20 11
REMARK SMILES IDX 9 12 8 13 7 14 6 15 5 16 4 17 3 18 2 19 1 20
REMARK H PARENT
REMARK Flexibility Score: inf
ROOT
ATOM      1  C   UNL     1     -21.317 -26.715  38.083  1.00  0.00     0.000 C 
ENDROOT
BRANCH   1   2
ATOM      2  C   UNL     1     -20.354 -26.340  39.214  1.00  0.00     0.000 C 
BRANCH   2   3
ATOM      3  C   UNL     1     -20.707 -24.970  39.808  1.00  0.00     0.000 C 
BRANCH   3   4
ATOM      4  C   UNL     1     -21.805 -25.101  40.873  1.00  0.00     0.000 C 
BRANCH   4   5
ATOM      5  C   UNL     1     -22.308 -23.737  41.376  1.00  0.00     0.000 C 
BRANCH   5   6
ATOM      6  C   UNL     1     -23.669 -23.351  40.778  1.00  0.00     0.000 C 
BRANCH   6   7
ATOM      7  C   UNL     1     -23.579 -22.018  40.025  1.00  0.00     0.006 C 
BRANCH   7   8
ATOM      8  C   UNL     1     -23.020 -22.220  38.614  1.00  0.00     0.053 C 
BRANCH   8   9
ATOM      9  C   UNL     1     -21.773 -21.415  38.423  1.00  0.00     0.041 C 
ATOM     10  O   UNL     1     -21.115 -21.022  39.421  1.00  0.00    -0.550 OA
ATOM     11  O   UNL     1     -21.311 -21.143  37.141  1.00  0.00    -0.550 OA
ENDBRANCH   8   9
ENDBRANCH   7   8
ENDBRANCH   6   7
ENDBRANCH   5   6
ENDBRANCH   4   5
ENDBRANCH   3   4
ENDBRANCH   2   3
ENDBRANCH   1   2
BRANCH   1  12
ATOM     12  C   UNL     1     -21.847 -28.142  38.261  1.00  0.00     0.000 C 
BRANCH  12  13
ATOM     13  C   UNL     1     -22.476 -28.326  39.651  1.00  0.00    -0.000 C 
BRANCH  13  14
ATOM     14  C   UNL     1     -23.601 -29.376  39.664  1.00  0.00    -0.000 C 
BRANCH  14  15
ATOM     15  C   UNL     1     -24.696 -29.143  40.724  1.00  0.00    -0.000 C 
BRANCH  15  16
ATOM     16  C   UNL     1     -24.416 -27.997  41.717  1.00  0.00    -0.000 C 
BRANCH  16  17
ATOM     17  C   UNL     1     -25.184 -26.691  41.442  1.00  0.00    -0.000 C 
BRANCH  17  18
ATOM     18  C   UNL     1     -26.665 -26.932  41.104  1.00  0.00    -0.000 C 
BRANCH  18  19
ATOM     19  C   UNL     1     -27.595 -25.915  41.785  1.00  0.00    -0.003 C 
ATOM     20  C   UNL     1     -27.049 -25.413  43.122  1.00  0.00     0.004 C 
ENDBRANCH  18  19
ENDBRANCH  17  18
ENDBRANCH  16  17
ENDBRANCH  15  16
ENDBRANCH  14  15
ENDBRANCH  13  14
ENDBRANCH  12  13
ENDBRANCH   1  12
TORSDOF 16
ENDMDL
MODEL 9
REMARK VINA RESULT:    -4.935      2.780      6.185
REMARK INTER + INTRA:         -11.172
REMARK INTER:                  -9.556
REMARK INTRA:                  -1.616
REMARK UNBOUND:                -1.621
REMARK SMILES CCCCCCCCCCCCCCCCCC(=O)[O-]
REMARK SMILES IDX 10 1 11 2 12 3 13 4 14 5 15 6 16 7 17 8 18 9 19 10 20 11
REMARK SMILES IDX 9 12 8 13 7 14 6 15 5 16 4 17 3 18 2 19 1 20
REMARK H PARENT
REMARK Flexibility Score: inf
ROOT
ATOM      1  C   UNL     1     -24.088 -29.249  38.869  1.00  0.00     0.000 C 
ENDROOT
BRANCH   1   2
ATOM      2  C   UNL     1     -22.646 -28.848  39.201  1.00  0.00     0.000 C 
BRANCH   2   3
ATOM      3  C   UNL     1     -22.016 -28.050  38.053  1.00  0.00     0.000 C 
BRANCH   3   4
ATOM      4  C   UNL     1     -21.145 -26.906  38.591  1.00  0.00     0.000 C 
BRANCH   4   5
ATOM      5  C   UNL     1     -21.525 -26.496  40.023  1.00  0.00     0.000 C 
BRANCH   5   6
ATOM      6  C   UNL     1     -20.974 -25.115  40.409  1.00  0.00     0.000 C 
BRANCH   6   7
ATOM      7  C   UNL     1     -22.082 -24.222  40.980  1.00  0.00     0.006 C 
BRANCH   7   8
ATOM      8  C   UNL     1     -22.259 -22.957  40.135  1.00  0.00     0.053 C 
BRANCH   8   9
ATOM      9  C   UNL     1     -23.129 -21.969  40.846  1.00  0.00     0.041 C 
ATOM     10  O   UNL     1     -24.362 -22.187  40.973  1.00  0.00    -0.550 OA
ATOM     11  O   UNL     1     -22.569 -20.831  41.413  1.00  0.00    -0.550 OA
ENDBRANCH   8   9
ENDBRANCH   7   8
ENDBRANCH   6   7
ENDBRANCH   5   6
ENDBRANCH   4   5
ENDBRANCH   3   4
ENDBRANCH   2   3
ENDBRANCH   1   2
BRANCH   1  12
ATOM     12  C   UNL     1     -25.035 -28.902  40.023  1.00  0.00     0.000 C 
BRANCH  12  13
ATOM     13  C   UNL     1     -24.248 -28.480  41.274  1.00  0.00    -0.000 C 
BRANCH  13  14
ATOM     14  C   UNL     1     -24.921 -27.330  42.044  1.00  0.00    -0.000 C 
BRANCH  14  15
ATOM     15  C   UNL     1     -25.503 -26.209  41.161  1.00  0.00    -0.000 C 
BRANCH  15  16
ATOM     16  C   UNL     1     -26.187 -25.058  41.927  1.00  0.00    -0.000 C 
BRANCH  16  17
ATOM     17  C   UNL     1     -27.325 -25.486  42.870  1.00  0.00    -0.000 C 
BRANCH  17  18
ATOM     18  C   UNL     1     -28.588 -25.935  42.115  1.00  0.00    -0.000 C 
BRANCH  18  19
ATOM     19  C   UNL     1     -29.753 -26.262  43.063  1.00  0.00    -0.003 C 
ATOM     20  C   UNL     1     -30.987 -26.785  42.327  1.00  0.00     0.004 C 
ENDBRANCH  18  19
ENDBRANCH  17  18
ENDBRANCH  16  17
ENDBRANCH  15  16
ENDBRANCH  14  15
ENDBRANCH  13  14
ENDBRANCH  12  13
ENDBRANCH   1  12
TORSDOF 16
ENDMDL
