MODEL 1
REMARK VINA RESULT:    -4.426      0.000      0.000
REMARK INTER + INTRA:          -5.776
REMARK INTER:                  -5.461
REMARK INTRA:                  -0.315
REMARK UNBOUND:                -0.315
REMARK SMILES O=c1c(O)c(-c2cc(O)c(O)c(O)c2)oc2cc(O)cc(O)c12
REMARK SMILES IDX 5 1 3 2 2 3 1 4 23 5 21 6 20 7 18 8 17 9 16 10 15 11 6 12
REMARK SMILES IDX 7 13 8 14 14 15 10 16 12 17 9 18 11 20 13 22 4 24 22 26
REMARK SMILES IDX 19 28
REMARK H PARENT 9 19 11 21 13 23 4 25 22 27 19 29
REMARK Flexibility Score: inf
ROOT
ATOM      1  C   UNL     1      12.614   2.424 -24.637  1.00  0.00     0.180 A 
ATOM      2  C   UNL     1      12.887   1.555 -23.567  1.00  0.00     0.208 A 
ATOM      3  C   UNL     1      11.815   0.991 -22.857  1.00  0.00     0.238 A 
ATOM      4  O   UNL     1      12.065   0.257 -21.867  1.00  0.00    -0.285 OA
ATOM      5  C   UNL     1      10.484   1.291 -23.237  1.00  0.00     0.111 A 
ATOM      6  C   UNL     1       9.321   0.744 -22.614  1.00  0.00     0.134 A 
ATOM      7  C   UNL     1       8.055   1.211 -22.987  1.00  0.00     0.093 A 
ATOM      8  C   UNL     1       7.906   2.157 -24.005  1.00  0.00     0.123 A 
ATOM      9  C   UNL     1       9.032   2.651 -24.659  1.00  0.00     0.094 A 
ATOM     10  C   UNL     1      10.311   2.231 -24.285  1.00  0.00     0.146 A 
ATOM     11  O   UNL     1      11.357   2.737 -24.927  1.00  0.00    -0.452 OA
ENDROOT
BRANCH   1  12
ATOM     12  C   UNL     1      13.692   3.038 -25.447  1.00  0.00     0.029 A 
ATOM     13  C   UNL     1      14.027   2.476 -26.689  1.00  0.00     0.062 A 
ATOM     14  C   UNL     1      15.057   3.025 -27.465  1.00  0.00     0.162 A 
ATOM     15  C   UNL     1      14.427   4.137 -24.974  1.00  0.00     0.062 A 
ATOM     16  C   UNL     1      15.772   4.135 -26.997  1.00  0.00     0.200 A 
ATOM     17  C   UNL     1      15.460   4.691 -25.744  1.00  0.00     0.162 A 
BRANCH  14  18
ATOM     18  O   UNL     1      15.376   2.472 -28.704  1.00  0.00    -0.504 OA
ATOM     19  H   UNL     1      15.425   3.040 -29.542  1.00  0.00     0.293 HD
ENDBRANCH  14  18
BRANCH  16  20
ATOM     20  O   UNL     1      16.791   4.670 -27.784  1.00  0.00    -0.502 OA
ATOM     21  H   UNL     1      17.007   5.660 -27.787  1.00  0.00     0.293 HD
ENDBRANCH  16  20
BRANCH  17  22
ATOM     22  O   UNL     1      16.178   5.786 -25.269  1.00  0.00    -0.504 OA
ATOM     23  H   UNL     1      16.364   5.911 -24.281  1.00  0.00     0.293 HD
ENDBRANCH  17  22
ENDBRANCH   1  12
BRANCH   2  24
ATOM     24  O   UNL     1      14.208   1.291 -23.195  1.00  0.00    -0.502 OA
ATOM     25  H   UNL     1      14.951   1.173 -23.875  1.00  0.00     0.293 HD
ENDBRANCH   2  24
BRANCH   6  26
ATOM     26  O   UNL     1       9.355  -0.271 -21.653  1.00  0.00    -0.507 OA
ATOM     27  H   UNL     1       8.732  -1.064 -21.632  1.00  0.00     0.293 HD
ENDBRANCH   6  26
BRANCH   8  28
ATOM     28  O   UNL     1       6.641   2.604 -24.380  1.00  0.00    -0.508 OA
ATOM     29  H   UNL     1       5.798   2.165 -24.029  1.00  0.00     0.293 HD
ENDBRANCH   8  28
TORSDOF 7
ENDMDL
MODEL 2
REMARK VINA RESULT:    -4.385      4.017      5.824
REMARK INTER + INTRA:          -5.726
REMARK INTER:                  -5.370
REMARK INTRA:                  -0.357
REMARK UNBOUND:                -0.315
REMARK SMILES O=c1c(O)c(-c2cc(O)c(O)c(O)c2)oc2cc(O)cc(O)c12
REMARK SMILES IDX 5 1 3 2 2 3 1 4 23 5 21 6 20 7 18 8 17 9 16 10 15 11 6 12
REMARK SMILES IDX 7 13 8 14 14 15 10 16 12 17 9 18 11 20 13 22 4 24 22 26
REMARK SMILES IDX 19 28
REMARK H PARENT 9 19 11 21 13 23 4 25 22 27 19 29
REMARK Flexibility Score: inf
ROOT
ATOM      1  C   UNL     1       8.637  -0.924 -24.245  1.00  0.00     0.180 A 
ATOM      2  C   UNL     1       8.510  -1.615 -23.027  1.00  0.00     0.208 A 
ATOM      3  C   UNL     1       7.653  -2.725 -22.960  1.00  0.00     0.238 A 
ATOM      4  O   UNL     1       7.502  -3.306 -21.855  1.00  0.00    -0.285 OA
ATOM      5  C   UNL     1       6.948  -3.141 -24.116  1.00  0.00     0.111 A 
ATOM      6  C   UNL     1       6.085  -4.277 -24.173  1.00  0.00     0.134 A 
ATOM      7  C   UNL     1       5.338  -4.518 -25.333  1.00  0.00     0.093 A 
ATOM      8  C   UNL     1       5.473  -3.702 -26.460  1.00  0.00     0.123 A 
ATOM      9  C   UNL     1       6.357  -2.627 -26.433  1.00  0.00     0.094 A 
ATOM     10  C   UNL     1       7.089  -2.340 -25.278  1.00  0.00     0.146 A 
ATOM     11  O   UNL     1       7.913  -1.299 -25.293  1.00  0.00    -0.452 OA
ENDROOT
BRANCH   1  12
ATOM     12  C   UNL     1       9.539   0.241 -24.399  1.00  0.00     0.029 A 
ATOM     13  C   UNL     1      10.888   0.031 -24.724  1.00  0.00     0.062 A 
ATOM     14  C   UNL     1      11.766   1.116 -24.854  1.00  0.00     0.162 A 
ATOM     15  C   UNL     1       9.087   1.551 -24.169  1.00  0.00     0.062 A 
ATOM     16  C   UNL     1      11.304   2.421 -24.646  1.00  0.00     0.200 A 
ATOM     17  C   UNL     1       9.961   2.640 -24.296  1.00  0.00     0.162 A 
BRANCH  14  18
ATOM     18  O   UNL     1      13.102   0.902 -25.193  1.00  0.00    -0.504 OA
ATOM     19  H   UNL     1      13.853   1.110 -24.545  1.00  0.00     0.293 HD
ENDBRANCH  14  18
BRANCH  16  20
ATOM     20  O   UNL     1      12.192   3.488 -24.783  1.00  0.00    -0.502 OA
ATOM     21  H   UNL     1      13.048   3.550 -24.246  1.00  0.00     0.293 HD
ENDBRANCH  16  20
BRANCH  17  22
ATOM     22  O   UNL     1       9.501   3.937 -24.074  1.00  0.00    -0.504 OA
ATOM     23  H   UNL     1       8.524   4.181 -24.191  1.00  0.00     0.293 HD
ENDBRANCH  17  22
ENDBRANCH   1  12
BRANCH   2  24
ATOM     24  O   UNL     1       9.198  -1.173 -21.894  1.00  0.00    -0.502 OA
ATOM     25  H   UNL     1       8.750  -1.073 -20.990  1.00  0.00     0.293 HD
ENDBRANCH   2  24
BRANCH   6  26
ATOM     26  O   UNL     1       5.948  -5.206 -23.138  1.00  0.00    -0.507 OA
ATOM     27  H   UNL     1       5.191  -5.217 -22.471  1.00  0.00     0.293 HD
ENDBRANCH   6  26
BRANCH   8  28
ATOM     28  O   UNL     1       4.737  -3.959 -27.614  1.00  0.00    -0.508 OA
ATOM     29  H   UNL     1       4.788  -3.350 -28.423  1.00  0.00     0.293 HD
ENDBRANCH   8  28
TORSDOF 7
ENDMDL
MODEL 3
REMARK VINA RESULT:    -4.350      4.516      7.041
REMARK INTER + INTRA:          -5.683
REMARK INTER:                  -5.321
REMARK INTRA:                  -0.362
REMARK UNBOUND:                -0.315
REMARK SMILES O=c1c(O)c(-c2cc(O)c(O)c(O)c2)oc2cc(O)cc(O)c12
REMARK SMILES IDX 5 1 3 2 2 3 1 4 23 5 21 6 20 7 18 8 17 9 16 10 15 11 6 12
REMARK SMILES IDX 7 13 8 14 14 15 10 16 12 17 9 18 11 20 13 22 4 24 22 26
REMARK SMILES IDX 19 28
REMARK H PARENT 9 19 11 21 13 23 4 25 22 27 19 29
REMARK Flexibility Score: inf
ROOT
ATOM      1  C   UNL     1       8.027  -1.727 -23.422  1.00  0.00     0.180 A 
ATOM      2  C   UNL     1       8.358  -2.558 -22.339  1.00  0.00     0.208 A 
ATOM      3  C   UNL     1       7.745  -3.817 -22.234  1.00  0.00     0.238 A 
ATOM      4  O   UNL     1       8.003  -4.534 -21.234  1.00  0.00    -0.285 OA
ATOM      5  C   UNL     1       6.822  -4.235 -23.224  1.00  0.00     0.111 A 
ATOM      6  C   UNL     1       6.172  -5.507 -23.240  1.00  0.00     0.134 A 
ATOM      7  C   UNL     1       5.181  -5.762 -24.196  1.00  0.00     0.093 A 
ATOM      8  C   UNL     1       4.862  -4.817 -25.175  1.00  0.00     0.123 A 
ATOM      9  C   UNL     1       5.533  -3.598 -25.203  1.00  0.00     0.094 A 
ATOM     10  C   UNL     1       6.502  -3.299 -24.241  1.00  0.00     0.146 A 
ATOM     11  O   UNL     1       7.109  -2.120 -24.298  1.00  0.00    -0.452 OA
ENDROOT
BRANCH   1  12
ATOM     12  C   UNL     1       8.649  -0.396 -23.613  1.00  0.00     0.029 A 
ATOM     13  C   UNL     1       8.042   0.737 -23.051  1.00  0.00     0.062 A 
ATOM     14  C   UNL     1       8.600   2.010 -23.235  1.00  0.00     0.162 A 
ATOM     15  C   UNL     1       9.805  -0.235 -24.395  1.00  0.00     0.062 A 
ATOM     16  C   UNL     1       9.766   2.161 -23.997  1.00  0.00     0.200 A 
ATOM     17  C   UNL     1      10.368   1.035 -24.584  1.00  0.00     0.162 A 
BRANCH  14  18
ATOM     18  O   UNL     1       8.001   3.131 -22.661  1.00  0.00    -0.504 OA
ATOM     19  H   UNL     1       8.195   4.066 -22.997  1.00  0.00     0.293 HD
ENDBRANCH  14  18
BRANCH  16  20
ATOM     20  O   UNL     1      10.308   3.435 -24.167  1.00  0.00    -0.502 OA
ATOM     21  H   UNL     1       9.841   4.152 -24.707  1.00  0.00     0.293 HD
ENDBRANCH  16  20
BRANCH  17  22
ATOM     22  O   UNL     1      11.520   1.183 -25.355  1.00  0.00    -0.504 OA
ATOM     23  H   UNL     1      11.582   0.806 -26.294  1.00  0.00     0.293 HD
ENDBRANCH  17  22
ENDBRANCH   1  12
BRANCH   2  24
ATOM     24  O   UNL     1       9.254  -2.116 -21.362  1.00  0.00    -0.502 OA
ATOM     25  H   UNL     1       9.655  -1.185 -21.373  1.00  0.00     0.293 HD
ENDBRANCH   2  24
BRANCH   6  26
ATOM     26  O   UNL     1       6.482  -6.552 -22.366  1.00  0.00    -0.507 OA
ATOM     27  H   UNL     1       7.169  -6.501 -21.629  1.00  0.00     0.293 HD
ENDBRANCH   6  26
BRANCH   8  28
ATOM     28  O   UNL     1       3.885  -5.087 -26.131  1.00  0.00    -0.508 OA
ATOM     29  H   UNL     1       3.452  -4.346 -26.670  1.00  0.00     0.293 HD
ENDBRANCH   8  28
TORSDOF 7
ENDMDL
MODEL 4
REMARK VINA RESULT:    -4.302      4.077      7.218
REMARK INTER + INTRA:          -5.624
REMARK INTER:                  -5.270
REMARK INTRA:                  -0.353
REMARK UNBOUND:                -0.315
REMARK SMILES O=c1c(O)c(-c2cc(O)c(O)c(O)c2)oc2cc(O)cc(O)c12
REMARK SMILES IDX 5 1 3 2 2 3 1 4 23 5 21 6 20 7 18 8 17 9 16 10 15 11 6 12
REMARK SMILES IDX 7 13 8 14 14 15 10 16 12 17 9 18 11 20 13 22 4 24 22 26
REMARK SMILES IDX 19 28
REMARK H PARENT 9 19 11 21 13 23 4 25 22 27 19 29
REMARK Flexibility Score: inf
ROOT
ATOM      1  C   UNL     1       8.831  -1.278 -21.514  1.00  0.00     0.180 A 
ATOM      2  C   UNL     1       8.827  -2.530 -22.152  1.00  0.00     0.208 A 
ATOM      3  C   UNL     1       8.621  -3.686 -21.382  1.00  0.00     0.238 A 
ATOM      4  O   UNL     1       8.673  -4.808 -21.950  1.00  0.00    -0.285 OA
ATOM      5  C   UNL     1       8.403  -3.574 -19.987  1.00  0.00     0.111 A 
ATOM      6  C   UNL     1       8.143  -4.675 -19.117  1.00  0.00     0.134 A 
ATOM      7  C   UNL     1       8.072  -4.460 -17.735  1.00  0.00     0.093 A 
ATOM      8  C   UNL     1       8.187  -3.175 -17.198  1.00  0.00     0.123 A 
ATOM      9  C   UNL     1       8.382  -2.087 -18.045  1.00  0.00     0.094 A 
ATOM     10  C   UNL     1       8.493  -2.274 -19.426  1.00  0.00     0.146 A 
ATOM     11  O   UNL     1       8.689  -1.211 -20.195  1.00  0.00    -0.452 OA
ENDROOT
BRANCH   1  12
ATOM     12  C   UNL     1       9.018  -0.014 -22.262  1.00  0.00     0.029 A 
ATOM     13  C   UNL     1       7.895   0.670 -22.755  1.00  0.00     0.062 A 
ATOM     14  C   UNL     1       8.047   1.857 -23.485  1.00  0.00     0.162 A 
ATOM     15  C   UNL     1      10.300   0.488 -22.542  1.00  0.00     0.062 A 
ATOM     16  C   UNL     1       9.327   2.364 -23.741  1.00  0.00     0.200 A 
ATOM     17  C   UNL     1      10.459   1.674 -23.272  1.00  0.00     0.162 A 
BRANCH  14  18
ATOM     18  O   UNL     1       6.927   2.540 -23.958  1.00  0.00    -0.504 OA
ATOM     19  H   UNL     1       6.637   3.424 -23.560  1.00  0.00     0.293 HD
ENDBRANCH  14  18
BRANCH  16  20
ATOM     20  O   UNL     1       9.459   3.548 -24.465  1.00  0.00    -0.502 OA
ATOM     21  H   UNL     1       9.621   4.440 -24.015  1.00  0.00     0.293 HD
ENDBRANCH  16  20
BRANCH  17  22
ATOM     22  O   UNL     1      11.735   2.168 -23.537  1.00  0.00    -0.504 OA
ATOM     23  H   UNL     1      12.514   1.987 -22.915  1.00  0.00     0.293 HD
ENDBRANCH  17  22
ENDBRANCH   1  12
BRANCH   2  24
ATOM     24  O   UNL     1       9.066  -2.620 -23.526  1.00  0.00    -0.502 OA
ATOM     25  H   UNL     1       9.982  -2.830 -23.906  1.00  0.00     0.293 HD
ENDBRANCH   2  24
BRANCH   6  26
ATOM     26  O   UNL     1       7.920  -5.983 -19.558  1.00  0.00    -0.507 OA
ATOM     27  H   UNL     1       7.021  -6.439 -19.572  1.00  0.00     0.293 HD
ENDBRANCH   6  26
BRANCH   8  28
ATOM     28  O   UNL     1       8.100  -2.969 -15.823  1.00  0.00    -0.508 OA
ATOM     29  H   UNL     1       7.844  -2.068 -15.437  1.00  0.00     0.293 HD
ENDBRANCH   8  28
TORSDOF 7
ENDMDL
MODEL 5
REMARK VINA RESULT:    -4.277      4.272      7.397
REMARK INTER + INTRA:          -5.593
REMARK INTER:                  -5.224
REMARK INTRA:                  -0.369
REMARK UNBOUND:                -0.315
REMARK SMILES O=c1c(O)c(-c2cc(O)c(O)c(O)c2)oc2cc(O)cc(O)c12
REMARK SMILES IDX 5 1 3 2 2 3 1 4 23 5 21 6 20 7 18 8 17 9 16 10 15 11 6 12
REMARK SMILES IDX 7 13 8 14 14 15 10 16 12 17 9 18 11 20 13 22 4 24 22 26
REMARK SMILES IDX 19 28
REMARK H PARENT 9 19 11 21 13 23 4 25 22 27 19 29
REMARK Flexibility Score: inf
ROOT
ATOM      1  C   UNL     1       8.847  -1.476 -21.298  1.00  0.00     0.180 A 
ATOM      2  C   UNL     1       8.814  -2.740 -21.911  1.00  0.00     0.208 A 
ATOM      3  C   UNL     1       8.547  -3.872 -21.124  1.00  0.00     0.238 A 
ATOM      4  O   UNL     1       8.573  -5.006 -21.668  1.00  0.00    -0.285 OA
ATOM      5  C   UNL     1       8.299  -3.723 -19.738  1.00  0.00     0.111 A 
ATOM      6  C   UNL     1       7.978  -4.796 -18.853  1.00  0.00     0.134 A 
ATOM      7  C   UNL     1       7.881  -4.550 -17.477  1.00  0.00     0.093 A 
ATOM      8  C   UNL     1       8.030  -3.259 -16.963  1.00  0.00     0.123 A 
ATOM      9  C   UNL     1       8.284  -2.197 -17.827  1.00  0.00     0.094 A 
ATOM     10  C   UNL     1       8.422  -2.416 -19.200  1.00  0.00     0.146 A 
ATOM     11  O   UNL     1       8.675  -1.376 -19.985  1.00  0.00    -0.452 OA
ENDROOT
BRANCH   1  12
ATOM     12  C   UNL     1       9.098  -0.235 -22.066  1.00  0.00     0.029 A 
ATOM     13  C   UNL     1      10.405   0.267 -22.160  1.00  0.00     0.062 A 
ATOM     14  C   UNL     1      10.665   1.452 -22.863  1.00  0.00     0.162 A 
ATOM     15  C   UNL     1       8.046   0.486 -22.656  1.00  0.00     0.062 A 
ATOM     16  C   UNL     1       9.615   2.154 -23.468  1.00  0.00     0.200 A 
ATOM     17  C   UNL     1       8.299   1.672 -23.359  1.00  0.00     0.162 A 
BRANCH  14  18
ATOM     18  O   UNL     1      11.968   1.937 -22.966  1.00  0.00    -0.504 OA
ATOM     19  H   UNL     1      12.473   1.920 -23.844  1.00  0.00     0.293 HD
ENDBRANCH  14  18
BRANCH  16  20
ATOM     20  O   UNL     1       9.893   3.328 -24.166  1.00  0.00    -0.502 OA
ATOM     21  H   UNL     1      10.623   3.967 -23.876  1.00  0.00     0.293 HD
ENDBRANCH  16  20
BRANCH  17  22
ATOM     22  O   UNL     1       7.249   2.375 -23.947  1.00  0.00    -0.504 OA
ATOM     23  H   UNL     1       7.379   2.909 -24.799  1.00  0.00     0.293 HD
ENDBRANCH  17  22
ENDBRANCH   1  12
BRANCH   2  24
ATOM     24  O   UNL     1       9.084  -2.866 -23.277  1.00  0.00    -0.502 OA
ATOM     25  H   UNL     1      10.027  -2.861 -23.648  1.00  0.00     0.293 HD
ENDBRANCH   2  24
BRANCH   6  26
ATOM     26  O   UNL     1       7.718  -6.103 -19.273  1.00  0.00    -0.507 OA
ATOM     27  H   UNL     1       7.923  -6.463 -20.193  1.00  0.00     0.293 HD
ENDBRANCH   6  26
BRANCH   8  28
ATOM     28  O   UNL     1       7.916  -3.022 -15.595  1.00  0.00    -0.508 OA
ATOM     29  H   UNL     1       8.265  -2.169 -15.174  1.00  0.00     0.293 HD
ENDBRANCH   8  28
TORSDOF 7
ENDMDL
MODEL 6
REMARK VINA RESULT:    -4.236      3.177      7.930
REMARK INTER + INTRA:          -5.542
REMARK INTER:                  -5.209
REMARK INTRA:                  -0.333
REMARK UNBOUND:                -0.315
REMARK SMILES O=c1c(O)c(-c2cc(O)c(O)c(O)c2)oc2cc(O)cc(O)c12
REMARK SMILES IDX 5 1 3 2 2 3 1 4 23 5 21 6 20 7 18 8 17 9 16 10 15 11 6 12
REMARK SMILES IDX 7 13 8 14 14 15 10 16 12 17 9 18 11 20 13 22 4 24 22 26
REMARK SMILES IDX 19 28
REMARK H PARENT 9 19 11 21 13 23 4 25 22 27 19 29
REMARK Flexibility Score: inf
ROOT
ATOM      1  C   UNL     1       9.185   0.075 -24.264  1.00  0.00     0.180 A 
ATOM      2  C   UNL     1       8.691   1.281 -23.736  1.00  0.00     0.208 A 
ATOM      3  C   UNL     1       9.466   2.445 -23.857  1.00  0.00     0.238 A 
ATOM      4  O   UNL     1       9.044   3.509 -23.335  1.00  0.00    -0.285 OA
ATOM      5  C   UNL     1      10.716   2.393 -24.520  1.00  0.00     0.111 A 
ATOM      6  C   UNL     1      11.566   3.520 -24.737  1.00  0.00     0.134 A 
ATOM      7  C   UNL     1      12.838   3.329 -25.289  1.00  0.00     0.093 A 
ATOM      8  C   UNL     1      13.266   2.061 -25.692  1.00  0.00     0.123 A 
ATOM      9  C   UNL     1      12.421   0.965 -25.539  1.00  0.00     0.094 A 
ATOM     10  C   UNL     1      11.159   1.119 -24.958  1.00  0.00     0.146 A 
ATOM     11  O   UNL     1      10.390   0.046 -24.822  1.00  0.00    -0.452 OA
ENDROOT
BRANCH   1  12
ATOM     12  C   UNL     1       8.415  -1.188 -24.195  1.00  0.00     0.029 A 
ATOM     13  C   UNL     1       8.461  -1.963 -23.026  1.00  0.00     0.062 A 
ATOM     14  C   UNL     1       7.758  -3.173 -22.944  1.00  0.00     0.162 A 
ATOM     15  C   UNL     1       7.685  -1.660 -25.299  1.00  0.00     0.062 A 
ATOM     16  C   UNL     1       7.014  -3.627 -24.041  1.00  0.00     0.200 A 
ATOM     17  C   UNL     1       6.981  -2.870 -25.225  1.00  0.00     0.162 A 
BRANCH  14  18
ATOM     18  O   UNL     1       7.795  -3.930 -21.774  1.00  0.00    -0.504 OA
ATOM     19  H   UNL     1       8.668  -4.137 -21.304  1.00  0.00     0.293 HD
ENDBRANCH  14  18
BRANCH  16  20
ATOM     20  O   UNL     1       6.319  -4.831 -23.940  1.00  0.00    -0.502 OA
ATOM     21  H   UNL     1       6.777  -5.698 -23.687  1.00  0.00     0.293 HD
ENDBRANCH  16  20
BRANCH  17  22
ATOM     22  O   UNL     1       6.253  -3.326 -26.322  1.00  0.00    -0.504 OA
ATOM     23  H   UNL     1       5.681  -2.699 -26.877  1.00  0.00     0.293 HD
ENDBRANCH  17  22
ENDBRANCH   1  12
BRANCH   2  24
ATOM     24  O   UNL     1       7.465   1.304 -23.066  1.00  0.00    -0.502 OA
ATOM     25  H   UNL     1       6.869   2.124 -23.051  1.00  0.00     0.293 HD
ENDBRANCH   2  24
BRANCH   6  26
ATOM     26  O   UNL     1      11.199   4.839 -24.456  1.00  0.00    -0.507 OA
ATOM     27  H   UNL     1      11.675   5.656 -24.807  1.00  0.00     0.293 HD
ENDBRANCH   6  26
BRANCH   8  28
ATOM     28  O   UNL     1      14.528   1.883 -26.254  1.00  0.00    -0.508 OA
ATOM     29  H   UNL     1      15.054   2.661 -26.635  1.00  0.00     0.293 HD
ENDBRANCH   8  28
TORSDOF 7
ENDMDL
MODEL 7
REMARK VINA RESULT:    -4.199      3.163      7.825
REMARK INTER + INTRA:          -5.497
REMARK INTER:                  -5.156
REMARK INTRA:                  -0.340
REMARK UNBOUND:                -0.315
REMARK SMILES O=c1c(O)c(-c2cc(O)c(O)c(O)c2)oc2cc(O)cc(O)c12
REMARK SMILES IDX 5 1 3 2 2 3 1 4 23 5 21 6 20 7 18 8 17 9 16 10 15 11 6 12
REMARK SMILES IDX 7 13 8 14 14 15 10 16 12 17 9 18 11 20 13 22 4 24 22 26
REMARK SMILES IDX 19 28
REMARK H PARENT 9 19 11 21 13 23 4 25 22 27 19 29
REMARK Flexibility Score: inf
ROOT
ATOM      1  C   UNL     1       9.233   0.049 -24.249  1.00  0.00     0.180 A 
ATOM      2  C   UNL     1       8.732   1.261 -23.745  1.00  0.00     0.208 A 
ATOM      3  C   UNL     1       9.505   2.426 -23.880  1.00  0.00     0.238 A 
ATOM      4  O   UNL     1       9.076   3.497 -23.379  1.00  0.00    -0.285 OA
ATOM      5  C   UNL     1      10.760   2.367 -24.532  1.00  0.00     0.111 A 
ATOM      6  C   UNL     1      11.608   3.492 -24.761  1.00  0.00     0.134 A 
ATOM      7  C   UNL     1      12.886   3.295 -25.299  1.00  0.00     0.093 A 
ATOM      8  C   UNL     1      13.320   2.022 -25.678  1.00  0.00     0.123 A 
ATOM      9  C   UNL     1      12.477   0.927 -25.514  1.00  0.00     0.094 A 
ATOM     10  C   UNL     1      11.210   1.086 -24.945  1.00  0.00     0.146 A 
ATOM     11  O   UNL     1      10.443   0.013 -24.797  1.00  0.00    -0.452 OA
ENDROOT
BRANCH   1  12
ATOM     12  C   UNL     1       8.466  -1.216 -24.165  1.00  0.00     0.029 A 
ATOM     13  C   UNL     1       7.667  -1.611 -25.249  1.00  0.00     0.062 A 
ATOM     14  C   UNL     1       6.915  -2.792 -25.186  1.00  0.00     0.162 A 
ATOM     15  C   UNL     1       8.475  -2.001 -23.000  1.00  0.00     0.062 A 
ATOM     16  C   UNL     1       6.945  -3.582 -24.030  1.00  0.00     0.200 A 
ATOM     17  C   UNL     1       7.724  -3.183 -22.930  1.00  0.00     0.162 A 
BRANCH  14  18
ATOM     18  O   UNL     1       6.135  -3.188 -26.272  1.00  0.00    -0.504 OA
ATOM     19  H   UNL     1       5.339  -3.803 -26.157  1.00  0.00     0.293 HD
ENDBRANCH  14  18
BRANCH  16  20
ATOM     20  O   UNL     1       6.193  -4.756 -23.987  1.00  0.00    -0.502 OA
ATOM     21  H   UNL     1       5.543  -4.952 -23.236  1.00  0.00     0.293 HD
ENDBRANCH  16  20
BRANCH  17  22
ATOM     22  O   UNL     1       7.746  -3.959 -21.773  1.00  0.00    -0.504 OA
ATOM     23  H   UNL     1       7.381  -3.610 -20.894  1.00  0.00     0.293 HD
ENDBRANCH  17  22
ENDBRANCH   1  12
BRANCH   2  24
ATOM     24  O   UNL     1       7.501   1.292 -23.085  1.00  0.00    -0.502 OA
ATOM     25  H   UNL     1       7.201   2.086 -22.530  1.00  0.00     0.293 HD
ENDBRANCH   2  24
BRANCH   6  26
ATOM     26  O   UNL     1      11.236   4.815 -24.505  1.00  0.00    -0.507 OA
ATOM     27  H   UNL     1      10.500   5.309 -24.987  1.00  0.00     0.293 HD
ENDBRANCH   6  26
BRANCH   8  28
ATOM     28  O   UNL     1      14.587   1.838 -26.227  1.00  0.00    -0.508 OA
ATOM     29  H   UNL     1      14.984   0.913 -26.349  1.00  0.00     0.293 HD
ENDBRANCH   8  28
TORSDOF 7
ENDMDL
MODEL 8
REMARK VINA RESULT:    -4.189      3.817      8.373
REMARK INTER + INTRA:          -5.484
REMARK INTER:                  -5.126
REMARK INTRA:                  -0.358
REMARK UNBOUND:                -0.315
REMARK SMILES O=c1c(O)c(-c2cc(O)c(O)c(O)c2)oc2cc(O)cc(O)c12
REMARK SMILES IDX 5 1 3 2 2 3 1 4 23 5 21 6 20 7 18 8 17 9 16 10 15 11 6 12
REMARK SMILES IDX 7 13 8 14 14 15 10 16 12 17 9 18 11 20 13 22 4 24 22 26
REMARK SMILES IDX 19 28
REMARK H PARENT 9 19 11 21 13 23 4 25 22 27 19 29
REMARK Flexibility Score: inf
ROOT
ATOM      1  C   UNL     1       9.335  -0.932 -21.159  1.00  0.00     0.180 A 
ATOM      2  C   UNL     1      10.670  -0.614 -21.461  1.00  0.00     0.208 A 
ATOM      3  C   UNL     1      10.934   0.425 -22.369  1.00  0.00     0.238 A 
ATOM      4  O   UNL     1      12.129   0.669 -22.677  1.00  0.00    -0.285 OA
ATOM      5  C   UNL     1       9.860   1.143 -22.949  1.00  0.00     0.111 A 
ATOM      6  C   UNL     1      10.013   2.241 -23.849  1.00  0.00     0.134 A 
ATOM      7  C   UNL     1       8.881   2.792 -24.462  1.00  0.00     0.093 A 
ATOM      8  C   UNL     1       7.598   2.329 -24.158  1.00  0.00     0.123 A 
ATOM      9  C   UNL     1       7.436   1.298 -23.236  1.00  0.00     0.094 A 
ATOM     10  C   UNL     1       8.549   0.704 -22.635  1.00  0.00     0.146 A 
ATOM     11  O   UNL     1       8.349  -0.283 -21.769  1.00  0.00    -0.452 OA
ENDROOT
BRANCH   1  12
ATOM     12  C   UNL     1       8.978  -1.997 -20.194  1.00  0.00     0.029 A 
ATOM     13  C   UNL     1       8.820  -3.316 -20.648  1.00  0.00     0.062 A 
ATOM     14  C   UNL     1       8.461  -4.337 -19.758  1.00  0.00     0.162 A 
ATOM     15  C   UNL     1       8.737  -1.707 -18.841  1.00  0.00     0.062 A 
ATOM     16  C   UNL     1       8.244  -4.046 -18.406  1.00  0.00     0.200 A 
ATOM     17  C   UNL     1       8.377  -2.724 -17.946  1.00  0.00     0.162 A 
BRANCH  14  18
ATOM     18  O   UNL     1       8.320  -5.648 -20.213  1.00  0.00    -0.504 OA
ATOM     19  H   UNL     1       8.559  -5.909 -21.161  1.00  0.00     0.293 HD
ENDBRANCH  14  18
BRANCH  16  20
ATOM     20  O   UNL     1       7.892  -5.076 -17.535  1.00  0.00    -0.502 OA
ATOM     21  H   UNL     1       6.929  -5.263 -17.283  1.00  0.00     0.293 HD
ENDBRANCH  16  20
BRANCH  17  22
ATOM     22  O   UNL     1       8.147  -2.427 -16.603  1.00  0.00    -0.504 OA
ATOM     23  H   UNL     1       8.225  -1.481 -16.248  1.00  0.00     0.293 HD
ENDBRANCH  17  22
ENDBRANCH   1  12
BRANCH   2  24
ATOM     24  O   UNL     1      11.713  -1.350 -20.894  1.00  0.00    -0.502 OA
ATOM     25  H   UNL     1      11.716  -2.364 -20.874  1.00  0.00     0.293 HD
ENDBRANCH   2  24
BRANCH   6  26
ATOM     26  O   UNL     1      11.240   2.839 -24.150  1.00  0.00    -0.507 OA
ATOM     27  H   UNL     1      11.686   3.549 -23.590  1.00  0.00     0.293 HD
ENDBRANCH   6  26
BRANCH   8  28
ATOM     28  O   UNL     1       6.477   2.894 -24.761  1.00  0.00    -0.508 OA
ATOM     29  H   UNL     1       6.358   3.898 -24.824  1.00  0.00     0.293 HD
ENDBRANCH   8  28
TORSDOF 7
ENDMDL
MODEL 9
REMARK VINA RESULT:    -4.126      4.440      7.420
REMARK INTER + INTRA:          -5.407
REMARK INTER:                  -5.041
REMARK INTRA:                  -0.366
REMARK UNBOUND:                -0.315
REMARK SMILES O=c1c(O)c(-c2cc(O)c(O)c(O)c2)oc2cc(O)cc(O)c12
REMARK SMILES IDX 5 1 3 2 2 3 1 4 23 5 21 6 20 7 18 8 17 9 16 10 15 11 6 12
REMARK SMILES IDX 7 13 8 14 14 15 10 16 12 17 9 18 11 20 13 22 4 24 22 26
REMARK SMILES IDX 19 28
REMARK H PARENT 9 19 11 21 13 23 4 25 22 27 19 29
REMARK Flexibility Score: inf
ROOT
ATOM      1  C   UNL     1       8.672  -1.846 -21.724  1.00  0.00     0.180 A 
ATOM      2  C   UNL     1       8.469  -2.110 -20.358  1.00  0.00     0.208 A 
ATOM      3  C   UNL     1       8.214  -3.428 -19.950  1.00  0.00     0.238 A 
ATOM      4  O   UNL     1       7.979  -3.649 -18.734  1.00  0.00    -0.285 OA
ATOM      5  C   UNL     1       8.180  -4.469 -20.909  1.00  0.00     0.111 A 
ATOM      6  C   UNL     1       7.970  -5.848 -20.603  1.00  0.00     0.134 A 
ATOM      7  C   UNL     1       7.827  -6.772 -21.645  1.00  0.00     0.093 A 
ATOM      8  C   UNL     1       7.951  -6.379 -22.980  1.00  0.00     0.123 A 
ATOM      9  C   UNL     1       8.216  -5.047 -23.286  1.00  0.00     0.094 A 
ATOM     10  C   UNL     1       8.328  -4.094 -22.270  1.00  0.00     0.146 A 
ATOM     11  O   UNL     1       8.569  -2.833 -22.607  1.00  0.00    -0.452 OA
ENDROOT
BRANCH   1  12
ATOM     12  C   UNL     1       8.970  -0.486 -22.228  1.00  0.00     0.029 A 
ATOM     13  C   UNL     1       7.928   0.309 -22.729  1.00  0.00     0.062 A 
ATOM     14  C   UNL     1       8.189   1.592 -23.231  1.00  0.00     0.162 A 
ATOM     15  C   UNL     1      10.286   0.006 -22.270  1.00  0.00     0.062 A 
ATOM     16  C   UNL     1       9.499   2.085 -23.250  1.00  0.00     0.200 A 
ATOM     17  C   UNL     1      10.553   1.287 -22.772  1.00  0.00     0.162 A 
BRANCH  14  18
ATOM     18  O   UNL     1       7.147   2.383 -23.714  1.00  0.00    -0.504 OA
ATOM     19  H   UNL     1       6.678   2.169 -24.586  1.00  0.00     0.293 HD
ENDBRANCH  14  18
BRANCH  16  20
ATOM     20  O   UNL     1       9.739   3.365 -23.750  1.00  0.00    -0.502 OA
ATOM     21  H   UNL     1      10.321   3.525 -24.563  1.00  0.00     0.293 HD
ENDBRANCH  16  20
BRANCH  17  22
ATOM     22  O   UNL     1      11.861   1.769 -22.802  1.00  0.00    -0.504 OA
ATOM     23  H   UNL     1      12.643   1.166 -23.027  1.00  0.00     0.293 HD
ENDBRANCH  17  22
ENDBRANCH   1  12
BRANCH   2  24
ATOM     24  O   UNL     1       8.485  -1.064 -19.432  1.00  0.00    -0.502 OA
ATOM     25  H   UNL     1       8.468  -0.089 -19.710  1.00  0.00     0.293 HD
ENDBRANCH   2  24
BRANCH   6  26
ATOM     26  O   UNL     1       7.923  -6.359 -19.303  1.00  0.00    -0.507 OA
ATOM     27  H   UNL     1       8.732  -6.553 -18.731  1.00  0.00     0.293 HD
ENDBRANCH   6  26
BRANCH   8  28
ATOM     28  O   UNL     1       7.823  -7.309 -24.009  1.00  0.00    -0.508 OA
ATOM     29  H   UNL     1       7.995  -8.296 -23.857  1.00  0.00     0.293 HD
ENDBRANCH   8  28
TORSDOF 7
ENDMDL
