MODEL 1
REMARK VINA RESULT:    -3.618      0.000      0.000
REMARK INTER + INTRA:          -6.488
REMARK INTER:                  -5.521
REMARK INTRA:                  -0.967
REMARK UNBOUND:                -0.967
REMARK SMILES CCCCCCCCCCC(=O)[O-]
REMARK SMILES IDX 7 1 8 2 9 3 10 4 11 5 12 6 13 7 6 8 5 9 4 10 3 11 2 12 1 13
REMARK H PARENT
REMARK Flexibility Score: inf
ROOT
ATOM      1  C   UNL     1     -17.954  24.415  35.414  1.00  0.00     0.000 C 
ENDROOT
BRANCH   1   2
ATOM      2  C   UNL     1     -17.174  23.322  36.158  1.00  0.00     0.000 C 
BRANCH   2   3
ATOM      3  C   UNL     1     -16.214  22.591  35.211  1.00  0.00     0.006 C 
BRANCH   3   4
ATOM      4  C   UNL     1     -14.817  22.473  35.828  1.00  0.00     0.053 C 
BRANCH   4   5
ATOM      5  C   UNL     1     -13.795  22.219  34.765  1.00  0.00     0.041 C 
ATOM      6  O   UNL     1     -14.137  21.709  33.666  1.00  0.00    -0.550 OA
ATOM      7  O   UNL     1     -12.457  22.499  35.007  1.00  0.00    -0.550 OA
ENDBRANCH   4   5
ENDBRANCH   3   4
ENDBRANCH   2   3
ENDBRANCH   1   2
BRANCH   1   8
ATOM      8  C   UNL     1     -17.579  25.835  35.874  1.00  0.00     0.000 C 
BRANCH   8   9
ATOM      9  C   UNL     1     -17.790  26.942  34.821  1.00  0.00    -0.000 C 
BRANCH   9  10
ATOM     10  C   UNL     1     -16.761  26.958  33.677  1.00  0.00    -0.000 C 
BRANCH  10  11
ATOM     11  C   UNL     1     -17.313  26.370  32.370  1.00  0.00    -0.000 C 
BRANCH  11  12
ATOM     12  C   UNL     1     -16.519  25.129  31.949  1.00  0.00    -0.003 C 
ATOM     13  C   UNL     1     -15.235  24.991  32.761  1.00  0.00     0.004 C 
ENDBRANCH  11  12
ENDBRANCH  10  11
ENDBRANCH   9  10
ENDBRANCH   8   9
ENDBRANCH   1   8
TORSDOF 9
ENDMDL
MODEL 2
REMARK VINA RESULT:    -3.511      2.278      4.417
REMARK INTER + INTRA:          -6.325
REMARK INTER:                  -5.333
REMARK INTRA:                  -0.992
REMARK UNBOUND:                -0.967
REMARK SMILES CCCCCCCCCCC(=O)[O-]
REMARK SMILES IDX 7 1 8 2 9 3 10 4 11 5 12 6 13 7 6 8 5 9 4 10 3 11 2 12 1 13
REMARK H PARENT
REMARK Flexibility Score: inf
ROOT
ATOM      1  C   UNL     1     -17.836  24.395  36.108  1.00  0.00     0.000 C 
ENDROOT
BRANCH   1   2
ATOM      2  C   UNL     1     -17.338  25.710  35.491  1.00  0.00     0.000 C 
BRANCH   2   3
ATOM      3  C   UNL     1     -17.936  25.923  34.095  1.00  0.00     0.006 C 
BRANCH   3   4
ATOM      4  C   UNL     1     -16.858  26.340  33.092  1.00  0.00     0.053 C 
BRANCH   4   5
ATOM      5  C   UNL     1     -16.719  25.313  32.013  1.00  0.00     0.041 C 
ATOM      6  O   UNL     1     -17.417  24.266  32.042  1.00  0.00    -0.550 OA
ATOM      7  O   UNL     1     -15.782  25.488  31.003  1.00  0.00    -0.550 OA
ENDBRANCH   4   5
ENDBRANCH   3   4
ENDBRANCH   2   3
ENDBRANCH   1   2
BRANCH   1   8
ATOM      8  C   UNL     1     -16.815  23.251  35.979  1.00  0.00     0.000 C 
BRANCH   8   9
ATOM      9  C   UNL     1     -16.961  22.383  34.712  1.00  0.00    -0.000 C 
BRANCH   9  10
ATOM     10  C   UNL     1     -15.637  22.014  34.019  1.00  0.00    -0.000 C 
BRANCH  10  11
ATOM     11  C   UNL     1     -14.592  23.137  34.091  1.00  0.00    -0.000 C 
BRANCH  11  12
ATOM     12  C   UNL     1     -13.261  22.613  34.641  1.00  0.00    -0.003 C 
ATOM     13  C   UNL     1     -13.460  21.327  35.439  1.00  0.00     0.004 C 
ENDBRANCH  11  12
ENDBRANCH  10  11
ENDBRANCH   9  10
ENDBRANCH   8   9
ENDBRANCH   1   8
TORSDOF 9
ENDMDL
MODEL 3
REMARK VINA RESULT:    -3.110      2.961      5.252
REMARK INTER + INTRA:          -5.713
REMARK INTER:                  -5.087
REMARK INTRA:                  -0.625
REMARK UNBOUND:                -0.967
REMARK SMILES CCCCCCCCCCC(=O)[O-]
REMARK SMILES IDX 7 1 8 2 9 3 10 4 11 5 12 6 13 7 6 8 5 9 4 10 3 11 2 12 1 13
REMARK H PARENT
REMARK Flexibility Score: inf
ROOT
ATOM      1  C   UNL     1     -17.303  23.988  32.038  1.00  0.00     0.000 C 
ENDROOT
BRANCH   1   2
ATOM      2  C   UNL     1     -17.551  25.469  32.357  1.00  0.00     0.000 C 
BRANCH   2   3
ATOM      3  C   UNL     1     -16.418  26.043  33.216  1.00  0.00     0.006 C 
BRANCH   3   4
ATOM      4  C   UNL     1     -16.854  27.336  33.911  1.00  0.00     0.053 C 
BRANCH   4   5
ATOM      5  C   UNL     1     -17.422  27.040  35.262  1.00  0.00     0.041 C 
ATOM      6  O   UNL     1     -17.307  25.889  35.760  1.00  0.00    -0.550 OA
ATOM      7  O   UNL     1     -18.123  28.021  35.952  1.00  0.00    -0.550 OA
ENDBRANCH   4   5
ENDBRANCH   3   4
ENDBRANCH   2   3
ENDBRANCH   1   2
BRANCH   1   8
ATOM      8  C   UNL     1     -17.521  23.070  33.254  1.00  0.00     0.000 C 
BRANCH   8   9
ATOM      9  C   UNL     1     -16.779  21.719  33.197  1.00  0.00    -0.000 C 
BRANCH   9  10
ATOM     10  C   UNL     1     -15.384  21.714  33.847  1.00  0.00    -0.000 C 
BRANCH  10  11
ATOM     11  C   UNL     1     -15.323  22.540  35.139  1.00  0.00    -0.000 C 
BRANCH  11  12
ATOM     12  C   UNL     1     -13.934  22.456  35.781  1.00  0.00    -0.003 C 
ATOM     13  C   UNL     1     -12.878  22.040  34.761  1.00  0.00     0.004 C 
ENDBRANCH  11  12
ENDBRANCH  10  11
ENDBRANCH   9  10
ENDBRANCH   8   9
ENDBRANCH   1   8
TORSDOF 9
ENDMDL
MODEL 4
REMARK VINA RESULT:    -3.047     17.003     18.703
REMARK INTER + INTRA:          -5.616
REMARK INTER:                  -4.854
REMARK INTRA:                  -0.762
REMARK UNBOUND:                -0.967
REMARK SMILES CCCCCCCCCCC(=O)[O-]
REMARK SMILES IDX 7 1 8 2 9 3 10 4 11 5 12 6 13 7 6 8 5 9 4 10 3 11 2 12 1 13
REMARK H PARENT
REMARK Flexibility Score: inf
ROOT
ATOM      1  C   UNL     1       0.143  25.273  23.773  1.00  0.00     0.000 C 
ENDROOT
BRANCH   1   2
ATOM      2  C   UNL     1      -0.537  23.971  24.222  1.00  0.00     0.000 C 
BRANCH   2   3
ATOM      3  C   UNL     1      -0.261  22.836  23.228  1.00  0.00     0.006 C 
BRANCH   3   4
ATOM      4  C   UNL     1       0.877  23.205  22.273  1.00  0.00     0.053 C 
BRANCH   4   5
ATOM      5  C   UNL     1       0.583  22.713  20.891  1.00  0.00     0.041 C 
ATOM      6  O   UNL     1       0.586  23.513  19.920  1.00  0.00    -0.550 OA
ATOM      7  O   UNL     1       0.256  21.379  20.684  1.00  0.00    -0.550 OA
ENDBRANCH   4   5
ENDBRANCH   3   4
ENDBRANCH   2   3
ENDBRANCH   1   2
BRANCH   1   8
ATOM      8  C   UNL     1      -0.347  26.504  24.555  1.00  0.00     0.000 C 
BRANCH   8   9
ATOM      9  C   UNL     1      -1.839  26.847  24.370  1.00  0.00    -0.000 C 
BRANCH   9  10
ATOM     10  C   UNL     1      -2.535  27.425  25.615  1.00  0.00    -0.000 C 
BRANCH  10  11
ATOM     11  C   UNL     1      -3.460  26.413  26.306  1.00  0.00    -0.000 C 
BRANCH  11  12
ATOM     12  C   UNL     1      -3.841  25.276  25.351  1.00  0.00    -0.003 C 
ATOM     13  C   UNL     1      -4.113  23.982  26.113  1.00  0.00     0.004 C 
ENDBRANCH  11  12
ENDBRANCH  10  11
ENDBRANCH   9  10
ENDBRANCH   8   9
ENDBRANCH   1   8
TORSDOF 9
ENDMDL
MODEL 5
REMARK VINA RESULT:    -3.013     16.294     18.049
REMARK INTER + INTRA:          -5.565
REMARK INTER:                  -5.060
REMARK INTRA:                  -0.505
REMARK UNBOUND:                -0.967
REMARK SMILES CCCCCCCCCCC(=O)[O-]
REMARK SMILES IDX 7 1 8 2 9 3 10 4 11 5 12 6 13 7 6 8 5 9 4 10 3 11 2 12 1 13
REMARK H PARENT
REMARK Flexibility Score: inf
ROOT
ATOM      1  C   UNL     1      -0.120  26.617  24.666  1.00  0.00     0.000 C 
ENDROOT
BRANCH   1   2
ATOM      2  C   UNL     1       0.537  25.743  23.587  1.00  0.00     0.000 C 
BRANCH   2   3
ATOM      3  C   UNL     1       0.012  24.304  23.651  1.00  0.00     0.006 C 
BRANCH   3   4
ATOM      4  C   UNL     1       0.770  23.398  22.676  1.00  0.00     0.053 C 
BRANCH   4   5
ATOM      5  C   UNL     1      -0.126  22.314  22.163  1.00  0.00     0.041 C 
ATOM      6  O   UNL     1      -0.770  21.591  22.968  1.00  0.00    -0.550 OA
ATOM      7  O   UNL     1      -0.210  22.070  20.799  1.00  0.00    -0.550 OA
ENDBRANCH   4   5
ENDBRANCH   3   4
ENDBRANCH   2   3
ENDBRANCH   1   2
BRANCH   1   8
ATOM      8  C   UNL     1      -1.630  26.807  24.442  1.00  0.00     0.000 C 
BRANCH   8   9
ATOM      9  C   UNL     1      -2.385  27.482  25.606  1.00  0.00    -0.000 C 
BRANCH   9  10
ATOM     10  C   UNL     1      -3.520  26.643  26.220  1.00  0.00    -0.000 C 
BRANCH  10  11
ATOM     11  C   UNL     1      -3.737  25.309  25.493  1.00  0.00    -0.000 C 
BRANCH  11  12
ATOM     12  C   UNL     1      -3.816  24.147  26.489  1.00  0.00    -0.003 C 
ATOM     13  C   UNL     1      -5.100  23.344  26.301  1.00  0.00     0.004 C 
ENDBRANCH  11  12
ENDBRANCH  10  11
ENDBRANCH   9  10
ENDBRANCH   8   9
ENDBRANCH   1   8
TORSDOF 9
ENDMDL
MODEL 6
REMARK VINA RESULT:    -2.979     12.336     14.232
REMARK INTER + INTRA:          -5.514
REMARK INTER:                  -5.209
REMARK INTRA:                  -0.305
REMARK UNBOUND:                -0.967
REMARK SMILES CCCCCCCCCCC(=O)[O-]
REMARK SMILES IDX 7 1 8 2 9 3 10 4 11 5 12 6 13 7 6 8 5 9 4 10 3 11 2 12 1 13
REMARK H PARENT
REMARK Flexibility Score: inf
ROOT
ATOM      1  C   UNL     1      -6.014  23.556  25.968  1.00  0.00     0.000 C 
ENDROOT
BRANCH   1   2
ATOM      2  C   UNL     1      -6.938  22.516  26.618  1.00  0.00     0.000 C 
BRANCH   2   3
ATOM      3  C   UNL     1      -8.397  22.989  26.600  1.00  0.00     0.006 C 
BRANCH   3   4
ATOM      4  C   UNL     1      -8.732  23.688  25.280  1.00  0.00     0.053 C 
BRANCH   4   5
ATOM      5  C   UNL     1      -9.852  22.982  24.582  1.00  0.00     0.041 C 
ATOM      6  O   UNL     1     -10.221  21.843  24.970  1.00  0.00    -0.550 OA
ATOM      7  O   UNL     1     -10.454  23.561  23.473  1.00  0.00    -0.550 OA
ENDBRANCH   4   5
ENDBRANCH   3   4
ENDBRANCH   2   3
ENDBRANCH   1   2
BRANCH   1   8
ATOM      8  C   UNL     1      -4.633  23.632  26.642  1.00  0.00     0.000 C 
BRANCH   8   9
ATOM      9  C   UNL     1      -3.508  24.223  25.766  1.00  0.00    -0.000 C 
BRANCH   9  10
ATOM     10  C   UNL     1      -3.663  25.715  25.424  1.00  0.00    -0.000 C 
BRANCH  10  11
ATOM     11  C   UNL     1      -2.342  26.370  24.996  1.00  0.00    -0.000 C 
BRANCH  11  12
ATOM     12  C   UNL     1      -2.309  27.850  25.392  1.00  0.00    -0.003 C 
ATOM     13  C   UNL     1      -1.207  28.125  26.411  1.00  0.00     0.004 C 
ENDBRANCH  11  12
ENDBRANCH  10  11
ENDBRANCH   9  10
ENDBRANCH   8   9
ENDBRANCH   1   8
TORSDOF 9
ENDMDL
MODEL 7
REMARK VINA RESULT:    -2.931      2.135      4.155
REMARK INTER + INTRA:          -5.440
REMARK INTER:                  -4.545
REMARK INTRA:                  -0.895
REMARK UNBOUND:                -0.967
REMARK SMILES CCCCCCCCCCC(=O)[O-]
REMARK SMILES IDX 7 1 8 2 9 3 10 4 11 5 12 6 13 7 6 8 5 9 4 10 3 11 2 12 1 13
REMARK H PARENT
REMARK Flexibility Score: inf
ROOT
ATOM      1  C   UNL     1     -18.043  24.425  34.860  1.00  0.00     0.000 C 
ENDROOT
BRANCH   1   2
ATOM      2  C   UNL     1     -17.777  25.925  35.053  1.00  0.00     0.000 C 
BRANCH   2   3
ATOM      3  C   UNL     1     -16.898  26.477  33.924  1.00  0.00     0.006 C 
BRANCH   3   4
ATOM      4  C   UNL     1     -17.169  25.744  32.607  1.00  0.00     0.053 C 
BRANCH   4   5
ATOM      5  C   UNL     1     -15.883  25.373  31.939  1.00  0.00     0.041 C 
ATOM      6  O   UNL     1     -15.820  25.294  30.685  1.00  0.00    -0.550 OA
ATOM      7  O   UNL     1     -14.766  25.065  32.705  1.00  0.00    -0.550 OA
ENDBRANCH   4   5
ENDBRANCH   3   4
ENDBRANCH   2   3
ENDBRANCH   1   2
BRANCH   1   8
ATOM      8  C   UNL     1     -17.744  23.598  36.122  1.00  0.00     0.000 C 
BRANCH   8   9
ATOM      9  C   UNL     1     -16.408  22.827  36.099  1.00  0.00    -0.000 C 
BRANCH   9  10
ATOM     10  C   UNL     1     -15.581  22.993  34.812  1.00  0.00    -0.000 C 
BRANCH  10  11
ATOM     11  C   UNL     1     -15.594  21.737  33.928  1.00  0.00    -0.000 C 
BRANCH  11  12
ATOM     12  C   UNL     1     -16.778  21.763  32.955  1.00  0.00    -0.003 C 
ATOM     13  C   UNL     1     -17.911  20.862  33.439  1.00  0.00     0.004 C 
ENDBRANCH  11  12
ENDBRANCH  10  11
ENDBRANCH   9  10
ENDBRANCH   8   9
ENDBRANCH   1   8
TORSDOF 9
ENDMDL
MODEL 8
REMARK VINA RESULT:    -2.930      1.319      2.577
REMARK INTER + INTRA:          -5.438
REMARK INTER:                  -4.882
REMARK INTRA:                  -0.556
REMARK UNBOUND:                -0.967
REMARK SMILES CCCCCCCCCCC(=O)[O-]
REMARK SMILES IDX 7 1 8 2 9 3 10 4 11 5 12 6 13 7 6 8 5 9 4 10 3 11 2 12 1 13
REMARK H PARENT
REMARK Flexibility Score: inf
ROOT
ATOM      1  C   UNL     1     -16.761  22.019  33.777  1.00  0.00     0.000 C 
ENDROOT
BRANCH   1   2
ATOM      2  C   UNL     1     -16.986  22.641  35.163  1.00  0.00     0.000 C 
BRANCH   2   3
ATOM      3  C   UNL     1     -15.651  22.995  35.829  1.00  0.00     0.006 C 
BRANCH   3   4
ATOM      4  C   UNL     1     -14.547  22.024  35.401  1.00  0.00     0.053 C 
BRANCH   4   5
ATOM      5  C   UNL     1     -13.451  22.756  34.693  1.00  0.00     0.041 C 
ATOM      6  O   UNL     1     -12.263  22.666  35.101  1.00  0.00    -0.550 OA
ATOM      7  O   UNL     1     -13.748  23.576  33.613  1.00  0.00    -0.550 OA
ENDBRANCH   4   5
ENDBRANCH   3   4
ENDBRANCH   2   3
ENDBRANCH   1   2
BRANCH   1   8
ATOM      8  C   UNL     1     -17.700  22.596  32.704  1.00  0.00     0.000 C 
BRANCH   8   9
ATOM      9  C   UNL     1     -18.027  24.096  32.857  1.00  0.00    -0.000 C 
BRANCH   9  10
ATOM     10  C   UNL     1     -16.938  25.056  32.348  1.00  0.00    -0.000 C 
BRANCH  10  11
ATOM     11  C   UNL     1     -17.421  26.510  32.252  1.00  0.00    -0.000 C 
BRANCH  11  12
ATOM     12  C   UNL     1     -16.804  27.369  33.361  1.00  0.00    -0.003 C 
ATOM     13  C   UNL     1     -17.829  27.689  34.446  1.00  0.00     0.004 C 
ENDBRANCH  11  12
ENDBRANCH  10  11
ENDBRANCH   9  10
ENDBRANCH   8   9
ENDBRANCH   1   8
TORSDOF 9
ENDMDL
MODEL 9
REMARK VINA RESULT:    -2.898     15.827     17.740
REMARK INTER + INTRA:          -5.390
REMARK INTER:                  -4.823
REMARK INTRA:                  -0.567
REMARK UNBOUND:                -0.967
REMARK SMILES CCCCCCCCCCC(=O)[O-]
REMARK SMILES IDX 7 1 8 2 9 3 10 4 11 5 12 6 13 7 6 8 5 9 4 10 3 11 2 12 1 13
REMARK H PARENT
REMARK Flexibility Score: inf
ROOT
ATOM      1  C   UNL     1      -1.687  26.504  24.414  1.00  0.00     0.000 C 
ENDROOT
BRANCH   1   2
ATOM      2  C   UNL     1      -2.387  27.262  25.552  1.00  0.00     0.000 C 
BRANCH   2   3
ATOM      3  C   UNL     1      -3.508  26.415  26.167  1.00  0.00     0.006 C 
BRANCH   3   4
ATOM      4  C   UNL     1      -3.588  25.040  25.501  1.00  0.00     0.053 C 
BRANCH   4   5
ATOM      5  C   UNL     1      -4.265  24.058  26.404  1.00  0.00     0.041 C 
ATOM      6  O   UNL     1      -5.172  23.308  25.958  1.00  0.00    -0.550 OA
ATOM      7  O   UNL     1      -3.928  24.006  27.750  1.00  0.00    -0.550 OA
ENDBRANCH   4   5
ENDBRANCH   3   4
ENDBRANCH   2   3
ENDBRANCH   1   2
BRANCH   1   8
ATOM      8  C   UNL     1      -0.268  27.027  24.131  1.00  0.00     0.000 C 
BRANCH   8   9
ATOM      9  C   UNL     1       0.763  25.948  23.739  1.00  0.00    -0.000 C 
BRANCH   9  10
ATOM     10  C   UNL     1       0.194  24.526  23.592  1.00  0.00    -0.000 C 
BRANCH  10  11
ATOM     11  C   UNL     1       0.879  23.721  22.478  1.00  0.00    -0.000 C 
BRANCH  11  12
ATOM     12  C   UNL     1       0.075  22.463  22.136  1.00  0.00    -0.003 C 
ATOM     13  C   UNL     1      -0.807  22.035  23.305  1.00  0.00     0.004 C 
ENDBRANCH  11  12
ENDBRANCH  10  11
ENDBRANCH   9  10
ENDBRANCH   8   9
ENDBRANCH   1   8
TORSDOF 9
ENDMDL
