MODEL 1
REMARK VINA RESULT:    -5.202      0.000      0.000
REMARK INTER + INTRA:          -6.298
REMARK INTER:                  -5.962
REMARK INTRA:                  -0.336
REMARK UNBOUND:                -0.336
REMARK SMILES COc1ccc(C(C)=O)c(O)c1
REMARK SMILES IDX 6 1 10 2 12 3 3 4 4 5 5 6 7 7 8 8 9 9 11 10 2 12 1 13
REMARK H PARENT 11 11
REMARK Flexibility Score: inf
ROOT
ATOM      1  C   UNL     1      -4.469  -0.263  -4.915  1.00  0.00     0.059 A 
ATOM      2  C   UNL     1      -5.511  -0.491  -3.985  1.00  0.00     0.130 A 
ATOM      3  C   UNL     1      -6.531   0.460  -3.826  1.00  0.00     0.093 A 
ATOM      4  C   UNL     1      -6.523   1.651  -4.572  1.00  0.00     0.122 A 
ATOM      5  C   UNL     1      -5.483   1.882  -5.476  1.00  0.00     0.047 A 
ATOM      6  C   UNL     1      -4.467   0.940  -5.645  1.00  0.00     0.019 A 
ENDROOT
BRANCH   1   7
ATOM      7  C   UNL     1      -3.370  -1.239  -5.142  1.00  0.00     0.163 C 
ATOM      8  C   UNL     1      -2.822  -1.530  -6.507  1.00  0.00     0.093 C 
ATOM      9  O   UNL     1      -2.875  -1.852  -4.158  1.00  0.00    -0.294 OA
ENDBRANCH   1   7
BRANCH   2  10
ATOM     10  O   UNL     1      -5.528  -1.644  -3.202  1.00  0.00    -0.507 OA
ATOM     11  H   UNL     1      -6.198  -1.771  -2.452  1.00  0.00     0.293 HD
ENDBRANCH   2  10
BRANCH   4  12
ATOM     12  O   UNL     1      -7.521   2.628  -4.444  1.00  0.00    -0.497 OA
ATOM     13  C   UNL     1      -7.389   3.977  -4.880  1.00  0.00     0.278 C 
ENDBRANCH   4  12
TORSDOF 3
ENDMDL
MODEL 2
REMARK VINA RESULT:    -5.078      0.982      1.124
REMARK INTER + INTRA:          -6.156
REMARK INTER:                  -5.850
REMARK INTRA:                  -0.306
REMARK UNBOUND:                -0.336
REMARK SMILES COc1ccc(C(C)=O)c(O)c1
REMARK SMILES IDX 6 1 10 2 12 3 3 4 4 5 5 6 7 7 8 8 9 9 11 10 2 12 1 13
REMARK H PARENT 11 11
REMARK Flexibility Score: inf
ROOT
ATOM      1  C   UNL     1      -3.923  -0.890  -4.969  1.00  0.00     0.059 A 
ATOM      2  C   UNL     1      -5.057  -0.656  -4.157  1.00  0.00     0.130 A 
ATOM      3  C   UNL     1      -5.785   0.537  -4.295  1.00  0.00     0.093 A 
ATOM      4  C   UNL     1      -5.390   1.515  -5.224  1.00  0.00     0.122 A 
ATOM      5  C   UNL     1      -4.258   1.288  -6.011  1.00  0.00     0.047 A 
ATOM      6  C   UNL     1      -3.531   0.103  -5.885  1.00  0.00     0.019 A 
ENDROOT
BRANCH   1   7
ATOM      7  C   UNL     1      -3.121  -2.140  -4.884  1.00  0.00     0.163 C 
ATOM      8  C   UNL     1      -2.378  -2.701  -6.059  1.00  0.00     0.093 C 
ATOM      9  O   UNL     1      -3.058  -2.760  -3.787  1.00  0.00    -0.294 OA
ENDBRANCH   1   7
BRANCH   2  10
ATOM     10  O   UNL     1      -5.454  -1.587  -3.199  1.00  0.00    -0.507 OA
ATOM     11  H   UNL     1      -5.449  -2.583  -3.387  1.00  0.00     0.293 HD
ENDBRANCH   2  10
BRANCH   4  12
ATOM     12  O   UNL     1      -6.087   2.720  -5.393  1.00  0.00    -0.497 OA
ATOM     13  C   UNL     1      -7.475   2.892  -5.123  1.00  0.00     0.278 C 
ENDBRANCH   4  12
TORSDOF 3
ENDMDL
MODEL 3
REMARK VINA RESULT:    -5.003      2.058      5.425
REMARK INTER + INTRA:          -6.070
REMARK INTER:                  -5.759
REMARK INTRA:                  -0.311
REMARK UNBOUND:                -0.336
REMARK SMILES COc1ccc(C(C)=O)c(O)c1
REMARK SMILES IDX 6 1 10 2 12 3 3 4 4 5 5 6 7 7 8 8 9 9 11 10 2 12 1 13
REMARK H PARENT 11 11
REMARK Flexibility Score: inf
ROOT
ATOM      1  C   UNL     1      -4.890  -0.740  -4.419  1.00  0.00     0.059 A 
ATOM      2  C   UNL     1      -3.702  -0.453  -5.132  1.00  0.00     0.130 A 
ATOM      3  C   UNL     1      -2.772  -1.474  -5.386  1.00  0.00     0.093 A 
ATOM      4  C   UNL     1      -2.999  -2.782  -4.924  1.00  0.00     0.122 A 
ATOM      5  C   UNL     1      -4.163  -3.057  -4.203  1.00  0.00     0.047 A 
ATOM      6  C   UNL     1      -5.097  -2.050  -3.951  1.00  0.00     0.019 A 
ENDROOT
BRANCH   1   7
ATOM      7  C   UNL     1      -5.921   0.293  -4.134  1.00  0.00     0.163 C 
ATOM      8  C   UNL     1      -7.374  -0.043  -3.975  1.00  0.00     0.093 C 
ATOM      9  O   UNL     1      -5.573   1.500  -4.020  1.00  0.00    -0.294 OA
ENDBRANCH   1   7
BRANCH   2  10
ATOM     10  O   UNL     1      -3.428   0.841  -5.572  1.00  0.00    -0.507 OA
ATOM     11  H   UNL     1      -3.854   1.224  -6.407  1.00  0.00     0.293 HD
ENDBRANCH   2  10
BRANCH   4  12
ATOM     12  O   UNL     1      -2.096  -3.830  -5.154  1.00  0.00    -0.497 OA
ATOM     13  C   UNL     1      -1.859  -4.903  -4.248  1.00  0.00     0.278 C 
ENDBRANCH   4  12
TORSDOF 3
ENDMDL
MODEL 4
REMARK VINA RESULT:    -4.917      1.964      5.104
REMARK INTER + INTRA:          -5.971
REMARK INTER:                  -5.645
REMARK INTRA:                  -0.326
REMARK UNBOUND:                -0.336
REMARK SMILES COc1ccc(C(C)=O)c(O)c1
REMARK SMILES IDX 6 1 10 2 12 3 3 4 4 5 5 6 7 7 8 8 9 9 11 10 2 12 1 13
REMARK H PARENT 11 11
REMARK Flexibility Score: inf
ROOT
ATOM      1  C   UNL     1      -4.375  -0.664  -4.862  1.00  0.00     0.059 A 
ATOM      2  C   UNL     1      -4.737  -1.753  -4.036  1.00  0.00     0.130 A 
ATOM      3  C   UNL     1      -4.021  -2.959  -4.110  1.00  0.00     0.093 A 
ATOM      4  C   UNL     1      -2.951  -3.103  -5.010  1.00  0.00     0.122 A 
ATOM      5  C   UNL     1      -2.609  -2.031  -5.838  1.00  0.00     0.047 A 
ATOM      6  C   UNL     1      -3.311  -0.827  -5.768  1.00  0.00     0.019 A 
ENDROOT
BRANCH   1   7
ATOM      7  C   UNL     1      -5.083   0.644  -4.819  1.00  0.00     0.163 C 
ATOM      8  C   UNL     1      -5.338   1.462  -6.049  1.00  0.00     0.093 C 
ATOM      9  O   UNL     1      -5.487   1.091  -3.711  1.00  0.00    -0.294 OA
ENDBRANCH   1   7
BRANCH   2  10
ATOM     10  O   UNL     1      -5.817  -1.657  -3.159  1.00  0.00    -0.507 OA
ATOM     11  H   UNL     1      -5.940  -0.858  -2.549  1.00  0.00     0.293 HD
ENDBRANCH   2  10
BRANCH   4  12
ATOM     12  O   UNL     1      -2.210  -4.289  -5.116  1.00  0.00    -0.497 OA
ATOM     13  C   UNL     1      -1.707  -5.026  -4.006  1.00  0.00     0.278 C 
ENDBRANCH   4  12
TORSDOF 3
ENDMDL
MODEL 5
REMARK VINA RESULT:    -4.900     12.106     13.455
REMARK INTER + INTRA:          -5.952
REMARK INTER:                  -5.656
REMARK INTRA:                  -0.296
REMARK UNBOUND:                -0.336
REMARK SMILES COc1ccc(C(C)=O)c(O)c1
REMARK SMILES IDX 6 1 10 2 12 3 3 4 4 5 5 6 7 7 8 8 9 9 11 10 2 12 1 13
REMARK H PARENT 11 11
REMARK Flexibility Score: inf
ROOT
ATOM      1  C   UNL     1      -8.673   7.306   5.340  1.00  0.00     0.059 A 
ATOM      2  C   UNL     1      -7.282   7.119   5.518  1.00  0.00     0.130 A 
ATOM      3  C   UNL     1      -6.472   8.200   5.902  1.00  0.00     0.093 A 
ATOM      4  C   UNL     1      -7.026   9.477   6.098  1.00  0.00     0.122 A 
ATOM      5  C   UNL     1      -8.397   9.661   5.903  1.00  0.00     0.047 A 
ATOM      6  C   UNL     1      -9.212   8.592   5.527  1.00  0.00     0.019 A 
ENDROOT
BRANCH   1   7
ATOM      7  C   UNL     1      -9.586   6.197   4.952  1.00  0.00     0.163 C 
ATOM      8  C   UNL     1     -11.043   6.195   5.304  1.00  0.00     0.093 C 
ATOM      9  O   UNL     1      -9.128   5.218   4.303  1.00  0.00    -0.294 OA
ENDBRANCH   1   7
BRANCH   2  10
ATOM     10  O   UNL     1      -6.694   5.875   5.294  1.00  0.00    -0.507 OA
ATOM     11  H   UNL     1      -6.404   5.276   6.058  1.00  0.00     0.293 HD
ENDBRANCH   2  10
BRANCH   4  12
ATOM     12  O   UNL     1      -6.254  10.583   6.480  1.00  0.00    -0.497 OA
ATOM     13  C   UNL     1      -5.074  11.012   5.808  1.00  0.00     0.278 C 
ENDBRANCH   4  12
TORSDOF 3
ENDMDL
MODEL 6
REMARK VINA RESULT:    -4.828      1.611      2.369
REMARK INTER + INTRA:          -5.869
REMARK INTER:                  -5.531
REMARK INTRA:                  -0.338
REMARK UNBOUND:                -0.336
REMARK SMILES COc1ccc(C(C)=O)c(O)c1
REMARK SMILES IDX 6 1 10 2 12 3 3 4 4 5 5 6 7 7 8 8 9 9 11 10 2 12 1 13
REMARK H PARENT 11 11
REMARK Flexibility Score: inf
ROOT
ATOM      1  C   UNL     1      -5.659   0.306  -4.574  1.00  0.00     0.059 A 
ATOM      2  C   UNL     1      -5.192   1.558  -5.038  1.00  0.00     0.130 A 
ATOM      3  C   UNL     1      -6.054   2.666  -5.056  1.00  0.00     0.093 A 
ATOM      4  C   UNL     1      -7.389   2.543  -4.633  1.00  0.00     0.122 A 
ATOM      5  C   UNL     1      -7.852   1.301  -4.193  1.00  0.00     0.047 A 
ATOM      6  C   UNL     1      -7.001   0.195  -4.166  1.00  0.00     0.019 A 
ENDROOT
BRANCH   1   7
ATOM      7  C   UNL     1      -4.790  -0.900  -4.513  1.00  0.00     0.163 C 
ATOM      8  C   UNL     1      -5.252  -2.248  -4.979  1.00  0.00     0.093 C 
ATOM      9  O   UNL     1      -3.620  -0.796  -4.054  1.00  0.00    -0.294 OA
ENDBRANCH   1   7
BRANCH   2  10
ATOM     10  O   UNL     1      -3.885   1.706  -5.502  1.00  0.00    -0.507 OA
ATOM     11  H   UNL     1      -3.143   2.052  -4.905  1.00  0.00     0.293 HD
ENDBRANCH   2  10
BRANCH   4  12
ATOM     12  O   UNL     1      -8.283   3.623  -4.636  1.00  0.00    -0.497 OA
ATOM     13  C   UNL     1      -7.893   4.992  -4.578  1.00  0.00     0.278 C 
ENDBRANCH   4  12
TORSDOF 3
ENDMDL
MODEL 7
REMARK VINA RESULT:    -4.809     12.428     13.990
REMARK INTER + INTRA:          -5.848
REMARK INTER:                  -5.510
REMARK INTRA:                  -0.338
REMARK UNBOUND:                -0.336
REMARK SMILES COc1ccc(C(C)=O)c(O)c1
REMARK SMILES IDX 6 1 10 2 12 3 3 4 4 5 5 6 7 7 8 8 9 9 11 10 2 12 1 13
REMARK H PARENT 11 11
REMARK Flexibility Score: inf
ROOT
ATOM      1  C   UNL     1       7.666   0.911  -2.447  1.00  0.00     0.059 A 
ATOM      2  C   UNL     1       7.126  -0.139  -1.668  1.00  0.00     0.130 A 
ATOM      3  C   UNL     1       7.579  -0.342  -0.354  1.00  0.00     0.093 A 
ATOM      4  C   UNL     1       8.580   0.478   0.194  1.00  0.00     0.122 A 
ATOM      5  C   UNL     1       9.124   1.502  -0.585  1.00  0.00     0.047 A 
ATOM      6  C   UNL     1       8.676   1.716  -1.890  1.00  0.00     0.019 A 
ENDROOT
BRANCH   1   7
ATOM      7  C   UNL     1       7.215   1.189  -3.837  1.00  0.00     0.163 C 
ATOM      8  C   UNL     1       8.176   1.350  -4.977  1.00  0.00     0.093 C 
ATOM      9  O   UNL     1       5.982   1.296  -4.078  1.00  0.00    -0.294 OA
ENDBRANCH   1   7
BRANCH   2  10
ATOM     10  O   UNL     1       6.160  -0.995  -2.194  1.00  0.00    -0.507 OA
ATOM     11  H   UNL     1       5.258  -0.656  -2.506  1.00  0.00     0.293 HD
ENDBRANCH   2  10
BRANCH   4  12
ATOM     12  O   UNL     1       9.061   0.309   1.501  1.00  0.00    -0.497 OA
ATOM     13  C   UNL     1       9.125  -0.941   2.180  1.00  0.00     0.278 C 
ENDBRANCH   4  12
TORSDOF 3
ENDMDL
MODEL 8
REMARK VINA RESULT:    -4.659      2.868      5.712
REMARK INTER + INTRA:          -5.676
REMARK INTER:                  -5.338
REMARK INTRA:                  -0.337
REMARK UNBOUND:                -0.336
REMARK SMILES COc1ccc(C(C)=O)c(O)c1
REMARK SMILES IDX 6 1 10 2 12 3 3 4 4 5 5 6 7 7 8 8 9 9 11 10 2 12 1 13
REMARK H PARENT 11 11
REMARK Flexibility Score: inf
ROOT
ATOM      1  C   UNL     1      -4.655  -1.847  -5.045  1.00  0.00     0.059 A 
ATOM      2  C   UNL     1      -3.386  -2.205  -4.532  1.00  0.00     0.130 A 
ATOM      3  C   UNL     1      -3.077  -3.556  -4.305  1.00  0.00     0.093 A 
ATOM      4  C   UNL     1      -4.022  -4.562  -4.567  1.00  0.00     0.122 A 
ATOM      5  C   UNL     1      -5.281  -4.202  -5.056  1.00  0.00     0.047 A 
ATOM      6  C   UNL     1      -5.596  -2.863  -5.290  1.00  0.00     0.019 A 
ENDROOT
BRANCH   1   7
ATOM      7  C   UNL     1      -5.037  -0.436  -5.323  1.00  0.00     0.163 C 
ATOM      8  C   UNL     1      -5.738  -0.026  -6.584  1.00  0.00     0.093 C 
ATOM      9  O   UNL     1      -4.766   0.457  -4.474  1.00  0.00    -0.294 OA
ENDBRANCH   1   7
BRANCH   2  10
ATOM     10  O   UNL     1      -2.439  -1.229  -4.224  1.00  0.00    -0.507 OA
ATOM     11  H   UNL     1      -1.481  -1.467  -3.996  1.00  0.00     0.293 HD
ENDBRANCH   2  10
BRANCH   4  12
ATOM     12  O   UNL     1      -3.755  -5.922  -4.354  1.00  0.00    -0.497 OA
ATOM     13  C   UNL     1      -2.463  -6.454  -4.078  1.00  0.00     0.278 C 
ENDBRANCH   4  12
TORSDOF 3
ENDMDL
MODEL 9
REMARK VINA RESULT:    -4.606      1.660      4.890
REMARK INTER + INTRA:          -5.615
REMARK INTER:                  -5.281
REMARK INTRA:                  -0.334
REMARK UNBOUND:                -0.336
REMARK SMILES COc1ccc(C(C)=O)c(O)c1
REMARK SMILES IDX 6 1 10 2 12 3 3 4 4 5 5 6 7 7 8 8 9 9 11 10 2 12 1 13
REMARK H PARENT 11 11
REMARK Flexibility Score: inf
ROOT
ATOM      1  C   UNL     1      -6.159   0.991  -4.695  1.00  0.00     0.059 A 
ATOM      2  C   UNL     1      -4.793   0.767  -4.985  1.00  0.00     0.130 A 
ATOM      3  C   UNL     1      -4.212  -0.481  -4.708  1.00  0.00     0.093 A 
ATOM      4  C   UNL     1      -4.971  -1.512  -4.128  1.00  0.00     0.122 A 
ATOM      5  C   UNL     1      -6.315  -1.281  -3.825  1.00  0.00     0.047 A 
ATOM      6  C   UNL     1      -6.903  -0.046  -4.102  1.00  0.00     0.019 A 
ENDROOT
BRANCH   1   7
ATOM      7  C   UNL     1      -6.837   2.284  -4.981  1.00  0.00     0.163 C 
ATOM      8  C   UNL     1      -8.218   2.358  -5.559  1.00  0.00     0.093 C 
ATOM      9  O   UNL     1      -6.236   3.365  -4.733  1.00  0.00    -0.294 OA
ENDBRANCH   1   7
BRANCH   2  10
ATOM     10  O   UNL     1      -4.002   1.780  -5.525  1.00  0.00    -0.507 OA
ATOM     11  H   UNL     1      -3.095   2.014  -5.139  1.00  0.00     0.293 HD
ENDBRANCH   2  10
BRANCH   4  12
ATOM     12  O   UNL     1      -4.430  -2.772  -3.834  1.00  0.00    -0.497 OA
ATOM     13  C   UNL     1      -3.107  -3.178  -4.169  1.00  0.00     0.278 C 
ENDBRANCH   4  12
TORSDOF 3
ENDMDL
