MODEL 1
REMARK VINA RESULT:    -5.282      0.000      0.000
REMARK INTER + INTRA:          -6.105
REMARK INTER:                  -5.899
REMARK INTRA:                  -0.206
REMARK UNBOUND:                -0.206
REMARK SMILES CC(C)c1ccc(C(=O)[O-])cc1
REMARK SMILES IDX 7 1 6 2 11 3 5 4 12 5 4 6 8 7 9 8 10 9 2 10 1 11 3 12
REMARK H PARENT
REMARK Flexibility Score: inf
ROOT
ATOM      1  C   UNL     1      39.036  18.196  10.416  1.00  0.00    -0.003 A 
ATOM      2  C   UNL     1      38.950  18.234  11.818  1.00  0.00     0.010 A 
ATOM      3  C   UNL     1      37.852  18.183   9.661  1.00  0.00     0.010 A 
ATOM      4  C   UNL     1      37.704  18.260  12.451  1.00  0.00     0.004 A 
ATOM      5  C   UNL     1      36.606  18.209  10.294  1.00  0.00     0.004 A 
ATOM      6  C   UNL     1      36.517  18.247  11.696  1.00  0.00    -0.045 A 
ENDROOT
BRANCH   1   7
ATOM      7  C   UNL     1      40.358  18.169   9.750  1.00  0.00     0.071 C 
ATOM      8  O   UNL     1      41.250  19.001  10.065  1.00  0.00    -0.545 OA
ATOM      9  O   UNL     1      40.633  17.226   8.767  1.00  0.00    -0.545 OA
ENDBRANCH   1   7
BRANCH   6  10
ATOM     10  C   UNL     1      35.158  18.274  12.370  1.00  0.00     0.013 C 
ATOM     11  C   UNL     1      34.518  16.881  12.378  1.00  0.00     0.012 C 
ATOM     12  C   UNL     1      34.234  19.303  11.710  1.00  0.00     0.012 C 
ENDBRANCH   6  10
TORSDOF 2
ENDMDL
MODEL 2
REMARK VINA RESULT:    -5.243      0.126      1.403
REMARK INTER + INTRA:          -6.062
REMARK INTER:                  -5.857
REMARK INTRA:                  -0.205
REMARK UNBOUND:                -0.206
REMARK SMILES CC(C)c1ccc(C(=O)[O-])cc1
REMARK SMILES IDX 7 1 6 2 11 3 5 4 12 5 4 6 8 7 9 8 10 9 2 10 1 11 3 12
REMARK H PARENT
REMARK Flexibility Score: inf
ROOT
ATOM      1  C   UNL     1      39.094  18.136  10.373  1.00  0.00    -0.003 A 
ATOM      2  C   UNL     1      37.910  18.123   9.618  1.00  0.00     0.010 A 
ATOM      3  C   UNL     1      39.007  18.157  11.775  1.00  0.00     0.010 A 
ATOM      4  C   UNL     1      36.664  18.130  10.252  1.00  0.00     0.004 A 
ATOM      5  C   UNL     1      37.762  18.165  12.409  1.00  0.00     0.004 A 
ATOM      6  C   UNL     1      36.576  18.151  11.656  1.00  0.00    -0.045 A 
ENDROOT
BRANCH   1   7
ATOM      7  C   UNL     1      40.411  18.128   9.698  1.00  0.00     0.071 C 
ATOM      8  O   UNL     1      41.317  18.928  10.052  1.00  0.00    -0.545 OA
ATOM      9  O   UNL     1      40.666  17.238   8.661  1.00  0.00    -0.545 OA
ENDBRANCH   1   7
BRANCH   6  10
ATOM     10  C   UNL     1      35.230  18.160  12.357  1.00  0.00     0.013 C 
ATOM     11  C   UNL     1      34.644  16.746  12.444  1.00  0.00     0.012 C 
ATOM     12  C   UNL     1      34.254  19.121  11.668  1.00  0.00     0.012 C 
ENDBRANCH   6  10
TORSDOF 2
ENDMDL
MODEL 3
REMARK VINA RESULT:    -5.197      3.024      4.997
REMARK INTER + INTRA:          -6.010
REMARK INTER:                  -5.802
REMARK INTRA:                  -0.208
REMARK UNBOUND:                -0.206
REMARK SMILES CC(C)c1ccc(C(=O)[O-])cc1
REMARK SMILES IDX 7 1 6 2 11 3 5 4 12 5 4 6 8 7 9 8 10 9 2 10 1 11 3 12
REMARK H PARENT
REMARK Flexibility Score: inf
ROOT
ATOM      1  C   UNL     1      36.329  18.037  11.379  1.00  0.00    -0.003 A 
ATOM      2  C   UNL     1      37.448  18.001  12.227  1.00  0.00     0.010 A 
ATOM      3  C   UNL     1      36.526  18.223  10.000  1.00  0.00     0.010 A 
ATOM      4  C   UNL     1      38.737  18.145  11.708  1.00  0.00     0.004 A 
ATOM      5  C   UNL     1      37.815  18.368   9.481  1.00  0.00     0.004 A 
ATOM      6  C   UNL     1      38.935  18.331  10.327  1.00  0.00    -0.045 A 
ENDROOT
BRANCH   1   7
ATOM      7  C   UNL     1      34.965  17.883  11.934  1.00  0.00     0.071 C 
ATOM      8  O   UNL     1      34.182  18.868  11.989  1.00  0.00    -0.545 OA
ATOM      9  O   UNL     1      34.531  16.649  12.403  1.00  0.00    -0.545 OA
ENDBRANCH   1   7
BRANCH   6  10
ATOM     10  C   UNL     1      40.330  18.490   9.750  1.00  0.00     0.013 C 
ATOM     11  C   UNL     1      40.638  17.381   8.737  1.00  0.00     0.012 C 
ATOM     12  C   UNL     1      41.386  18.535  10.860  1.00  0.00     0.012 C 
ENDBRANCH   6  10
TORSDOF 2
ENDMDL
MODEL 4
REMARK VINA RESULT:    -5.184      3.024      5.188
REMARK INTER + INTRA:          -5.996
REMARK INTER:                  -5.787
REMARK INTRA:                  -0.209
REMARK UNBOUND:                -0.206
REMARK SMILES CC(C)c1ccc(C(=O)[O-])cc1
REMARK SMILES IDX 7 1 6 2 11 3 5 4 12 5 4 6 8 7 9 8 10 9 2 10 1 11 3 12
REMARK H PARENT
REMARK Flexibility Score: inf
ROOT
ATOM      1  C   UNL     1      36.350  18.093  11.421  1.00  0.00    -0.003 A 
ATOM      2  C   UNL     1      36.519  18.292  10.041  1.00  0.00     0.010 A 
ATOM      3  C   UNL     1      37.487  18.023  12.244  1.00  0.00     0.010 A 
ATOM      4  C   UNL     1      37.799  18.419   9.495  1.00  0.00     0.004 A 
ATOM      5  C   UNL     1      38.767  18.150  11.697  1.00  0.00     0.004 A 
ATOM      6  C   UNL     1      38.938  18.349  10.317  1.00  0.00    -0.045 A 
ENDROOT
BRANCH   1   7
ATOM      7  C   UNL     1      34.992  17.960  11.996  1.00  0.00     0.071 C 
ATOM      8  O   UNL     1      34.198  18.938  11.995  1.00  0.00    -0.545 OA
ATOM      9  O   UNL     1      34.575  16.753  12.545  1.00  0.00    -0.545 OA
ENDBRANCH   1   7
BRANCH   6  10
ATOM     10  C   UNL     1      40.334  18.485   9.736  1.00  0.00     0.013 C 
ATOM     11  C   UNL     1      40.628  17.360   8.737  1.00  0.00     0.012 C 
ATOM     12  C   UNL     1      41.392  18.529  10.845  1.00  0.00     0.012 C 
ENDBRANCH   6  10
TORSDOF 2
ENDMDL
MODEL 5
REMARK VINA RESULT:    -5.145      3.111      4.268
REMARK INTER + INTRA:          -5.952
REMARK INTER:                  -5.732
REMARK INTRA:                  -0.221
REMARK UNBOUND:                -0.206
REMARK SMILES CC(C)c1ccc(C(=O)[O-])cc1
REMARK SMILES IDX 7 1 6 2 11 3 5 4 12 5 4 6 8 7 9 8 10 9 2 10 1 11 3 12
REMARK H PARENT
REMARK Flexibility Score: inf
ROOT
ATOM      1  C   UNL     1      36.283  19.056   7.693  1.00  0.00    -0.003 A 
ATOM      2  C   UNL     1      35.387  19.188   8.767  1.00  0.00     0.010 A 
ATOM      3  C   UNL     1      37.562  18.526   7.935  1.00  0.00     0.010 A 
ATOM      4  C   UNL     1      35.761  18.796  10.055  1.00  0.00     0.004 A 
ATOM      5  C   UNL     1      37.936  18.134   9.223  1.00  0.00     0.004 A 
ATOM      6  C   UNL     1      37.041  18.264  10.298  1.00  0.00    -0.045 A 
ENDROOT
BRANCH   1   7
ATOM      7  C   UNL     1      35.882  19.472   6.331  1.00  0.00     0.071 C 
ATOM      8  O   UNL     1      34.668  19.645   6.045  1.00  0.00    -0.545 OA
ATOM      9  O   UNL     1      36.841  19.678   5.346  1.00  0.00    -0.545 OA
ENDBRANCH   1   7
BRANCH   6  10
ATOM     10  C   UNL     1      37.460  17.835  11.692  1.00  0.00     0.013 C 
ATOM     11  C   UNL     1      36.570  18.483  12.760  1.00  0.00     0.012 C 
ATOM     12  C   UNL     1      38.940  18.146  11.944  1.00  0.00     0.012 C 
ENDBRANCH   6  10
TORSDOF 2
ENDMDL
MODEL 6
REMARK VINA RESULT:    -5.129      1.367      2.085
REMARK INTER + INTRA:          -5.934
REMARK INTER:                  -5.719
REMARK INTRA:                  -0.215
REMARK UNBOUND:                -0.206
REMARK SMILES CC(C)c1ccc(C(=O)[O-])cc1
REMARK SMILES IDX 7 1 6 2 11 3 5 4 12 5 4 6 8 7 9 8 10 9 2 10 1 11 3 12
REMARK H PARENT
REMARK Flexibility Score: inf
ROOT
ATOM      1  C   UNL     1      40.308  18.413  10.589  1.00  0.00    -0.003 A 
ATOM      2  C   UNL     1      39.581  18.094  11.748  1.00  0.00     0.010 A 
ATOM      3  C   UNL     1      39.610  18.698   9.404  1.00  0.00     0.010 A 
ATOM      4  C   UNL     1      38.185  18.061  11.722  1.00  0.00     0.004 A 
ATOM      5  C   UNL     1      38.213  18.665   9.378  1.00  0.00     0.004 A 
ATOM      6  C   UNL     1      37.484  18.347  10.536  1.00  0.00    -0.045 A 
ENDROOT
BRANCH   1   7
ATOM      7  C   UNL     1      41.788  18.447  10.621  1.00  0.00     0.071 C 
ATOM      8  O   UNL     1      42.442  17.444  11.012  1.00  0.00    -0.545 OA
ATOM      9  O   UNL     1      42.476  19.586  10.220  1.00  0.00    -0.545 OA
ENDBRANCH   1   7
BRANCH   6  10
ATOM     10  C   UNL     1      35.967  18.314  10.494  1.00  0.00     0.013 C 
ATOM     11  C   UNL     1      35.424  19.271   9.427  1.00  0.00     0.012 C 
ATOM     12  C   UNL     1      35.370  18.626  11.871  1.00  0.00     0.012 C 
ENDBRANCH   6  10
TORSDOF 2
ENDMDL
MODEL 7
REMARK VINA RESULT:    -5.092      2.645      5.302
REMARK INTER + INTRA:          -5.894
REMARK INTER:                  -5.690
REMARK INTRA:                  -0.204
REMARK UNBOUND:                -0.206
REMARK SMILES CC(C)c1ccc(C(=O)[O-])cc1
REMARK SMILES IDX 7 1 6 2 11 3 5 4 12 5 4 6 8 7 9 8 10 9 2 10 1 11 3 12
REMARK H PARENT
REMARK Flexibility Score: inf
ROOT
ATOM      1  C   UNL     1      38.084  17.980  10.497  1.00  0.00    -0.003 A 
ATOM      2  C   UNL     1      38.730  18.182  11.728  1.00  0.00     0.010 A 
ATOM      3  C   UNL     1      38.859  17.878   9.330  1.00  0.00     0.010 A 
ATOM      4  C   UNL     1      40.123  18.280  11.790  1.00  0.00     0.004 A 
ATOM      5  C   UNL     1      40.252  17.976   9.392  1.00  0.00     0.004 A 
ATOM      6  C   UNL     1      40.900  18.178  10.623  1.00  0.00    -0.045 A 
ENDROOT
BRANCH   1   7
ATOM      7  C   UNL     1      36.608  17.877  10.436  1.00  0.00     0.071 C 
ATOM      8  O   UNL     1      35.928  18.767   9.860  1.00  0.00    -0.545 OA
ATOM      9  O   UNL     1      35.953  16.797  11.015  1.00  0.00    -0.545 OA
ENDBRANCH   1   7
BRANCH   6  10
ATOM     10  C   UNL     1      42.413  18.282  10.676  1.00  0.00     0.013 C 
ATOM     11  C   UNL     1      42.889  19.659  10.196  1.00  0.00     0.012 C 
ATOM     12  C   UNL     1      43.074  17.158   9.871  1.00  0.00     0.012 C 
ENDBRANCH   6  10
TORSDOF 2
ENDMDL
MODEL 8
REMARK VINA RESULT:    -4.989      4.356      5.447
REMARK INTER + INTRA:          -5.778
REMARK INTER:                  -5.563
REMARK INTRA:                  -0.215
REMARK UNBOUND:                -0.206
REMARK SMILES CC(C)c1ccc(C(=O)[O-])cc1
REMARK SMILES IDX 7 1 6 2 11 3 5 4 12 5 4 6 8 7 9 8 10 9 2 10 1 11 3 12
REMARK H PARENT
REMARK Flexibility Score: inf
ROOT
ATOM      1  C   UNL     1      34.704  19.616   6.551  1.00  0.00    -0.003 A 
ATOM      2  C   UNL     1      35.633  19.278   7.549  1.00  0.00     0.010 A 
ATOM      3  C   UNL     1      33.537  20.309   6.914  1.00  0.00     0.010 A 
ATOM      4  C   UNL     1      35.400  19.627   8.882  1.00  0.00     0.004 A 
ATOM      5  C   UNL     1      33.304  20.658   8.247  1.00  0.00     0.004 A 
ATOM      6  C   UNL     1      34.232  20.322   9.247  1.00  0.00    -0.045 A 
ENDROOT
BRANCH   1   7
ATOM      7  C   UNL     1      34.954  19.244   5.140  1.00  0.00     0.071 C 
ATOM      8  O   UNL     1      34.096  18.592   4.488  1.00  0.00    -0.545 OA
ATOM      9  O   UNL     1      36.141  19.608   4.516  1.00  0.00    -0.545 OA
ENDBRANCH   1   7
BRANCH   6  10
ATOM     10  C   UNL     1      33.967  20.707  10.690  1.00  0.00     0.013 C 
ATOM     11  C   UNL     1      34.407  19.593  11.648  1.00  0.00     0.012 C 
ATOM     12  C   UNL     1      32.493  21.069  10.904  1.00  0.00     0.012 C 
ENDBRANCH   6  10
TORSDOF 2
ENDMDL
MODEL 9
REMARK VINA RESULT:    -4.971      2.815      3.941
REMARK INTER + INTRA:          -5.758
REMARK INTER:                  -5.545
REMARK INTRA:                  -0.213
REMARK UNBOUND:                -0.206
REMARK SMILES CC(C)c1ccc(C(=O)[O-])cc1
REMARK SMILES IDX 7 1 6 2 11 3 5 4 12 5 4 6 8 7 9 8 10 9 2 10 1 11 3 12
REMARK H PARENT
REMARK Flexibility Score: inf
ROOT
ATOM      1  C   UNL     1      36.118  18.269  10.906  1.00  0.00    -0.003 A 
ATOM      2  C   UNL     1      35.100  18.833  11.692  1.00  0.00     0.010 A 
ATOM      3  C   UNL     1      36.221  18.640   9.555  1.00  0.00     0.010 A 
ATOM      4  C   UNL     1      34.203  19.751  11.139  1.00  0.00     0.004 A 
ATOM      5  C   UNL     1      35.324  19.558   9.002  1.00  0.00     0.004 A 
ATOM      6  C   UNL     1      34.305  20.124   9.786  1.00  0.00    -0.045 A 
ENDROOT
BRANCH   1   7
ATOM      7  C   UNL     1      37.066  17.297  11.496  1.00  0.00     0.071 C 
ATOM      8  O   UNL     1      38.223  17.658  11.838  1.00  0.00    -0.545 OA
ATOM      9  O   UNL     1      36.692  15.971  11.681  1.00  0.00    -0.545 OA
ENDBRANCH   1   7
BRANCH   6  10
ATOM     10  C   UNL     1      33.338  21.120   9.173  1.00  0.00     0.013 C 
ATOM     11  C   UNL     1      32.001  21.125   9.924  1.00  0.00     0.012 C 
ATOM     12  C   UNL     1      33.131  20.841   7.680  1.00  0.00     0.012 C 
ENDBRANCH   6  10
TORSDOF 2
ENDMDL
