MODEL 1
REMARK VINA RESULT:    -7.626      0.000      0.000
REMARK INTER + INTRA:          -9.223
REMARK INTER:                  -8.963
REMARK INTRA:                  -0.260
REMARK UNBOUND:                -0.260
REMARK SMILES O=c1c(O)c(-c2ccc(O)c(O)c2)oc2cc(O)ccc12
REMARK SMILES IDX 5 1 3 2 2 3 1 4 21 5 15 6 14 7 16 8 17 9 19 10 20 11 6 12
REMARK SMILES IDX 7 13 8 14 9 15 13 16 11 17 10 18 12 20 4 22 18 24
REMARK H PARENT 10 19 12 21 4 23 18 25
REMARK Flexibility Score: inf
ROOT
ATOM      1  C   UNL     1      11.705  15.598   9.960  1.00  0.00     0.180 A 
ATOM      2  C   UNL     1      11.164  15.721  11.257  1.00  0.00     0.208 A 
ATOM      3  C   UNL     1      11.281  16.950  11.925  1.00  0.00     0.235 A 
ATOM      4  O   UNL     1      10.815  17.082  13.091  1.00  0.00    -0.285 OA
ATOM      5  C   UNL     1      11.912  18.028  11.283  1.00  0.00     0.069 A 
ATOM      6  C   UNL     1      12.405  17.830   9.976  1.00  0.00     0.142 A 
ATOM      7  O   UNL     1      12.282  16.649   9.382  1.00  0.00    -0.452 OA
ATOM      8  C   UNL     1      13.031  18.883   9.298  1.00  0.00     0.094 A 
ATOM      9  C   UNL     1      13.173  20.132   9.912  1.00  0.00     0.119 A 
ATOM     10  C   UNL     1      12.686  20.330  11.211  1.00  0.00     0.047 A 
ATOM     11  C   UNL     1      12.058  19.286  11.896  1.00  0.00     0.020 A 
ENDROOT
BRANCH   1  12
ATOM     12  C   UNL     1      11.639  14.331   9.198  1.00  0.00     0.025 A 
ATOM     13  C   UNL     1      10.433  13.958   8.582  1.00  0.00     0.016 A 
ATOM     14  C   UNL     1      10.353  12.777   7.841  1.00  0.00     0.051 A 
ATOM     15  C   UNL     1      11.477  11.959   7.690  1.00  0.00     0.157 A 
ATOM     16  C   UNL     1      12.773  13.518   9.027  1.00  0.00     0.062 A 
ATOM     17  C   UNL     1      12.694  12.332   8.281  1.00  0.00     0.158 A 
BRANCH  15  18
ATOM     18  O   UNL     1      11.365  10.785   6.946  1.00  0.00    -0.504 OA
ATOM     19  H   UNL     1      12.178  10.262   6.642  1.00  0.00     0.293 HD
ENDBRANCH  15  18
BRANCH  17  20
ATOM     20  O   UNL     1      13.823  11.529   8.123  1.00  0.00    -0.504 OA
ATOM     21  H   UNL     1      13.848  10.776   7.445  1.00  0.00     0.293 HD
ENDBRANCH  17  20
ENDBRANCH   1  12
BRANCH   2  22
ATOM     22  O   UNL     1      10.499  14.646  11.851  1.00  0.00    -0.502 OA
ATOM     23  H   UNL     1       9.743  14.776  12.513  1.00  0.00     0.293 HD
ENDBRANCH   2  22
BRANCH   9  24
ATOM     24  O   UNL     1      13.799  21.169   9.224  1.00  0.00    -0.508 OA
ATOM     25  H   UNL     1      14.311  21.002   8.365  1.00  0.00     0.293 HD
ENDBRANCH   9  24
TORSDOF 5
ENDMDL
MODEL 2
REMARK VINA RESULT:    -7.212      2.883      7.277
REMARK INTER + INTRA:          -8.737
REMARK INTER:                  -8.455
REMARK INTRA:                  -0.282
REMARK UNBOUND:                -0.260
REMARK SMILES O=c1c(O)c(-c2ccc(O)c(O)c2)oc2cc(O)ccc12
REMARK SMILES IDX 5 1 3 2 2 3 1 4 21 5 15 6 14 7 16 8 17 9 19 10 20 11 6 12
REMARK SMILES IDX 7 13 8 14 9 15 13 16 11 17 10 18 12 20 4 22 18 24
REMARK H PARENT 10 19 12 21 4 23 18 25
REMARK Flexibility Score: inf
ROOT
ATOM      1  C   UNL     1      11.327  13.185   7.301  1.00  0.00     0.180 A 
ATOM      2  C   UNL     1      11.358  11.781   7.433  1.00  0.00     0.208 A 
ATOM      3  C   UNL     1      11.236  10.990   6.281  1.00  0.00     0.235 A 
ATOM      4  O   UNL     1      11.250   9.732   6.375  1.00  0.00    -0.285 OA
ATOM      5  C   UNL     1      11.108  11.610   5.028  1.00  0.00     0.069 A 
ATOM      6  C   UNL     1      11.110  13.021   4.977  1.00  0.00     0.142 A 
ATOM      7  O   UNL     1      11.220  13.734   6.092  1.00  0.00    -0.452 OA
ATOM      8  C   UNL     1      10.996  13.676   3.746  1.00  0.00     0.094 A 
ATOM      9  C   UNL     1      10.875  12.940   2.563  1.00  0.00     0.119 A 
ATOM     10  C   UNL     1      10.871  11.540   2.610  1.00  0.00     0.047 A 
ATOM     11  C   UNL     1      10.987  10.875   3.834  1.00  0.00     0.020 A 
ENDROOT
BRANCH   1  12
ATOM     12  C   UNL     1      11.431  14.088   8.469  1.00  0.00     0.025 A 
ATOM     13  C   UNL     1      10.306  14.296   9.283  1.00  0.00     0.016 A 
ATOM     14  C   UNL     1      10.387  15.127  10.403  1.00  0.00     0.051 A 
ATOM     15  C   UNL     1      11.593  15.750  10.736  1.00  0.00     0.157 A 
ATOM     16  C   UNL     1      12.649  14.698   8.818  1.00  0.00     0.062 A 
ATOM     17  C   UNL     1      12.732  15.532   9.944  1.00  0.00     0.158 A 
BRANCH  15  18
ATOM     18  O   UNL     1      11.642  16.576  11.859  1.00  0.00    -0.504 OA
ATOM     19  H   UNL     1      11.549  16.211  12.799  1.00  0.00     0.293 HD
ENDBRANCH  15  18
BRANCH  17  20
ATOM     20  O   UNL     1      13.942  16.138  10.278  1.00  0.00    -0.504 OA
ATOM     21  H   UNL     1      14.693  15.618  10.717  1.00  0.00     0.293 HD
ENDBRANCH  17  20
ENDBRANCH   1  12
BRANCH   2  22
ATOM     22  O   UNL     1      11.536  11.193   8.688  1.00  0.00    -0.502 OA
ATOM     23  H   UNL     1      11.478  10.192   8.829  1.00  0.00     0.293 HD
ENDBRANCH   2  22
BRANCH   9  24
ATOM     24  O   UNL     1      10.761  13.609   1.346  1.00  0.00    -0.508 OA
ATOM     25  H   UNL     1       9.859  13.768   0.911  1.00  0.00     0.293 HD
ENDBRANCH   9  24
TORSDOF 5
ENDMDL
MODEL 3
REMARK VINA RESULT:    -7.013      2.170      2.761
REMARK INTER + INTRA:          -8.503
REMARK INTER:                  -8.222
REMARK INTRA:                  -0.281
REMARK UNBOUND:                -0.260
REMARK SMILES O=c1c(O)c(-c2ccc(O)c(O)c2)oc2cc(O)ccc12
REMARK SMILES IDX 5 1 3 2 2 3 1 4 21 5 15 6 14 7 16 8 17 9 19 10 20 11 6 12
REMARK SMILES IDX 7 13 8 14 9 15 13 16 11 17 10 18 12 20 4 22 18 24
REMARK H PARENT 10 19 12 21 4 23 18 25
REMARK Flexibility Score: inf
ROOT
ATOM      1  C   UNL     1      12.031  15.939   8.175  1.00  0.00     0.180 A 
ATOM      2  C   UNL     1      12.370  16.585   9.382  1.00  0.00     0.208 A 
ATOM      3  C   UNL     1      12.547  17.977   9.378  1.00  0.00     0.235 A 
ATOM      4  O   UNL     1      12.862  18.576  10.444  1.00  0.00    -0.285 OA
ATOM      5  C   UNL     1      12.364  18.694   8.185  1.00  0.00     0.069 A 
ATOM      6  C   UNL     1      12.001  17.977   7.025  1.00  0.00     0.142 A 
ATOM      7  O   UNL     1      11.851  16.658   7.068  1.00  0.00    -0.452 OA
ATOM      8  C   UNL     1      11.798  18.657   5.818  1.00  0.00     0.094 A 
ATOM      9  C   UNL     1      11.956  20.045   5.755  1.00  0.00     0.119 A 
ATOM     10  C   UNL     1      12.318  20.758   6.905  1.00  0.00     0.047 A 
ATOM     11  C   UNL     1      12.521  20.090   8.115  1.00  0.00     0.020 A 
ENDROOT
BRANCH   1  12
ATOM     12  C   UNL     1      11.845  14.474   8.092  1.00  0.00     0.025 A 
ATOM     13  C   UNL     1      10.549  13.947   7.970  1.00  0.00     0.016 A 
ATOM     14  C   UNL     1      10.352  12.568   7.870  1.00  0.00     0.051 A 
ATOM     15  C   UNL     1      11.444  11.695   7.875  1.00  0.00     0.157 A 
ATOM     16  C   UNL     1      12.944  13.595   8.075  1.00  0.00     0.062 A 
ATOM     17  C   UNL     1      12.747  12.210   7.972  1.00  0.00     0.158 A 
BRANCH  15  18
ATOM     18  O   UNL     1      11.215  10.323   7.775  1.00  0.00    -0.504 OA
ATOM     19  H   UNL     1      11.673   9.751   7.076  1.00  0.00     0.293 HD
ENDBRANCH  15  18
BRANCH  17  20
ATOM     20  O   UNL     1      13.842  11.346   7.963  1.00  0.00    -0.504 OA
ATOM     21  H   UNL     1      14.792  11.694   7.904  1.00  0.00     0.293 HD
ENDBRANCH  17  20
ENDBRANCH   1  12
BRANCH   2  22
ATOM     22  O   UNL     1      12.498  15.851  10.564  1.00  0.00    -0.502 OA
ATOM     23  H   UNL     1      12.416  16.280  11.478  1.00  0.00     0.293 HD
ENDBRANCH   2  22
BRANCH   9  24
ATOM     24  O   UNL     1      11.751  20.705   4.546  1.00  0.00    -0.508 OA
ATOM     25  H   UNL     1      11.929  21.698   4.447  1.00  0.00     0.293 HD
ENDBRANCH   9  24
TORSDOF 5
ENDMDL
MODEL 4
REMARK VINA RESULT:    -7.006      2.242      7.263
REMARK INTER + INTRA:          -8.495
REMARK INTER:                  -8.527
REMARK INTRA:                   0.033
REMARK UNBOUND:                -0.260
REMARK SMILES O=c1c(O)c(-c2ccc(O)c(O)c2)oc2cc(O)ccc12
REMARK SMILES IDX 5 1 3 2 2 3 1 4 21 5 15 6 14 7 16 8 17 9 19 10 20 11 6 12
REMARK SMILES IDX 7 13 8 14 9 15 13 16 11 17 10 18 12 20 4 22 18 24
REMARK H PARENT 10 19 12 21 4 23 18 25
REMARK Flexibility Score: inf
ROOT
ATOM      1  C   UNL     1      11.781  14.759   8.404  1.00  0.00     0.180 A 
ATOM      2  C   UNL     1      12.025  15.307   7.127  1.00  0.00     0.208 A 
ATOM      3  C   UNL     1      11.783  14.514   5.994  1.00  0.00     0.235 A 
ATOM      4  O   UNL     1      12.004  14.978   4.841  1.00  0.00    -0.285 OA
ATOM      5  C   UNL     1      11.288  13.210   6.156  1.00  0.00     0.069 A 
ATOM      6  C   UNL     1      11.047  12.745   7.466  1.00  0.00     0.142 A 
ATOM      7  O   UNL     1      11.297  13.523   8.513  1.00  0.00    -0.452 OA
ATOM      8  C   UNL     1      10.544  11.455   7.668  1.00  0.00     0.094 A 
ATOM      9  C   UNL     1      10.280  10.621   6.577  1.00  0.00     0.119 A 
ATOM     10  C   UNL     1      10.520  11.080   5.275  1.00  0.00     0.047 A 
ATOM     11  C   UNL     1      11.021  12.367   5.062  1.00  0.00     0.020 A 
ENDROOT
BRANCH   1  12
ATOM     12  C   UNL     1      12.028  15.523   9.647  1.00  0.00     0.025 A 
ATOM     13  C   UNL     1      13.258  16.179   9.822  1.00  0.00     0.016 A 
ATOM     14  C   UNL     1      13.504  16.923  10.978  1.00  0.00     0.051 A 
ATOM     15  C   UNL     1      12.525  17.037  11.969  1.00  0.00     0.157 A 
ATOM     16  C   UNL     1      11.036  15.658  10.635  1.00  0.00     0.062 A 
ATOM     17  C   UNL     1      11.282  16.406  11.796  1.00  0.00     0.158 A 
BRANCH  15  18
ATOM     18  O   UNL     1      12.801  17.785  13.113  1.00  0.00    -0.504 OA
ATOM     19  H   UNL     1      12.117  18.406  13.528  1.00  0.00     0.293 HD
ENDBRANCH  15  18
BRANCH  17  20
ATOM     20  O   UNL     1      10.295  16.528  12.772  1.00  0.00    -0.504 OA
ATOM     21  H   UNL     1      10.082  15.769  13.409  1.00  0.00     0.293 HD
ENDBRANCH  17  20
ENDBRANCH   1  12
BRANCH   2  22
ATOM     22  O   UNL     1      12.471  16.624   6.996  1.00  0.00    -0.502 OA
ATOM     23  H   UNL     1      13.454  16.865   7.006  1.00  0.00     0.293 HD
ENDBRANCH   2  22
BRANCH   9  24
ATOM     24  O   UNL     1       9.780   9.340   6.796  1.00  0.00    -0.508 OA
ATOM     25  H   UNL     1       9.140   8.902   6.144  1.00  0.00     0.293 HD
ENDBRANCH   9  24
TORSDOF 5
ENDMDL
MODEL 5
REMARK VINA RESULT:    -6.929      8.974     11.068
REMARK INTER + INTRA:          -8.404
REMARK INTER:                  -8.139
REMARK INTRA:                  -0.265
REMARK UNBOUND:                -0.260
REMARK SMILES O=c1c(O)c(-c2ccc(O)c(O)c2)oc2cc(O)ccc12
REMARK SMILES IDX 5 1 3 2 2 3 1 4 21 5 15 6 14 7 16 8 17 9 19 10 20 11 6 12
REMARK SMILES IDX 7 13 8 14 9 15 13 16 11 17 10 18 12 20 4 22 18 24
REMARK H PARENT 10 19 12 21 4 23 18 25
REMARK Flexibility Score: inf
ROOT
ATOM      1  C   UNL     1      11.541  16.092   0.143  1.00  0.00     0.180 A 
ATOM      2  C   UNL     1      11.754  16.867   1.302  1.00  0.00     0.208 A 
ATOM      3  C   UNL     1      11.718  16.235   2.555  1.00  0.00     0.235 A 
ATOM      4  O   UNL     1      11.895  16.909   3.607  1.00  0.00    -0.285 OA
ATOM      5  C   UNL     1      11.491  14.851   2.624  1.00  0.00     0.069 A 
ATOM      6  C   UNL     1      11.311  14.142   1.417  1.00  0.00     0.142 A 
ATOM      7  O   UNL     1      11.344  14.779   0.252  1.00  0.00    -0.452 OA
ATOM      8  C   UNL     1      11.094  12.760   1.443  1.00  0.00     0.094 A 
ATOM      9  C   UNL     1      11.051  12.075   2.662  1.00  0.00     0.119 A 
ATOM     10  C   UNL     1      11.228  12.777   3.862  1.00  0.00     0.047 A 
ATOM     11  C   UNL     1      11.448  14.157   3.847  1.00  0.00     0.020 A 
ENDROOT
BRANCH   1  12
ATOM     12  C   UNL     1      11.545  16.687  -1.212  1.00  0.00     0.025 A 
ATOM     13  C   UNL     1      10.324  16.955  -1.853  1.00  0.00     0.016 A 
ATOM     14  C   UNL     1      10.305  17.536  -3.123  1.00  0.00     0.051 A 
ATOM     15  C   UNL     1      11.500  17.870  -3.766  1.00  0.00     0.157 A 
ATOM     16  C   UNL     1      12.745  17.044  -1.852  1.00  0.00     0.062 A 
ATOM     17  C   UNL     1      12.727  17.629  -3.127  1.00  0.00     0.158 A 
BRANCH  15  18
ATOM     18  O   UNL     1      11.448  18.446  -5.035  1.00  0.00    -0.504 OA
ATOM     19  H   UNL     1      10.624  18.930  -5.373  1.00  0.00     0.293 HD
ENDBRANCH  15  18
BRANCH  17  20
ATOM     20  O   UNL     1      13.922  17.973  -3.757  1.00  0.00    -0.504 OA
ATOM     21  H   UNL     1      14.053  17.846  -4.754  1.00  0.00     0.293 HD
ENDBRANCH  17  20
ENDBRANCH   1  12
BRANCH   2  22
ATOM     22  O   UNL     1      12.026  18.233   1.199  1.00  0.00    -0.502 OA
ATOM     23  H   UNL     1      12.967  18.591   1.096  1.00  0.00     0.293 HD
ENDBRANCH   2  22
BRANCH   9  24
ATOM     24  O   UNL     1      10.833  10.700   2.670  1.00  0.00    -0.508 OA
ATOM     25  H   UNL     1      10.011  10.291   2.241  1.00  0.00     0.293 HD
ENDBRANCH   9  24
TORSDOF 5
ENDMDL
MODEL 6
REMARK VINA RESULT:    -6.827      9.200     11.859
REMARK INTER + INTRA:          -8.285
REMARK INTER:                  -8.066
REMARK INTRA:                  -0.219
REMARK UNBOUND:                -0.260
REMARK SMILES O=c1c(O)c(-c2ccc(O)c(O)c2)oc2cc(O)ccc12
REMARK SMILES IDX 5 1 3 2 2 3 1 4 21 5 15 6 14 7 16 8 17 9 19 10 20 11 6 12
REMARK SMILES IDX 7 13 8 14 9 15 13 16 11 17 10 18 12 20 4 22 18 24
REMARK H PARENT 10 19 12 21 4 23 18 25
REMARK Flexibility Score: inf
ROOT
ATOM      1  C   UNL     1      11.733  14.516  -0.829  1.00  0.00     0.180 A 
ATOM      2  C   UNL     1      12.356  13.286  -1.128  1.00  0.00     0.208 A 
ATOM      3  C   UNL     1      12.433  12.307  -0.126  1.00  0.00     0.235 A 
ATOM      4  O   UNL     1      12.995  11.202  -0.365  1.00  0.00    -0.285 OA
ATOM      5  C   UNL     1      11.873  12.563   1.136  1.00  0.00     0.069 A 
ATOM      6  C   UNL     1      11.246  13.810   1.347  1.00  0.00     0.142 A 
ATOM      7  O   UNL     1      11.201  14.714   0.375  1.00  0.00    -0.452 OA
ATOM      8  C   UNL     1      10.666  14.099   2.588  1.00  0.00     0.094 A 
ATOM      9  C   UNL     1      10.709  13.160   3.623  1.00  0.00     0.119 A 
ATOM     10  C   UNL     1      11.333  11.922   3.417  1.00  0.00     0.047 A 
ATOM     11  C   UNL     1      11.913  11.622   2.181  1.00  0.00     0.020 A 
ENDROOT
BRANCH   1  12
ATOM     12  C   UNL     1      11.628  15.606  -1.825  1.00  0.00     0.025 A 
ATOM     13  C   UNL     1      10.362  15.994  -2.294  1.00  0.00     0.016 A 
ATOM     14  C   UNL     1      10.239  17.035  -3.218  1.00  0.00     0.051 A 
ATOM     15  C   UNL     1      11.372  17.712  -3.677  1.00  0.00     0.157 A 
ATOM     16  C   UNL     1      12.765  16.303  -2.272  1.00  0.00     0.062 A 
ATOM     17  C   UNL     1      12.641  17.349  -3.199  1.00  0.00     0.158 A 
BRANCH  15  18
ATOM     18  O   UNL     1      11.217  18.744  -4.601  1.00  0.00    -0.504 OA
ATOM     19  H   UNL     1      12.009  19.178  -5.061  1.00  0.00     0.293 HD
ENDBRANCH  15  18
BRANCH  17  20
ATOM     20  O   UNL     1      13.775  18.030  -3.640  1.00  0.00    -0.504 OA
ATOM     21  H   UNL     1      13.764  18.586  -4.487  1.00  0.00     0.293 HD
ENDBRANCH  17  20
ENDBRANCH   1  12
BRANCH   2  22
ATOM     22  O   UNL     1      12.860  13.041  -2.407  1.00  0.00    -0.502 OA
ATOM     23  H   UNL     1      13.011  12.103  -2.759  1.00  0.00     0.293 HD
ENDBRANCH   2  22
BRANCH   9  24
ATOM     24  O   UNL     1      10.128  13.465   4.852  1.00  0.00    -0.508 OA
ATOM     25  H   UNL     1      10.648  13.386   5.718  1.00  0.00     0.293 HD
ENDBRANCH   9  24
TORSDOF 5
ENDMDL
MODEL 7
REMARK VINA RESULT:    -6.738     11.442     12.830
REMARK INTER + INTRA:          -8.179
REMARK INTER:                  -7.940
REMARK INTRA:                  -0.239
REMARK UNBOUND:                -0.260
REMARK SMILES O=c1c(O)c(-c2ccc(O)c(O)c2)oc2cc(O)ccc12
REMARK SMILES IDX 5 1 3 2 2 3 1 4 21 5 15 6 14 7 16 8 17 9 19 10 20 11 6 12
REMARK SMILES IDX 7 13 8 14 9 15 13 16 11 17 10 18 12 20 4 22 18 24
REMARK H PARENT 10 19 12 21 4 23 18 25
REMARK Flexibility Score: inf
ROOT
ATOM      1  C   UNL     1      11.004  16.400  -2.916  1.00  0.00     0.180 A 
ATOM      2  C   UNL     1      10.733  17.765  -3.148  1.00  0.00     0.208 A 
ATOM      3  C   UNL     1      10.795  18.659  -2.068  1.00  0.00     0.235 A 
ATOM      4  O   UNL     1      10.546  19.884  -2.248  1.00  0.00    -0.285 OA
ATOM      5  C   UNL     1      11.142  18.182  -0.794  1.00  0.00     0.069 A 
ATOM      6  C   UNL     1      11.422  16.806  -0.650  1.00  0.00     0.142 A 
ATOM      7  O   UNL     1      11.345  15.991  -1.696  1.00  0.00    -0.452 OA
ATOM      8  C   UNL     1      11.783  16.293   0.601  1.00  0.00     0.094 A 
ATOM      9  C   UNL     1      11.864  17.137   1.713  1.00  0.00     0.119 A 
ATOM     10  C   UNL     1      11.585  18.504   1.573  1.00  0.00     0.047 A 
ATOM     11  C   UNL     1      11.226  19.027   0.328  1.00  0.00     0.020 A 
ENDROOT
BRANCH   1  12
ATOM     12  C   UNL     1      10.942  15.392  -3.998  1.00  0.00     0.025 A 
ATOM     13  C   UNL     1       9.692  14.997  -4.503  1.00  0.00     0.016 A 
ATOM     14  C   UNL     1       9.611  14.062  -5.538  1.00  0.00     0.051 A 
ATOM     15  C   UNL     1      10.773  13.520  -6.094  1.00  0.00     0.157 A 
ATOM     16  C   UNL     1      12.110  14.861  -4.574  1.00  0.00     0.062 A 
ATOM     17  C   UNL     1      12.029  13.924  -5.615  1.00  0.00     0.158 A 
BRANCH  15  18
ATOM     18  O   UNL     1      10.660  12.587  -7.125  1.00  0.00    -0.504 OA
ATOM     19  H   UNL     1      11.000  11.637  -7.030  1.00  0.00     0.293 HD
ENDBRANCH  15  18
BRANCH  17  20
ATOM     20  O   UNL     1      13.193  13.398  -6.175  1.00  0.00    -0.504 OA
ATOM     21  H   UNL     1      13.551  12.490  -5.902  1.00  0.00     0.293 HD
ENDBRANCH  17  20
ENDBRANCH   1  12
BRANCH   2  22
ATOM     22  O   UNL     1      10.438  18.219  -4.436  1.00  0.00    -0.502 OA
ATOM     23  H   UNL     1       9.494  18.441  -4.728  1.00  0.00     0.293 HD
ENDBRANCH   2  22
BRANCH   9  24
ATOM     24  O   UNL     1      12.224  16.611   2.951  1.00  0.00    -0.508 OA
ATOM     25  H   UNL     1      12.264  17.190   3.782  1.00  0.00     0.293 HD
ENDBRANCH   9  24
TORSDOF 5
ENDMDL
MODEL 8
REMARK VINA RESULT:    -6.735      2.992      4.786
REMARK INTER + INTRA:          -8.176
REMARK INTER:                  -7.901
REMARK INTRA:                  -0.275
REMARK UNBOUND:                -0.260
REMARK SMILES O=c1c(O)c(-c2ccc(O)c(O)c2)oc2cc(O)ccc12
REMARK SMILES IDX 5 1 3 2 2 3 1 4 21 5 15 6 14 7 16 8 17 9 19 10 20 11 6 12
REMARK SMILES IDX 7 13 8 14 9 15 13 16 11 17 10 18 12 20 4 22 18 24
REMARK H PARENT 10 19 12 21 4 23 18 25
REMARK Flexibility Score: inf
ROOT
ATOM      1  C   UNL     1      11.760  14.232   6.335  1.00  0.00     0.180 A 
ATOM      2  C   UNL     1      12.357  15.471   6.020  1.00  0.00     0.208 A 
ATOM      3  C   UNL     1      12.378  16.479   6.995  1.00  0.00     0.235 A 
ATOM      4  O   UNL     1      12.897  17.600   6.733  1.00  0.00    -0.285 OA
ATOM      5  C   UNL     1      11.826  16.227   8.261  1.00  0.00     0.069 A 
ATOM      6  C   UNL     1      11.270  14.953   8.506  1.00  0.00     0.142 A 
ATOM      7  O   UNL     1      11.262  14.029   7.553  1.00  0.00    -0.452 OA
ATOM      8  C   UNL     1      10.720  14.660   9.759  1.00  0.00     0.094 A 
ATOM      9  C   UNL     1      10.715  15.624  10.772  1.00  0.00     0.119 A 
ATOM     10  C   UNL     1      11.266  16.890  10.531  1.00  0.00     0.047 A 
ATOM     11  C   UNL     1      11.820  17.193   9.284  1.00  0.00     0.020 A 
ENDROOT
BRANCH   1  12
ATOM     12  C   UNL     1      11.682  13.125   5.355  1.00  0.00     0.025 A 
ATOM     13  C   UNL     1      10.724  13.177   4.330  1.00  0.00     0.016 A 
ATOM     14  C   UNL     1      10.646  12.154   3.382  1.00  0.00     0.051 A 
ATOM     15  C   UNL     1      11.531  11.073   3.434  1.00  0.00     0.157 A 
ATOM     16  C   UNL     1      12.585  12.048   5.393  1.00  0.00     0.062 A 
ATOM     17  C   UNL     1      12.508  11.020   4.440  1.00  0.00     0.158 A 
BRANCH  15  18
ATOM     18  O   UNL     1      11.427  10.065   2.476  1.00  0.00    -0.504 OA
ATOM     19  H   UNL     1      10.534   9.779   2.091  1.00  0.00     0.293 HD
ENDBRANCH  15  18
BRANCH  17  20
ATOM     20  O   UNL     1      13.404   9.952   4.490  1.00  0.00    -0.504 OA
ATOM     21  H   UNL     1      14.397  10.098   4.626  1.00  0.00     0.293 HD
ENDBRANCH  17  20
ENDBRANCH   1  12
BRANCH   2  22
ATOM     22  O   UNL     1      12.942  15.675   4.767  1.00  0.00    -0.502 OA
ATOM     23  H   UNL     1      13.342  14.918   4.227  1.00  0.00     0.293 HD
ENDBRANCH   2  22
BRANCH   9  24
ATOM     24  O   UNL     1      10.163  15.315  12.012  1.00  0.00    -0.508 OA
ATOM     25  H   UNL     1       9.279  14.827  12.092  1.00  0.00     0.293 HD
ENDBRANCH   9  24
TORSDOF 5
ENDMDL
MODEL 9
REMARK VINA RESULT:    -6.700      5.846      7.516
REMARK INTER + INTRA:          -8.135
REMARK INTER:                  -7.827
REMARK INTRA:                  -0.309
REMARK UNBOUND:                -0.260
REMARK SMILES O=c1c(O)c(-c2ccc(O)c(O)c2)oc2cc(O)ccc12
REMARK SMILES IDX 5 1 3 2 2 3 1 4 21 5 15 6 14 7 16 8 17 9 19 10 20 11 6 12
REMARK SMILES IDX 7 13 8 14 9 15 13 16 11 17 10 18 12 20 4 22 18 24
REMARK H PARENT 10 19 12 21 4 23 18 25
REMARK Flexibility Score: inf
ROOT
ATOM      1  C   UNL     1      11.672  14.411   3.398  1.00  0.00     0.180 A 
ATOM      2  C   UNL     1      11.680  14.036   2.038  1.00  0.00     0.208 A 
ATOM      3  C   UNL     1      11.653  15.041   1.059  1.00  0.00     0.235 A 
ATOM      4  O   UNL     1      11.648  14.730  -0.164  1.00  0.00    -0.285 OA
ATOM      5  C   UNL     1      11.640  16.389   1.453  1.00  0.00     0.069 A 
ATOM      6  C   UNL     1      11.658  16.681   2.834  1.00  0.00     0.142 A 
ATOM      7  O   UNL     1      11.675  15.700   3.729  1.00  0.00    -0.452 OA
ATOM      8  C   UNL     1      11.657  18.012   3.266  1.00  0.00     0.094 A 
ATOM      9  C   UNL     1      11.634  19.057   2.336  1.00  0.00     0.119 A 
ATOM     10  C   UNL     1      11.615  18.769   0.965  1.00  0.00     0.047 A 
ATOM     11  C   UNL     1      11.618  17.444   0.522  1.00  0.00     0.020 A 
ENDROOT
BRANCH   1  12
ATOM     12  C   UNL     1      11.680  13.411   4.489  1.00  0.00     0.025 A 
ATOM     13  C   UNL     1      10.470  12.830   4.903  1.00  0.00     0.016 A 
ATOM     14  C   UNL     1      10.457  11.869   5.916  1.00  0.00     0.051 A 
ATOM     15  C   UNL     1      11.649  11.462   6.521  1.00  0.00     0.157 A 
ATOM     16  C   UNL     1      12.881  12.984   5.084  1.00  0.00     0.062 A 
ATOM     17  C   UNL     1      12.869  12.017   6.101  1.00  0.00     0.158 A 
BRANCH  15  18
ATOM     18  O   UNL     1      11.604  10.502   7.532  1.00  0.00    -0.504 OA
ATOM     19  H   UNL     1      10.836  10.451   8.190  1.00  0.00     0.293 HD
ENDBRANCH  15  18
BRANCH  17  20
ATOM     20  O   UNL     1      14.064  11.606   6.689  1.00  0.00    -0.504 OA
ATOM     21  H   UNL     1      14.091  10.851   7.364  1.00  0.00     0.293 HD
ENDBRANCH  17  20
ENDBRANCH   1  12
BRANCH   2  22
ATOM     22  O   UNL     1      11.742  12.688   1.676  1.00  0.00    -0.502 OA
ATOM     23  H   UNL     1      12.215  12.374   0.838  1.00  0.00     0.293 HD
ENDBRANCH   2  22
BRANCH   9  24
ATOM     24  O   UNL     1      11.633  20.376   2.784  1.00  0.00    -0.508 OA
ATOM     25  H   UNL     1      11.916  20.616   3.727  1.00  0.00     0.293 HD
ENDBRANCH   9  24
TORSDOF 5
ENDMDL
