MODEL 1
REMARK VINA RESULT:    -5.416      0.000      0.000
REMARK INTER + INTRA:          -7.958
REMARK INTER:                  -7.632
REMARK INTRA:                  -0.325
REMARK UNBOUND:                -0.325
REMARK SMILES CCCCCCCCC(=O)[O-]
REMARK SMILES IDX 6 1 7 2 8 3 9 4 10 5 11 6 5 7 4 8 3 9 2 10 1 11
REMARK H PARENT
REMARK Flexibility Score: inf
ROOT
ATOM      1  C   UNL     1      17.295   8.897 -20.425  1.00  0.00     0.000 C 
ENDROOT
BRANCH   1   2
ATOM      2  C   UNL     1      18.099  10.195 -20.223  1.00  0.00     0.006 C 
BRANCH   2   3
ATOM      3  C   UNL     1      17.472  11.403 -20.929  1.00  0.00     0.053 C 
BRANCH   3   4
ATOM      4  C   UNL     1      17.741  12.656 -20.156  1.00  0.00     0.041 C 
ATOM      5  O   UNL     1      18.912  12.931 -19.783  1.00  0.00    -0.550 OA
ATOM      6  O   UNL     1      16.692  13.495 -19.806  1.00  0.00    -0.550 OA
ENDBRANCH   3   4
ENDBRANCH   2   3
ENDBRANCH   1   2
BRANCH   1   7
ATOM      7  C   UNL     1      16.326   8.913 -21.622  1.00  0.00     0.000 C 
BRANCH   7   8
ATOM      8  C   UNL     1      15.595   7.577 -21.819  1.00  0.00    -0.000 C 
BRANCH   8   9
ATOM      9  C   UNL     1      15.107   7.016 -20.478  1.00  0.00    -0.000 C 
BRANCH   9  10
ATOM     10  C   UNL     1      13.587   7.168 -20.337  1.00  0.00    -0.003 C 
ATOM     11  C   UNL     1      13.190   7.402 -18.883  1.00  0.00     0.004 C 
ENDBRANCH   9  10
ENDBRANCH   8   9
ENDBRANCH   7   8
ENDBRANCH   1   7
TORSDOF 7
ENDMDL
MODEL 2
REMARK VINA RESULT:    -5.336      2.481      2.745
REMARK INTER + INTRA:          -7.845
REMARK INTER:                  -7.299
REMARK INTRA:                  -0.546
REMARK UNBOUND:                -0.325
REMARK SMILES CCCCCCCCC(=O)[O-]
REMARK SMILES IDX 6 1 7 2 8 3 9 4 10 5 11 6 5 7 4 8 3 9 2 10 1 11
REMARK H PARENT
REMARK Flexibility Score: inf
ROOT
ATOM      1  C   UNL     1      16.342   9.536 -21.620  1.00  0.00     0.000 C 
ENDROOT
BRANCH   1   2
ATOM      2  C   UNL     1      17.506   8.909 -20.832  1.00  0.00     0.006 C 
BRANCH   2   3
ATOM      3  C   UNL     1      17.357   9.072 -19.314  1.00  0.00     0.053 C 
BRANCH   3   4
ATOM      4  C   UNL     1      18.688   8.943 -18.643  1.00  0.00     0.041 C 
ATOM      5  O   UNL     1      19.749   9.092 -19.305  1.00  0.00    -0.550 OA
ATOM      6  O   UNL     1      18.758   8.611 -17.297  1.00  0.00    -0.550 OA
ENDBRANCH   3   4
ENDBRANCH   2   3
ENDBRANCH   1   2
BRANCH   1   7
ATOM      7  C   UNL     1      15.201   8.565 -21.978  1.00  0.00     0.000 C 
BRANCH   7   8
ATOM      8  C   UNL     1      15.568   7.094 -21.733  1.00  0.00    -0.000 C 
BRANCH   8   9
ATOM      9  C   UNL     1      14.529   6.410 -20.837  1.00  0.00    -0.000 C 
BRANCH   9  10
ATOM     10  C   UNL     1      13.436   7.397 -20.408  1.00  0.00    -0.003 C 
ATOM     11  C   UNL     1      13.268   7.410 -18.892  1.00  0.00     0.004 C 
ENDBRANCH   9  10
ENDBRANCH   8   9
ENDBRANCH   7   8
ENDBRANCH   1   7
TORSDOF 7
ENDMDL
MODEL 3
REMARK VINA RESULT:    -5.232      0.958      1.421
REMARK INTER + INTRA:          -7.699
REMARK INTER:                  -7.219
REMARK INTRA:                  -0.480
REMARK UNBOUND:                -0.325
REMARK SMILES CCCCCCCCC(=O)[O-]
REMARK SMILES IDX 6 1 7 2 8 3 9 4 10 5 11 6 5 7 4 8 3 9 2 10 1 11
REMARK H PARENT
REMARK Flexibility Score: inf
ROOT
ATOM      1  C   UNL     1      16.323   9.594 -21.814  1.00  0.00     0.000 C 
ENDROOT
BRANCH   1   2
ATOM      2  C   UNL     1      17.296   9.216 -20.682  1.00  0.00     0.006 C 
BRANCH   2   3
ATOM      3  C   UNL     1      18.565  10.079 -20.672  1.00  0.00     0.053 C 
BRANCH   3   4
ATOM      4  C   UNL     1      18.209  11.527 -20.547  1.00  0.00     0.041 C 
ATOM      5  O   UNL     1      17.647  11.954 -19.503  1.00  0.00    -0.550 OA
ATOM      6  O   UNL     1      18.454  12.396 -21.602  1.00  0.00    -0.550 OA
ENDBRANCH   3   4
ENDBRANCH   2   3
ENDBRANCH   1   2
BRANCH   1   7
ATOM      7  C   UNL     1      15.197   8.575 -22.071  1.00  0.00     0.000 C 
BRANCH   7   8
ATOM      8  C   UNL     1      15.620   7.129 -21.775  1.00  0.00    -0.000 C 
BRANCH   8   9
ATOM      9  C   UNL     1      14.782   6.534 -20.637  1.00  0.00    -0.000 C 
BRANCH   9  10
ATOM     10  C   UNL     1      13.536   7.387 -20.366  1.00  0.00    -0.003 C 
ATOM     11  C   UNL     1      13.153   7.348 -18.890  1.00  0.00     0.004 C 
ENDBRANCH   9  10
ENDBRANCH   8   9
ENDBRANCH   7   8
ENDBRANCH   1   7
TORSDOF 7
ENDMDL
MODEL 4
REMARK VINA RESULT:    -5.061      1.047      1.935
REMARK INTER + INTRA:          -7.458
REMARK INTER:                  -7.000
REMARK INTRA:                  -0.458
REMARK UNBOUND:                -0.325
REMARK SMILES CCCCCCCCC(=O)[O-]
REMARK SMILES IDX 6 1 7 2 8 3 9 4 10 5 11 6 5 7 4 8 3 9 2 10 1 11
REMARK H PARENT
REMARK Flexibility Score: inf
ROOT
ATOM      1  C   UNL     1      18.633   9.330 -20.454  1.00  0.00     0.000 C 
ENDROOT
BRANCH   1   2
ATOM      2  C   UNL     1      18.966  10.805 -20.742  1.00  0.00     0.006 C 
BRANCH   2   3
ATOM      3  C   UNL     1      17.716  11.684 -20.883  1.00  0.00     0.053 C 
BRANCH   3   4
ATOM      4  C   UNL     1      17.836  12.902 -20.023  1.00  0.00     0.041 C 
ATOM      5  O   UNL     1      16.809  13.557 -19.705  1.00  0.00    -0.550 OA
ATOM      6  O   UNL     1      19.088  13.342 -19.612  1.00  0.00    -0.550 OA
ENDBRANCH   3   4
ENDBRANCH   2   3
ENDBRANCH   1   2
BRANCH   1   7
ATOM      7  C   UNL     1      17.633   9.101 -19.306  1.00  0.00     0.000 C 
BRANCH   7   8
ATOM      8  C   UNL     1      16.397   8.298 -19.739  1.00  0.00    -0.000 C 
BRANCH   8   9
ATOM      9  C   UNL     1      16.267   8.272 -21.266  1.00  0.00    -0.000 C 
BRANCH   9  10
ATOM     10  C   UNL     1      15.307   7.164 -21.718  1.00  0.00    -0.003 C 
ATOM     11  C   UNL     1      14.710   6.430 -20.521  1.00  0.00     0.004 C 
ENDBRANCH   9  10
ENDBRANCH   8   9
ENDBRANCH   7   8
ENDBRANCH   1   7
TORSDOF 7
ENDMDL
MODEL 5
REMARK VINA RESULT:    -4.647      3.252      5.706
REMARK INTER + INTRA:          -6.874
REMARK INTER:                  -6.470
REMARK INTRA:                  -0.403
REMARK UNBOUND:                -0.325
REMARK SMILES CCCCCCCCC(=O)[O-]
REMARK SMILES IDX 6 1 7 2 8 3 9 4 10 5 11 6 5 7 4 8 3 9 2 10 1 11
REMARK H PARENT
REMARK Flexibility Score: inf
ROOT
ATOM      1  C   UNL     1      16.376   8.635 -21.314  1.00  0.00     0.000 C 
ENDROOT
BRANCH   1   2
ATOM      2  C   UNL     1      15.479   7.446 -21.704  1.00  0.00     0.006 C 
BRANCH   2   3
ATOM      3  C   UNL     1      14.971   6.657 -20.490  1.00  0.00     0.053 C 
BRANCH   3   4
ATOM      4  C   UNL     1      13.677   7.229 -20.002  1.00  0.00     0.041 C 
ATOM      5  O   UNL     1      12.927   7.863 -20.789  1.00  0.00    -0.550 OA
ATOM      6  O   UNL     1      13.322   7.103 -18.665  1.00  0.00    -0.550 OA
ENDBRANCH   3   4
ENDBRANCH   2   3
ENDBRANCH   1   2
BRANCH   1   7
ATOM      7  C   UNL     1      17.029   8.528 -19.923  1.00  0.00     0.000 C 
BRANCH   7   8
ATOM      8  C   UNL     1      18.172   9.533 -19.719  1.00  0.00    -0.000 C 
BRANCH   8   9
ATOM      9  C   UNL     1      17.805  10.906 -20.295  1.00  0.00    -0.000 C 
BRANCH   9  10
ATOM     10  C   UNL     1      18.949  11.469 -21.148  1.00  0.00    -0.003 C 
ATOM     11  C   UNL     1      18.528  11.613 -22.607  1.00  0.00     0.004 C 
ENDBRANCH   9  10
ENDBRANCH   8   9
ENDBRANCH   7   8
ENDBRANCH   1   7
TORSDOF 7
ENDMDL
MODEL 6
REMARK VINA RESULT:    -4.592      3.204      5.434
REMARK INTER + INTRA:          -6.796
REMARK INTER:                  -6.411
REMARK INTRA:                  -0.386
REMARK UNBOUND:                -0.325
REMARK SMILES CCCCCCCCC(=O)[O-]
REMARK SMILES IDX 6 1 7 2 8 3 9 4 10 5 11 6 5 7 4 8 3 9 2 10 1 11
REMARK H PARENT
REMARK Flexibility Score: inf
ROOT
ATOM      1  C   UNL     1      15.598   7.440 -21.722  1.00  0.00     0.000 C 
ENDROOT
BRANCH   1   2
ATOM      2  C   UNL     1      14.882   6.699 -20.577  1.00  0.00     0.006 C 
BRANCH   2   3
ATOM      3  C   UNL     1      13.357   6.866 -20.619  1.00  0.00     0.053 C 
BRANCH   3   4
ATOM      4  C   UNL     1      12.890   7.675 -19.451  1.00  0.00     0.041 C 
ATOM      5  O   UNL     1      13.326   7.431 -18.295  1.00  0.00    -0.550 OA
ATOM      6  O   UNL     1      11.935   8.667 -19.630  1.00  0.00    -0.550 OA
ENDBRANCH   3   4
ENDBRANCH   2   3
ENDBRANCH   1   2
BRANCH   1   7
ATOM      7  C   UNL     1      16.433   8.658 -21.286  1.00  0.00     0.000 C 
BRANCH   7   8
ATOM      8  C   UNL     1      17.007   8.515 -19.869  1.00  0.00    -0.000 C 
BRANCH   8   9
ATOM      9  C   UNL     1      17.826   9.751 -19.480  1.00  0.00    -0.000 C 
BRANCH   9  10
ATOM     10  C   UNL     1      18.046  10.669 -20.689  1.00  0.00    -0.003 C 
ATOM     11  C   UNL     1      17.657  12.108 -20.367  1.00  0.00     0.004 C 
ENDBRANCH   9  10
ENDBRANCH   8   9
ENDBRANCH   7   8
ENDBRANCH   1   7
TORSDOF 7
ENDMDL
MODEL 7
REMARK VINA RESULT:    -4.456      2.228      2.491
REMARK INTER + INTRA:          -6.605
REMARK INTER:                  -6.233
REMARK INTRA:                  -0.372
REMARK UNBOUND:                -0.325
REMARK SMILES CCCCCCCCC(=O)[O-]
REMARK SMILES IDX 6 1 7 2 8 3 9 4 10 5 11 6 5 7 4 8 3 9 2 10 1 11
REMARK H PARENT
REMARK Flexibility Score: inf
ROOT
ATOM      1  C   UNL     1      17.921   9.790 -20.143  1.00  0.00     0.000 C 
ENDROOT
BRANCH   1   2
ATOM      2  C   UNL     1      17.601  10.944 -21.111  1.00  0.00     0.006 C 
BRANCH   2   3
ATOM      3  C   UNL     1      18.843  11.481 -21.832  1.00  0.00     0.053 C 
BRANCH   3   4
ATOM      4  C   UNL     1      18.629  11.473 -23.313  1.00  0.00     0.041 C 
ATOM      5  O   UNL     1      19.491  11.976 -24.081  1.00  0.00    -0.550 OA
ATOM      6  O   UNL     1      17.455  10.954 -23.843  1.00  0.00    -0.550 OA
ENDBRANCH   3   4
ENDBRANCH   2   3
ENDBRANCH   1   2
BRANCH   1   7
ATOM      7  C   UNL     1      16.873   8.661 -20.108  1.00  0.00     0.000 C 
BRANCH   7   8
ATOM      8  C   UNL     1      16.406   8.234 -21.507  1.00  0.00    -0.000 C 
BRANCH   8   9
ATOM      9  C   UNL     1      14.945   7.772 -21.481  1.00  0.00    -0.000 C 
BRANCH   9  10
ATOM     10  C   UNL     1      14.717   6.726 -20.383  1.00  0.00    -0.003 C 
ATOM     11  C   UNL     1      13.572   7.135 -19.461  1.00  0.00     0.004 C 
ENDBRANCH   9  10
ENDBRANCH   8   9
ENDBRANCH   7   8
ENDBRANCH   1   7
TORSDOF 7
ENDMDL
MODEL 8
REMARK VINA RESULT:    -4.267     16.408     17.605
REMARK INTER + INTRA:          -6.339
REMARK INTER:                  -5.933
REMARK INTRA:                  -0.406
REMARK UNBOUND:                -0.325
REMARK SMILES CCCCCCCCC(=O)[O-]
REMARK SMILES IDX 6 1 7 2 8 3 9 4 10 5 11 6 5 7 4 8 3 9 2 10 1 11
REMARK H PARENT
REMARK Flexibility Score: inf
ROOT
ATOM      1  C   UNL     1       6.879  -1.439 -27.985  1.00  0.00     0.000 C 
ENDROOT
BRANCH   1   2
ATOM      2  C   UNL     1       6.282  -0.929 -29.310  1.00  0.00     0.006 C 
BRANCH   2   3
ATOM      3  C   UNL     1       4.929  -1.569 -29.641  1.00  0.00     0.053 C 
BRANCH   3   4
ATOM      4  C   UNL     1       3.911  -1.199 -28.609  1.00  0.00     0.041 C 
ATOM      5  O   UNL     1       3.770   0.002 -28.259  1.00  0.00    -0.550 OA
ATOM      6  O   UNL     1       3.151  -2.188 -27.997  1.00  0.00    -0.550 OA
ENDBRANCH   3   4
ENDBRANCH   2   3
ENDBRANCH   1   2
BRANCH   1   7
ATOM      7  C   UNL     1       7.290  -2.923 -27.986  1.00  0.00     0.000 C 
BRANCH   7   8
ATOM      8  C   UNL     1       8.786  -3.131 -27.708  1.00  0.00    -0.000 C 
BRANCH   8   9
ATOM      9  C   UNL     1       9.091  -2.994 -26.212  1.00  0.00    -0.000 C 
BRANCH   9  10
ATOM     10  C   UNL     1       8.102  -3.811 -25.371  1.00  0.00    -0.003 C 
ATOM     11  C   UNL     1       7.736  -3.078 -24.084  1.00  0.00     0.004 C 
ENDBRANCH   9  10
ENDBRANCH   8   9
ENDBRANCH   7   8
ENDBRANCH   1   7
TORSDOF 7
ENDMDL
MODEL 9
REMARK VINA RESULT:    -4.223     16.751     18.447
REMARK INTER + INTRA:          -6.276
REMARK INTER:                  -5.814
REMARK INTRA:                  -0.462
REMARK UNBOUND:                -0.325
REMARK SMILES CCCCCCCCC(=O)[O-]
REMARK SMILES IDX 6 1 7 2 8 3 9 4 10 5 11 6 5 7 4 8 3 9 2 10 1 11
REMARK H PARENT
REMARK Flexibility Score: inf
ROOT
ATOM      1  C   UNL     1       5.821  -0.308 -28.459  1.00  0.00     0.000 C 
ENDROOT
BRANCH   1   2
ATOM      2  C   UNL     1       4.302  -0.531 -28.335  1.00  0.00     0.006 C 
BRANCH   2   3
ATOM      3  C   UNL     1       3.819  -1.781 -29.081  1.00  0.00     0.053 C 
BRANCH   3   4
ATOM      4  C   UNL     1       2.678  -1.439 -29.986  1.00  0.00     0.041 C 
ATOM      5  O   UNL     1       2.893  -1.126 -31.187  1.00  0.00    -0.550 OA
ATOM      6  O   UNL     1       1.381  -1.420 -29.492  1.00  0.00    -0.550 OA
ENDBRANCH   3   4
ENDBRANCH   2   3
ENDBRANCH   1   2
BRANCH   1   7
ATOM      7  C   UNL     1       6.606  -1.493 -29.052  1.00  0.00     0.000 C 
BRANCH   7   8
ATOM      8  C   UNL     1       7.545  -2.158 -28.035  1.00  0.00    -0.000 C 
BRANCH   8   9
ATOM      9  C   UNL     1       6.754  -2.996 -27.023  1.00  0.00    -0.000 C 
BRANCH   9  10
ATOM     10  C   UNL     1       7.579  -3.251 -25.755  1.00  0.00    -0.003 C 
ATOM     11  C   UNL     1       8.908  -2.504 -25.803  1.00  0.00     0.004 C 
ENDBRANCH   9  10
ENDBRANCH   8   9
ENDBRANCH   7   8
ENDBRANCH   1   7
TORSDOF 7
ENDMDL
