MODEL 1
REMARK VINA RESULT:    -4.733      0.000      0.000
REMARK INTER + INTRA:          -7.313
REMARK INTER:                  -6.670
REMARK INTRA:                  -0.643
REMARK UNBOUND:                -0.643
REMARK SMILES CCCCCCCCC(=O)[O-]
REMARK SMILES IDX 6 1 7 2 8 3 9 4 10 5 11 6 5 7 4 8 3 9 2 10 1 11
REMARK H PARENT
REMARK Flexibility Score: inf
ROOT
ATOM      1  C   UNL     1     104.128 311.370 193.280  1.00  0.00     0.000 C 
ENDROOT
BRANCH   1   2
ATOM      2  C   UNL     1     103.551 311.735 194.661  1.00  0.00     0.006 C 
BRANCH   2   3
ATOM      3  C   UNL     1     104.607 312.116 195.711  1.00  0.00     0.053 C 
BRANCH   3   4
ATOM      4  C   UNL     1     104.055 312.082 197.103  1.00  0.00     0.041 C 
ATOM      5  O   UNL     1     103.644 310.998 197.595  1.00  0.00    -0.550 OA
ATOM      6  O   UNL     1     104.025 313.241 197.869  1.00  0.00    -0.550 OA
ENDBRANCH   3   4
ENDBRANCH   2   3
ENDBRANCH   1   2
BRANCH   1   7
ATOM      7  C   UNL     1     105.555 311.907 193.072  1.00  0.00     0.000 C 
BRANCH   7   8
ATOM      8  C   UNL     1     105.602 313.101 192.105  1.00  0.00    -0.000 C 
BRANCH   8   9
ATOM      9  C   UNL     1     104.241 313.391 191.454  1.00  0.00    -0.000 C 
BRANCH   9  10
ATOM     10  C   UNL     1     103.819 314.846 191.694  1.00  0.00    -0.003 C 
ATOM     11  C   UNL     1     103.615 315.124 193.180  1.00  0.00     0.004 C 
ENDBRANCH   9  10
ENDBRANCH   8   9
ENDBRANCH   7   8
ENDBRANCH   1   7
TORSDOF 7
ENDMDL
MODEL 2
REMARK VINA RESULT:    -4.654      2.825      4.728
REMARK INTER + INTRA:          -7.201
REMARK INTER:                  -6.632
REMARK INTRA:                  -0.569
REMARK UNBOUND:                -0.643
REMARK SMILES CCCCCCCCC(=O)[O-]
REMARK SMILES IDX 6 1 7 2 8 3 9 4 10 5 11 6 5 7 4 8 3 9 2 10 1 11
REMARK H PARENT
REMARK Flexibility Score: inf
ROOT
ATOM      1  C   UNL     1     104.049 311.895 192.922  1.00  0.00     0.000 C 
ENDROOT
BRANCH   1   2
ATOM      2  C   UNL     1     104.117 312.933 191.786  1.00  0.00     0.006 C 
BRANCH   2   3
ATOM      3  C   UNL     1     103.904 314.386 192.239  1.00  0.00     0.053 C 
BRANCH   3   4
ATOM      4  C   UNL     1     105.196 315.136 192.350  1.00  0.00     0.041 C 
ATOM      5  O   UNL     1     105.801 315.194 193.453  1.00  0.00    -0.550 OA
ATOM      6  O   UNL     1     105.748 315.743 191.229  1.00  0.00    -0.550 OA
ENDBRANCH   3   4
ENDBRANCH   2   3
ENDBRANCH   1   2
BRANCH   1   7
ATOM      7  C   UNL     1     105.436 311.361 193.323  1.00  0.00     0.000 C 
BRANCH   7   8
ATOM      8  C   UNL     1     105.846 311.790 194.741  1.00  0.00    -0.000 C 
BRANCH   8   9
ATOM      9  C   UNL     1     104.698 312.453 195.516  1.00  0.00    -0.000 C 
BRANCH   9  10
ATOM     10  C   UNL     1     104.290 311.601 196.725  1.00  0.00    -0.003 C 
ATOM     11  C   UNL     1     103.801 312.476 197.876  1.00  0.00     0.004 C 
ENDBRANCH   9  10
ENDBRANCH   8   9
ENDBRANCH   7   8
ENDBRANCH   1   7
TORSDOF 7
ENDMDL
MODEL 3
REMARK VINA RESULT:    -4.644      1.233      1.977
REMARK INTER + INTRA:          -7.188
REMARK INTER:                  -6.795
REMARK INTRA:                  -0.393
REMARK UNBOUND:                -0.643
REMARK SMILES CCCCCCCCC(=O)[O-]
REMARK SMILES IDX 6 1 7 2 8 3 9 4 10 5 11 6 5 7 4 8 3 9 2 10 1 11
REMARK H PARENT
REMARK Flexibility Score: inf
ROOT
ATOM      1  C   UNL     1     105.688 311.826 194.942  1.00  0.00     0.000 C 
ENDROOT
BRANCH   1   2
ATOM      2  C   UNL     1     104.348 312.224 195.589  1.00  0.00     0.006 C 
BRANCH   2   3
ATOM      3  C   UNL     1     103.986 311.419 196.848  1.00  0.00     0.053 C 
BRANCH   3   4
ATOM      4  C   UNL     1     103.788 312.301 198.042  1.00  0.00     0.041 C 
ATOM      5  O   UNL     1     104.071 313.527 197.979  1.00  0.00    -0.550 OA
ATOM      6  O   UNL     1     103.259 311.777 199.215  1.00  0.00    -0.550 OA
ENDBRANCH   3   4
ENDBRANCH   2   3
ENDBRANCH   1   2
BRANCH   1   7
ATOM      7  C   UNL     1     105.549 311.491 193.446  1.00  0.00     0.000 C 
BRANCH   7   8
ATOM      8  C   UNL     1     104.161 311.846 192.888  1.00  0.00    -0.000 C 
BRANCH   8   9
ATOM      9  C   UNL     1     104.192 313.060 191.947  1.00  0.00    -0.000 C 
BRANCH   9  10
ATOM     10  C   UNL     1     105.626 313.575 191.766  1.00  0.00    -0.003 C 
ATOM     11  C   UNL     1     105.724 314.525 190.576  1.00  0.00     0.004 C 
ENDBRANCH   9  10
ENDBRANCH   8   9
ENDBRANCH   7   8
ENDBRANCH   1   7
TORSDOF 7
ENDMDL
MODEL 4
REMARK VINA RESULT:    -4.644     19.905     20.767
REMARK INTER + INTRA:          -7.187
REMARK INTER:                  -6.838
REMARK INTRA:                  -0.349
REMARK UNBOUND:                -0.643
REMARK SMILES CCCCCCCCC(=O)[O-]
REMARK SMILES IDX 6 1 7 2 8 3 9 4 10 5 11 6 5 7 4 8 3 9 2 10 1 11
REMARK H PARENT
REMARK Flexibility Score: inf
ROOT
ATOM      1  C   UNL     1      88.903 326.492 195.381  1.00  0.00     0.000 C 
ENDROOT
BRANCH   1   2
ATOM      2  C   UNL     1      87.995 326.078 196.555  1.00  0.00     0.006 C 
BRANCH   2   3
ATOM      3  C   UNL     1      88.519 326.490 197.940  1.00  0.00     0.053 C 
BRANCH   3   4
ATOM      4  C   UNL     1      88.893 325.305 198.775  1.00  0.00     0.041 C 
ATOM      5  O   UNL     1      89.393 325.470 199.920  1.00  0.00    -0.550 OA
ATOM      6  O   UNL     1      88.659 324.019 198.305  1.00  0.00    -0.550 OA
ENDBRANCH   3   4
ENDBRANCH   2   3
ENDBRANCH   1   2
BRANCH   1   7
ATOM      7  C   UNL     1      88.114 326.783 194.093  1.00  0.00     0.000 C 
BRANCH   7   8
ATOM      8  C   UNL     1      86.719 326.136 194.096  1.00  0.00    -0.000 C 
BRANCH   8   9
ATOM      9  C   UNL     1      86.625 324.924 193.158  1.00  0.00    -0.000 C 
BRANCH   9  10
ATOM     10  C   UNL     1      87.992 324.600 192.543  1.00  0.00    -0.003 C 
ATOM     11  C   UNL     1      87.839 323.891 191.200  1.00  0.00     0.004 C 
ENDBRANCH   9  10
ENDBRANCH   8   9
ENDBRANCH   7   8
ENDBRANCH   1   7
TORSDOF 7
ENDMDL
MODEL 5
REMARK VINA RESULT:    -4.637     19.526     20.792
REMARK INTER + INTRA:          -7.178
REMARK INTER:                  -6.877
REMARK INTRA:                  -0.301
REMARK UNBOUND:                -0.643
REMARK SMILES CCCCCCCCC(=O)[O-]
REMARK SMILES IDX 6 1 7 2 8 3 9 4 10 5 11 6 5 7 4 8 3 9 2 10 1 11
REMARK H PARENT
REMARK Flexibility Score: inf
ROOT
ATOM      1  C   UNL     1      88.068 326.007 193.525  1.00  0.00     0.000 C 
ENDROOT
BRANCH   1   2
ATOM      2  C   UNL     1      87.132 326.872 194.390  1.00  0.00     0.006 C 
BRANCH   2   3
ATOM      3  C   UNL     1      86.573 326.158 195.631  1.00  0.00     0.053 C 
BRANCH   3   4
ATOM      4  C   UNL     1      87.660 325.693 196.550  1.00  0.00     0.041 C 
ATOM      5  O   UNL     1      88.221 326.507 197.330  1.00  0.00    -0.550 OA
ATOM      6  O   UNL     1      88.029 324.354 196.569  1.00  0.00    -0.550 OA
ENDBRANCH   3   4
ENDBRANCH   2   3
ENDBRANCH   1   2
BRANCH   1   7
ATOM      7  C   UNL     1      87.353 324.792 192.908  1.00  0.00     0.000 C 
BRANCH   7   8
ATOM      8  C   UNL     1      87.977 324.355 191.573  1.00  0.00    -0.000 C 
BRANCH   8   9
ATOM      9  C   UNL     1      87.224 323.185 190.921  1.00  0.00    -0.000 C 
BRANCH   9  10
ATOM     10  C   UNL     1      87.801 322.868 189.536  1.00  0.00    -0.003 C 
ATOM     11  C   UNL     1      89.039 323.711 189.247  1.00  0.00     0.004 C 
ENDBRANCH   9  10
ENDBRANCH   8   9
ENDBRANCH   7   8
ENDBRANCH   1   7
TORSDOF 7
ENDMDL
MODEL 6
REMARK VINA RESULT:    -4.599     19.634     20.912
REMARK INTER + INTRA:          -7.125
REMARK INTER:                  -6.908
REMARK INTRA:                  -0.217
REMARK UNBOUND:                -0.643
REMARK SMILES CCCCCCCCC(=O)[O-]
REMARK SMILES IDX 6 1 7 2 8 3 9 4 10 5 11 6 5 7 4 8 3 9 2 10 1 11
REMARK H PARENT
REMARK Flexibility Score: inf
ROOT
ATOM      1  C   UNL     1      88.107 324.598 192.912  1.00  0.00     0.000 C 
ENDROOT
BRANCH   1   2
ATOM      2  C   UNL     1      87.386 324.017 191.682  1.00  0.00     0.006 C 
BRANCH   2   3
ATOM      3  C   UNL     1      88.161 322.905 190.957  1.00  0.00     0.053 C 
BRANCH   3   4
ATOM      4  C   UNL     1      88.250 323.151 189.482  1.00  0.00     0.041 C 
ATOM      5  O   UNL     1      89.173 323.870 189.016  1.00  0.00    -0.550 OA
ATOM      6  O   UNL     1      87.336 322.558 188.620  1.00  0.00    -0.550 OA
ENDBRANCH   3   4
ENDBRANCH   2   3
ENDBRANCH   1   2
BRANCH   1   7
ATOM      7  C   UNL     1      87.286 325.688 193.623  1.00  0.00     0.000 C 
BRANCH   7   8
ATOM      8  C   UNL     1      88.165 326.813 194.194  1.00  0.00    -0.000 C 
BRANCH   8   9
ATOM      9  C   UNL     1      88.915 326.392 195.467  1.00  0.00    -0.000 C 
BRANCH   9  10
ATOM     10  C   UNL     1      87.931 325.999 196.576  1.00  0.00    -0.003 C 
ATOM     11  C   UNL     1      88.491 326.335 197.955  1.00  0.00     0.004 C 
ENDBRANCH   9  10
ENDBRANCH   8   9
ENDBRANCH   7   8
ENDBRANCH   1   7
TORSDOF 7
ENDMDL
MODEL 7
REMARK VINA RESULT:    -4.598      4.535      6.182
REMARK INTER + INTRA:          -7.123
REMARK INTER:                  -6.780
REMARK INTRA:                  -0.343
REMARK UNBOUND:                -0.643
REMARK SMILES CCCCCCCCC(=O)[O-]
REMARK SMILES IDX 6 1 7 2 8 3 9 4 10 5 11 6 5 7 4 8 3 9 2 10 1 11
REMARK H PARENT
REMARK Flexibility Score: inf
ROOT
ATOM      1  C   UNL     1     104.303 313.714 192.089  1.00  0.00     0.000 C 
ENDROOT
BRANCH   1   2
ATOM      2  C   UNL     1     103.922 313.693 190.597  1.00  0.00     0.006 C 
BRANCH   2   3
ATOM      3  C   UNL     1     104.300 314.968 189.826  1.00  0.00     0.053 C 
BRANCH   3   4
ATOM      4  C   UNL     1     103.635 315.035 188.486  1.00  0.00     0.041 C 
ATOM      5  O   UNL     1     102.614 314.336 188.251  1.00  0.00    -0.550 OA
ATOM      6  O   UNL     1     104.123 315.892 187.508  1.00  0.00    -0.550 OA
ENDBRANCH   3   4
ENDBRANCH   2   3
ENDBRANCH   1   2
BRANCH   1   7
ATOM      7  C   UNL     1     105.591 312.924 192.384  1.00  0.00     0.000 C 
BRANCH   7   8
ATOM      8  C   UNL     1     105.354 311.746 193.343  1.00  0.00    -0.000 C 
BRANCH   8   9
ATOM      9  C   UNL     1     103.863 311.440 193.550  1.00  0.00    -0.000 C 
BRANCH   9  10
ATOM     10  C   UNL     1     103.439 311.735 194.994  1.00  0.00    -0.003 C 
ATOM     11  C   UNL     1     104.653 311.875 195.907  1.00  0.00     0.004 C 
ENDBRANCH   9  10
ENDBRANCH   8   9
ENDBRANCH   7   8
ENDBRANCH   1   7
TORSDOF 7
ENDMDL
MODEL 8
REMARK VINA RESULT:    -4.577     19.632     20.877
REMARK INTER + INTRA:          -7.093
REMARK INTER:                  -6.802
REMARK INTRA:                  -0.291
REMARK UNBOUND:                -0.643
REMARK SMILES CCCCCCCCC(=O)[O-]
REMARK SMILES IDX 6 1 7 2 8 3 9 4 10 5 11 6 5 7 4 8 3 9 2 10 1 11
REMARK H PARENT
REMARK Flexibility Score: inf
ROOT
ATOM      1  C   UNL     1      88.085 324.543 192.062  1.00  0.00     0.000 C 
ENDROOT
BRANCH   1   2
ATOM      2  C   UNL     1      87.627 323.467 191.058  1.00  0.00     0.006 C 
BRANCH   2   3
ATOM      3  C   UNL     1      88.375 323.492 189.716  1.00  0.00     0.053 C 
BRANCH   3   4
ATOM      4  C   UNL     1      87.962 322.364 188.821  1.00  0.00     0.041 C 
ATOM      5  O   UNL     1      86.752 322.220 188.501  1.00  0.00    -0.550 OA
ATOM      6  O   UNL     1      88.917 321.493 188.312  1.00  0.00    -0.550 OA
ENDBRANCH   3   4
ENDBRANCH   2   3
ENDBRANCH   1   2
BRANCH   1   7
ATOM      7  C   UNL     1      88.205 324.002 193.498  1.00  0.00     0.000 C 
BRANCH   7   8
ATOM      8  C   UNL     1      88.413 325.119 194.534  1.00  0.00    -0.000 C 
BRANCH   8   9
ATOM      9  C   UNL     1      88.109 326.515 193.969  1.00  0.00    -0.000 C 
BRANCH   9  10
ATOM     10  C   UNL     1      86.687 326.957 194.339  1.00  0.00    -0.003 C 
ATOM     11  C   UNL     1      86.289 326.438 195.717  1.00  0.00     0.004 C 
ENDBRANCH   9  10
ENDBRANCH   8   9
ENDBRANCH   7   8
ENDBRANCH   1   7
TORSDOF 7
ENDMDL
MODEL 9
REMARK VINA RESULT:    -4.528      3.684      5.429
REMARK INTER + INTRA:          -7.024
REMARK INTER:                  -6.563
REMARK INTRA:                  -0.461
REMARK UNBOUND:                -0.643
REMARK SMILES CCCCCCCCC(=O)[O-]
REMARK SMILES IDX 6 1 7 2 8 3 9 4 10 5 11 6 5 7 4 8 3 9 2 10 1 11
REMARK H PARENT
REMARK Flexibility Score: inf
ROOT
ATOM      1  C   UNL     1     105.374 311.782 193.111  1.00  0.00     0.000 C 
ENDROOT
BRANCH   1   2
ATOM      2  C   UNL     1     105.561 312.975 192.154  1.00  0.00     0.006 C 
BRANCH   2   3
ATOM      3  C   UNL     1     104.255 313.520 191.555  1.00  0.00     0.053 C 
BRANCH   3   4
ATOM      4  C   UNL     1     104.498 314.331 190.319  1.00  0.00     0.041 C 
ATOM      5  O   UNL     1     105.587 314.946 190.169  1.00  0.00    -0.550 OA
ATOM      6  O   UNL     1     103.536 314.379 189.318  1.00  0.00    -0.550 OA
ENDBRANCH   3   4
ENDBRANCH   2   3
ENDBRANCH   1   2
BRANCH   1   7
ATOM      7  C   UNL     1     103.893 311.459 193.376  1.00  0.00     0.000 C 
BRANCH   7   8
ATOM      8  C   UNL     1     103.512 311.607 194.858  1.00  0.00    -0.000 C 
BRANCH   8   9
ATOM      9  C   UNL     1     103.478 313.073 195.318  1.00  0.00    -0.000 C 
BRANCH   9  10
ATOM     10  C   UNL     1     103.895 313.194 196.789  1.00  0.00    -0.003 C 
ATOM     11  C   UNL     1     103.961 311.825 197.459  1.00  0.00     0.004 C 
ENDBRANCH   9  10
ENDBRANCH   8   9
ENDBRANCH   7   8
ENDBRANCH   1   7
TORSDOF 7
ENDMDL
