MODEL 1
REMARK VINA RESULT:    -3.736      0.000      0.000
REMARK INTER + INTRA:          -6.403
REMARK INTER:                  -5.702
REMARK INTRA:                  -0.702
REMARK UNBOUND:                -0.702
REMARK SMILES CCCCCCCCCCC(=O)[O-]
REMARK SMILES IDX 7 1 8 2 9 3 10 4 11 5 12 6 13 7 6 8 5 9 4 10 3 11 2 12 1 13
REMARK H PARENT
REMARK Flexibility Score: inf
ROOT
ATOM      1  C   UNL     1      35.058  44.855  20.646  1.00  0.00     0.000 C 
ENDROOT
BRANCH   1   2
ATOM      2  C   UNL     1      33.995  44.614  21.730  1.00  0.00     0.000 C 
BRANCH   2   3
ATOM      3  C   UNL     1      32.735  45.472  21.523  1.00  0.00     0.006 C 
BRANCH   3   4
ATOM      4  C   UNL     1      31.559  44.991  22.384  1.00  0.00     0.053 C 
BRANCH   4   5
ATOM      5  C   UNL     1      31.768  43.594  22.884  1.00  0.00     0.041 C 
ATOM      6  O   UNL     1      31.521  42.611  22.138  1.00  0.00    -0.550 OA
ATOM      7  O   UNL     1      32.206  43.378  24.184  1.00  0.00    -0.550 OA
ENDBRANCH   4   5
ENDBRANCH   3   4
ENDBRANCH   2   3
ENDBRANCH   1   2
BRANCH   1   8
ATOM      8  C   UNL     1      36.408  45.301  21.227  1.00  0.00     0.000 C 
BRANCH   8   9
ATOM      9  C   UNL     1      36.334  46.744  21.741  1.00  0.00    -0.000 C 
BRANCH   9  10
ATOM     10  C   UNL     1      36.824  46.840  23.190  1.00  0.00    -0.000 C 
BRANCH  10  11
ATOM     11  C   UNL     1      37.095  45.447  23.772  1.00  0.00    -0.000 C 
BRANCH  11  12
ATOM     12  C   UNL     1      36.393  45.271  25.125  1.00  0.00    -0.003 C 
ATOM     13  C   UNL     1      35.496  44.037  25.125  1.00  0.00     0.004 C 
ENDBRANCH  11  12
ENDBRANCH  10  11
ENDBRANCH   9  10
ENDBRANCH   8   9
ENDBRANCH   1   8
TORSDOF 9
ENDMDL
MODEL 2
REMARK VINA RESULT:    -3.446     17.123     18.181
REMARK INTER + INTRA:          -5.960
REMARK INTER:                  -5.339
REMARK INTRA:                  -0.622
REMARK UNBOUND:                -0.702
REMARK SMILES CCCCCCCCCCC(=O)[O-]
REMARK SMILES IDX 7 1 8 2 9 3 10 4 11 5 12 6 13 7 6 8 5 9 4 10 3 11 2 12 1 13
REMARK H PARENT
REMARK Flexibility Score: inf
ROOT
ATOM      1  C   UNL     1      36.785  27.784  16.199  1.00  0.00     0.000 C 
ENDROOT
BRANCH   1   2
ATOM      2  C   UNL     1      36.331  27.657  14.736  1.00  0.00     0.000 C 
BRANCH   2   3
ATOM      3  C   UNL     1      34.953  26.986  14.601  1.00  0.00     0.006 C 
BRANCH   3   4
ATOM      4  C   UNL     1      34.404  27.075  13.170  1.00  0.00     0.053 C 
BRANCH   4   5
ATOM      5  C   UNL     1      33.663  28.357  12.936  1.00  0.00     0.041 C 
ATOM      6  O   UNL     1      34.058  29.164  12.055  1.00  0.00    -0.550 OA
ATOM      7  O   UNL     1      32.554  28.672  13.710  1.00  0.00    -0.550 OA
ENDBRANCH   4   5
ENDBRANCH   3   4
ENDBRANCH   2   3
ENDBRANCH   1   2
BRANCH   1   8
ATOM      8  C   UNL     1      36.344  29.106  16.845  1.00  0.00     0.000 C 
BRANCH   8   9
ATOM      9  C   UNL     1      35.162  28.885  17.797  1.00  0.00    -0.000 C 
BRANCH   9  10
ATOM     10  C   UNL     1      35.194  27.475  18.397  1.00  0.00    -0.000 C 
BRANCH  10  11
ATOM     11  C   UNL     1      35.460  27.525  19.906  1.00  0.00    -0.000 C 
BRANCH  11  12
ATOM     12  C   UNL     1      35.354  28.960  20.436  1.00  0.00    -0.003 C 
ATOM     13  C   UNL     1      35.144  28.976  21.947  1.00  0.00     0.004 C 
ENDBRANCH  11  12
ENDBRANCH  10  11
ENDBRANCH   9  10
ENDBRANCH   8   9
ENDBRANCH   1   8
TORSDOF 9
ENDMDL
MODEL 3
REMARK VINA RESULT:    -3.443     17.367     18.409
REMARK INTER + INTRA:          -5.957
REMARK INTER:                  -5.425
REMARK INTRA:                  -0.532
REMARK UNBOUND:                -0.702
REMARK SMILES CCCCCCCCCCC(=O)[O-]
REMARK SMILES IDX 7 1 8 2 9 3 10 4 11 5 12 6 13 7 6 8 5 9 4 10 3 11 2 12 1 13
REMARK H PARENT
REMARK Flexibility Score: inf
ROOT
ATOM      1  C   UNL     1      35.412  27.298  14.745  1.00  0.00     0.000 C 
ENDROOT
BRANCH   1   2
ATOM      2  C   UNL     1      35.476  26.903  13.260  1.00  0.00     0.000 C 
BRANCH   2   3
ATOM      3  C   UNL     1      34.167  27.207  12.511  1.00  0.00     0.006 C 
BRANCH   3   4
ATOM      4  C   UNL     1      34.039  28.694  12.151  1.00  0.00     0.053 C 
BRANCH   4   5
ATOM      5  C   UNL     1      32.979  29.376  12.962  1.00  0.00     0.041 C 
ATOM      6  O   UNL     1      32.733  30.598  12.782  1.00  0.00    -0.550 OA
ATOM      7  O   UNL     1      32.285  28.670  13.936  1.00  0.00    -0.550 OA
ENDBRANCH   4   5
ENDBRANCH   3   4
ENDBRANCH   2   3
ENDBRANCH   1   2
BRANCH   1   8
ATOM      8  C   UNL     1      36.796  27.601  15.338  1.00  0.00     0.000 C 
BRANCH   8   9
ATOM      9  C   UNL     1      36.710  27.806  16.855  1.00  0.00    -0.000 C 
BRANCH   9  10
ATOM     10  C   UNL     1      36.048  29.146  17.194  1.00  0.00    -0.000 C 
BRANCH  10  11
ATOM     11  C   UNL     1      34.848  28.947  18.128  1.00  0.00    -0.000 C 
BRANCH  11  12
ATOM     12  C   UNL     1      34.979  27.640  18.920  1.00  0.00    -0.003 C 
ATOM     13  C   UNL     1      35.547  27.894  20.313  1.00  0.00     0.004 C 
ENDBRANCH  11  12
ENDBRANCH  10  11
ENDBRANCH   9  10
ENDBRANCH   8   9
ENDBRANCH   1   8
TORSDOF 9
ENDMDL
MODEL 4
REMARK VINA RESULT:    -3.423      1.881      4.749
REMARK INTER + INTRA:          -5.926
REMARK INTER:                  -5.275
REMARK INTRA:                  -0.650
REMARK UNBOUND:                -0.702
REMARK SMILES CCCCCCCCCCC(=O)[O-]
REMARK SMILES IDX 7 1 8 2 9 3 10 4 11 5 12 6 13 7 6 8 5 9 4 10 3 11 2 12 1 13
REMARK H PARENT
REMARK Flexibility Score: inf
ROOT
ATOM      1  C   UNL     1      36.134  45.187  21.397  1.00  0.00     0.000 C 
ENDROOT
BRANCH   1   2
ATOM      2  C   UNL     1      36.135  46.429  22.302  1.00  0.00     0.000 C 
BRANCH   2   3
ATOM      3  C   UNL     1      36.435  46.088  23.772  1.00  0.00     0.006 C 
BRANCH   3   4
ATOM      4  C   UNL     1      37.125  44.724  23.920  1.00  0.00     0.053 C 
BRANCH   4   5
ATOM      5  C   UNL     1      36.317  43.777  24.755  1.00  0.00     0.041 C 
ATOM      6  O   UNL     1      36.811  42.679  25.123  1.00  0.00    -0.550 OA
ATOM      7  O   UNL     1      35.010  44.094  25.100  1.00  0.00    -0.550 OA
ENDBRANCH   4   5
ENDBRANCH   3   4
ENDBRANCH   2   3
ENDBRANCH   1   2
BRANCH   1   8
ATOM      8  C   UNL     1      34.745  44.873  20.821  1.00  0.00     0.000 C 
BRANCH   8   9
ATOM      9  C   UNL     1      33.637  45.380  21.752  1.00  0.00    -0.000 C 
BRANCH   9  10
ATOM     10  C   UNL     1      32.662  44.254  22.113  1.00  0.00    -0.000 C 
BRANCH  10  11
ATOM     11  C   UNL     1      31.223  44.777  22.197  1.00  0.00    -0.000 C 
BRANCH  11  12
ATOM     12  C   UNL     1      31.174  46.291  21.959  1.00  0.00    -0.003 C 
ATOM     13  C   UNL     1      29.856  46.884  22.448  1.00  0.00     0.004 C 
ENDBRANCH  11  12
ENDBRANCH  10  11
ENDBRANCH   9  10
ENDBRANCH   8   9
ENDBRANCH   1   8
TORSDOF 9
ENDMDL
MODEL 5
REMARK VINA RESULT:    -3.417     16.750     18.090
REMARK INTER + INTRA:          -5.917
REMARK INTER:                  -5.324
REMARK INTRA:                  -0.593
REMARK UNBOUND:                -0.702
REMARK SMILES CCCCCCCCCCC(=O)[O-]
REMARK SMILES IDX 7 1 8 2 9 3 10 4 11 5 12 6 13 7 6 8 5 9 4 10 3 11 2 12 1 13
REMARK H PARENT
REMARK Flexibility Score: inf
ROOT
ATOM      1  C   UNL     1      35.240  28.691  16.490  1.00  0.00     0.000 C 
ENDROOT
BRANCH   1   2
ATOM      2  C   UNL     1      35.477  29.126  17.945  1.00  0.00     0.000 C 
BRANCH   2   3
ATOM      3  C   UNL     1      34.605  28.345  18.944  1.00  0.00     0.006 C 
BRANCH   3   4
ATOM      4  C   UNL     1      34.355  29.137  20.236  1.00  0.00     0.053 C 
BRANCH   4   5
ATOM      5  C   UNL     1      35.483  28.985  21.211  1.00  0.00     0.041 C 
ATOM      6  O   UNL     1      36.343  29.897  21.330  1.00  0.00    -0.550 OA
ATOM      7  O   UNL     1      35.600  27.825  21.965  1.00  0.00    -0.550 OA
ENDBRANCH   4   5
ENDBRANCH   3   4
ENDBRANCH   2   3
ENDBRANCH   1   2
BRANCH   1   8
ATOM      8  C   UNL     1      36.529  28.235  15.789  1.00  0.00     0.000 C 
BRANCH   8   9
ATOM      9  C   UNL     1      36.231  27.709  14.380  1.00  0.00    -0.000 C 
BRANCH   9  10
ATOM     10  C   UNL     1      34.850  27.048  14.318  1.00  0.00    -0.000 C 
BRANCH  10  11
ATOM     11  C   UNL     1      34.244  27.170  12.915  1.00  0.00    -0.000 C 
BRANCH  11  12
ATOM     12  C   UNL     1      34.038  28.641  12.531  1.00  0.00    -0.003 C 
ATOM     13  C   UNL     1      32.862  29.249  13.291  1.00  0.00     0.004 C 
ENDBRANCH  11  12
ENDBRANCH  10  11
ENDBRANCH   9  10
ENDBRANCH   8   9
ENDBRANCH   1   8
TORSDOF 9
ENDMDL
MODEL 6
REMARK VINA RESULT:    -3.352      1.900      3.311
REMARK INTER + INTRA:          -5.818
REMARK INTER:                  -5.012
REMARK INTRA:                  -0.806
REMARK UNBOUND:                -0.702
REMARK SMILES CCCCCCCCCCC(=O)[O-]
REMARK SMILES IDX 7 1 8 2 9 3 10 4 11 5 12 6 13 7 6 8 5 9 4 10 3 11 2 12 1 13
REMARK H PARENT
REMARK Flexibility Score: inf
ROOT
ATOM      1  C   UNL     1      33.729  43.938  23.632  1.00  0.00     0.000 C 
ENDROOT
BRANCH   1   2
ATOM      2  C   UNL     1      32.233  43.655  23.844  1.00  0.00     0.000 C 
BRANCH   2   3
ATOM      3  C   UNL     1      31.446  43.612  22.522  1.00  0.00     0.006 C 
BRANCH   3   4
ATOM      4  C   UNL     1      31.922  44.684  21.531  1.00  0.00     0.053 C 
BRANCH   4   5
ATOM      5  C   UNL     1      31.387  46.041  21.877  1.00  0.00     0.041 C 
ATOM      6  O   UNL     1      32.074  47.070  21.644  1.00  0.00    -0.550 OA
ATOM      7  O   UNL     1      30.144  46.166  22.483  1.00  0.00    -0.550 OA
ENDBRANCH   4   5
ENDBRANCH   3   4
ENDBRANCH   2   3
ENDBRANCH   1   2
BRANCH   1   8
ATOM      8  C   UNL     1      34.555  43.758  24.914  1.00  0.00     0.000 C 
BRANCH   8   9
ATOM      9  C   UNL     1      35.782  44.677  24.911  1.00  0.00    -0.000 C 
BRANCH   9  10
ATOM     10  C   UNL     1      36.384  44.788  23.506  1.00  0.00    -0.000 C 
BRANCH  10  11
ATOM     11  C   UNL     1      36.404  46.245  23.029  1.00  0.00    -0.000 C 
BRANCH  11  12
ATOM     12  C   UNL     1      35.562  46.419  21.759  1.00  0.00    -0.003 C 
ATOM     13  C   UNL     1      35.639  45.180  20.872  1.00  0.00     0.004 C 
ENDBRANCH  11  12
ENDBRANCH  10  11
ENDBRANCH   9  10
ENDBRANCH   8   9
ENDBRANCH   1   8
TORSDOF 9
ENDMDL
MODEL 7
REMARK VINA RESULT:    -3.348     17.089     18.450
REMARK INTER + INTRA:          -5.812
REMARK INTER:                  -5.246
REMARK INTRA:                  -0.565
REMARK UNBOUND:                -0.702
REMARK SMILES CCCCCCCCCCC(=O)[O-]
REMARK SMILES IDX 7 1 8 2 9 3 10 4 11 5 12 6 13 7 6 8 5 9 4 10 3 11 2 12 1 13
REMARK H PARENT
REMARK Flexibility Score: inf
ROOT
ATOM      1  C   UNL     1      35.352  28.178  16.214  1.00  0.00     0.000 C 
ENDROOT
BRANCH   1   2
ATOM      2  C   UNL     1      36.408  29.124  16.809  1.00  0.00     0.000 C 
BRANCH   2   3
ATOM      3  C   UNL     1      37.125  28.515  18.028  1.00  0.00     0.006 C 
BRANCH   3   4
ATOM      4  C   UNL     1      36.677  29.164  19.345  1.00  0.00     0.053 C 
BRANCH   4   5
ATOM      5  C   UNL     1      35.457  28.501  19.908  1.00  0.00     0.041 C 
ATOM      6  O   UNL     1      35.271  27.267  19.737  1.00  0.00    -0.550 OA
ATOM      7  O   UNL     1      34.511  29.251  20.594  1.00  0.00    -0.550 OA
ENDBRANCH   4   5
ENDBRANCH   3   4
ENDBRANCH   2   3
ENDBRANCH   1   2
BRANCH   1   8
ATOM      8  C   UNL     1      35.848  27.454  14.953  1.00  0.00     0.000 C 
BRANCH   8   9
ATOM      9  C   UNL     1      34.670  26.982  14.092  1.00  0.00    -0.000 C 
BRANCH   9  10
ATOM     10  C   UNL     1      34.937  27.238  12.605  1.00  0.00    -0.000 C 
BRANCH  10  11
ATOM     11  C   UNL     1      33.935  28.248  12.032  1.00  0.00    -0.000 C 
BRANCH  11  12
ATOM     12  C   UNL     1      32.964  28.734  13.115  1.00  0.00    -0.003 C 
ATOM     13  C   UNL     1      32.688  30.228  12.978  1.00  0.00     0.004 C 
ENDBRANCH  11  12
ENDBRANCH  10  11
ENDBRANCH   9  10
ENDBRANCH   8   9
ENDBRANCH   1   8
TORSDOF 9
ENDMDL
MODEL 8
REMARK VINA RESULT:    -3.263      2.497      5.294
REMARK INTER + INTRA:          -5.682
REMARK INTER:                  -5.029
REMARK INTRA:                  -0.653
REMARK UNBOUND:                -0.702
REMARK SMILES CCCCCCCCCCC(=O)[O-]
REMARK SMILES IDX 7 1 8 2 9 3 10 4 11 5 12 6 13 7 6 8 5 9 4 10 3 11 2 12 1 13
REMARK H PARENT
REMARK Flexibility Score: inf
ROOT
ATOM      1  C   UNL     1      34.300  43.776  24.580  1.00  0.00     0.000 C 
ENDROOT
BRANCH   1   2
ATOM      2  C   UNL     1      35.594  44.596  24.707  1.00  0.00     0.000 C 
BRANCH   2   3
ATOM      3  C   UNL     1      36.495  44.472  23.466  1.00  0.00     0.006 C 
BRANCH   3   4
ATOM      4  C   UNL     1      36.788  45.836  22.825  1.00  0.00     0.053 C 
BRANCH   4   5
ATOM      5  C   UNL     1      36.038  46.022  21.541  1.00  0.00     0.041 C 
ATOM      6  O   UNL     1      36.220  45.229  20.580  1.00  0.00    -0.550 OA
ATOM      7  O   UNL     1      35.160  47.089  21.396  1.00  0.00    -0.550 OA
ENDBRANCH   4   5
ENDBRANCH   3   4
ENDBRANCH   2   3
ENDBRANCH   1   2
BRANCH   1   8
ATOM      8  C   UNL     1      33.520  44.093  23.295  1.00  0.00     0.000 C 
BRANCH   8   9
ATOM      9  C   UNL     1      32.038  43.727  23.447  1.00  0.00    -0.000 C 
BRANCH   9  10
ATOM     10  C   UNL     1      31.199  44.348  22.325  1.00  0.00    -0.000 C 
BRANCH  10  11
ATOM     11  C   UNL     1      31.958  45.489  21.636  1.00  0.00    -0.000 C 
BRANCH  11  12
ATOM     12  C   UNL     1      31.144  46.788  21.667  1.00  0.00    -0.003 C 
ATOM     13  C   UNL     1      29.880  46.627  22.507  1.00  0.00     0.004 C 
ENDBRANCH  11  12
ENDBRANCH  10  11
ENDBRANCH   9  10
ENDBRANCH   8   9
ENDBRANCH   1   8
TORSDOF 9
ENDMDL
MODEL 9
REMARK VINA RESULT:    -3.172     16.695     18.086
REMARK INTER + INTRA:          -5.543
REMARK INTER:                  -5.168
REMARK INTRA:                  -0.375
REMARK UNBOUND:                -0.702
REMARK SMILES CCCCCCCCCCC(=O)[O-]
REMARK SMILES IDX 7 1 8 2 9 3 10 4 11 5 12 6 13 7 6 8 5 9 4 10 3 11 2 12 1 13
REMARK H PARENT
REMARK Flexibility Score: inf
ROOT
ATOM      1  C   UNL     1      35.839  28.901  17.488  1.00  0.00     0.000 C 
ENDROOT
BRANCH   1   2
ATOM      2  C   UNL     1      35.126  28.587  18.814  1.00  0.00     0.000 C 
BRANCH   2   3
ATOM      3  C   UNL     1      36.012  28.864  20.041  1.00  0.00     0.006 C 
BRANCH   3   4
ATOM      4  C   UNL     1      35.197  29.371  21.240  1.00  0.00     0.053 C 
BRANCH   4   5
ATOM      5  C   UNL     1      35.381  28.502  22.447  1.00  0.00     0.041 C 
ATOM      6  O   UNL     1      35.027  28.915  23.583  1.00  0.00    -0.550 OA
ATOM      7  O   UNL     1      35.970  27.251  22.322  1.00  0.00    -0.550 OA
ENDBRANCH   4   5
ENDBRANCH   3   4
ENDBRANCH   2   3
ENDBRANCH   1   2
BRANCH   1   8
ATOM      8  C   UNL     1      34.929  28.708  16.265  1.00  0.00     0.000 C 
BRANCH   8   9
ATOM      9  C   UNL     1      35.370  27.493  15.440  1.00  0.00    -0.000 C 
BRANCH   9  10
ATOM     10  C   UNL     1      34.562  27.386  14.142  1.00  0.00    -0.000 C 
BRANCH  10  11
ATOM     11  C   UNL     1      33.461  28.452  14.089  1.00  0.00    -0.000 C 
BRANCH  11  12
ATOM     12  C   UNL     1      33.141  28.841  12.641  1.00  0.00    -0.003 C 
ATOM     13  C   UNL     1      33.927  27.983  11.653  1.00  0.00     0.004 C 
ENDBRANCH  11  12
ENDBRANCH  10  11
ENDBRANCH   9  10
ENDBRANCH   8   9
ENDBRANCH   1   8
TORSDOF 9
ENDMDL
