MODEL 1
REMARK VINA RESULT:    -2.538      0.000      0.000
REMARK INTER + INTRA:          -2.538
REMARK INTER:                  -2.538
REMARK INTRA:                   0.000
REMARK UNBOUND:                 0.000
REMARK SMILES CC(=O)[O-]
REMARK SMILES IDX 1 1 2 2 3 3 4 4
REMARK H PARENT
REMARK Flexibility Score: inf
ROOT
ATOM      1  C   UNL     1       1.867 -36.111  16.042  1.00  0.00     0.063 C 
ATOM      2  C   UNL     1       2.993 -37.042  16.345  1.00  0.00     0.038 C 
ATOM      3  O   UNL     1       3.379 -37.203  17.531  1.00  0.00    -0.550 OA
ATOM      4  O   UNL     1       3.654 -37.692  15.311  1.00  0.00    -0.550 OA
ENDROOT
TORSDOF 0
ENDMDL
MODEL 2
REMARK VINA RESULT:    -2.470      1.450      2.032
REMARK INTER + INTRA:          -2.470
REMARK INTER:                  -2.470
REMARK INTRA:                   0.000
REMARK UNBOUND:                 0.000
REMARK SMILES CC(=O)[O-]
REMARK SMILES IDX 1 1 2 2 3 3 4 4
REMARK H PARENT
REMARK Flexibility Score: inf
ROOT
ATOM      1  C   UNL     1       3.183 -37.087  17.786  1.00  0.00     0.063 C 
ATOM      2  C   UNL     1       2.827 -36.956  16.343  1.00  0.00     0.038 C 
ATOM      3  O   UNL     1       3.540 -37.507  15.464  1.00  0.00    -0.550 OA
ATOM      4  O   UNL     1       1.739 -36.182  15.963  1.00  0.00    -0.550 OA
ENDROOT
TORSDOF 0
ENDMDL
MODEL 3
REMARK VINA RESULT:    -2.450      1.449      2.025
REMARK INTER + INTRA:          -2.450
REMARK INTER:                  -2.450
REMARK INTRA:                   0.000
REMARK UNBOUND:                 0.000
REMARK SMILES CC(=O)[O-]
REMARK SMILES IDX 1 1 2 2 3 3 4 4
REMARK H PARENT
REMARK Flexibility Score: inf
ROOT
ATOM      1  C   UNL     1       3.601 -37.141  15.004  1.00  0.00     0.063 C 
ATOM      2  C   UNL     1       2.760 -36.829  16.196  1.00  0.00     0.038 C 
ATOM      3  O   UNL     1       1.694 -36.174  16.064  1.00  0.00    -0.550 OA
ATOM      4  O   UNL     1       3.178 -37.217  17.462  1.00  0.00    -0.550 OA
ENDROOT
TORSDOF 0
ENDMDL
MODEL 4
REMARK VINA RESULT:    -2.400      2.056      2.320
REMARK INTER + INTRA:          -2.400
REMARK INTER:                  -2.400
REMARK INTRA:                   0.000
REMARK UNBOUND:                 0.000
REMARK SMILES CC(=O)[O-]
REMARK SMILES IDX 1 1 2 2 3 3 4 4
REMARK H PARENT
REMARK Flexibility Score: inf
ROOT
ATOM      1  C   UNL     1       2.890 -36.970  16.597  1.00  0.00     0.063 C 
ATOM      2  C   UNL     1       2.897 -37.289  18.054  1.00  0.00     0.038 C 
ATOM      3  O   UNL     1       1.842 -37.672  18.623  1.00  0.00    -0.550 OA
ATOM      4  O   UNL     1       4.055 -37.113  18.799  1.00  0.00    -0.550 OA
ENDROOT
TORSDOF 0
ENDMDL
MODEL 5
REMARK VINA RESULT:    -2.325      2.094      2.954
REMARK INTER + INTRA:          -2.325
REMARK INTER:                  -2.325
REMARK INTRA:                   0.000
REMARK UNBOUND:                 0.000
REMARK SMILES CC(=O)[O-]
REMARK SMILES IDX 1 1 2 2 3 3 4 4
REMARK H PARENT
REMARK Flexibility Score: inf
ROOT
ATOM      1  C   UNL     1       4.168 -36.959  19.193  1.00  0.00     0.063 C 
ATOM      2  C   UNL     1       3.063 -37.278  18.242  1.00  0.00     0.038 C 
ATOM      3  O   UNL     1       3.232 -37.130  17.004  1.00  0.00    -0.550 OA
ATOM      4  O   UNL     1       1.828 -37.690  18.726  1.00  0.00    -0.550 OA
ENDROOT
TORSDOF 0
ENDMDL
MODEL 6
REMARK VINA RESULT:    -2.125      3.656      3.967
REMARK INTER + INTRA:          -2.125
REMARK INTER:                  -2.125
REMARK INTRA:                   0.000
REMARK UNBOUND:                 0.000
REMARK SMILES CC(=O)[O-]
REMARK SMILES IDX 1 1 2 2 3 3 4 4
REMARK H PARENT
REMARK Flexibility Score: inf
ROOT
ATOM      1  C   UNL     1       3.591 -37.127  18.561  1.00  0.00     0.063 C 
ATOM      2  C   UNL     1       4.296 -36.754  19.821  1.00  0.00     0.038 C 
ATOM      3  O   UNL     1       4.107 -37.419  20.872  1.00  0.00    -0.550 OA
ATOM      4  O   UNL     1       5.123 -35.639  19.851  1.00  0.00    -0.550 OA
ENDROOT
TORSDOF 0
ENDMDL
MODEL 7
REMARK VINA RESULT:    -2.109      3.640      4.276
REMARK INTER + INTRA:          -2.109
REMARK INTER:                  -2.109
REMARK INTRA:                   0.000
REMARK UNBOUND:                 0.000
REMARK SMILES CC(=O)[O-]
REMARK SMILES IDX 1 1 2 2 3 3 4 4
REMARK H PARENT
REMARK Flexibility Score: inf
ROOT
ATOM      1  C   UNL     1       4.739 -37.433  21.110  1.00  0.00     0.063 C 
ATOM      2  C   UNL     1       4.589 -36.681  19.831  1.00  0.00     0.038 C 
ATOM      3  O   UNL     1       5.036 -35.509  19.730  1.00  0.00    -0.550 OA
ATOM      4  O   UNL     1       3.909 -37.254  18.764  1.00  0.00    -0.550 OA
ENDROOT
TORSDOF 0
ENDMDL
MODEL 8
REMARK VINA RESULT:    -2.066      4.483      4.965
REMARK INTER + INTRA:          -2.066
REMARK INTER:                  -2.066
REMARK INTRA:                   0.000
REMARK UNBOUND:                 0.000
REMARK SMILES CC(=O)[O-]
REMARK SMILES IDX 1 1 2 2 3 3 4 4
REMARK H PARENT
REMARK Flexibility Score: inf
ROOT
ATOM      1  C   UNL     1       4.762 -35.725  21.992  1.00  0.00     0.063 C 
ATOM      2  C   UNL     1       4.489 -36.003  20.552  1.00  0.00     0.038 C 
ATOM      3  O   UNL     1       3.720 -36.944  20.224  1.00  0.00    -0.550 OA
ATOM      4  O   UNL     1       5.125 -35.258  19.568  1.00  0.00    -0.550 OA
ENDROOT
TORSDOF 0
ENDMDL
