MODEL 1
REMARK VINA RESULT:    -5.868      0.000      0.000
REMARK INTER + INTRA:         -11.803
REMARK INTER:                 -10.327
REMARK INTRA:                  -1.476
REMARK UNBOUND:                -1.476
REMARK SMILES CCCCCCCCCCCCCCC(=O)[O-]
REMARK SMILES IDX 9 1 10 2 11 3 12 4 13 5 14 6 15 7 16 8 17 9 8 10 7 11 6 12
REMARK SMILES IDX 5 13 4 14 3 15 2 16 1 17
REMARK H PARENT
REMARK Flexibility Score: inf
ROOT
ATOM      1  C   UNL     1      -2.448  36.218 101.051  1.00  0.00     0.000 C 
ENDROOT
BRANCH   1   2
ATOM      2  C   UNL     1      -3.097  37.111 102.121  1.00  0.00     0.000 C 
BRANCH   2   3
ATOM      3  C   UNL     1      -2.940  38.610 101.809  1.00  0.00     0.000 C 
BRANCH   3   4
ATOM      4  C   UNL     1      -2.516  39.437 103.036  1.00  0.00     0.000 C 
BRANCH   4   5
ATOM      5  C   UNL     1      -1.373  40.437 102.785  1.00  0.00     0.006 C 
BRANCH   5   6
ATOM      6  C   UNL     1      -1.692  41.850 103.293  1.00  0.00     0.053 C 
BRANCH   6   7
ATOM      7  C   UNL     1      -3.131  42.179 103.049  1.00  0.00     0.041 C 
ATOM      8  O   UNL     1      -3.931  42.283 104.015  1.00  0.00    -0.550 OA
ATOM      9  O   UNL     1      -3.600  42.321 101.748  1.00  0.00    -0.550 OA
ENDBRANCH   6   7
ENDBRANCH   5   6
ENDBRANCH   4   5
ENDBRANCH   3   4
ENDBRANCH   2   3
ENDBRANCH   1   2
BRANCH   1  10
ATOM     10  C   UNL     1      -3.416  35.151 100.511  1.00  0.00     0.000 C 
BRANCH  10  11
ATOM     11  C   UNL     1      -4.896  35.532 100.699  1.00  0.00    -0.000 C 
BRANCH  11  12
ATOM     12  C   UNL     1      -5.812  35.219  99.502  1.00  0.00    -0.000 C 
BRANCH  12  13
ATOM     13  C   UNL     1      -5.030  34.948  98.205  1.00  0.00    -0.000 C 
BRANCH  13  14
ATOM     14  C   UNL     1      -5.133  36.102  97.193  1.00  0.00    -0.000 C 
BRANCH  14  15
ATOM     15  C   UNL     1      -3.818  36.859  96.926  1.00  0.00    -0.000 C 
BRANCH  15  16
ATOM     16  C   UNL     1      -3.410  37.822  98.060  1.00  0.00    -0.003 C 
ATOM     17  C   UNL     1      -4.553  38.747  98.479  1.00  0.00     0.004 C 
ENDBRANCH  15  16
ENDBRANCH  14  15
ENDBRANCH  13  14
ENDBRANCH  12  13
ENDBRANCH  11  12
ENDBRANCH  10  11
ENDBRANCH   1  10
TORSDOF 13
ENDMDL
MODEL 2
REMARK VINA RESULT:    -5.756      2.266      6.182
REMARK INTER + INTRA:         -11.606
REMARK INTER:                 -10.322
REMARK INTRA:                  -1.284
REMARK UNBOUND:                -1.476
REMARK SMILES CCCCCCCCCCCCCCC(=O)[O-]
REMARK SMILES IDX 9 1 10 2 11 3 12 4 13 5 14 6 15 7 16 8 17 9 8 10 7 11 6 12
REMARK SMILES IDX 5 13 4 14 3 15 2 16 1 17
REMARK H PARENT
REMARK Flexibility Score: inf
ROOT
ATOM      1  C   UNL     1      -4.850  36.132 100.813  1.00  0.00     0.000 C 
ENDROOT
BRANCH   1   2
ATOM      2  C   UNL     1      -4.123  34.823 100.467  1.00  0.00     0.000 C 
BRANCH   2   3
ATOM      3  C   UNL     1      -4.082  34.556  98.952  1.00  0.00     0.000 C 
BRANCH   3   4
ATOM      4  C   UNL     1      -2.874  35.214  98.261  1.00  0.00     0.000 C 
BRANCH   4   5
ATOM      5  C   UNL     1      -3.199  36.483  97.452  1.00  0.00     0.006 C 
BRANCH   5   6
ATOM      6  C   UNL     1      -4.703  36.675  97.216  1.00  0.00     0.053 C 
BRANCH   6   7
ATOM      7  C   UNL     1      -5.097  38.092  97.485  1.00  0.00     0.041 C 
ATOM      8  O   UNL     1      -6.004  38.639  96.805  1.00  0.00    -0.550 OA
ATOM      9  O   UNL     1      -4.426  38.827  98.456  1.00  0.00    -0.550 OA
ENDBRANCH   6   7
ENDBRANCH   5   6
ENDBRANCH   4   5
ENDBRANCH   3   4
ENDBRANCH   2   3
ENDBRANCH   1   2
BRANCH   1  10
ATOM     10  C   UNL     1      -4.002  37.056 101.705  1.00  0.00     0.000 C 
BRANCH  10  11
ATOM     11  C   UNL     1      -2.621  37.371 101.101  1.00  0.00    -0.000 C 
BRANCH  11  12
ATOM     12  C   UNL     1      -1.981  38.688 101.578  1.00  0.00    -0.000 C 
BRANCH  12  13
ATOM     13  C   UNL     1      -2.563  39.188 102.913  1.00  0.00    -0.000 C 
BRANCH  13  14
ATOM     14  C   UNL     1      -2.373  40.700 103.118  1.00  0.00    -0.000 C 
BRANCH  14  15
ATOM     15  C   UNL     1      -3.203  41.598 102.180  1.00  0.00    -0.000 C 
BRANCH  15  16
ATOM     16  C   UNL     1      -3.659  42.924 102.826  1.00  0.00    -0.003 C 
ATOM     17  C   UNL     1      -4.269  42.718 104.212  1.00  0.00     0.004 C 
ENDBRANCH  15  16
ENDBRANCH  14  15
ENDBRANCH  13  14
ENDBRANCH  12  13
ENDBRANCH  11  12
ENDBRANCH  10  11
ENDBRANCH   1  10
TORSDOF 13
ENDMDL
MODEL 3
REMARK VINA RESULT:    -5.716      1.350      1.704
REMARK INTER + INTRA:         -11.536
REMARK INTER:                 -10.204
REMARK INTRA:                  -1.332
REMARK UNBOUND:                -1.476
REMARK SMILES CCCCCCCCCCCCCCC(=O)[O-]
REMARK SMILES IDX 9 1 10 2 11 3 12 4 13 5 14 6 15 7 16 8 17 9 8 10 7 11 6 12
REMARK SMILES IDX 5 13 4 14 3 15 2 16 1 17
REMARK H PARENT
REMARK Flexibility Score: inf
ROOT
ATOM      1  C   UNL     1      -3.187  36.828 101.475  1.00  0.00     0.000 C 
ENDROOT
BRANCH   1   2
ATOM      2  C   UNL     1      -2.698  38.278 101.333  1.00  0.00     0.000 C 
BRANCH   2   3
ATOM      3  C   UNL     1      -2.612  39.004 102.687  1.00  0.00     0.000 C 
BRANCH   3   4
ATOM      4  C   UNL     1      -2.148  40.466 102.554  1.00  0.00     0.000 C 
BRANCH   4   5
ATOM      5  C   UNL     1      -2.975  41.488 103.355  1.00  0.00     0.006 C 
BRANCH   5   6
ATOM      6  C   UNL     1      -2.291  42.857 103.467  1.00  0.00     0.053 C 
BRANCH   6   7
ATOM      7  C   UNL     1      -3.012  43.870 102.635  1.00  0.00     0.041 C 
ATOM      8  O   UNL     1      -2.461  44.964 102.348  1.00  0.00    -0.550 OA
ATOM      9  O   UNL     1      -4.316  43.625 102.219  1.00  0.00    -0.550 OA
ENDBRANCH   6   7
ENDBRANCH   5   6
ENDBRANCH   4   5
ENDBRANCH   3   4
ENDBRANCH   2   3
ENDBRANCH   1   2
BRANCH   1  10
ATOM     10  C   UNL     1      -4.722  36.724 101.492  1.00  0.00     0.000 C 
BRANCH  10  11
ATOM     11  C   UNL     1      -5.255  35.576 100.615  1.00  0.00    -0.000 C 
BRANCH  11  12
ATOM     12  C   UNL     1      -4.205  34.535 100.186  1.00  0.00    -0.000 C 
BRANCH  12  13
ATOM     13  C   UNL     1      -3.965  34.519  98.665  1.00  0.00    -0.000 C 
BRANCH  13  14
ATOM     14  C   UNL     1      -2.872  35.507  98.223  1.00  0.00    -0.000 C 
BRANCH  14  15
ATOM     15  C   UNL     1      -3.336  36.601  97.242  1.00  0.00    -0.000 C 
BRANCH  15  16
ATOM     16  C   UNL     1      -4.103  37.759  97.916  1.00  0.00    -0.003 C 
ATOM     17  C   UNL     1      -5.592  37.751  97.572  1.00  0.00     0.004 C 
ENDBRANCH  15  16
ENDBRANCH  14  15
ENDBRANCH  13  14
ENDBRANCH  12  13
ENDBRANCH  11  12
ENDBRANCH  10  11
ENDBRANCH   1  10
TORSDOF 13
ENDMDL
MODEL 4
REMARK VINA RESULT:    -5.611      1.294      2.442
REMARK INTER + INTRA:         -11.351
REMARK INTER:                 -10.008
REMARK INTRA:                  -1.343
REMARK UNBOUND:                -1.476
REMARK SMILES CCCCCCCCCCCCCCC(=O)[O-]
REMARK SMILES IDX 9 1 10 2 11 3 12 4 13 5 14 6 15 7 16 8 17 9 8 10 7 11 6 12
REMARK SMILES IDX 5 13 4 14 3 15 2 16 1 17
REMARK H PARENT
REMARK Flexibility Score: inf
ROOT
ATOM      1  C   UNL     1      -2.317  37.768 101.143  1.00  0.00     0.000 C 
ENDROOT
BRANCH   1   2
ATOM      2  C   UNL     1      -3.193  37.680 102.403  1.00  0.00     0.000 C 
BRANCH   2   3
ATOM      3  C   UNL     1      -2.872  38.790 103.420  1.00  0.00     0.000 C 
BRANCH   3   4
ATOM      4  C   UNL     1      -1.681  39.667 102.994  1.00  0.00     0.000 C 
BRANCH   4   5
ATOM      5  C   UNL     1      -1.939  41.184 103.044  1.00  0.00     0.006 C 
BRANCH   5   6
ATOM      6  C   UNL     1      -3.228  41.596 102.321  1.00  0.00     0.053 C 
BRANCH   6   7
ATOM      7  C   UNL     1      -3.509  43.049 102.541  1.00  0.00     0.041 C 
ATOM      8  O   UNL     1      -4.673  43.501 102.390  1.00  0.00    -0.550 OA
ATOM      9  O   UNL     1      -2.470  43.916 102.862  1.00  0.00    -0.550 OA
ENDBRANCH   6   7
ENDBRANCH   5   6
ENDBRANCH   4   5
ENDBRANCH   3   4
ENDBRANCH   2   3
ENDBRANCH   1   2
BRANCH   1  10
ATOM     10  C   UNL     1      -2.950  38.641 100.046  1.00  0.00     0.000 C 
BRANCH  10  11
ATOM     11  C   UNL     1      -4.375  38.194  99.672  1.00  0.00    -0.000 C 
BRANCH  11  12
ATOM     12  C   UNL     1      -4.752  38.374  98.190  1.00  0.00    -0.000 C 
BRANCH  12  13
ATOM     13  C   UNL     1      -5.752  37.314  97.694  1.00  0.00    -0.000 C 
BRANCH  13  14
ATOM     14  C   UNL     1      -5.104  35.936  97.479  1.00  0.00    -0.000 C 
BRANCH  14  15
ATOM     15  C   UNL     1      -5.330  34.920  98.615  1.00  0.00    -0.000 C 
BRANCH  15  16
ATOM     16  C   UNL     1      -4.026  34.341  99.203  1.00  0.00    -0.003 C 
ATOM     17  C   UNL     1      -2.780  35.040  98.661  1.00  0.00     0.004 C 
ENDBRANCH  15  16
ENDBRANCH  14  15
ENDBRANCH  13  14
ENDBRANCH  12  13
ENDBRANCH  11  12
ENDBRANCH  10  11
ENDBRANCH   1  10
TORSDOF 13
ENDMDL
MODEL 5
REMARK VINA RESULT:    -5.607      1.398      2.168
REMARK INTER + INTRA:         -11.343
REMARK INTER:                 -10.053
REMARK INTRA:                  -1.291
REMARK UNBOUND:                -1.476
REMARK SMILES CCCCCCCCCCCCCCC(=O)[O-]
REMARK SMILES IDX 9 1 10 2 11 3 12 4 13 5 14 6 15 7 16 8 17 9 8 10 7 11 6 12
REMARK SMILES IDX 5 13 4 14 3 15 2 16 1 17
REMARK H PARENT
REMARK Flexibility Score: inf
ROOT
ATOM      1  C   UNL     1      -2.319  37.831 101.486  1.00  0.00     0.000 C 
ENDROOT
BRANCH   1   2
ATOM      2  C   UNL     1      -2.480  39.347 101.683  1.00  0.00     0.000 C 
BRANCH   2   3
ATOM      3  C   UNL     1      -1.320  39.960 102.488  1.00  0.00     0.000 C 
BRANCH   3   4
ATOM      4  C   UNL     1      -1.654  41.353 103.053  1.00  0.00     0.000 C 
BRANCH   4   5
ATOM      5  C   UNL     1      -3.146  41.599 103.342  1.00  0.00     0.006 C 
BRANCH   5   6
ATOM      6  C   UNL     1      -3.705  42.822 102.603  1.00  0.00     0.053 C 
BRANCH   6   7
ATOM      7  C   UNL     1      -4.458  43.704 103.548  1.00  0.00     0.041 C 
ATOM      8  O   UNL     1      -4.593  44.930 103.300  1.00  0.00    -0.550 OA
ATOM      9  O   UNL     1      -4.966  43.180 104.731  1.00  0.00    -0.550 OA
ENDBRANCH   6   7
ENDBRANCH   5   6
ENDBRANCH   4   5
ENDBRANCH   3   4
ENDBRANCH   2   3
ENDBRANCH   1   2
BRANCH   1  10
ATOM     10  C   UNL     1      -3.593  37.052 101.858  1.00  0.00     0.000 C 
BRANCH  10  11
ATOM     11  C   UNL     1      -3.972  35.987 100.812  1.00  0.00    -0.000 C 
BRANCH  11  12
ATOM     12  C   UNL     1      -2.790  35.383 100.031  1.00  0.00    -0.000 C 
BRANCH  12  13
ATOM     13  C   UNL     1      -3.129  35.103  98.556  1.00  0.00    -0.000 C 
BRANCH  13  14
ATOM     14  C   UNL     1      -3.135  36.377  97.693  1.00  0.00    -0.000 C 
BRANCH  14  15
ATOM     15  C   UNL     1      -4.495  36.736  97.064  1.00  0.00    -0.000 C 
BRANCH  15  16
ATOM     16  C   UNL     1      -5.295  37.787  97.864  1.00  0.00    -0.003 C 
ATOM     17  C   UNL     1      -4.396  38.856  98.483  1.00  0.00     0.004 C 
ENDBRANCH  15  16
ENDBRANCH  14  15
ENDBRANCH  13  14
ENDBRANCH  12  13
ENDBRANCH  11  12
ENDBRANCH  10  11
ENDBRANCH   1  10
TORSDOF 13
ENDMDL
MODEL 6
REMARK VINA RESULT:    -5.599      1.620      2.349
REMARK INTER + INTRA:         -11.330
REMARK INTER:                 -10.162
REMARK INTRA:                  -1.169
REMARK UNBOUND:                -1.476
REMARK SMILES CCCCCCCCCCCCCCC(=O)[O-]
REMARK SMILES IDX 9 1 10 2 11 3 12 4 13 5 14 6 15 7 16 8 17 9 8 10 7 11 6 12
REMARK SMILES IDX 5 13 4 14 3 15 2 16 1 17
REMARK H PARENT
REMARK Flexibility Score: inf
ROOT
ATOM      1  C   UNL     1      -2.917  38.056 102.021  1.00  0.00     0.000 C 
ENDROOT
BRANCH   1   2
ATOM      2  C   UNL     1      -1.690  38.914 101.674  1.00  0.00     0.000 C 
BRANCH   2   3
ATOM      3  C   UNL     1      -1.491  40.080 102.658  1.00  0.00     0.000 C 
BRANCH   3   4
ATOM      4  C   UNL     1      -2.820  40.676 103.158  1.00  0.00     0.000 C 
BRANCH   4   5
ATOM      5  C   UNL     1      -3.167  42.063 102.589  1.00  0.00     0.006 C 
BRANCH   5   6
ATOM      6  C   UNL     1      -3.387  43.120 103.680  1.00  0.00     0.053 C 
BRANCH   6   7
ATOM      7  C   UNL     1      -2.152  43.942 103.867  1.00  0.00     0.041 C 
ATOM      8  O   UNL     1      -1.248  43.938 102.992  1.00  0.00    -0.550 OA
ATOM      9  O   UNL     1      -1.976  44.674 105.036  1.00  0.00    -0.550 OA
ENDBRANCH   6   7
ENDBRANCH   5   6
ENDBRANCH   4   5
ENDBRANCH   3   4
ENDBRANCH   2   3
ENDBRANCH   1   2
BRANCH   1  10
ATOM     10  C   UNL     1      -3.746  37.685 100.779  1.00  0.00     0.000 C 
BRANCH  10  11
ATOM     11  C   UNL     1      -4.515  36.361 100.944  1.00  0.00    -0.000 C 
BRANCH  11  12
ATOM     12  C   UNL     1      -3.749  35.098 100.509  1.00  0.00    -0.000 C 
BRANCH  12  13
ATOM     13  C   UNL     1      -2.635  35.396  99.489  1.00  0.00    -0.000 C 
BRANCH  13  14
ATOM     14  C   UNL     1      -3.119  35.299  98.032  1.00  0.00    -0.000 C 
BRANCH  14  15
ATOM     15  C   UNL     1      -3.263  36.647  97.298  1.00  0.00    -0.000 C 
BRANCH  15  16
ATOM     16  C   UNL     1      -4.704  36.958  96.841  1.00  0.00    -0.003 C 
ATOM     17  C   UNL     1      -5.216  38.288  97.393  1.00  0.00     0.004 C 
ENDBRANCH  15  16
ENDBRANCH  14  15
ENDBRANCH  13  14
ENDBRANCH  12  13
ENDBRANCH  11  12
ENDBRANCH  10  11
ENDBRANCH   1  10
TORSDOF 13
ENDMDL
MODEL 7
REMARK VINA RESULT:    -5.533      1.614      2.020
REMARK INTER + INTRA:         -11.214
REMARK INTER:                  -9.801
REMARK INTRA:                  -1.414
REMARK UNBOUND:                -1.476
REMARK SMILES CCCCCCCCCCCCCCC(=O)[O-]
REMARK SMILES IDX 9 1 10 2 11 3 12 4 13 5 14 6 15 7 16 8 17 9 8 10 7 11 6 12
REMARK SMILES IDX 5 13 4 14 3 15 2 16 1 17
REMARK H PARENT
REMARK Flexibility Score: inf
ROOT
ATOM      1  C   UNL     1      -3.580  37.098 102.151  1.00  0.00     0.000 C 
ENDROOT
BRANCH   1   2
ATOM      2  C   UNL     1      -2.838  38.368 102.597  1.00  0.00     0.000 C 
BRANCH   2   3
ATOM      3  C   UNL     1      -2.623  39.360 101.440  1.00  0.00     0.000 C 
BRANCH   3   4
ATOM      4  C   UNL     1      -3.033  40.799 101.801  1.00  0.00     0.000 C 
BRANCH   4   5
ATOM      5  C   UNL     1      -2.812  41.190 103.273  1.00  0.00     0.006 C 
BRANCH   5   6
ATOM      6  C   UNL     1      -1.858  42.381 103.440  1.00  0.00     0.053 C 
BRANCH   6   7
ATOM      7  C   UNL     1      -0.450  41.965 103.154  1.00  0.00     0.041 C 
ATOM      8  O   UNL     1       0.392  42.810 102.752  1.00  0.00    -0.550 OA
ATOM      9  O   UNL     1      -0.080  40.631 103.281  1.00  0.00    -0.550 OA
ENDBRANCH   6   7
ENDBRANCH   5   6
ENDBRANCH   4   5
ENDBRANCH   3   4
ENDBRANCH   2   3
ENDBRANCH   1   2
BRANCH   1  10
ATOM     10  C   UNL     1      -2.785  36.286 101.114  1.00  0.00     0.000 C 
BRANCH  10  11
ATOM     11  C   UNL     1      -3.632  35.203 100.422  1.00  0.00    -0.000 C 
BRANCH  11  12
ATOM     12  C   UNL     1      -5.157  35.386 100.540  1.00  0.00    -0.000 C 
BRANCH  12  13
ATOM     13  C   UNL     1      -5.898  35.097  99.223  1.00  0.00    -0.000 C 
BRANCH  13  14
ATOM     14  C   UNL     1      -4.969  35.123  97.997  1.00  0.00    -0.000 C 
BRANCH  14  15
ATOM     15  C   UNL     1      -5.016  36.421  97.167  1.00  0.00    -0.000 C 
BRANCH  15  16
ATOM     16  C   UNL     1      -3.929  37.448  97.552  1.00  0.00    -0.003 C 
ATOM     17  C   UNL     1      -4.487  38.608  98.375  1.00  0.00     0.004 C 
ENDBRANCH  15  16
ENDBRANCH  14  15
ENDBRANCH  13  14
ENDBRANCH  12  13
ENDBRANCH  11  12
ENDBRANCH  10  11
ENDBRANCH   1  10
TORSDOF 13
ENDMDL
MODEL 8
REMARK VINA RESULT:    -5.439      1.410      2.965
REMARK INTER + INTRA:         -11.049
REMARK INTER:                  -9.905
REMARK INTRA:                  -1.144
REMARK UNBOUND:                -1.476
REMARK SMILES CCCCCCCCCCCCCCC(=O)[O-]
REMARK SMILES IDX 9 1 10 2 11 3 12 4 13 5 14 6 15 7 16 8 17 9 8 10 7 11 6 12
REMARK SMILES IDX 5 13 4 14 3 15 2 16 1 17
REMARK H PARENT
REMARK Flexibility Score: inf
ROOT
ATOM      1  C   UNL     1      -2.843  38.512 102.828  1.00  0.00     0.000 C 
ENDROOT
BRANCH   1   2
ATOM      2  C   UNL     1      -2.495  40.005 102.727  1.00  0.00     0.000 C 
BRANCH   2   3
ATOM      3  C   UNL     1      -0.978  40.258 102.763  1.00  0.00     0.000 C 
BRANCH   3   4
ATOM      4  C   UNL     1      -0.620  41.711 103.125  1.00  0.00     0.000 C 
BRANCH   4   5
ATOM      5  C   UNL     1      -1.802  42.571 103.610  1.00  0.00     0.006 C 
BRANCH   5   6
ATOM      6  C   UNL     1      -1.908  43.912 102.872  1.00  0.00     0.053 C 
BRANCH   6   7
ATOM      7  C   UNL     1      -3.317  44.156 102.433  1.00  0.00     0.041 C 
ATOM      8  O   UNL     1      -3.971  43.243 101.864  1.00  0.00    -0.550 OA
ATOM      9  O   UNL     1      -3.891  45.410 102.605  1.00  0.00    -0.550 OA
ENDBRANCH   6   7
ENDBRANCH   5   6
ENDBRANCH   4   5
ENDBRANCH   3   4
ENDBRANCH   2   3
ENDBRANCH   1   2
BRANCH   1  10
ATOM     10  C   UNL     1      -3.031  37.857 101.448  1.00  0.00     0.000 C 
BRANCH  10  11
ATOM     11  C   UNL     1      -3.239  38.885 100.321  1.00  0.00    -0.000 C 
BRANCH  11  12
ATOM     12  C   UNL     1      -4.075  38.389  99.126  1.00  0.00    -0.000 C 
BRANCH  12  13
ATOM     13  C   UNL     1      -3.247  37.579  98.112  1.00  0.00    -0.000 C 
BRANCH  13  14
ATOM     14  C   UNL     1      -3.806  36.166  97.879  1.00  0.00    -0.000 C 
BRANCH  14  15
ATOM     15  C   UNL     1      -3.097  35.043  98.661  1.00  0.00    -0.000 C 
BRANCH  15  16
ATOM     16  C   UNL     1      -3.863  34.578  99.917  1.00  0.00    -0.003 C 
ATOM     17  C   UNL     1      -5.315  35.055  99.926  1.00  0.00     0.004 C 
ENDBRANCH  15  16
ENDBRANCH  14  15
ENDBRANCH  13  14
ENDBRANCH  12  13
ENDBRANCH  11  12
ENDBRANCH  10  11
ENDBRANCH   1  10
TORSDOF 13
ENDMDL
MODEL 9
REMARK VINA RESULT:    -5.366      2.651      6.996
REMARK INTER + INTRA:         -10.920
REMARK INTER:                  -9.993
REMARK INTRA:                  -0.927
REMARK UNBOUND:                -1.476
REMARK SMILES CCCCCCCCCCCCCCC(=O)[O-]
REMARK SMILES IDX 9 1 10 2 11 3 12 4 13 5 14 6 15 7 16 8 17 9 8 10 7 11 6 12
REMARK SMILES IDX 5 13 4 14 3 15 2 16 1 17
REMARK H PARENT
REMARK Flexibility Score: inf
ROOT
ATOM      1  C   UNL     1      -3.458  37.384 101.575  1.00  0.00     0.000 C 
ENDROOT
BRANCH   1   2
ATOM      2  C   UNL     1      -2.487  36.416 100.881  1.00  0.00     0.000 C 
BRANCH   2   3
ATOM      3  C   UNL     1      -3.146  35.067 100.540  1.00  0.00     0.000 C 
BRANCH   3   4
ATOM      4  C   UNL     1      -3.284  34.833  99.025  1.00  0.00     0.000 C 
BRANCH   4   5
ATOM      5  C   UNL     1      -4.681  34.384  98.560  1.00  0.00     0.006 C 
BRANCH   5   6
ATOM      6  C   UNL     1      -5.757  35.458  98.775  1.00  0.00     0.053 C 
BRANCH   6   7
ATOM      7  C   UNL     1      -5.435  36.685  97.982  1.00  0.00     0.041 C 
ATOM      8  O   UNL     1      -5.258  37.787  98.562  1.00  0.00    -0.550 OA
ATOM      9  O   UNL     1      -5.383  36.621  96.594  1.00  0.00    -0.550 OA
ENDBRANCH   6   7
ENDBRANCH   5   6
ENDBRANCH   4   5
ENDBRANCH   3   4
ENDBRANCH   2   3
ENDBRANCH   1   2
BRANCH   1  10
ATOM     10  C   UNL     1      -3.247  37.436 103.098  1.00  0.00     0.000 C 
BRANCH  10  11
ATOM     11  C   UNL     1      -2.868  38.840 103.604  1.00  0.00    -0.000 C 
BRANCH  11  12
ATOM     12  C   UNL     1      -2.144  39.734 102.579  1.00  0.00    -0.000 C 
BRANCH  12  13
ATOM     13  C   UNL     1      -1.966  41.182 103.069  1.00  0.00    -0.000 C 
BRANCH  13  14
ATOM     14  C   UNL     1      -3.225  42.040 102.865  1.00  0.00    -0.000 C 
BRANCH  14  15
ATOM     15  C   UNL     1      -3.983  42.410 104.155  1.00  0.00    -0.000 C 
BRANCH  15  16
ATOM     16  C   UNL     1      -4.007  43.924 104.453  1.00  0.00    -0.003 C 
ATOM     17  C   UNL     1      -2.607  44.538 104.470  1.00  0.00     0.004 C 
ENDBRANCH  15  16
ENDBRANCH  14  15
ENDBRANCH  13  14
ENDBRANCH  12  13
ENDBRANCH  11  12
ENDBRANCH  10  11
ENDBRANCH   1  10
TORSDOF 13
ENDMDL
