MODEL 1
REMARK VINA RESULT:    -7.255      0.000      0.000
REMARK INTER + INTRA:          -8.820
REMARK INTER:                  -8.528
REMARK INTRA:                  -0.292
REMARK UNBOUND:                -0.292
REMARK SMILES O=c1cc(-c2ccc(O)c(O)c2)oc2cc(O)cc(O)c12
REMARK SMILES IDX 4 1 3 2 2 3 1 4 21 5 19 6 18 7 16 8 15 9 14 10 13 11 5 12
REMARK SMILES IDX 6 13 7 14 8 15 12 16 10 17 9 18 11 20 20 22 17 24
REMARK H PARENT 9 19 11 21 20 23 17 25
REMARK Flexibility Score: inf
ROOT
ATOM      1  C   UNL     1     -10.694  -8.921  38.795  1.00  0.00     0.138 A 
ATOM      2  C   UNL     1      -9.822  -9.346  37.779  1.00  0.00     0.100 A 
ATOM      3  C   UNL     1      -8.771 -10.210  38.092  1.00  0.00     0.197 A 
ATOM      4  O   UNL     1      -7.993 -10.584  37.174  1.00  0.00    -0.289 OA
ATOM      5  C   UNL     1      -8.598 -10.639  39.423  1.00  0.00     0.107 A 
ATOM      6  C   UNL     1      -7.561 -11.514  39.826  1.00  0.00     0.134 A 
ATOM      7  C   UNL     1      -7.452 -11.891  41.173  1.00  0.00     0.093 A 
ATOM      8  C   UNL     1      -8.362 -11.409  42.122  1.00  0.00     0.123 A 
ATOM      9  C   UNL     1      -9.386 -10.546  41.730  1.00  0.00     0.094 A 
ATOM     10  C   UNL     1      -9.511 -10.159  40.392  1.00  0.00     0.146 A 
ATOM     11  O   UNL     1     -10.496  -9.338  40.044  1.00  0.00    -0.456 OA
ENDROOT
BRANCH   1  12
ATOM     12  C   UNL     1     -11.828  -8.003  38.520  1.00  0.00     0.021 A 
ATOM     13  C   UNL     1     -12.397  -7.272  39.578  1.00  0.00     0.016 A 
ATOM     14  C   UNL     1     -13.469  -6.406  39.348  1.00  0.00     0.051 A 
ATOM     15  C   UNL     1     -13.997  -6.264  38.059  1.00  0.00     0.157 A 
ATOM     16  C   UNL     1     -12.372  -7.864  37.229  1.00  0.00     0.062 A 
ATOM     17  C   UNL     1     -13.450  -6.997  36.998  1.00  0.00     0.158 A 
BRANCH  15  18
ATOM     18  O   UNL     1     -15.066  -5.401  37.825  1.00  0.00    -0.504 OA
ATOM     19  H   UNL     1     -15.369  -4.731  38.522  1.00  0.00     0.293 HD
ENDBRANCH  15  18
BRANCH  17  20
ATOM     20  O   UNL     1     -13.986  -6.860  35.718  1.00  0.00    -0.504 OA
ATOM     21  H   UNL     1     -14.773  -7.419  35.410  1.00  0.00     0.293 HD
ENDBRANCH  17  20
ENDBRANCH   1  12
BRANCH   6  22
ATOM     22  O   UNL     1      -6.640 -12.009  38.902  1.00  0.00    -0.507 OA
ATOM     23  H   UNL     1      -5.846 -11.461  38.593  1.00  0.00     0.293 HD
ENDBRANCH   6  22
BRANCH   8  24
ATOM     24  O   UNL     1      -8.255 -11.782  43.461  1.00  0.00    -0.508 OA
ATOM     25  H   UNL     1      -8.637 -12.659  43.798  1.00  0.00     0.293 HD
ENDBRANCH   8  24
TORSDOF 5
ENDMDL
MODEL 2
REMARK VINA RESULT:    -7.115      1.661      2.531
REMARK INTER + INTRA:          -8.655
REMARK INTER:                  -8.346
REMARK INTRA:                  -0.308
REMARK UNBOUND:                -0.292
REMARK SMILES O=c1cc(-c2ccc(O)c(O)c2)oc2cc(O)cc(O)c12
REMARK SMILES IDX 4 1 3 2 2 3 1 4 21 5 19 6 18 7 16 8 15 9 14 10 13 11 5 12
REMARK SMILES IDX 6 13 7 14 8 15 12 16 10 17 9 18 11 20 20 22 17 24
REMARK H PARENT 9 19 11 21 20 23 17 25
REMARK Flexibility Score: inf
ROOT
ATOM      1  C   UNL     1     -11.721  -8.016  38.286  1.00  0.00     0.138 A 
ATOM      2  C   UNL     1     -11.173  -8.109  36.996  1.00  0.00     0.100 A 
ATOM      3  C   UNL     1     -10.055  -8.917  36.781  1.00  0.00     0.197 A 
ATOM      4  O   UNL     1      -9.570  -8.993  35.620  1.00  0.00    -0.289 OA
ATOM      5  C   UNL     1      -9.489  -9.622  37.862  1.00  0.00     0.107 A 
ATOM      6  C   UNL     1      -8.357 -10.461  37.731  1.00  0.00     0.134 A 
ATOM      7  C   UNL     1      -7.850 -11.126  38.858  1.00  0.00     0.093 A 
ATOM      8  C   UNL     1      -8.455 -10.966  40.110  1.00  0.00     0.123 A 
ATOM      9  C   UNL     1      -9.571 -10.138  40.244  1.00  0.00     0.094 A 
ATOM     10  C   UNL     1     -10.092  -9.468  39.133  1.00  0.00     0.146 A 
ATOM     11  O   UNL     1     -11.156  -8.688  39.287  1.00  0.00    -0.456 OA
ENDROOT
BRANCH   1  12
ATOM     12  C   UNL     1     -12.909  -7.173  38.573  1.00  0.00     0.021 A 
ATOM     13  C   UNL     1     -13.830  -6.902  37.545  1.00  0.00     0.016 A 
ATOM     14  C   UNL     1     -14.952  -6.107  37.787  1.00  0.00     0.051 A 
ATOM     15  C   UNL     1     -15.168  -5.560  39.057  1.00  0.00     0.157 A 
ATOM     16  C   UNL     1     -13.127  -6.608  39.845  1.00  0.00     0.062 A 
ATOM     17  C   UNL     1     -14.252  -5.807  40.087  1.00  0.00     0.158 A 
BRANCH  15  18
ATOM     18  O   UNL     1     -16.287  -4.766  39.303  1.00  0.00    -0.504 OA
ATOM     19  H   UNL     1     -16.338  -3.807  38.980  1.00  0.00     0.293 HD
ENDBRANCH  15  18
BRANCH  17  20
ATOM     20  O   UNL     1     -14.466  -5.252  41.348  1.00  0.00    -0.504 OA
ATOM     21  H   UNL     1     -15.296  -4.708  41.554  1.00  0.00     0.293 HD
ENDBRANCH  17  20
ENDBRANCH   1  12
BRANCH   6  22
ATOM     22  O   UNL     1      -7.735 -10.640  36.495  1.00  0.00    -0.507 OA
ATOM     23  H   UNL     1      -6.825 -10.242  36.294  1.00  0.00     0.293 HD
ENDBRANCH   6  22
BRANCH   8  24
ATOM     24  O   UNL     1      -7.951 -11.625  41.230  1.00  0.00    -0.508 OA
ATOM     25  H   UNL     1      -7.590 -11.113  42.028  1.00  0.00     0.293 HD
ENDBRANCH   8  24
TORSDOF 5
ENDMDL
MODEL 3
REMARK VINA RESULT:    -7.096      1.562      3.264
REMARK INTER + INTRA:          -8.633
REMARK INTER:                  -8.326
REMARK INTRA:                  -0.307
REMARK UNBOUND:                -0.292
REMARK SMILES O=c1cc(-c2ccc(O)c(O)c2)oc2cc(O)cc(O)c12
REMARK SMILES IDX 4 1 3 2 2 3 1 4 21 5 19 6 18 7 16 8 15 9 14 10 13 11 5 12
REMARK SMILES IDX 6 13 7 14 8 15 12 16 10 17 9 18 11 20 20 22 17 24
REMARK H PARENT 9 19 11 21 20 23 17 25
REMARK Flexibility Score: inf
ROOT
ATOM      1  C   UNL     1     -10.577  -8.854  38.279  1.00  0.00     0.138 A 
ATOM      2  C   UNL     1     -10.240  -9.585  39.431  1.00  0.00     0.100 A 
ATOM      3  C   UNL     1      -9.126 -10.425  39.409  1.00  0.00     0.197 A 
ATOM      4  O   UNL     1      -8.833 -11.078  40.447  1.00  0.00    -0.289 OA
ATOM      5  C   UNL     1      -8.359 -10.532  38.232  1.00  0.00     0.107 A 
ATOM      6  C   UNL     1      -7.215 -11.359  38.126  1.00  0.00     0.134 A 
ATOM      7  C   UNL     1      -6.507 -11.415  36.916  1.00  0.00     0.093 A 
ATOM      8  C   UNL     1      -6.922 -10.659  35.813  1.00  0.00     0.123 A 
ATOM      9  C   UNL     1      -8.049  -9.842  35.913  1.00  0.00     0.094 A 
ATOM     10  C   UNL     1      -8.768  -9.772  37.110  1.00  0.00     0.146 A 
ATOM     11  O   UNL     1      -9.836  -8.985  37.181  1.00  0.00    -0.456 OA
ENDROOT
BRANCH   1  12
ATOM     12  C   UNL     1     -11.751  -7.945  38.244  1.00  0.00     0.021 A 
ATOM     13  C   UNL     1     -12.192  -7.339  39.434  1.00  0.00     0.016 A 
ATOM     14  C   UNL     1     -13.297  -6.485  39.429  1.00  0.00     0.051 A 
ATOM     15  C   UNL     1     -13.987  -6.231  38.238  1.00  0.00     0.157 A 
ATOM     16  C   UNL     1     -12.458  -7.695  37.052  1.00  0.00     0.062 A 
ATOM     17  C   UNL     1     -13.570  -6.839  37.048  1.00  0.00     0.158 A 
BRANCH  15  18
ATOM     18  O   UNL     1     -15.090  -5.379  38.229  1.00  0.00    -0.504 OA
ATOM     19  H   UNL     1     -14.993  -4.383  38.391  1.00  0.00     0.293 HD
ENDBRANCH  15  18
BRANCH  17  20
ATOM     20  O   UNL     1     -14.266  -6.592  35.866  1.00  0.00    -0.504 OA
ATOM     21  H   UNL     1     -15.069  -5.973  35.843  1.00  0.00     0.293 HD
ENDBRANCH  17  20
ENDBRANCH   1  12
BRANCH   6  22
ATOM     22  O   UNL     1      -6.779 -12.124  39.209  1.00  0.00    -0.507 OA
ATOM     23  H   UNL     1      -6.638 -13.124  39.133  1.00  0.00     0.293 HD
ENDBRANCH   6  22
BRANCH   8  24
ATOM     24  O   UNL     1      -6.219 -10.714  34.611  1.00  0.00    -0.508 OA
ATOM     25  H   UNL     1      -5.506 -11.416  34.446  1.00  0.00     0.293 HD
ENDBRANCH   8  24
TORSDOF 5
ENDMDL
MODEL 4
REMARK VINA RESULT:    -6.979      8.077      9.411
REMARK INTER + INTRA:          -8.496
REMARK INTER:                  -8.178
REMARK INTRA:                  -0.318
REMARK UNBOUND:                -0.292
REMARK SMILES O=c1cc(-c2ccc(O)c(O)c2)oc2cc(O)cc(O)c12
REMARK SMILES IDX 4 1 3 2 2 3 1 4 21 5 19 6 18 7 16 8 15 9 14 10 13 11 5 12
REMARK SMILES IDX 6 13 7 14 8 15 12 16 10 17 9 18 11 20 20 22 17 24
REMARK H PARENT 9 19 11 21 20 23 17 25
REMARK Flexibility Score: inf
ROOT
ATOM      1  C   UNL     1     -16.830  -7.554  44.259  1.00  0.00     0.138 A 
ATOM      2  C   UNL     1     -17.031  -8.710  45.031  1.00  0.00     0.100 A 
ATOM      3  C   UNL     1     -16.700  -8.697  46.387  1.00  0.00     0.197 A 
ATOM      4  O   UNL     1     -16.883  -9.741  47.070  1.00  0.00    -0.289 OA
ATOM      5  C   UNL     1     -16.165  -7.527  46.960  1.00  0.00     0.107 A 
ATOM      6  C   UNL     1     -15.804  -7.428  48.325  1.00  0.00     0.134 A 
ATOM      7  C   UNL     1     -15.273  -6.228  48.819  1.00  0.00     0.093 A 
ATOM      8  C   UNL     1     -15.096  -5.126  47.974  1.00  0.00     0.123 A 
ATOM      9  C   UNL     1     -15.450  -5.218  46.627  1.00  0.00     0.094 A 
ATOM     10  C   UNL     1     -15.983  -6.405  46.115  1.00  0.00     0.146 A 
ATOM     11  O   UNL     1     -16.314  -6.467  44.830  1.00  0.00    -0.456 OA
ENDROOT
BRANCH   1  12
ATOM     12  C   UNL     1     -17.164  -7.509  42.813  1.00  0.00     0.021 A 
ATOM     13  C   UNL     1     -17.804  -8.611  42.217  1.00  0.00     0.016 A 
ATOM     14  C   UNL     1     -18.123  -8.597  40.857  1.00  0.00     0.051 A 
ATOM     15  C   UNL     1     -17.797  -7.488  40.067  1.00  0.00     0.157 A 
ATOM     16  C   UNL     1     -16.828  -6.403  42.009  1.00  0.00     0.062 A 
ATOM     17  C   UNL     1     -17.145  -6.391  40.642  1.00  0.00     0.158 A 
BRANCH  15  18
ATOM     18  O   UNL     1     -18.114  -7.470  38.710  1.00  0.00    -0.504 OA
ATOM     19  H   UNL     1     -19.066  -7.594  38.386  1.00  0.00     0.293 HD
ENDBRANCH  15  18
BRANCH  17  20
ATOM     20  O   UNL     1     -16.814  -5.293  39.850  1.00  0.00    -0.504 OA
ATOM     21  H   UNL     1     -16.593  -4.392  40.259  1.00  0.00     0.293 HD
ENDBRANCH  17  20
ENDBRANCH   1  12
BRANCH   6  22
ATOM     22  O   UNL     1     -15.969  -8.510  49.191  1.00  0.00    -0.507 OA
ATOM     23  H   UNL     1     -16.739  -8.555  49.848  1.00  0.00     0.293 HD
ENDBRANCH   6  22
BRANCH   8  24
ATOM     24  O   UNL     1     -14.568  -3.933  48.463  1.00  0.00    -0.508 OA
ATOM     25  H   UNL     1     -13.640  -3.894  48.872  1.00  0.00     0.293 HD
ENDBRANCH   8  24
TORSDOF 5
ENDMDL
MODEL 5
REMARK VINA RESULT:    -6.956      1.737      7.589
REMARK INTER + INTRA:          -8.469
REMARK INTER:                  -8.174
REMARK INTRA:                  -0.294
REMARK UNBOUND:                -0.292
REMARK SMILES O=c1cc(-c2ccc(O)c(O)c2)oc2cc(O)cc(O)c12
REMARK SMILES IDX 4 1 3 2 2 3 1 4 21 5 19 6 18 7 16 8 15 9 14 10 13 11 5 12
REMARK SMILES IDX 6 13 7 14 8 15 12 16 10 17 9 18 11 20 20 22 17 24
REMARK H PARENT 9 19 11 21 20 23 17 25
REMARK Flexibility Score: inf
ROOT
ATOM      1  C   UNL     1     -11.350  -8.262  40.301  1.00  0.00     0.138 A 
ATOM      2  C   UNL     1     -11.901  -7.299  41.163  1.00  0.00     0.100 A 
ATOM      3  C   UNL     1     -12.855  -6.405  40.674  1.00  0.00     0.197 A 
ATOM      4  O   UNL     1     -13.343  -5.544  41.455  1.00  0.00    -0.289 OA
ATOM      5  C   UNL     1     -13.247  -6.478  39.322  1.00  0.00     0.107 A 
ATOM      6  C   UNL     1     -14.206  -5.611  38.747  1.00  0.00     0.134 A 
ATOM      7  C   UNL     1     -14.540  -5.745  37.391  1.00  0.00     0.093 A 
ATOM      8  C   UNL     1     -13.930  -6.728  36.602  1.00  0.00     0.123 A 
ATOM      9  C   UNL     1     -12.983  -7.584  37.164  1.00  0.00     0.094 A 
ATOM     10  C   UNL     1     -12.639  -7.468  38.514  1.00  0.00     0.146 A 
ATOM     11  O   UNL     1     -11.736  -8.297  39.027  1.00  0.00    -0.456 OA
ENDROOT
BRANCH   1  12
ATOM     12  C   UNL     1     -10.332  -9.238  40.766  1.00  0.00     0.021 A 
ATOM     13  C   UNL     1      -9.576  -9.952  39.819  1.00  0.00     0.016 A 
ATOM     14  C   UNL     1      -8.617 -10.881  40.229  1.00  0.00     0.051 A 
ATOM     15  C   UNL     1      -8.404 -11.120  41.592  1.00  0.00     0.157 A 
ATOM     16  C   UNL     1     -10.121  -9.493  42.135  1.00  0.00     0.062 A 
ATOM     17  C   UNL     1      -9.160 -10.428  42.547  1.00  0.00     0.158 A 
BRANCH  15  18
ATOM     18  O   UNL     1      -7.448 -12.045  42.006  1.00  0.00    -0.504 OA
ATOM     19  H   UNL     1      -7.669 -12.772  42.678  1.00  0.00     0.293 HD
ENDBRANCH  15  18
BRANCH  17  20
ATOM     20  O   UNL     1      -8.952 -10.676  43.903  1.00  0.00    -0.504 OA
ATOM     21  H   UNL     1      -8.026 -10.856  44.273  1.00  0.00     0.293 HD
ENDBRANCH  17  20
ENDBRANCH   1  12
BRANCH   6  22
ATOM     22  O   UNL     1     -14.830  -4.622  39.509  1.00  0.00    -0.507 OA
ATOM     23  H   UNL     1     -15.466  -4.852  40.264  1.00  0.00     0.293 HD
ENDBRANCH   6  22
BRANCH   8  24
ATOM     24  O   UNL     1     -14.260  -6.861  35.254  1.00  0.00    -0.508 OA
ATOM     25  H   UNL     1     -13.696  -7.420  34.624  1.00  0.00     0.293 HD
ENDBRANCH   8  24
TORSDOF 5
ENDMDL
MODEL 6
REMARK VINA RESULT:    -6.896      1.693      7.021
REMARK INTER + INTRA:          -8.397
REMARK INTER:                  -8.082
REMARK INTRA:                  -0.316
REMARK UNBOUND:                -0.292
REMARK SMILES O=c1cc(-c2ccc(O)c(O)c2)oc2cc(O)cc(O)c12
REMARK SMILES IDX 4 1 3 2 2 3 1 4 21 5 19 6 18 7 16 8 15 9 14 10 13 11 5 12
REMARK SMILES IDX 6 13 7 14 8 15 12 16 10 17 9 18 11 20 20 22 17 24
REMARK H PARENT 9 19 11 21 20 23 17 25
REMARK Flexibility Score: inf
ROOT
ATOM      1  C   UNL     1     -10.604  -9.163  39.908  1.00  0.00     0.138 A 
ATOM      2  C   UNL     1     -10.701  -9.427  38.531  1.00  0.00     0.100 A 
ATOM      3  C   UNL     1     -11.587  -8.685  37.750  1.00  0.00     0.197 A 
ATOM      4  O   UNL     1     -11.667  -8.931  36.516  1.00  0.00    -0.289 OA
ATOM      5  C   UNL     1     -12.374  -7.684  38.352  1.00  0.00     0.107 A 
ATOM      6  C   UNL     1     -13.295  -6.885  37.633  1.00  0.00     0.134 A 
ATOM      7  C   UNL     1     -14.047  -5.911  38.308  1.00  0.00     0.093 A 
ATOM      8  C   UNL     1     -13.893  -5.723  39.687  1.00  0.00     0.123 A 
ATOM      9  C   UNL     1     -12.986  -6.508  40.400  1.00  0.00     0.094 A 
ATOM     10  C   UNL     1     -12.227  -7.483  39.746  1.00  0.00     0.146 A 
ATOM     11  O   UNL     1     -11.369  -8.216  40.447  1.00  0.00    -0.456 OA
ENDROOT
BRANCH   1  12
ATOM     12  C   UNL     1      -9.679  -9.921  40.788  1.00  0.00     0.021 A 
ATOM     13  C   UNL     1      -8.695 -10.744  40.212  1.00  0.00     0.016 A 
ATOM     14  C   UNL     1      -7.818 -11.472  41.017  1.00  0.00     0.051 A 
ATOM     15  C   UNL     1      -7.915 -11.400  42.412  1.00  0.00     0.157 A 
ATOM     16  C   UNL     1      -9.779  -9.863  42.192  1.00  0.00     0.062 A 
ATOM     17  C   UNL     1      -8.899 -10.597  43.001  1.00  0.00     0.158 A 
BRANCH  15  18
ATOM     18  O   UNL     1      -7.040 -12.125  43.220  1.00  0.00    -0.504 OA
ATOM     19  H   UNL     1      -7.256 -13.068  43.522  1.00  0.00     0.293 HD
ENDBRANCH  15  18
BRANCH  17  20
ATOM     20  O   UNL     1      -8.999 -10.535  44.390  1.00  0.00    -0.504 OA
ATOM     21  H   UNL     1      -8.205 -10.284  44.968  1.00  0.00     0.293 HD
ENDBRANCH  17  20
ENDBRANCH   1  12
BRANCH   6  22
ATOM     22  O   UNL     1     -13.469  -7.051  36.259  1.00  0.00    -0.507 OA
ATOM     23  H   UNL     1     -13.402  -7.961  35.819  1.00  0.00     0.293 HD
ENDBRANCH   6  22
BRANCH   8  24
ATOM     24  O   UNL     1     -14.640  -4.756  40.358  1.00  0.00    -0.508 OA
ATOM     25  H   UNL     1     -15.225  -4.996  41.151  1.00  0.00     0.293 HD
ENDBRANCH   8  24
TORSDOF 5
ENDMDL
MODEL 7
REMARK VINA RESULT:    -6.822      1.465      6.846
REMARK INTER + INTRA:          -8.311
REMARK INTER:                  -8.021
REMARK INTRA:                  -0.290
REMARK UNBOUND:                -0.292
REMARK SMILES O=c1cc(-c2ccc(O)c(O)c2)oc2cc(O)cc(O)c12
REMARK SMILES IDX 4 1 3 2 2 3 1 4 21 5 19 6 18 7 16 8 15 9 14 10 13 11 5 12
REMARK SMILES IDX 6 13 7 14 8 15 12 16 10 17 9 18 11 20 20 22 17 24
REMARK H PARENT 9 19 11 21 20 23 17 25
REMARK Flexibility Score: inf
ROOT
ATOM      1  C   UNL     1     -11.258  -8.446  38.800  1.00  0.00     0.138 A 
ATOM      2  C   UNL     1     -11.945  -8.241  37.592  1.00  0.00     0.100 A 
ATOM      3  C   UNL     1     -12.997  -7.324  37.548  1.00  0.00     0.197 A 
ATOM      4  O   UNL     1     -13.608  -7.148  36.459  1.00  0.00    -0.289 OA
ATOM      5  C   UNL     1     -13.356  -6.621  38.715  1.00  0.00     0.107 A 
ATOM      6  C   UNL     1     -14.407  -5.675  38.756  1.00  0.00     0.134 A 
ATOM      7  C   UNL     1     -14.707  -5.020  39.960  1.00  0.00     0.093 A 
ATOM      8  C   UNL     1     -13.975  -5.295  41.121  1.00  0.00     0.123 A 
ATOM      9  C   UNL     1     -12.937  -6.228  41.086  1.00  0.00     0.094 A 
ATOM     10  C   UNL     1     -12.622  -6.890  39.895  1.00  0.00     0.146 A 
ATOM     11  O   UNL     1     -11.629  -7.772  39.887  1.00  0.00    -0.456 OA
ENDROOT
BRANCH   1  12
ATOM     12  C   UNL     1     -10.132  -9.408  38.907  1.00  0.00     0.021 A 
ATOM     13  C   UNL     1      -9.842  -9.998  40.150  1.00  0.00     0.016 A 
ATOM     14  C   UNL     1      -8.785 -10.902  40.279  1.00  0.00     0.051 A 
ATOM     15  C   UNL     1      -7.993 -11.223  39.171  1.00  0.00     0.157 A 
ATOM     16  C   UNL     1      -9.323  -9.727  37.800  1.00  0.00     0.062 A 
ATOM     17  C   UNL     1      -8.259 -10.633  37.930  1.00  0.00     0.158 A 
BRANCH  15  18
ATOM     18  O   UNL     1      -6.937 -12.125  39.295  1.00  0.00    -0.504 OA
ATOM     19  H   UNL     1      -5.985 -11.861  39.067  1.00  0.00     0.293 HD
ENDBRANCH  15  18
BRANCH  17  20
ATOM     20  O   UNL     1      -7.461 -10.948  36.831  1.00  0.00    -0.504 OA
ATOM     21  H   UNL     1      -6.572 -11.421  36.940  1.00  0.00     0.293 HD
ENDBRANCH  17  20
ENDBRANCH   1  12
BRANCH   6  22
ATOM     22  O   UNL     1     -15.154  -5.380  37.615  1.00  0.00    -0.507 OA
ATOM     23  H   UNL     1     -15.104  -4.474  37.164  1.00  0.00     0.293 HD
ENDBRANCH   6  22
BRANCH   8  24
ATOM     24  O   UNL     1     -14.272  -4.646  42.319  1.00  0.00    -0.508 OA
ATOM     25  H   UNL     1     -14.162  -3.643  42.418  1.00  0.00     0.293 HD
ENDBRANCH   8  24
TORSDOF 5
ENDMDL
MODEL 8
REMARK VINA RESULT:    -6.787      2.373      3.799
REMARK INTER + INTRA:          -8.270
REMARK INTER:                  -7.959
REMARK INTRA:                  -0.310
REMARK UNBOUND:                -0.292
REMARK SMILES O=c1cc(-c2ccc(O)c(O)c2)oc2cc(O)cc(O)c12
REMARK SMILES IDX 4 1 3 2 2 3 1 4 21 5 19 6 18 7 16 8 15 9 14 10 13 11 5 12
REMARK SMILES IDX 6 13 7 14 8 15 12 16 10 17 9 18 11 20 20 22 17 24
REMARK H PARENT 9 19 11 21 20 23 17 25
REMARK Flexibility Score: inf
ROOT
ATOM      1  C   UNL     1     -10.295  -9.126  40.900  1.00  0.00     0.138 A 
ATOM      2  C   UNL     1      -9.728 -10.407  41.007  1.00  0.00     0.100 A 
ATOM      3  C   UNL     1      -9.033 -10.756  42.166  1.00  0.00     0.197 A 
ATOM      4  O   UNL     1      -8.527 -11.908  42.252  1.00  0.00    -0.289 OA
ATOM      5  C   UNL     1      -8.905  -9.818  43.209  1.00  0.00     0.107 A 
ATOM      6  C   UNL     1      -8.218 -10.090  44.416  1.00  0.00     0.134 A 
ATOM      7  C   UNL     1      -8.130  -9.100  45.405  1.00  0.00     0.093 A 
ATOM      8  C   UNL     1      -8.716  -7.843  45.209  1.00  0.00     0.123 A 
ATOM      9  C   UNL     1      -9.394  -7.570  44.020  1.00  0.00     0.094 A 
ATOM     10  C   UNL     1      -9.494  -8.544  43.022  1.00  0.00     0.146 A 
ATOM     11  O   UNL     1     -10.147  -8.260  41.900  1.00  0.00    -0.456 OA
ENDROOT
BRANCH   1  12
ATOM     12  C   UNL     1     -11.044  -8.700  39.692  1.00  0.00     0.021 A 
ATOM     13  C   UNL     1     -10.789  -9.330  38.461  1.00  0.00     0.016 A 
ATOM     14  C   UNL     1     -11.476  -8.944  37.308  1.00  0.00     0.051 A 
ATOM     15  C   UNL     1     -12.422  -7.913  37.363  1.00  0.00     0.157 A 
ATOM     16  C   UNL     1     -11.988  -7.656  39.736  1.00  0.00     0.062 A 
ATOM     17  C   UNL     1     -12.676  -7.266  38.577  1.00  0.00     0.158 A 
BRANCH  15  18
ATOM     18  O   UNL     1     -13.110  -7.525  36.215  1.00  0.00    -0.504 OA
ATOM     19  H   UNL     1     -13.416  -8.201  35.525  1.00  0.00     0.293 HD
ENDBRANCH  15  18
BRANCH  17  20
ATOM     20  O   UNL     1     -13.612  -6.233  38.626  1.00  0.00    -0.504 OA
ATOM     21  H   UNL     1     -13.749  -5.680  39.464  1.00  0.00     0.293 HD
ENDBRANCH  17  20
ENDBRANCH   1  12
BRANCH   6  22
ATOM     22  O   UNL     1      -7.624 -11.333  44.639  1.00  0.00    -0.507 OA
ATOM     23  H   UNL     1      -6.887 -11.457  45.324  1.00  0.00     0.293 HD
ENDBRANCH   6  22
BRANCH   8  24
ATOM     24  O   UNL     1      -8.629  -6.858  46.191  1.00  0.00    -0.508 OA
ATOM     25  H   UNL     1      -9.440  -6.320  46.474  1.00  0.00     0.293 HD
ENDBRANCH   8  24
TORSDOF 5
ENDMDL
MODEL 9
REMARK VINA RESULT:    -6.663      7.061      8.635
REMARK INTER + INTRA:          -8.124
REMARK INTER:                  -7.859
REMARK INTRA:                  -0.265
REMARK UNBOUND:                -0.292
REMARK SMILES O=c1cc(-c2ccc(O)c(O)c2)oc2cc(O)cc(O)c12
REMARK SMILES IDX 4 1 3 2 2 3 1 4 21 5 19 6 18 7 16 8 15 9 14 10 13 11 5 12
REMARK SMILES IDX 6 13 7 14 8 15 12 16 10 17 9 18 11 20 20 22 17 24
REMARK H PARENT 9 19 11 21 20 23 17 25
REMARK Flexibility Score: inf
ROOT
ATOM      1  C   UNL     1     -16.252  -7.242  44.169  1.00  0.00     0.138 A 
ATOM      2  C   UNL     1     -16.197  -6.248  45.160  1.00  0.00     0.100 A 
ATOM      3  C   UNL     1     -15.895  -6.605  46.475  1.00  0.00     0.197 A 
ATOM      4  O   UNL     1     -15.850  -5.705  47.357  1.00  0.00    -0.289 OA
ATOM      5  C   UNL     1     -15.655  -7.957  46.790  1.00  0.00     0.107 A 
ATOM      6  C   UNL     1     -15.342  -8.403  48.096  1.00  0.00     0.134 A 
ATOM      7  C   UNL     1     -15.120  -9.769  48.330  1.00  0.00     0.093 A 
ATOM      8  C   UNL     1     -15.207 -10.693  47.282  1.00  0.00     0.123 A 
ATOM      9  C   UNL     1     -15.516 -10.258  45.993  1.00  0.00     0.094 A 
ATOM     10  C   UNL     1     -15.738  -8.901  45.739  1.00  0.00     0.146 A 
ATOM     11  O   UNL     1     -16.029  -8.512  44.502  1.00  0.00    -0.456 OA
ENDROOT
BRANCH   1  12
ATOM     12  C   UNL     1     -16.569  -6.921  42.754  1.00  0.00     0.021 A 
ATOM     13  C   UNL     1     -17.804  -7.323  42.214  1.00  0.00     0.016 A 
ATOM     14  C   UNL     1     -18.123  -7.039  40.884  1.00  0.00     0.051 A 
ATOM     15  C   UNL     1     -17.211  -6.359  40.068  1.00  0.00     0.157 A 
ATOM     16  C   UNL     1     -15.651  -6.250  41.924  1.00  0.00     0.062 A 
ATOM     17  C   UNL     1     -15.971  -5.967  40.588  1.00  0.00     0.158 A 
BRANCH  15  18
ATOM     18  O   UNL     1     -17.526  -6.074  38.741  1.00  0.00    -0.504 OA
ATOM     19  H   UNL     1     -18.021  -6.740  38.159  1.00  0.00     0.293 HD
ENDBRANCH  15  18
BRANCH  17  20
ATOM     20  O   UNL     1     -15.061  -5.300  39.769  1.00  0.00    -0.504 OA
ATOM     21  H   UNL     1     -14.578  -5.775  39.016  1.00  0.00     0.293 HD
ENDBRANCH  17  20
ENDBRANCH   1  12
BRANCH   6  22
ATOM     22  O   UNL     1     -15.249  -7.504  49.160  1.00  0.00    -0.507 OA
ATOM     23  H   UNL     1     -15.923  -7.502  49.916  1.00  0.00     0.293 HD
ENDBRANCH   6  22
BRANCH   8  24
ATOM     24  O   UNL     1     -14.988 -12.050  47.514  1.00  0.00    -0.508 OA
ATOM     25  H   UNL     1     -14.966 -12.720  46.753  1.00  0.00     0.293 HD
ENDBRANCH   8  24
TORSDOF 5
ENDMDL
