MODEL 1
REMARK VINA RESULT:    -5.598      0.000      0.000
REMARK INTER + INTRA:          -8.118
REMARK INTER:                  -7.725
REMARK INTRA:                  -0.393
REMARK UNBOUND:                -0.393
REMARK SMILES CCCCc1cccc(O)c1CCCC
REMARK SMILES IDX 5 1 11 2 9 3 8 4 7 5 6 6 4 7 3 8 2 9 1 10 12 11 13 12 14 13
REMARK SMILES IDX 15 14 10 15
REMARK H PARENT 10 16
REMARK Flexibility Score: inf
ROOT
ATOM      1  C   UNL     1       7.533   8.122  80.468  1.00  0.00    -0.041 A 
ATOM      2  C   UNL     1       8.872   8.294  80.005  1.00  0.00    -0.003 A 
ATOM      3  C   UNL     1       9.517   7.214  79.359  1.00  0.00     0.119 A 
ATOM      4  C   UNL     1       8.850   5.998  79.174  1.00  0.00     0.046 A 
ATOM      5  C   UNL     1       7.545   5.836  79.625  1.00  0.00     0.004 A 
ATOM      6  C   UNL     1       6.892   6.887  80.263  1.00  0.00     0.004 A 
ENDROOT
BRANCH   1   7
ATOM      7  C   UNL     1       6.727   9.215  81.147  1.00  0.00     0.036 C 
BRANCH   7   8
ATOM      8  C   UNL     1       5.512   8.654  81.903  1.00  0.00     0.004 C 
BRANCH   8   9
ATOM      9  C   UNL     1       4.545   9.753  82.363  1.00  0.00    -0.003 C 
ATOM     10  C   UNL     1       3.310   9.154  83.031  1.00  0.00     0.004 C 
ENDBRANCH   8   9
ENDBRANCH   7   8
ENDBRANCH   1   7
BRANCH   2  11
ATOM     11  C   UNL     1       9.655   9.582  80.204  1.00  0.00     0.040 C 
BRANCH  11  12
ATOM     12  C   UNL     1       9.127  10.728  79.324  1.00  0.00     0.005 C 
BRANCH  12  13
ATOM     13  C   UNL     1       9.866  12.050  79.566  1.00  0.00    -0.003 C 
ATOM     14  C   UNL     1       9.967  12.867  78.282  1.00  0.00     0.004 C 
ENDBRANCH  12  13
ENDBRANCH  11  12
ENDBRANCH   2  11
BRANCH   3  15
ATOM     15  O   UNL     1      10.828   7.352  78.897  1.00  0.00    -0.508 OA
ATOM     16  H   UNL     1      11.260   8.261  78.784  1.00  0.00     0.293 HD
ENDBRANCH   3  15
TORSDOF 7
ENDMDL
MODEL 2
REMARK VINA RESULT:    -5.351      1.523      4.294
REMARK INTER + INTRA:          -7.777
REMARK INTER:                  -7.148
REMARK INTRA:                  -0.630
REMARK UNBOUND:                -0.393
REMARK SMILES CCCCc1cccc(O)c1CCCC
REMARK SMILES IDX 5 1 11 2 9 3 8 4 7 5 6 6 4 7 3 8 2 9 1 10 12 11 13 12 14 13
REMARK SMILES IDX 15 14 10 15
REMARK H PARENT 10 16
REMARK Flexibility Score: inf
ROOT
ATOM      1  C   UNL     1       8.736   8.405  79.760  1.00  0.00    -0.041 A 
ATOM      2  C   UNL     1       7.752   7.407  80.025  1.00  0.00    -0.003 A 
ATOM      3  C   UNL     1       8.085   6.046  79.828  1.00  0.00     0.119 A 
ATOM      4  C   UNL     1       9.362   5.687  79.384  1.00  0.00     0.046 A 
ATOM      5  C   UNL     1      10.319   6.664  79.130  1.00  0.00     0.004 A 
ATOM      6  C   UNL     1      10.011   8.008  79.318  1.00  0.00     0.004 A 
ENDROOT
BRANCH   1   7
ATOM      7  C   UNL     1       8.508   9.892  79.963  1.00  0.00     0.036 C 
BRANCH   7   8
ATOM      8  C   UNL     1       9.718  10.730  79.521  1.00  0.00     0.004 C 
BRANCH   8   9
ATOM      9  C   UNL     1       9.340  12.178  79.179  1.00  0.00    -0.003 C 
ATOM     10  C   UNL     1       7.825  12.339  79.073  1.00  0.00     0.004 C 
ENDBRANCH   8   9
ENDBRANCH   7   8
ENDBRANCH   1   7
BRANCH   2  11
ATOM     11  C   UNL     1       6.339   7.740  80.480  1.00  0.00     0.040 C 
BRANCH  11  12
ATOM     12  C   UNL     1       6.317   8.413  81.863  1.00  0.00     0.005 C 
BRANCH  12  13
ATOM     13  C   UNL     1       5.050   9.245  82.096  1.00  0.00    -0.003 C 
ATOM     14  C   UNL     1       5.185  10.637  81.488  1.00  0.00     0.004 C 
ENDBRANCH  12  13
ENDBRANCH  11  12
ENDBRANCH   2  11
BRANCH   3  15
ATOM     15  O   UNL     1       7.141   5.047  80.076  1.00  0.00    -0.508 OA
ATOM     16  H   UNL     1       6.621   4.608  79.327  1.00  0.00     0.293 HD
ENDBRANCH   3  15
TORSDOF 7
ENDMDL
MODEL 3
REMARK VINA RESULT:    -5.127      2.939      6.033
REMARK INTER + INTRA:          -7.468
REMARK INTER:                  -6.642
REMARK INTRA:                  -0.826
REMARK UNBOUND:                -0.393
REMARK SMILES CCCCc1cccc(O)c1CCCC
REMARK SMILES IDX 5 1 11 2 9 3 8 4 7 5 6 6 4 7 3 8 2 9 1 10 12 11 13 12 14 13
REMARK SMILES IDX 15 14 10 15
REMARK H PARENT 10 16
REMARK Flexibility Score: inf
ROOT
ATOM      1  C   UNL     1       4.160  11.146  81.848  1.00  0.00    -0.041 A 
ATOM      2  C   UNL     1       4.476   9.846  82.346  1.00  0.00    -0.003 A 
ATOM      3  C   UNL     1       3.454   9.078  82.952  1.00  0.00     0.119 A 
ATOM      4  C   UNL     1       2.154   9.585  83.056  1.00  0.00     0.046 A 
ATOM      5  C   UNL     1       1.852  10.851  82.567  1.00  0.00     0.004 A 
ATOM      6  C   UNL     1       2.843  11.623  81.967  1.00  0.00     0.004 A 
ENDROOT
BRANCH   1   7
ATOM      7  C   UNL     1       5.162  12.049  81.152  1.00  0.00     0.036 C 
BRANCH   7   8
ATOM      8  C   UNL     1       4.723  12.407  79.723  1.00  0.00     0.004 C 
BRANCH   8   9
ATOM      9  C   UNL     1       5.903  12.472  78.743  1.00  0.00    -0.003 C 
ATOM     10  C   UNL     1       7.006  11.497  79.146  1.00  0.00     0.004 C 
ENDBRANCH   8   9
ENDBRANCH   7   8
ENDBRANCH   1   7
BRANCH   2  11
ATOM     11  C   UNL     1       5.876   9.256  82.286  1.00  0.00     0.040 C 
BRANCH  11  12
ATOM     12  C   UNL     1       6.027   8.226  81.153  1.00  0.00     0.005 C 
BRANCH  12  13
ATOM     13  C   UNL     1       7.455   8.161  80.599  1.00  0.00    -0.003 C 
ATOM     14  C   UNL     1       7.747   6.793  79.990  1.00  0.00     0.004 C 
ENDBRANCH  12  13
ENDBRANCH  11  12
ENDBRANCH   2  11
BRANCH   3  15
ATOM     15  O   UNL     1       3.733   7.804  83.450  1.00  0.00    -0.508 OA
ATOM     16  H   UNL     1       3.268   7.440  84.273  1.00  0.00     0.293 HD
ENDBRANCH   3  15
TORSDOF 7
ENDMDL
MODEL 4
REMARK VINA RESULT:    -5.093      9.009     11.142
REMARK INTER + INTRA:          -7.421
REMARK INTER:                  -6.702
REMARK INTRA:                  -0.719
REMARK UNBOUND:                -0.393
REMARK SMILES CCCCc1cccc(O)c1CCCC
REMARK SMILES IDX 5 1 11 2 9 3 8 4 7 5 6 6 4 7 3 8 2 9 1 10 12 11 13 12 14 13
REMARK SMILES IDX 15 14 10 15
REMARK H PARENT 10 16
REMARK Flexibility Score: inf
ROOT
ATOM      1  C   UNL     1       1.122   3.827  88.125  1.00  0.00    -0.041 A 
ATOM      2  C   UNL     1       1.481   4.636  87.005  1.00  0.00    -0.003 A 
ATOM      3  C   UNL     1       2.629   4.293  86.253  1.00  0.00     0.119 A 
ATOM      4  C   UNL     1       3.395   3.175  86.600  1.00  0.00     0.046 A 
ATOM      5  C   UNL     1       3.039   2.389  87.690  1.00  0.00     0.004 A 
ATOM      6  C   UNL     1       1.914   2.709  88.443  1.00  0.00     0.004 A 
ENDROOT
BRANCH   1   7
ATOM      7  C   UNL     1      -0.102   4.076  88.989  1.00  0.00     0.036 C 
BRANCH   7   8
ATOM      8  C   UNL     1      -0.708   2.769  89.524  1.00  0.00     0.004 C 
BRANCH   8   9
ATOM      9  C   UNL     1      -0.690   2.695  91.057  1.00  0.00    -0.003 C 
ATOM     10  C   UNL     1       0.131   1.502  91.540  1.00  0.00     0.004 C 
ENDBRANCH   8   9
ENDBRANCH   7   8
ENDBRANCH   1   7
BRANCH   2  11
ATOM     11  C   UNL     1       0.703   5.878  86.600  1.00  0.00     0.040 C 
BRANCH  11  12
ATOM     12  C   UNL     1       1.108   7.114  87.422  1.00  0.00     0.005 C 
BRANCH  12  13
ATOM     13  C   UNL     1       1.943   8.114  86.613  1.00  0.00    -0.003 C 
ATOM     14  C   UNL     1       2.610   9.139  87.526  1.00  0.00     0.004 C 
ENDBRANCH  12  13
ENDBRANCH  11  12
ENDBRANCH   2  11
BRANCH   3  15
ATOM     15  O   UNL     1       3.006   5.067  85.153  1.00  0.00    -0.508 OA
ATOM     16  H   UNL     1       2.340   5.644  84.655  1.00  0.00     0.293 HD
ENDBRANCH   3  15
TORSDOF 7
ENDMDL
MODEL 5
REMARK VINA RESULT:    -4.957      3.022      5.670
REMARK INTER + INTRA:          -7.234
REMARK INTER:                  -6.629
REMARK INTRA:                  -0.604
REMARK UNBOUND:                -0.393
REMARK SMILES CCCCc1cccc(O)c1CCCC
REMARK SMILES IDX 5 1 11 2 9 3 8 4 7 5 6 6 4 7 3 8 2 9 1 10 12 11 13 12 14 13
REMARK SMILES IDX 15 14 10 15
REMARK H PARENT 10 16
REMARK Flexibility Score: inf
ROOT
ATOM      1  C   UNL     1       3.569   9.645  82.740  1.00  0.00    -0.041 A 
ATOM      2  C   UNL     1       4.804   9.980  82.108  1.00  0.00    -0.003 A 
ATOM      3  C   UNL     1       4.888  11.178  81.361  1.00  0.00     0.119 A 
ATOM      4  C   UNL     1       3.778  12.022  81.247  1.00  0.00     0.046 A 
ATOM      5  C   UNL     1       2.577  11.692  81.867  1.00  0.00     0.004 A 
ATOM      6  C   UNL     1       2.474  10.519  82.608  1.00  0.00     0.004 A 
ENDROOT
BRANCH   1   7
ATOM      7  C   UNL     1       3.365   8.406  83.592  1.00  0.00     0.036 C 
BRANCH   7   8
ATOM      8  C   UNL     1       2.410   8.662  84.769  1.00  0.00     0.004 C 
BRANCH   8   9
ATOM      9  C   UNL     1       1.914   7.364  85.419  1.00  0.00    -0.003 C 
ATOM     10  C   UNL     1       2.963   6.260  85.314  1.00  0.00     0.004 C 
ENDBRANCH   8   9
ENDBRANCH   7   8
ENDBRANCH   1   7
BRANCH   2  11
ATOM     11  C   UNL     1       6.033   9.087  82.172  1.00  0.00     0.040 C 
BRANCH  11  12
ATOM     12  C   UNL     1       6.021   8.000  81.084  1.00  0.00     0.005 C 
BRANCH  12  13
ATOM     13  C   UNL     1       7.357   7.893  80.340  1.00  0.00    -0.003 C 
ATOM     14  C   UNL     1       7.627   6.458  79.897  1.00  0.00     0.004 C 
ENDBRANCH  12  13
ENDBRANCH  11  12
ENDBRANCH   2  11
BRANCH   3  15
ATOM     15  O   UNL     1       6.083  11.531  80.729  1.00  0.00    -0.508 OA
ATOM     16  H   UNL     1       6.893  10.924  80.746  1.00  0.00     0.293 HD
ENDBRANCH   3  15
TORSDOF 7
ENDMDL
MODEL 6
REMARK VINA RESULT:    -4.950      2.678      4.576
REMARK INTER + INTRA:          -7.223
REMARK INTER:                  -5.953
REMARK INTRA:                  -1.270
REMARK UNBOUND:                -0.393
REMARK SMILES CCCCc1cccc(O)c1CCCC
REMARK SMILES IDX 5 1 11 2 9 3 8 4 7 5 6 6 4 7 3 8 2 9 1 10 12 11 13 12 14 13
REMARK SMILES IDX 15 14 10 15
REMARK H PARENT 10 16
REMARK Flexibility Score: inf
ROOT
ATOM      1  C   UNL     1       5.529   9.982  81.756  1.00  0.00    -0.041 A 
ATOM      2  C   UNL     1       5.852  10.870  80.686  1.00  0.00    -0.003 A 
ATOM      3  C   UNL     1       6.752  10.436  79.685  1.00  0.00     0.119 A 
ATOM      4  C   UNL     1       7.312   9.156  79.742  1.00  0.00     0.046 A 
ATOM      5  C   UNL     1       6.992   8.294  80.786  1.00  0.00     0.004 A 
ATOM      6  C   UNL     1       6.108   8.701  81.781  1.00  0.00     0.004 A 
ENDROOT
BRANCH   1   7
ATOM      7  C   UNL     1       4.555  10.322  82.870  1.00  0.00     0.036 C 
BRANCH   7   8
ATOM      8  C   UNL     1       3.302   9.433  82.834  1.00  0.00     0.004 C 
BRANCH   8   9
ATOM      9  C   UNL     1       2.163   9.983  83.704  1.00  0.00    -0.003 C 
ATOM     10  C   UNL     1       2.484  11.389  84.204  1.00  0.00     0.004 C 
ENDBRANCH   8   9
ENDBRANCH   7   8
ENDBRANCH   1   7
BRANCH   2  11
ATOM     11  C   UNL     1       5.297  12.282  80.589  1.00  0.00     0.040 C 
BRANCH  11  12
ATOM     12  C   UNL     1       3.952  12.329  79.844  1.00  0.00     0.005 C 
BRANCH  12  13
ATOM     13  C   UNL     1       2.790  12.759  80.747  1.00  0.00    -0.003 C 
ATOM     14  C   UNL     1       1.550  11.905  80.494  1.00  0.00     0.004 C 
ENDBRANCH  12  13
ENDBRANCH  11  12
ENDBRANCH   2  11
BRANCH   3  15
ATOM     15  O   UNL     1       7.089  11.284  78.627  1.00  0.00    -0.508 OA
ATOM     16  H   UNL     1       6.773  11.106  77.681  1.00  0.00     0.293 HD
ENDBRANCH   3  15
TORSDOF 7
ENDMDL
MODEL 7
REMARK VINA RESULT:    -4.909      2.929      6.236
REMARK INTER + INTRA:          -7.167
REMARK INTER:                  -6.338
REMARK INTRA:                  -0.829
REMARK UNBOUND:                -0.393
REMARK SMILES CCCCc1cccc(O)c1CCCC
REMARK SMILES IDX 5 1 11 2 9 3 8 4 7 5 6 6 4 7 3 8 2 9 1 10 12 11 13 12 14 13
REMARK SMILES IDX 15 14 10 15
REMARK H PARENT 10 16
REMARK Flexibility Score: inf
ROOT
ATOM      1  C   UNL     1       6.475   9.807  80.787  1.00  0.00    -0.041 A 
ATOM      2  C   UNL     1       5.447  10.477  81.514  1.00  0.00    -0.003 A 
ATOM      3  C   UNL     1       4.944  11.703  81.018  1.00  0.00     0.119 A 
ATOM      4  C   UNL     1       5.445  12.245  79.830  1.00  0.00     0.046 A 
ATOM      5  C   UNL     1       6.446  11.586  79.123  1.00  0.00     0.004 A 
ATOM      6  C   UNL     1       6.953  10.379  79.594  1.00  0.00     0.004 A 
ENDROOT
BRANCH   1   7
ATOM      7  C   UNL     1       7.071   8.474  81.201  1.00  0.00     0.036 C 
BRANCH   7   8
ATOM      8  C   UNL     1       6.816   7.376  80.157  1.00  0.00     0.004 C 
BRANCH   8   9
ATOM      9  C   UNL     1       8.067   6.533  79.870  1.00  0.00    -0.003 C 
ATOM     10  C   UNL     1       9.055   7.298  78.992  1.00  0.00     0.004 C 
ENDBRANCH   8   9
ENDBRANCH   7   8
ENDBRANCH   1   7
BRANCH   2  11
ATOM     11  C   UNL     1       4.885   9.951  82.826  1.00  0.00     0.040 C 
BRANCH  11  12
ATOM     12  C   UNL     1       3.738   8.949  82.608  1.00  0.00     0.005 C 
BRANCH  12  13
ATOM     13  C   UNL     1       2.496   9.280  83.445  1.00  0.00    -0.003 C 
ATOM     14  C   UNL     1       1.460  10.035  82.618  1.00  0.00     0.004 C 
ENDBRANCH  12  13
ENDBRANCH  11  12
ENDBRANCH   2  11
BRANCH   3  15
ATOM     15  O   UNL     1       3.940  12.383  81.710  1.00  0.00    -0.508 OA
ATOM     16  H   UNL     1       3.938  13.393  81.791  1.00  0.00     0.293 HD
ENDBRANCH   3  15
TORSDOF 7
ENDMDL
MODEL 8
REMARK VINA RESULT:    -4.730      3.878      7.246
REMARK INTER + INTRA:          -6.920
REMARK INTER:                  -5.973
REMARK INTRA:                  -0.947
REMARK UNBOUND:                -0.393
REMARK SMILES CCCCc1cccc(O)c1CCCC
REMARK SMILES IDX 5 1 11 2 9 3 8 4 7 5 6 6 4 7 3 8 2 9 1 10 12 11 13 12 14 13
REMARK SMILES IDX 15 14 10 15
REMARK H PARENT 10 16
REMARK Flexibility Score: inf
ROOT
ATOM      1  C   UNL     1       4.507  11.124  81.538  1.00  0.00    -0.041 A 
ATOM      2  C   UNL     1       3.092  11.307  81.519  1.00  0.00    -0.003 A 
ATOM      3  C   UNL     1       2.526  12.173  80.555  1.00  0.00     0.119 A 
ATOM      4  C   UNL     1       3.343  12.836  79.632  1.00  0.00     0.046 A 
ATOM      5  C   UNL     1       4.721  12.651  79.653  1.00  0.00     0.004 A 
ATOM      6  C   UNL     1       5.297  11.803  80.593  1.00  0.00     0.004 A 
ENDROOT
BRANCH   1   7
ATOM      7  C   UNL     1       5.226  10.198  82.503  1.00  0.00     0.036 C 
BRANCH   7   8
ATOM      8  C   UNL     1       5.432   8.794  81.914  1.00  0.00     0.004 C 
BRANCH   8   9
ATOM      9  C   UNL     1       6.848   8.589  81.358  1.00  0.00    -0.003 C 
ATOM     10  C   UNL     1       6.890   7.419  80.379  1.00  0.00     0.004 C 
ENDBRANCH   8   9
ENDBRANCH   7   8
ENDBRANCH   1   7
BRANCH   2  11
ATOM     11  C   UNL     1       2.159  10.637  82.516  1.00  0.00     0.040 C 
BRANCH  11  12
ATOM     12  C   UNL     1       2.090  11.397  83.851  1.00  0.00     0.005 C 
BRANCH  12  13
ATOM     13  C   UNL     1       2.496  10.529  85.048  1.00  0.00    -0.003 C 
ATOM     14  C   UNL     1       2.404   9.044  84.708  1.00  0.00     0.004 C 
ENDBRANCH  12  13
ENDBRANCH  11  12
ENDBRANCH   2  11
BRANCH   3  15
ATOM     15  O   UNL     1       1.145  12.374  80.513  1.00  0.00    -0.508 OA
ATOM     16  H   UNL     1       0.613  12.246  79.661  1.00  0.00     0.293 HD
ENDBRANCH   3  15
TORSDOF 7
ENDMDL
MODEL 9
REMARK VINA RESULT:    -4.724      7.537      8.874
REMARK INTER + INTRA:          -6.911
REMARK INTER:                  -5.428
REMARK INTRA:                  -1.483
REMARK UNBOUND:                -0.393
REMARK SMILES CCCCc1cccc(O)c1CCCC
REMARK SMILES IDX 5 1 11 2 9 3 8 4 7 5 6 6 4 7 3 8 2 9 1 10 12 11 13 12 14 13
REMARK SMILES IDX 15 14 10 15
REMARK H PARENT 10 16
REMARK Flexibility Score: inf
ROOT
ATOM      1  C   UNL     1       0.795   7.662  86.391  1.00  0.00    -0.041 A 
ATOM      2  C   UNL     1       1.796   7.880  85.398  1.00  0.00    -0.003 A 
ATOM      3  C   UNL     1       2.676   6.823  85.069  1.00  0.00     0.119 A 
ATOM      4  C   UNL     1       2.563   5.583  85.706  1.00  0.00     0.046 A 
ATOM      5  C   UNL     1       1.584   5.375  86.672  1.00  0.00     0.004 A 
ATOM      6  C   UNL     1       0.707   6.402  87.009  1.00  0.00     0.004 A 
ENDROOT
BRANCH   1   7
ATOM      7  C   UNL     1      -0.225   8.707  86.806  1.00  0.00     0.036 C 
BRANCH   7   8
ATOM      8  C   UNL     1      -0.095   9.087  88.290  1.00  0.00     0.004 C 
BRANCH   8   9
ATOM      9  C   UNL     1       0.869  10.260  88.516  1.00  0.00    -0.003 C 
ATOM     10  C   UNL     1       2.229   9.766  89.004  1.00  0.00     0.004 C 
ENDBRANCH   8   9
ENDBRANCH   7   8
ENDBRANCH   1   7
BRANCH   2  11
ATOM     11  C   UNL     1       1.984   9.216  84.694  1.00  0.00     0.040 C 
BRANCH  11  12
ATOM     12  C   UNL     1       2.958  10.138  85.447  1.00  0.00     0.005 C 
BRANCH  12  13
ATOM     13  C   UNL     1       2.540  11.612  85.390  1.00  0.00    -0.003 C 
ATOM     14  C   UNL     1       1.054  11.752  85.075  1.00  0.00     0.004 C 
ENDBRANCH  12  13
ENDBRANCH  11  12
ENDBRANCH   2  11
BRANCH   3  15
ATOM     15  O   UNL     1       3.667   7.008  84.103  1.00  0.00    -0.508 OA
ATOM     16  H   UNL     1       3.450   7.028  83.114  1.00  0.00     0.293 HD
ENDBRANCH   3  15
TORSDOF 7
ENDMDL
