MODEL 1
REMARK VINA RESULT:    -5.395      0.000      0.000
REMARK INTER + INTRA:          -6.888
REMARK INTER:                  -6.656
REMARK INTRA:                  -0.232
REMARK UNBOUND:                -0.232
REMARK SMILES O=c1c(O)c(-c2cc(O)c(O)c(O)c2)oc2cc(O)cc(O)c12
REMARK SMILES IDX 5 1 3 2 2 3 1 4 23 5 21 6 20 7 18 8 17 9 16 10 15 11 6 12
REMARK SMILES IDX 7 13 8 14 14 15 10 16 12 17 9 18 11 20 13 22 4 24 22 26
REMARK SMILES IDX 19 28
REMARK H PARENT 9 19 11 21 13 23 4 25 22 27 19 29
REMARK Flexibility Score: inf
ROOT
ATOM      1  C   UNL     1     171.046 173.815 154.676  1.00  0.00     0.180 A 
ATOM      2  C   UNL     1     170.846 173.077 155.859  1.00  0.00     0.208 A 
ATOM      3  C   UNL     1     169.537 172.884 156.323  1.00  0.00     0.238 A 
ATOM      4  O   UNL     1     169.346 172.233 157.387  1.00  0.00    -0.285 OA
ATOM      5  C   UNL     1     168.452 173.411 155.592  1.00  0.00     0.111 A 
ATOM      6  C   UNL     1     167.101 173.256 155.991  1.00  0.00     0.134 A 
ATOM      7  C   UNL     1     166.078 173.803 155.203  1.00  0.00     0.093 A 
ATOM      8  C   UNL     1     166.375 174.499 154.030  1.00  0.00     0.123 A 
ATOM      9  C   UNL     1     167.708 174.655 153.631  1.00  0.00     0.094 A 
ATOM     10  C   UNL     1     168.742 174.118 154.403  1.00  0.00     0.146 A 
ATOM     11  O   UNL     1     169.999 174.285 154.005  1.00  0.00    -0.452 OA
ENDROOT
BRANCH   1  12
ATOM     12  C   UNL     1     172.398 174.079 154.132  1.00  0.00     0.029 A 
ATOM     13  C   UNL     1     173.139 173.023 153.584  1.00  0.00     0.062 A 
ATOM     14  C   UNL     1     174.411 173.239 153.042  1.00  0.00     0.162 A 
ATOM     15  C   UNL     1     172.933 175.375 154.100  1.00  0.00     0.062 A 
ATOM     16  C   UNL     1     174.955 174.546 153.033  1.00  0.00     0.200 A 
ATOM     17  C   UNL     1     174.201 175.611 153.562  1.00  0.00     0.162 A 
BRANCH  14  18
ATOM     18  O   UNL     1     175.092 172.135 152.525  1.00  0.00    -0.504 OA
ATOM     19  H   UNL     1     175.635 172.150 151.674  1.00  0.00     0.293 HD
ENDBRANCH  14  18
BRANCH  16  20
ATOM     20  O   UNL     1     176.222 174.824 152.513  1.00  0.00    -0.502 OA
ATOM     21  H   UNL     1     176.636 174.331 151.735  1.00  0.00     0.293 HD
ENDBRANCH  16  20
BRANCH  17  22
ATOM     22  O   UNL     1     174.696 176.915 153.557  1.00  0.00    -0.504 OA
ATOM     23  H   UNL     1     175.624 177.141 153.223  1.00  0.00     0.293 HD
ENDBRANCH  17  22
ENDBRANCH   1  12
BRANCH   2  24
ATOM     24  O   UNL     1     171.935 172.523 156.537  1.00  0.00    -0.502 OA
ATOM     25  H   UNL     1     171.920 171.580 156.907  1.00  0.00     0.293 HD
ENDBRANCH   2  24
BRANCH   6  26
ATOM     26  O   UNL     1     166.771 172.566 157.157  1.00  0.00    -0.507 OA
ATOM     27  H   UNL     1     167.129 171.637 157.347  1.00  0.00     0.293 HD
ENDBRANCH   6  26
BRANCH   8  28
ATOM     28  O   UNL     1     165.340 175.031 153.265  1.00  0.00    -0.508 OA
ATOM     29  H   UNL     1     165.392 175.066 152.254  1.00  0.00     0.293 HD
ENDBRANCH   8  28
TORSDOF 7
ENDMDL
MODEL 2
REMARK VINA RESULT:    -5.389      4.248      6.774
REMARK INTER + INTRA:          -6.881
REMARK INTER:                  -6.633
REMARK INTRA:                  -0.248
REMARK UNBOUND:                -0.232
REMARK SMILES O=c1c(O)c(-c2cc(O)c(O)c(O)c2)oc2cc(O)cc(O)c12
REMARK SMILES IDX 5 1 3 2 2 3 1 4 23 5 21 6 20 7 18 8 17 9 16 10 15 11 6 12
REMARK SMILES IDX 7 13 8 14 14 15 10 16 12 17 9 18 11 20 13 22 4 24 22 26
REMARK SMILES IDX 19 28
REMARK H PARENT 9 19 11 21 13 23 4 25 22 27 19 29
REMARK Flexibility Score: inf
ROOT
ATOM      1  C   UNL     1     174.314 171.059 154.694  1.00  0.00     0.180 A 
ATOM      2  C   UNL     1     175.045 170.867 155.882  1.00  0.00     0.208 A 
ATOM      3  C   UNL     1     175.242 169.560 156.352  1.00  0.00     0.238 A 
ATOM      4  O   UNL     1     175.886 169.376 157.421  1.00  0.00    -0.285 OA
ATOM      5  C   UNL     1     174.726 168.470 155.621  1.00  0.00     0.111 A 
ATOM      6  C   UNL     1     174.884 167.122 156.025  1.00  0.00     0.134 A 
ATOM      7  C   UNL     1     174.347 166.093 155.237  1.00  0.00     0.093 A 
ATOM      8  C   UNL     1     173.659 166.383 154.057  1.00  0.00     0.123 A 
ATOM      9  C   UNL     1     173.499 167.714 153.654  1.00  0.00     0.094 A 
ATOM     10  C   UNL     1     174.025 168.753 154.425  1.00  0.00     0.146 A 
ATOM     11  O   UNL     1     173.854 170.007 154.023  1.00  0.00    -0.452 OA
ENDROOT
BRANCH   1  12
ATOM     12  C   UNL     1     174.048 172.408 154.144  1.00  0.00     0.029 A 
ATOM     13  C   UNL     1     175.098 173.139 153.570  1.00  0.00     0.062 A 
ATOM     14  C   UNL     1     174.878 174.408 153.022  1.00  0.00     0.162 A 
ATOM     15  C   UNL     1     172.754 172.950 154.130  1.00  0.00     0.062 A 
ATOM     16  C   UNL     1     173.574 174.959 153.032  1.00  0.00     0.200 A 
ATOM     17  C   UNL     1     172.515 174.214 153.586  1.00  0.00     0.162 A 
BRANCH  14  18
ATOM     18  O   UNL     1     175.977 175.079 152.481  1.00  0.00    -0.504 OA
ATOM     19  H   UNL     1     176.095 175.274 151.497  1.00  0.00     0.293 HD
ENDBRANCH  14  18
BRANCH  16  20
ATOM     20  O   UNL     1     173.294 176.223 152.507  1.00  0.00    -0.502 OA
ATOM     21  H   UNL     1     173.355 177.082 153.034  1.00  0.00     0.293 HD
ENDBRANCH  16  20
BRANCH  17  22
ATOM     22  O   UNL     1     171.214 174.716 153.600  1.00  0.00    -0.504 OA
ATOM     23  H   UNL     1     170.625 174.673 154.423  1.00  0.00     0.293 HD
ENDBRANCH  17  22
ENDBRANCH   1  12
BRANCH   2  24
ATOM     24  O   UNL     1     175.589 171.961 156.561  1.00  0.00    -0.502 OA
ATOM     25  H   UNL     1     176.485 171.916 157.031  1.00  0.00     0.293 HD
ENDBRANCH   2  24
BRANCH   6  26
ATOM     26  O   UNL     1     175.568 166.798 157.197  1.00  0.00    -0.507 OA
ATOM     27  H   UNL     1     175.316 167.204 158.090  1.00  0.00     0.293 HD
ENDBRANCH   6  26
BRANCH   8  28
ATOM     28  O   UNL     1     173.137 165.343 153.292  1.00  0.00    -0.508 OA
ATOM     29  H   UNL     1     173.706 164.552 153.015  1.00  0.00     0.293 HD
ENDBRANCH   8  28
TORSDOF 7
ENDMDL
MODEL 3
REMARK VINA RESULT:    -5.374      4.362      6.894
REMARK INTER + INTRA:          -6.862
REMARK INTER:                  -6.562
REMARK INTRA:                  -0.299
REMARK UNBOUND:                -0.232
REMARK SMILES O=c1c(O)c(-c2cc(O)c(O)c(O)c2)oc2cc(O)cc(O)c12
REMARK SMILES IDX 5 1 3 2 2 3 1 4 23 5 21 6 20 7 18 8 17 9 16 10 15 11 6 12
REMARK SMILES IDX 7 13 8 14 14 15 10 16 12 17 9 18 11 20 13 22 4 24 22 26
REMARK SMILES IDX 19 28
REMARK H PARENT 9 19 11 21 13 23 4 25 22 27 19 29
REMARK Flexibility Score: inf
ROOT
ATOM      1  C   UNL     1     174.013 177.129 154.771  1.00  0.00     0.180 A 
ATOM      2  C   UNL     1     173.401 177.324 156.025  1.00  0.00     0.208 A 
ATOM      3  C   UNL     1     173.245 178.632 156.507  1.00  0.00     0.238 A 
ATOM      4  O   UNL     1     172.707 178.818 157.633  1.00  0.00    -0.285 OA
ATOM      5  C   UNL     1     173.680 179.720 155.723  1.00  0.00     0.111 A 
ATOM      6  C   UNL     1     173.555 181.070 156.135  1.00  0.00     0.134 A 
ATOM      7  C   UNL     1     174.005 182.097 155.293  1.00  0.00     0.093 A 
ATOM      8  C   UNL     1     174.576 181.805 154.053  1.00  0.00     0.123 A 
ATOM      9  C   UNL     1     174.703 180.474 153.642  1.00  0.00     0.094 A 
ATOM     10  C   UNL     1     174.261 179.435 154.466  1.00  0.00     0.146 A 
ATOM     11  O   UNL     1     174.398 178.180 154.054  1.00  0.00    -0.452 OA
ENDROOT
BRANCH   1  12
ATOM     12  C   UNL     1     174.231 175.779 154.203  1.00  0.00     0.029 A 
ATOM     13  C   UNL     1     173.153 175.087 153.633  1.00  0.00     0.062 A 
ATOM     14  C   UNL     1     173.327 173.819 153.068  1.00  0.00     0.162 A 
ATOM     15  C   UNL     1     175.507 175.197 154.171  1.00  0.00     0.062 A 
ATOM     16  C   UNL     1     174.613 173.228 153.059  1.00  0.00     0.200 A 
ATOM     17  C   UNL     1     175.700 173.932 153.610  1.00  0.00     0.162 A 
BRANCH  14  18
ATOM     18  O   UNL     1     172.203 173.189 152.531  1.00  0.00    -0.504 OA
ATOM     19  H   UNL     1     172.230 172.543 151.755  1.00  0.00     0.293 HD
ENDBRANCH  14  18
BRANCH  16  20
ATOM     20  O   UNL     1     174.849 171.961 152.517  1.00  0.00    -0.502 OA
ATOM     21  H   UNL     1     174.824 171.103 153.048  1.00  0.00     0.293 HD
ENDBRANCH  16  20
BRANCH  17  22
ATOM     22  O   UNL     1     176.986 173.390 153.605  1.00  0.00    -0.504 OA
ATOM     23  H   UNL     1     177.168 172.425 153.853  1.00  0.00     0.293 HD
ENDBRANCH  17  22
ENDBRANCH   1  12
BRANCH   2  24
ATOM     24  O   UNL     1     172.933 176.230 156.759  1.00  0.00    -0.502 OA
ATOM     25  H   UNL     1     172.410 176.339 157.620  1.00  0.00     0.293 HD
ENDBRANCH   2  24
BRANCH   6  26
ATOM     26  O   UNL     1     172.988 181.395 157.368  1.00  0.00    -0.507 OA
ATOM     27  H   UNL     1     172.012 181.217 157.569  1.00  0.00     0.293 HD
ENDBRANCH   6  26
BRANCH   8  28
ATOM     28  O   UNL     1     175.014 182.844 153.236  1.00  0.00    -0.508 OA
ATOM     29  H   UNL     1     174.732 182.910 152.265  1.00  0.00     0.293 HD
ENDBRANCH   8  28
TORSDOF 7
ENDMDL
MODEL 4
REMARK VINA RESULT:    -5.359      4.466      9.571
REMARK INTER + INTRA:          -6.844
REMARK INTER:                  -6.551
REMARK INTRA:                  -0.293
REMARK UNBOUND:                -0.232
REMARK SMILES O=c1c(O)c(-c2cc(O)c(O)c(O)c2)oc2cc(O)cc(O)c12
REMARK SMILES IDX 5 1 3 2 2 3 1 4 23 5 21 6 20 7 18 8 17 9 16 10 15 11 6 12
REMARK SMILES IDX 7 13 8 14 14 15 10 16 12 17 9 18 11 20 13 22 4 24 22 26
REMARK SMILES IDX 19 28
REMARK H PARENT 9 19 11 21 13 23 4 25 22 27 19 29
REMARK Flexibility Score: inf
ROOT
ATOM      1  C   UNL     1     177.104 174.093 154.753  1.00  0.00     0.180 A 
ATOM      2  C   UNL     1     177.313 174.700 156.006  1.00  0.00     0.208 A 
ATOM      3  C   UNL     1     178.626 174.843 156.479  1.00  0.00     0.238 A 
ATOM      4  O   UNL     1     178.824 175.376 157.605  1.00  0.00    -0.285 OA
ATOM      5  C   UNL     1     179.705 174.399 155.687  1.00  0.00     0.111 A 
ATOM      6  C   UNL     1     181.058 174.510 156.091  1.00  0.00     0.134 A 
ATOM      7  C   UNL     1     182.075 174.051 155.241  1.00  0.00     0.093 A 
ATOM      8  C   UNL     1     181.769 173.486 154.001  1.00  0.00     0.123 A 
ATOM      9  C   UNL     1     180.434 173.373 153.599  1.00  0.00     0.094 A 
ATOM     10  C   UNL     1     179.405 173.823 154.431  1.00  0.00     0.146 A 
ATOM     11  O   UNL     1     178.146 173.699 154.027  1.00  0.00    -0.452 OA
ENDROOT
BRANCH   1  12
ATOM     12  C   UNL     1     175.748 173.889 154.194  1.00  0.00     0.029 A 
ATOM     13  C   UNL     1     175.056 174.978 153.645  1.00  0.00     0.062 A 
ATOM     14  C   UNL     1     173.782 174.818 153.089  1.00  0.00     0.162 A 
ATOM     15  C   UNL     1     175.160 172.616 154.147  1.00  0.00     0.062 A 
ATOM     16  C   UNL     1     173.185 173.535 153.066  1.00  0.00     0.200 A 
ATOM     17  C   UNL     1     173.890 172.437 153.595  1.00  0.00     0.162 A 
BRANCH  14  18
ATOM     18  O   UNL     1     173.152 175.953 152.574  1.00  0.00    -0.504 OA
ATOM     19  H   UNL     1     172.282 176.328 152.924  1.00  0.00     0.293 HD
ENDBRANCH  14  18
BRANCH  16  20
ATOM     20  O   UNL     1     171.913 173.313 152.531  1.00  0.00    -0.502 OA
ATOM     21  H   UNL     1     171.553 173.779 151.711  1.00  0.00     0.293 HD
ENDBRANCH  16  20
BRANCH  17  22
ATOM     22  O   UNL     1     173.342 171.154 153.575  1.00  0.00    -0.504 OA
ATOM     23  H   UNL     1     173.886 170.329 153.794  1.00  0.00     0.293 HD
ENDBRANCH  17  22
ENDBRANCH   1  12
BRANCH   2  24
ATOM     24  O   UNL     1     176.229 175.177 156.749  1.00  0.00    -0.502 OA
ATOM     25  H   UNL     1     176.261 176.056 157.250  1.00  0.00     0.293 HD
ENDBRANCH   2  24
BRANCH   6  26
ATOM     26  O   UNL     1     181.398 175.071 157.322  1.00  0.00    -0.507 OA
ATOM     27  H   UNL     1     182.344 175.035 157.682  1.00  0.00     0.293 HD
ENDBRANCH   6  26
BRANCH   8  28
ATOM     28  O   UNL     1     182.799 173.040 153.176  1.00  0.00    -0.508 OA
ATOM     29  H   UNL     1     183.759 173.323 153.327  1.00  0.00     0.293 HD
ENDBRANCH   8  28
TORSDOF 7
ENDMDL
MODEL 5
REMARK VINA RESULT:    -5.310      4.293      6.668
REMARK INTER + INTRA:          -6.784
REMARK INTER:                  -6.829
REMARK INTRA:                   0.046
REMARK UNBOUND:                -0.232
REMARK SMILES O=c1c(O)c(-c2cc(O)c(O)c(O)c2)oc2cc(O)cc(O)c12
REMARK SMILES IDX 5 1 3 2 2 3 1 4 23 5 21 6 20 7 18 8 17 9 16 10 15 11 6 12
REMARK SMILES IDX 7 13 8 14 14 15 10 16 12 17 9 18 11 20 13 22 4 24 22 26
REMARK SMILES IDX 19 28
REMARK H PARENT 9 19 11 21 13 23 4 25 22 27 19 29
REMARK Flexibility Score: inf
ROOT
ATOM      1  C   UNL     1     174.179 170.819 154.286  1.00  0.00     0.180 A 
ATOM      2  C   UNL     1     175.227 170.457 155.153  1.00  0.00     0.208 A 
ATOM      3  C   UNL     1     175.343 169.118 155.555  1.00  0.00     0.238 A 
ATOM      4  O   UNL     1     176.273 168.784 156.340  1.00  0.00    -0.285 OA
ATOM      5  C   UNL     1     174.426 168.163 155.071  1.00  0.00     0.111 A 
ATOM      6  C   UNL     1     174.476 166.792 155.425  1.00  0.00     0.134 A 
ATOM      7  C   UNL     1     173.531 165.903 154.893  1.00  0.00     0.093 A 
ATOM      8  C   UNL     1     172.541 166.353 154.017  1.00  0.00     0.123 A 
ATOM      9  C   UNL     1     172.487 167.706 153.665  1.00  0.00     0.094 A 
ATOM     10  C   UNL     1     173.418 168.609 154.185  1.00  0.00     0.146 A 
ATOM     11  O   UNL     1     173.341 169.888 153.838  1.00  0.00    -0.452 OA
ENDROOT
BRANCH   1  12
ATOM     12  C   UNL     1     173.979 172.214 153.832  1.00  0.00     0.029 A 
ATOM     13  C   UNL     1     172.701 172.786 153.901  1.00  0.00     0.062 A 
ATOM     14  C   UNL     1     172.480 174.108 153.501  1.00  0.00     0.162 A 
ATOM     15  C   UNL     1     175.053 172.999 153.388  1.00  0.00     0.062 A 
ATOM     16  C   UNL     1     173.563 174.888 153.031  1.00  0.00     0.200 A 
ATOM     17  C   UNL     1     174.851 174.322 152.985  1.00  0.00     0.162 A 
BRANCH  14  18
ATOM     18  O   UNL     1     171.176 174.603 153.587  1.00  0.00    -0.504 OA
ATOM     19  H   UNL     1     170.357 174.025 153.712  1.00  0.00     0.293 HD
ENDBRANCH  14  18
BRANCH  16  20
ATOM     20  O   UNL     1     173.404 176.211 152.610  1.00  0.00    -0.502 OA
ATOM     21  H   UNL     1     173.199 176.982 153.229  1.00  0.00     0.293 HD
ENDBRANCH  16  20
BRANCH  17  22
ATOM     22  O   UNL     1     175.948 175.063 152.543  1.00  0.00    -0.504 OA
ATOM     23  H   UNL     1     176.327 175.837 153.074  1.00  0.00     0.293 HD
ENDBRANCH  17  22
ENDBRANCH   1  12
BRANCH   2  24
ATOM     24  O   UNL     1     176.153 171.414 155.579  1.00  0.00    -0.502 OA
ATOM     25  H   UNL     1     176.832 171.827 154.951  1.00  0.00     0.293 HD
ENDBRANCH   2  24
BRANCH   6  26
ATOM     26  O   UNL     1     175.453 166.310 156.296  1.00  0.00    -0.507 OA
ATOM     27  H   UNL     1     175.999 166.931 156.882  1.00  0.00     0.293 HD
ENDBRANCH   6  26
BRANCH   8  28
ATOM     28  O   UNL     1     171.616 165.448 153.502  1.00  0.00    -0.508 OA
ATOM     29  H   UNL     1     171.664 164.460 153.719  1.00  0.00     0.293 HD
ENDBRANCH   8  28
TORSDOF 7
ENDMDL
MODEL 6
REMARK VINA RESULT:    -5.256      4.436      9.561
REMARK INTER + INTRA:          -6.717
REMARK INTER:                  -6.619
REMARK INTRA:                  -0.098
REMARK UNBOUND:                -0.232
REMARK SMILES O=c1c(O)c(-c2cc(O)c(O)c(O)c2)oc2cc(O)cc(O)c12
REMARK SMILES IDX 5 1 3 2 2 3 1 4 23 5 21 6 20 7 18 8 17 9 16 10 15 11 6 12
REMARK SMILES IDX 7 13 8 14 14 15 10 16 12 17 9 18 11 20 13 22 4 24 22 26
REMARK SMILES IDX 19 28
REMARK H PARENT 9 19 11 21 13 23 4 25 22 27 19 29
REMARK Flexibility Score: inf
ROOT
ATOM      1  C   UNL     1     177.233 174.140 154.450  1.00  0.00     0.180 A 
ATOM      2  C   UNL     1     177.525 175.042 155.491  1.00  0.00     0.208 A 
ATOM      3  C   UNL     1     178.851 175.167 155.928  1.00  0.00     0.238 A 
ATOM      4  O   UNL     1     179.123 175.965 156.867  1.00  0.00    -0.285 OA
ATOM      5  C   UNL     1     179.864 174.406 155.308  1.00  0.00     0.111 A 
ATOM      6  C   UNL     1     181.227 174.476 155.688  1.00  0.00     0.134 A 
ATOM      7  C   UNL     1     182.176 173.692 155.016  1.00  0.00     0.093 A 
ATOM      8  C   UNL     1     181.793 172.844 153.975  1.00  0.00     0.123 A 
ATOM      9  C   UNL     1     180.448 172.770 153.597  1.00  0.00     0.094 A 
ATOM     10  C   UNL     1     179.487 173.542 154.255  1.00  0.00     0.146 A 
ATOM     11  O   UNL     1     178.216 173.449 153.879  1.00  0.00    -0.452 OA
ENDROOT
BRANCH   1  12
ATOM     12  C   UNL     1     175.855 173.938 153.946  1.00  0.00     0.029 A 
ATOM     13  C   UNL     1     175.281 172.661 153.999  1.00  0.00     0.062 A 
ATOM     14  C   UNL     1     173.974 172.438 153.551  1.00  0.00     0.162 A 
ATOM     15  C   UNL     1     175.088 175.011 153.468  1.00  0.00     0.062 A 
ATOM     16  C   UNL     1     173.213 173.520 153.048  1.00  0.00     0.200 A 
ATOM     17  C   UNL     1     173.781 174.808 153.018  1.00  0.00     0.162 A 
BRANCH  14  18
ATOM     18  O   UNL     1     173.477 171.135 153.624  1.00  0.00    -0.504 OA
ATOM     19  H   UNL     1     172.806 170.746 152.977  1.00  0.00     0.293 HD
ENDBRANCH  14  18
BRANCH  16  20
ATOM     20  O   UNL     1     171.906 173.360 152.580  1.00  0.00    -0.502 OA
ATOM     21  H   UNL     1     171.219 174.099 152.551  1.00  0.00     0.293 HD
ENDBRANCH  16  20
BRANCH  17  22
ATOM     22  O   UNL     1     173.057 175.903 152.545  1.00  0.00    -0.504 OA
ATOM     23  H   UNL     1     172.428 176.432 153.135  1.00  0.00     0.293 HD
ENDBRANCH  17  22
ENDBRANCH   1  12
BRANCH   2  24
ATOM     24  O   UNL     1     176.510 175.821 156.054  1.00  0.00    -0.502 OA
ATOM     25  H   UNL     1     176.705 176.641 156.616  1.00  0.00     0.293 HD
ENDBRANCH   2  24
BRANCH   6  26
ATOM     26  O   UNL     1     181.643 175.315 156.722  1.00  0.00    -0.507 OA
ATOM     27  H   UNL     1     181.253 175.245 157.655  1.00  0.00     0.293 HD
ENDBRANCH   6  26
BRANCH   8  28
ATOM     28  O   UNL     1     182.756 172.077 153.323  1.00  0.00    -0.508 OA
ATOM     29  H   UNL     1     183.630 172.481 153.007  1.00  0.00     0.293 HD
ENDBRANCH   8  28
TORSDOF 7
ENDMDL
MODEL 7
REMARK VINA RESULT:    -4.939      4.398      9.266
REMARK INTER + INTRA:          -6.326
REMARK INTER:                  -6.215
REMARK INTRA:                  -0.111
REMARK UNBOUND:                -0.232
REMARK SMILES O=c1c(O)c(-c2cc(O)c(O)c(O)c2)oc2cc(O)cc(O)c12
REMARK SMILES IDX 5 1 3 2 2 3 1 4 23 5 21 6 20 7 18 8 17 9 16 10 15 11 6 12
REMARK SMILES IDX 7 13 8 14 14 15 10 16 12 17 9 18 11 20 13 22 4 24 22 26
REMARK SMILES IDX 19 28
REMARK H PARENT 9 19 11 21 13 23 4 25 22 27 19 29
REMARK Flexibility Score: inf
ROOT
ATOM      1  C   UNL     1     176.991 174.663 154.809  1.00  0.00     0.180 A 
ATOM      2  C   UNL     1     178.189 174.097 154.331  1.00  0.00     0.208 A 
ATOM      3  C   UNL     1     179.403 174.489 154.915  1.00  0.00     0.238 A 
ATOM      4  O   UNL     1     180.483 173.996 154.488  1.00  0.00    -0.285 OA
ATOM      5  C   UNL     1     179.400 175.419 155.974  1.00  0.00     0.111 A 
ATOM      6  C   UNL     1     180.581 175.863 156.619  1.00  0.00     0.134 A 
ATOM      7  C   UNL     1     180.492 176.785 157.672  1.00  0.00     0.093 A 
ATOM      8  C   UNL     1     179.253 177.271 158.093  1.00  0.00     0.123 A 
ATOM      9  C   UNL     1     178.083 176.836 157.459  1.00  0.00     0.094 A 
ATOM     10  C   UNL     1     178.150 175.919 156.407  1.00  0.00     0.146 A 
ATOM     11  O   UNL     1     177.025 175.527 155.819  1.00  0.00    -0.452 OA
ENDROOT
BRANCH   1  12
ATOM     12  C   UNL     1     175.672 174.315 154.233  1.00  0.00     0.029 A 
ATOM     13  C   UNL     1     174.881 175.322 153.662  1.00  0.00     0.062 A 
ATOM     14  C   UNL     1     173.639 175.026 153.090  1.00  0.00     0.162 A 
ATOM     15  C   UNL     1     175.219 172.988 154.193  1.00  0.00     0.062 A 
ATOM     16  C   UNL     1     173.177 173.688 153.073  1.00  0.00     0.200 A 
ATOM     17  C   UNL     1     173.982 172.673 153.625  1.00  0.00     0.162 A 
BRANCH  14  18
ATOM     18  O   UNL     1     172.904 176.085 152.553  1.00  0.00    -0.504 OA
ATOM     19  H   UNL     1     172.257 175.994 151.783  1.00  0.00     0.293 HD
ENDBRANCH  14  18
BRANCH  16  20
ATOM     20  O   UNL     1     171.943 173.331 152.523  1.00  0.00    -0.502 OA
ATOM     21  H   UNL     1     171.833 172.734 151.717  1.00  0.00     0.293 HD
ENDBRANCH  16  20
BRANCH  17  22
ATOM     22  O   UNL     1     173.569 171.341 153.612  1.00  0.00    -0.504 OA
ATOM     23  H   UNL     1     172.676 171.047 153.989  1.00  0.00     0.293 HD
ENDBRANCH  17  22
ENDBRANCH   1  12
BRANCH   2  24
ATOM     24  O   UNL     1     178.160 173.139 153.314  1.00  0.00    -0.502 OA
ATOM     25  H   UNL     1     177.345 172.565 153.134  1.00  0.00     0.293 HD
ENDBRANCH   2  24
BRANCH   6  26
ATOM     26  O   UNL     1     181.834 175.396 156.223  1.00  0.00    -0.507 OA
ATOM     27  H   UNL     1     181.945 174.764 155.439  1.00  0.00     0.293 HD
ENDBRANCH   6  26
BRANCH   8  28
ATOM     28  O   UNL     1     179.193 178.185 159.142  1.00  0.00    -0.508 OA
ATOM     29  H   UNL     1     179.068 179.176 158.975  1.00  0.00     0.293 HD
ENDBRANCH   8  28
TORSDOF 7
ENDMDL
MODEL 8
REMARK VINA RESULT:    -4.929      1.306      3.089
REMARK INTER + INTRA:          -6.313
REMARK INTER:                  -6.163
REMARK INTRA:                  -0.150
REMARK UNBOUND:                -0.232
REMARK SMILES O=c1c(O)c(-c2cc(O)c(O)c(O)c2)oc2cc(O)cc(O)c12
REMARK SMILES IDX 5 1 3 2 2 3 1 4 23 5 21 6 20 7 18 8 17 9 16 10 15 11 6 12
REMARK SMILES IDX 7 13 8 14 14 15 10 16 12 17 9 18 11 20 13 22 4 24 22 26
REMARK SMILES IDX 19 28
REMARK H PARENT 9 19 11 21 13 23 4 25 22 27 19 29
REMARK Flexibility Score: inf
ROOT
ATOM      1  C   UNL     1     171.182 173.613 154.896  1.00  0.00     0.180 A 
ATOM      2  C   UNL     1     169.973 174.137 154.398  1.00  0.00     0.208 A 
ATOM      3  C   UNL     1     168.769 173.772 155.020  1.00  0.00     0.238 A 
ATOM      4  O   UNL     1     167.680 174.227 154.576  1.00  0.00    -0.285 OA
ATOM      5  C   UNL     1     168.794 172.910 156.135  1.00  0.00     0.111 A 
ATOM      6  C   UNL     1     167.624 172.497 156.820  1.00  0.00     0.134 A 
ATOM      7  C   UNL     1     167.734 171.644 157.928  1.00  0.00     0.093 A 
ATOM      8  C   UNL     1     168.983 171.196 158.364  1.00  0.00     0.123 A 
ATOM      9  C   UNL     1     170.141 171.601 157.690  1.00  0.00     0.094 A 
ATOM     10  C   UNL     1     170.054 172.449 156.584  1.00  0.00     0.146 A 
ATOM     11  O   UNL     1     171.168 172.814 155.959  1.00  0.00    -0.452 OA
ENDROOT
BRANCH   1  12
ATOM     12  C   UNL     1     172.490 173.935 154.283  1.00  0.00     0.029 A 
ATOM     13  C   UNL     1     173.252 172.911 153.703  1.00  0.00     0.062 A 
ATOM     14  C   UNL     1     174.484 173.183 153.097  1.00  0.00     0.162 A 
ATOM     15  C   UNL     1     172.962 175.255 154.218  1.00  0.00     0.062 A 
ATOM     16  C   UNL     1     174.964 174.513 153.054  1.00  0.00     0.200 A 
ATOM     17  C   UNL     1     174.188 175.546 153.615  1.00  0.00     0.162 A 
BRANCH  14  18
ATOM     18  O   UNL     1     175.190 172.108 152.552  1.00  0.00    -0.504 OA
ATOM     19  H   UNL     1     176.192 172.088 152.435  1.00  0.00     0.293 HD
ENDBRANCH  14  18
BRANCH  16  20
ATOM     20  O   UNL     1     176.189 174.846 152.470  1.00  0.00    -0.502 OA
ATOM     21  H   UNL     1     177.062 174.383 152.678  1.00  0.00     0.293 HD
ENDBRANCH  16  20
BRANCH  17  22
ATOM     22  O   UNL     1     174.620 176.872 153.579  1.00  0.00    -0.504 OA
ATOM     23  H   UNL     1     175.516 177.139 153.191  1.00  0.00     0.293 HD
ENDBRANCH  17  22
ENDBRANCH   1  12
BRANCH   2  24
ATOM     24  O   UNL     1     169.981 175.029 153.322  1.00  0.00    -0.502 OA
ATOM     25  H   UNL     1     170.371 174.785 152.420  1.00  0.00     0.293 HD
ENDBRANCH   2  24
BRANCH   6  26
ATOM     26  O   UNL     1     166.362 172.927 156.411  1.00  0.00    -0.507 OA
ATOM     27  H   UNL     1     166.120 173.910 156.373  1.00  0.00     0.293 HD
ENDBRANCH   6  26
BRANCH   8  28
ATOM     28  O   UNL     1     169.063 170.350 159.468  1.00  0.00    -0.508 OA
ATOM     29  H   UNL     1     169.082 169.343 159.363  1.00  0.00     0.293 HD
ENDBRANCH   8  28
TORSDOF 7
ENDMDL
MODEL 9
REMARK VINA RESULT:    -4.922      4.205      6.281
REMARK INTER + INTRA:          -6.304
REMARK INTER:                  -6.202
REMARK INTRA:                  -0.102
REMARK UNBOUND:                -0.232
REMARK SMILES O=c1c(O)c(-c2cc(O)c(O)c(O)c2)oc2cc(O)cc(O)c12
REMARK SMILES IDX 5 1 3 2 2 3 1 4 23 5 21 6 20 7 18 8 17 9 16 10 15 11 6 12
REMARK SMILES IDX 7 13 8 14 14 15 10 16 12 17 9 18 11 20 13 22 4 24 22 26
REMARK SMILES IDX 19 28
REMARK H PARENT 9 19 11 21 13 23 4 25 22 27 19 29
REMARK Flexibility Score: inf
ROOT
ATOM      1  C   UNL     1     173.521 177.101 154.772  1.00  0.00     0.180 A 
ATOM      2  C   UNL     1     174.096 178.290 154.283  1.00  0.00     0.208 A 
ATOM      3  C   UNL     1     173.713 179.513 154.854  1.00  0.00     0.238 A 
ATOM      4  O   UNL     1     174.214 180.585 154.417  1.00  0.00    -0.285 OA
ATOM      5  C   UNL     1     172.781 179.527 155.913  1.00  0.00     0.111 A 
ATOM      6  C   UNL     1     172.345 180.718 156.545  1.00  0.00     0.134 A 
ATOM      7  C   UNL     1     171.422 180.646 157.598  1.00  0.00     0.093 A 
ATOM      8  C   UNL     1     170.926 179.415 158.031  1.00  0.00     0.123 A 
ATOM      9  C   UNL     1     171.353 178.236 157.409  1.00  0.00     0.094 A 
ATOM     10  C   UNL     1     172.272 178.285 156.358  1.00  0.00     0.146 A 
ATOM     11  O   UNL     1     172.656 177.152 155.781  1.00  0.00    -0.452 OA
ENDROOT
BRANCH   1  12
ATOM     12  C   UNL     1     173.859 175.774 154.210  1.00  0.00     0.029 A 
ATOM     13  C   UNL     1     172.845 174.980 153.657  1.00  0.00     0.062 A 
ATOM     14  C   UNL     1     173.132 173.730 153.097  1.00  0.00     0.162 A 
ATOM     15  C   UNL     1     175.184 175.316 154.164  1.00  0.00     0.062 A 
ATOM     16  C   UNL     1     174.468 173.263 153.075  1.00  0.00     0.200 A 
ATOM     17  C   UNL     1     175.490 174.071 153.609  1.00  0.00     0.162 A 
BRANCH  14  18
ATOM     18  O   UNL     1     172.066 172.992 152.578  1.00  0.00    -0.504 OA
ATOM     19  H   UNL     1     172.171 172.211 151.946  1.00  0.00     0.293 HD
ENDBRANCH  14  18
BRANCH  16  20
ATOM     20  O   UNL     1     174.816 172.021 152.538  1.00  0.00    -0.502 OA
ATOM     21  H   UNL     1     174.160 171.385 152.106  1.00  0.00     0.293 HD
ENDBRANCH  16  20
BRANCH  17  22
ATOM     22  O   UNL     1     176.821 173.653 153.591  1.00  0.00    -0.504 OA
ATOM     23  H   UNL     1     177.562 174.183 154.033  1.00  0.00     0.293 HD
ENDBRANCH  17  22
ENDBRANCH   1  12
BRANCH   2  24
ATOM     24  O   UNL     1     175.054 178.244 153.267  1.00  0.00    -0.502 OA
ATOM     25  H   UNL     1     175.857 177.628 153.308  1.00  0.00     0.293 HD
ENDBRANCH   2  24
BRANCH   6  26
ATOM     26  O   UNL     1     172.822 181.964 156.137  1.00  0.00    -0.507 OA
ATOM     27  H   UNL     1     173.733 182.072 155.708  1.00  0.00     0.293 HD
ENDBRANCH   6  26
BRANCH   8  28
ATOM     28  O   UNL     1     170.011 179.372 159.079  1.00  0.00    -0.508 OA
ATOM     29  H   UNL     1     170.133 179.936 159.912  1.00  0.00     0.293 HD
ENDBRANCH   8  28
TORSDOF 7
ENDMDL
