MODEL 1
REMARK VINA RESULT:    -3.999      0.000      0.000
REMARK INTER + INTRA:          -4.419
REMARK INTER:                  -4.349
REMARK INTRA:                  -0.070
REMARK UNBOUND:                -0.070
REMARK SMILES CCc1cccc(O)c1
REMARK SMILES IDX 3 1 9 2 7 3 6 4 5 5 4 6 2 7 1 8 8 9
REMARK H PARENT 8 10
REMARK Flexibility Score: inf
ROOT
ATOM      1  C   UNL     1     162.927 177.612 151.986  1.00  0.00    -0.045 A 
ATOM      2  C   UNL     1     162.122 177.860 153.110  1.00  0.00     0.049 A 
ATOM      3  C   UNL     1     160.725 177.874 152.990  1.00  0.00     0.115 A 
ATOM      4  C   UNL     1     160.131 177.633 151.747  1.00  0.00     0.046 A 
ATOM      5  C   UNL     1     160.927 177.374 150.628  1.00  0.00     0.004 A 
ATOM      6  C   UNL     1     162.319 177.358 150.746  1.00  0.00     0.004 A 
ENDROOT
BRANCH   1   7
ATOM      7  C   UNL     1     164.425 177.563 152.121  1.00  0.00     0.032 C 
ATOM      8  C   UNL     1     165.098 178.122 150.873  1.00  0.00     0.009 C 
ENDBRANCH   1   7
BRANCH   3   9
ATOM      9  O   UNL     1     159.919 178.125 154.099  1.00  0.00    -0.508 OA
ATOM     10  H   UNL     1     159.527 177.369 154.650  1.00  0.00     0.293 HD
ENDBRANCH   3   9
TORSDOF 2
ENDMDL
MODEL 2
REMARK VINA RESULT:    -3.996     12.556     13.654
REMARK INTER + INTRA:          -4.417
REMARK INTER:                  -4.366
REMARK INTRA:                  -0.051
REMARK UNBOUND:                -0.070
REMARK SMILES CCc1cccc(O)c1
REMARK SMILES IDX 3 1 9 2 7 3 6 4 5 5 4 6 2 7 1 8 8 9
REMARK H PARENT 8 10
REMARK Flexibility Score: inf
ROOT
ATOM      1  C   UNL     1     174.321 175.692 150.951  1.00  0.00    -0.045 A 
ATOM      2  C   UNL     1     175.694 175.486 151.169  1.00  0.00     0.049 A 
ATOM      3  C   UNL     1     176.220 174.187 151.188  1.00  0.00     0.115 A 
ATOM      4  C   UNL     1     175.375 173.091 150.980  1.00  0.00     0.046 A 
ATOM      5  C   UNL     1     174.012 173.291 150.751  1.00  0.00     0.004 A 
ATOM      6  C   UNL     1     173.485 174.585 150.731  1.00  0.00     0.004 A 
ENDROOT
BRANCH   1   7
ATOM      7  C   UNL     1     173.762 177.088 150.897  1.00  0.00     0.032 C 
ATOM      8  C   UNL     1     174.747 178.039 150.227  1.00  0.00     0.009 C 
ENDBRANCH   1   7
BRANCH   3   9
ATOM      9  O   UNL     1     177.579 173.973 151.410  1.00  0.00    -0.508 OA
ATOM     10  H   UNL     1     178.051 173.151 151.051  1.00  0.00     0.293 HD
ENDBRANCH   3   9
TORSDOF 2
ENDMDL
MODEL 3
REMARK VINA RESULT:    -3.951     20.169     21.170
REMARK INTER + INTRA:          -4.367
REMARK INTER:                  -4.317
REMARK INTRA:                  -0.050
REMARK UNBOUND:                -0.070
REMARK SMILES CCc1cccc(O)c1
REMARK SMILES IDX 3 1 9 2 7 3 6 4 5 5 4 6 2 7 1 8 8 9
REMARK H PARENT 8 10
REMARK Flexibility Score: inf
ROOT
ATOM      1  C   UNL     1     176.130 162.437 151.433  1.00  0.00    -0.045 A 
ATOM      2  C   UNL     1     176.623 161.419 150.600  1.00  0.00     0.049 A 
ATOM      3  C   UNL     1     175.770 160.765 149.700  1.00  0.00     0.115 A 
ATOM      4  C   UNL     1     174.423 161.135 149.625  1.00  0.00     0.046 A 
ATOM      5  C   UNL     1     173.929 162.156 150.441  1.00  0.00     0.004 A 
ATOM      6  C   UNL     1     174.778 162.809 151.338  1.00  0.00     0.004 A 
ENDROOT
BRANCH   1   7
ATOM      7  C   UNL     1     177.052 163.162 152.375  1.00  0.00     0.032 C 
ATOM      8  C   UNL     1     178.004 164.071 151.606  1.00  0.00     0.009 C 
ENDBRANCH   1   7
BRANCH   3   9
ATOM      9  O   UNL     1     176.250 159.750 148.875  1.00  0.00    -0.508 OA
ATOM     10  H   UNL     1     176.155 158.773 149.129  1.00  0.00     0.293 HD
ENDBRANCH   3   9
TORSDOF 2
ENDMDL
MODEL 4
REMARK VINA RESULT:    -3.937     11.248     12.478
REMARK INTER + INTRA:          -4.352
REMARK INTER:                  -4.277
REMARK INTRA:                  -0.076
REMARK UNBOUND:                -0.070
REMARK SMILES CCc1cccc(O)c1
REMARK SMILES IDX 3 1 9 2 7 3 6 4 5 5 4 6 2 7 1 8 8 9
REMARK H PARENT 8 10
REMARK Flexibility Score: inf
ROOT
ATOM      1  C   UNL     1     175.009 176.002 152.077  1.00  0.00    -0.045 A 
ATOM      2  C   UNL     1     174.224 176.492 153.134  1.00  0.00     0.049 A 
ATOM      3  C   UNL     1     173.333 177.554 152.921  1.00  0.00     0.115 A 
ATOM      4  C   UNL     1     173.222 178.124 151.649  1.00  0.00     0.046 A 
ATOM      5  C   UNL     1     173.991 177.633 150.591  1.00  0.00     0.004 A 
ATOM      6  C   UNL     1     174.878 176.574 150.800  1.00  0.00     0.004 A 
ENDROOT
BRANCH   1   7
ATOM      7  C   UNL     1     175.939 174.841 152.296  1.00  0.00     0.032 C 
ATOM      8  C   UNL     1     176.532 174.366 150.974  1.00  0.00     0.009 C 
ENDBRANCH   1   7
BRANCH   3   9
ATOM      9  O   UNL     1     172.555 178.049 153.966  1.00  0.00    -0.508 OA
ATOM     10  H   UNL     1     171.586 178.313 153.825  1.00  0.00     0.293 HD
ENDBRANCH   3   9
TORSDOF 2
ENDMDL
MODEL 5
REMARK VINA RESULT:    -3.858     12.184     13.226
REMARK INTER + INTRA:          -4.266
REMARK INTER:                  -4.220
REMARK INTRA:                  -0.047
REMARK UNBOUND:                -0.070
REMARK SMILES CCc1cccc(O)c1
REMARK SMILES IDX 3 1 9 2 7 3 6 4 5 5 4 6 2 7 1 8 8 9
REMARK H PARENT 8 10
REMARK Flexibility Score: inf
ROOT
ATOM      1  C   UNL     1     175.102 175.600 151.036  1.00  0.00    -0.045 A 
ATOM      2  C   UNL     1     173.813 175.055 150.910  1.00  0.00     0.049 A 
ATOM      3  C   UNL     1     173.642 173.673 150.745  1.00  0.00     0.115 A 
ATOM      4  C   UNL     1     174.760 172.833 150.713  1.00  0.00     0.046 A 
ATOM      5  C   UNL     1     176.044 173.368 150.850  1.00  0.00     0.004 A 
ATOM      6  C   UNL     1     176.216 174.744 151.015  1.00  0.00     0.004 A 
ENDROOT
BRANCH   1   7
ATOM      7  C   UNL     1     175.285 177.078 151.247  1.00  0.00     0.032 C 
ATOM      8  C   UNL     1     174.467 177.874 150.235  1.00  0.00     0.009 C 
ENDBRANCH   1   7
BRANCH   3   9
ATOM      9  O   UNL     1     172.368 173.126 150.613  1.00  0.00    -0.508 OA
ATOM     10  H   UNL     1     172.219 172.237 150.147  1.00  0.00     0.293 HD
ENDBRANCH   3   9
TORSDOF 2
ENDMDL
MODEL 6
REMARK VINA RESULT:    -3.854      1.574      2.256
REMARK INTER + INTRA:          -4.262
REMARK INTER:                  -4.211
REMARK INTRA:                  -0.051
REMARK UNBOUND:                -0.070
REMARK SMILES CCc1cccc(O)c1
REMARK SMILES IDX 3 1 9 2 7 3 6 4 5 5 4 6 2 7 1 8 8 9
REMARK H PARENT 8 10
REMARK Flexibility Score: inf
ROOT
ATOM      1  C   UNL     1     162.967 177.564 152.395  1.00  0.00    -0.045 A 
ATOM      2  C   UNL     1     162.419 177.412 151.111  1.00  0.00     0.049 A 
ATOM      3  C   UNL     1     161.046 177.606 150.899  1.00  0.00     0.115 A 
ATOM      4  C   UNL     1     160.221 177.960 151.972  1.00  0.00     0.046 A 
ATOM      5  C   UNL     1     160.762 178.125 153.249  1.00  0.00     0.004 A 
ATOM      6  C   UNL     1     162.130 177.933 153.461  1.00  0.00     0.004 A 
ENDROOT
BRANCH   1   7
ATOM      7  C   UNL     1     164.445 177.390 152.616  1.00  0.00     0.032 C 
ATOM      8  C   UNL     1     165.239 178.019 151.476  1.00  0.00     0.009 C 
ENDBRANCH   1   7
BRANCH   3   9
ATOM      9  O   UNL     1     160.493 177.451 149.630  1.00  0.00    -0.508 OA
ATOM     10  H   UNL     1     160.123 176.559 149.319  1.00  0.00     0.293 HD
ENDBRANCH   3   9
TORSDOF 2
ENDMDL
MODEL 7
REMARK VINA RESULT:    -3.827      2.696      4.267
REMARK INTER + INTRA:          -4.232
REMARK INTER:                  -4.163
REMARK INTRA:                  -0.069
REMARK UNBOUND:                -0.070
REMARK SMILES CCc1cccc(O)c1
REMARK SMILES IDX 3 1 9 2 7 3 6 4 5 5 4 6 2 7 1 8 8 9
REMARK H PARENT 8 10
REMARK Flexibility Score: inf
ROOT
ATOM      1  C   UNL     1     162.027 176.775 150.858  1.00  0.00    -0.045 A 
ATOM      2  C   UNL     1     162.443 175.438 150.744  1.00  0.00     0.049 A 
ATOM      3  C   UNL     1     163.801 175.106 150.852  1.00  0.00     0.115 A 
ATOM      4  C   UNL     1     164.746 176.112 151.082  1.00  0.00     0.046 A 
ATOM      5  C   UNL     1     164.337 177.442 151.209  1.00  0.00     0.004 A 
ATOM      6  C   UNL     1     162.984 177.774 151.102  1.00  0.00     0.004 A 
ENDROOT
BRANCH   1   7
ATOM      7  C   UNL     1     160.567 177.126 150.776  1.00  0.00     0.032 C 
ATOM      8  C   UNL     1     160.166 178.040 151.929  1.00  0.00     0.009 C 
ENDBRANCH   1   7
BRANCH   3   9
ATOM      9  O   UNL     1     164.221 173.783 150.733  1.00  0.00    -0.508 OA
ATOM     10  H   UNL     1     165.141 173.550 150.375  1.00  0.00     0.293 HD
ENDBRANCH   3   9
TORSDOF 2
ENDMDL
MODEL 8
REMARK VINA RESULT:    -3.826      2.926      4.342
REMARK INTER + INTRA:          -4.231
REMARK INTER:                  -4.160
REMARK INTRA:                  -0.071
REMARK UNBOUND:                -0.070
REMARK SMILES CCc1cccc(O)c1
REMARK SMILES IDX 3 1 9 2 7 3 6 4 5 5 4 6 2 7 1 8 8 9
REMARK H PARENT 8 10
REMARK Flexibility Score: inf
ROOT
ATOM      1  C   UNL     1     162.890 177.033 151.072  1.00  0.00    -0.045 A 
ATOM      2  C   UNL     1     164.146 177.661 151.133  1.00  0.00     0.049 A 
ATOM      3  C   UNL     1     165.320 176.915 150.960  1.00  0.00     0.115 A 
ATOM      4  C   UNL     1     165.240 175.539 150.718  1.00  0.00     0.046 A 
ATOM      5  C   UNL     1     163.994 174.911 150.644  1.00  0.00     0.004 A 
ATOM      6  C   UNL     1     162.823 175.653 150.816  1.00  0.00     0.004 A 
ENDROOT
BRANCH   1   7
ATOM      7  C   UNL     1     161.629 177.839 151.224  1.00  0.00     0.032 C 
ATOM      8  C   UNL     1     160.581 177.399 150.208  1.00  0.00     0.009 C 
ENDBRANCH   1   7
BRANCH   3   9
ATOM      9  O   UNL     1     166.569 177.529 151.024  1.00  0.00    -0.508 OA
ATOM     10  H   UNL     1     166.708 178.480 150.700  1.00  0.00     0.293 HD
ENDBRANCH   3   9
TORSDOF 2
ENDMDL
MODEL 9
REMARK VINA RESULT:    -3.776      1.864      1.989
REMARK INTER + INTRA:          -4.178
REMARK INTER:                  -4.120
REMARK INTRA:                  -0.058
REMARK UNBOUND:                -0.070
REMARK SMILES CCc1cccc(O)c1
REMARK SMILES IDX 3 1 9 2 7 3 6 4 5 5 4 6 2 7 1 8 8 9
REMARK H PARENT 8 10
REMARK Flexibility Score: inf
ROOT
ATOM      1  C   UNL     1     162.345 175.867 151.313  1.00  0.00    -0.045 A 
ATOM      2  C   UNL     1     161.647 175.372 152.427  1.00  0.00     0.049 A 
ATOM      3  C   UNL     1     160.543 176.070 152.938  1.00  0.00     0.115 A 
ATOM      4  C   UNL     1     160.130 177.260 152.329  1.00  0.00     0.046 A 
ATOM      5  C   UNL     1     160.813 177.750 151.213  1.00  0.00     0.004 A 
ATOM      6  C   UNL     1     161.913 177.056 150.702  1.00  0.00     0.004 A 
ENDROOT
BRANCH   1   7
ATOM      7  C   UNL     1     163.508 175.101 150.744  1.00  0.00     0.032 C 
ATOM      8  C   UNL     1     164.808 175.876 150.931  1.00  0.00     0.009 C 
ENDBRANCH   1   7
BRANCH   3   9
ATOM      9  O   UNL     1     159.849 175.589 154.046  1.00  0.00    -0.508 OA
ATOM     10  H   UNL     1     159.926 174.622 154.340  1.00  0.00     0.293 HD
ENDBRANCH   3   9
TORSDOF 2
ENDMDL
