MODEL 1
REMARK VINA RESULT:    -3.241      0.000      0.000
REMARK INTER + INTRA:          -4.403
REMARK INTER:                  -4.189
REMARK INTRA:                  -0.214
REMARK UNBOUND:                -0.214
REMARK SMILES CCCCCCC(=O)[O-]
REMARK SMILES IDX 5 1 6 2 7 3 8 4 9 5 4 6 3 7 2 8 1 9
REMARK H PARENT
REMARK Flexibility Score: inf
ROOT
ATOM      1  C   UNL     1      37.708  38.642  20.556  1.00  0.00     0.006 C 
ENDROOT
BRANCH   1   2
ATOM      2  C   UNL     1      37.571  39.589  19.360  1.00  0.00     0.053 C 
BRANCH   2   3
ATOM      3  C   UNL     1      38.850  39.641  18.586  1.00  0.00     0.041 C 
ATOM      4  O   UNL     1      39.700  40.538  18.828  1.00  0.00    -0.550 OA
ATOM      5  O   UNL     1      39.082  38.729  17.563  1.00  0.00    -0.550 OA
ENDBRANCH   2   3
ENDBRANCH   1   2
BRANCH   1   6
ATOM      6  C   UNL     1      36.848  37.386  20.365  1.00  0.00     0.000 C 
BRANCH   6   7
ATOM      7  C   UNL     1      37.630  36.289  19.632  1.00  0.00    -0.000 C 
BRANCH   7   8
ATOM      8  C   UNL     1      37.957  35.125  20.573  1.00  0.00    -0.003 C 
ATOM      9  C   UNL     1      36.818  34.875  21.557  1.00  0.00     0.004 C 
ENDBRANCH   7   8
ENDBRANCH   6   7
ENDBRANCH   1   6
TORSDOF 5
ENDMDL
MODEL 2
REMARK VINA RESULT:    -3.102      2.162      2.530
REMARK INTER + INTRA:          -4.223
REMARK INTER:                  -3.832
REMARK INTRA:                  -0.391
REMARK UNBOUND:                -0.214
REMARK SMILES CCCCCCC(=O)[O-]
REMARK SMILES IDX 5 1 6 2 7 3 8 4 9 5 4 6 3 7 2 8 1 9
REMARK H PARENT
REMARK Flexibility Score: inf
ROOT
ATOM      1  C   UNL     1      39.049  38.497  19.037  1.00  0.00     0.006 C 
ENDROOT
BRANCH   1   2
ATOM      2  C   UNL     1      37.779  39.350  18.949  1.00  0.00     0.053 C 
BRANCH   2   3
ATOM      3  C   UNL     1      36.956  39.192  20.188  1.00  0.00     0.041 C 
ATOM      4  O   UNL     1      35.727  39.463  20.170  1.00  0.00    -0.550 OA
ATOM      5  O   UNL     1      37.556  38.791  21.375  1.00  0.00    -0.550 OA
ENDBRANCH   2   3
ENDBRANCH   1   2
BRANCH   1   6
ATOM      6  C   UNL     1      38.840  37.131  18.371  1.00  0.00     0.000 C 
BRANCH   6   7
ATOM      7  C   UNL     1      38.863  36.003  19.410  1.00  0.00    -0.000 C 
BRANCH   7   8
ATOM      8  C   UNL     1      37.443  35.521  19.729  1.00  0.00    -0.003 C 
ATOM      9  C   UNL     1      37.288  35.206  21.213  1.00  0.00     0.004 C 
ENDBRANCH   7   8
ENDBRANCH   6   7
ENDBRANCH   1   6
TORSDOF 5
ENDMDL
MODEL 3
REMARK VINA RESULT:    -3.088      1.967      2.793
REMARK INTER + INTRA:          -4.205
REMARK INTER:                  -3.981
REMARK INTRA:                  -0.224
REMARK UNBOUND:                -0.214
REMARK SMILES CCCCCCC(=O)[O-]
REMARK SMILES IDX 5 1 6 2 7 3 8 4 9 5 4 6 3 7 2 8 1 9
REMARK H PARENT
REMARK Flexibility Score: inf
ROOT
ATOM      1  C   UNL     1      36.758  36.820  20.455  1.00  0.00     0.006 C 
ENDROOT
BRANCH   1   2
ATOM      2  C   UNL     1      37.591  38.072  20.748  1.00  0.00     0.053 C 
BRANCH   2   3
ATOM      3  C   UNL     1      36.978  39.272  20.100  1.00  0.00     0.041 C 
ATOM      4  O   UNL     1      35.751  39.514  20.246  1.00  0.00    -0.550 OA
ATOM      5  O   UNL     1      37.752  40.099  19.295  1.00  0.00    -0.550 OA
ENDBRANCH   2   3
ENDBRANCH   1   2
BRANCH   1   6
ATOM      6  C   UNL     1      37.441  35.562  21.006  1.00  0.00     0.000 C 
BRANCH   6   7
ATOM      7  C   UNL     1      38.421  34.975  19.982  1.00  0.00    -0.000 C 
BRANCH   7   8
ATOM      8  C   UNL     1      37.774  34.877  18.596  1.00  0.00    -0.003 C 
ATOM      9  C   UNL     1      38.634  35.559  17.537  1.00  0.00     0.004 C 
ENDBRANCH   7   8
ENDBRANCH   6   7
ENDBRANCH   1   6
TORSDOF 5
ENDMDL
MODEL 4
REMARK VINA RESULT:    -2.952     14.703     15.473
REMARK INTER + INTRA:          -4.029
REMARK INTER:                  -3.837
REMARK INTRA:                  -0.192
REMARK UNBOUND:                -0.214
REMARK SMILES CCCCCCC(=O)[O-]
REMARK SMILES IDX 5 1 6 2 7 3 8 4 9 5 4 6 3 7 2 8 1 9
REMARK H PARENT
REMARK Flexibility Score: inf
ROOT
ATOM      1  C   UNL     1      22.875  35.551  18.354  1.00  0.00     0.006 C 
ENDROOT
BRANCH   1   2
ATOM      2  C   UNL     1      23.964  35.110  17.371  1.00  0.00     0.053 C 
BRANCH   2   3
ATOM      3  C   UNL     1      25.315  35.228  18.000  1.00  0.00     0.041 C 
ATOM      4  O   UNL     1      25.423  35.527  19.219  1.00  0.00    -0.550 OA
ATOM      5  O   UNL     1      26.459  35.056  17.230  1.00  0.00    -0.550 OA
ENDBRANCH   2   3
ENDBRANCH   1   2
BRANCH   1   6
ATOM      6  C   UNL     1      21.979  36.631  17.735  1.00  0.00     0.000 C 
BRANCH   6   7
ATOM      7  C   UNL     1      20.692  36.813  18.550  1.00  0.00    -0.000 C 
BRANCH   7   8
ATOM      8  C   UNL     1      20.579  35.746  19.644  1.00  0.00    -0.003 C 
ATOM      9  C   UNL     1      19.980  36.327  20.921  1.00  0.00     0.004 C 
ENDBRANCH   7   8
ENDBRANCH   6   7
ENDBRANCH   1   6
TORSDOF 5
ENDMDL
MODEL 5
REMARK VINA RESULT:    -2.803     13.062     13.951
REMARK INTER + INTRA:          -3.836
REMARK INTER:                  -3.704
REMARK INTRA:                  -0.132
REMARK UNBOUND:                -0.214
REMARK SMILES CCCCCCC(=O)[O-]
REMARK SMILES IDX 5 1 6 2 7 3 8 4 9 5 4 6 3 7 2 8 1 9
REMARK H PARENT
REMARK Flexibility Score: inf
ROOT
ATOM      1  C   UNL     1      25.442  35.539  18.547  1.00  0.00     0.006 C 
ENDROOT
BRANCH   1   2
ATOM      2  C   UNL     1      25.506  34.875  19.926  1.00  0.00     0.053 C 
BRANCH   2   3
ATOM      3  C   UNL     1      26.805  35.191  20.598  1.00  0.00     0.041 C 
ATOM      4  O   UNL     1      26.826  35.511  21.816  1.00  0.00    -0.550 OA
ATOM      5  O   UNL     1      27.987  35.179  19.868  1.00  0.00    -0.550 OA
ENDBRANCH   2   3
ENDBRANCH   1   2
BRANCH   1   6
ATOM      6  C   UNL     1      24.296  34.957  17.710  1.00  0.00     0.000 C 
BRANCH   6   7
ATOM      7  C   UNL     1      22.933  35.329  18.308  1.00  0.00    -0.000 C 
BRANCH   7   8
ATOM      8  C   UNL     1      22.310  36.514  17.562  1.00  0.00    -0.003 C 
ATOM      9  C   UNL     1      21.035  36.990  18.250  1.00  0.00     0.004 C 
ENDBRANCH   7   8
ENDBRANCH   6   7
ENDBRANCH   1   6
TORSDOF 5
ENDMDL
MODEL 6
REMARK VINA RESULT:    -2.716      2.040      4.071
REMARK INTER + INTRA:          -3.723
REMARK INTER:                  -3.455
REMARK INTRA:                  -0.268
REMARK UNBOUND:                -0.214
REMARK SMILES CCCCCCC(=O)[O-]
REMARK SMILES IDX 5 1 6 2 7 3 8 4 9 5 4 6 3 7 2 8 1 9
REMARK H PARENT
REMARK Flexibility Score: inf
ROOT
ATOM      1  C   UNL     1      37.128  36.429  20.371  1.00  0.00     0.006 C 
ENDROOT
BRANCH   1   2
ATOM      2  C   UNL     1      37.767  35.630  19.230  1.00  0.00     0.053 C 
BRANCH   2   3
ATOM      3  C   UNL     1      39.253  35.577  19.397  1.00  0.00     0.041 C 
ATOM      4  O   UNL     1      39.762  34.875  20.310  1.00  0.00    -0.550 OA
ATOM      5  O   UNL     1      40.073  36.341  18.576  1.00  0.00    -0.550 OA
ENDBRANCH   2   3
ENDBRANCH   1   2
BRANCH   1   6
ATOM      6  C   UNL     1      37.744  37.830  20.473  1.00  0.00     0.000 C 
BRANCH   6   7
ATOM      7  C   UNL     1      36.751  38.903  20.010  1.00  0.00    -0.000 C 
BRANCH   7   8
ATOM      8  C   UNL     1      37.471  40.037  19.272  1.00  0.00    -0.003 C 
ATOM      9  C   UNL     1      38.886  39.624  18.876  1.00  0.00     0.004 C 
ENDBRANCH   7   8
ENDBRANCH   6   7
ENDBRANCH   1   6
TORSDOF 5
ENDMDL
MODEL 7
REMARK VINA RESULT:    -2.587     13.287     14.112
REMARK INTER + INTRA:          -3.557
REMARK INTER:                  -3.473
REMARK INTRA:                  -0.084
REMARK UNBOUND:                -0.214
REMARK SMILES CCCCCCC(=O)[O-]
REMARK SMILES IDX 5 1 6 2 7 3 8 4 9 5 4 6 3 7 2 8 1 9
REMARK H PARENT
REMARK Flexibility Score: inf
ROOT
ATOM      1  C   UNL     1      24.754  35.639  18.147  1.00  0.00     0.006 C 
ENDROOT
BRANCH   1   2
ATOM      2  C   UNL     1      23.374  35.054  18.463  1.00  0.00     0.053 C 
BRANCH   2   3
ATOM      3  C   UNL     1      22.295  35.960  17.961  1.00  0.00     0.041 C 
ATOM      4  O   UNL     1      21.293  36.211  18.682  1.00  0.00    -0.550 OA
ATOM      5  O   UNL     1      22.371  36.488  16.678  1.00  0.00    -0.550 OA
ENDBRANCH   2   3
ENDBRANCH   1   2
BRANCH   1   6
ATOM      6  C   UNL     1      25.859  34.875  18.889  1.00  0.00     0.000 C 
BRANCH   6   7
ATOM      7  C   UNL     1      26.248  35.594  20.188  1.00  0.00    -0.000 C 
BRANCH   7   8
ATOM      8  C   UNL     1      27.478  34.942  20.828  1.00  0.00    -0.003 C 
ATOM      9  C   UNL     1      27.550  35.250  22.321  1.00  0.00     0.004 C 
ENDBRANCH   7   8
ENDBRANCH   6   7
ENDBRANCH   1   6
TORSDOF 5
ENDMDL
MODEL 8
REMARK VINA RESULT:    -2.574      2.346      4.132
REMARK INTER + INTRA:          -3.541
REMARK INTER:                  -3.187
REMARK INTRA:                  -0.353
REMARK UNBOUND:                -0.214
REMARK SMILES CCCCCCC(=O)[O-]
REMARK SMILES IDX 5 1 6 2 7 3 8 4 9 5 4 6 3 7 2 8 1 9
REMARK H PARENT
REMARK Flexibility Score: inf
ROOT
ATOM      1  C   UNL     1      37.675  38.239  20.528  1.00  0.00     0.006 C 
ENDROOT
BRANCH   1   2
ATOM      2  C   UNL     1      36.944  36.918  20.271  1.00  0.00     0.053 C 
BRANCH   2   3
ATOM      3  C   UNL     1      37.841  35.953  19.563  1.00  0.00     0.041 C 
ATOM      4  O   UNL     1      37.519  35.502  18.432  1.00  0.00    -0.550 OA
ATOM      5  O   UNL     1      39.011  35.515  20.172  1.00  0.00    -0.550 OA
ENDBRANCH   2   3
ENDBRANCH   1   2
BRANCH   1   6
ATOM      6  C   UNL     1      37.572  39.170  19.313  1.00  0.00     0.000 C 
BRANCH   6   7
ATOM      7  C   UNL     1      38.958  39.655  18.871  1.00  0.00    -0.000 C 
BRANCH   7   8
ATOM      8  C   UNL     1      39.279  39.179  17.450  1.00  0.00    -0.003 C 
ATOM      9  C   UNL     1      40.018  37.844  17.469  1.00  0.00     0.004 C 
ENDBRANCH   7   8
ENDBRANCH   6   7
ENDBRANCH   1   6
TORSDOF 5
ENDMDL
MODEL 9
REMARK VINA RESULT:    -2.542      1.589      2.123
REMARK INTER + INTRA:          -3.499
REMARK INTER:                  -3.249
REMARK INTRA:                  -0.250
REMARK UNBOUND:                -0.214
REMARK SMILES CCCCCCC(=O)[O-]
REMARK SMILES IDX 5 1 6 2 7 3 8 4 9 5 4 6 3 7 2 8 1 9
REMARK H PARENT
REMARK Flexibility Score: inf
ROOT
ATOM      1  C   UNL     1      40.016  36.771  18.876  1.00  0.00     0.006 C 
ENDROOT
BRANCH   1   2
ATOM      2  C   UNL     1      39.404  37.475  17.661  1.00  0.00     0.053 C 
BRANCH   2   3
ATOM      3  C   UNL     1      39.302  38.947  17.906  1.00  0.00     0.041 C 
ATOM      4  O   UNL     1      38.465  39.395  18.733  1.00  0.00    -0.550 OA
ATOM      5  O   UNL     1      40.099  39.828  17.185  1.00  0.00    -0.550 OA
ENDBRANCH   2   3
ENDBRANCH   1   2
BRANCH   1   6
ATOM      6  C   UNL     1      39.154  35.579  19.313  1.00  0.00     0.000 C 
BRANCH   6   7
ATOM      7  C   UNL     1      37.663  35.938  19.285  1.00  0.00    -0.000 C 
BRANCH   7   8
ATOM      8  C   UNL     1      37.128  36.175  20.702  1.00  0.00    -0.003 C 
ATOM      9  C   UNL     1      37.090  34.875  21.500  1.00  0.00     0.004 C 
ENDBRANCH   7   8
ENDBRANCH   6   7
ENDBRANCH   1   6
TORSDOF 5
ENDMDL
