MODEL 1
REMARK VINA RESULT:    -2.476      0.000      0.000
REMARK INTER + INTRA:          -2.443
REMARK INTER:                  -3.418
REMARK INTRA:                   0.974
REMARK UNBOUND:                 0.974
REMARK SMILES O=C([O-])[C@@H]1O[C@H](Oc2cc3oc(-c4ccccc4)cc(=O)c3c(O)c2O)[C@@H](O)[C@@H](O)[C@H]1O
REMARK SMILES IDX 7 1 6 2 4 3 31 4 5 5 29 6 27 7 2 8 1 9 3 10 32 11 30 13
REMARK SMILES IDX 28 15 8 17 25 18 9 19 23 20 10 21 22 22 11 23 20 24 12 25
REMARK SMILES IDX 19 26 21 27 26 28 24 30 13 32 14 33 18 34 15 35 17 36 16 37
REMARK H PARENT 32 12 30 14 28 16 26 29 24 31
REMARK Flexibility Score: inf
ROOT
ATOM      1  O   UNL     1      15.502  25.572  14.468  1.00  0.00    -0.458 OA
ENDROOT
BRANCH   1   2
ATOM      2  C   UNL     1      14.785  24.442  14.970  1.00  0.00     0.339 C 
ATOM      3  C   UNL     1      15.273  24.856  17.266  1.00  0.00     0.199 C 
ATOM      4  C   UNL     1      13.828  25.321  17.568  1.00  0.00     0.180 C 
ATOM      5  O   UNL     1      15.351  23.943  16.178  1.00  0.00    -0.328 OA
ATOM      6  C   UNL     1      13.120  25.816  16.290  1.00  0.00     0.181 C 
ATOM      7  C   UNL     1      13.297  24.813  15.142  1.00  0.00     0.214 C 
BRANCH   3   8
ATOM      8  C   UNL     1      16.284  25.969  17.131  1.00  0.00     0.073 C 
ATOM      9  O   UNL     1      16.912  26.105  16.050  1.00  0.00    -0.547 OA
ATOM     10  O   UNL     1      16.571  26.820  18.194  1.00  0.00    -0.547 OA
ENDBRANCH   3   8
BRANCH   4  11
ATOM     11  O   UNL     1      13.108  24.252  18.136  1.00  0.00    -0.387 OA
ATOM     12  H   UNL     1      13.399  24.161  19.081  1.00  0.00     0.211 HD
ENDBRANCH   4  11
BRANCH   6  13
ATOM     13  O   UNL     1      11.750  26.033  16.512  1.00  0.00    -0.387 OA
ATOM     14  H   UNL     1      11.336  25.147  16.689  1.00  0.00     0.211 HD
ENDBRANCH   6  13
BRANCH   7  15
ATOM     15  O   UNL     1      12.481  23.679  15.326  1.00  0.00    -0.384 OA
ATOM     16  H   UNL     1      12.934  23.049  15.943  1.00  0.00     0.211 HD
ENDBRANCH   7  15
ENDBRANCH   1   2
BRANCH   1  17
ATOM     17  C   UNL     1      16.262  25.638  13.285  1.00  0.00     0.172 A 
ATOM     18  C   UNL     1      16.920  26.803  12.826  1.00  0.00     0.201 A 
ATOM     19  C   UNL     1      16.343  24.463  12.536  1.00  0.00     0.098 A 
ATOM     20  C   UNL     1      17.697  26.752  11.638  1.00  0.00     0.176 A 
ATOM     21  C   UNL     1      17.080  24.406  11.357  1.00  0.00     0.146 A 
ATOM     22  C   UNL     1      17.753  25.553  10.885  1.00  0.00     0.111 A 
ATOM     23  O   UNL     1      17.151  23.256  10.698  1.00  0.00    -0.456 OA
ATOM     24  C   UNL     1      18.469  25.432   9.675  1.00  0.00     0.197 A 
ATOM     25  C   UNL     1      17.841  23.099   9.571  1.00  0.00     0.138 A 
ATOM     26  C   UNL     1      18.507  24.203   9.013  1.00  0.00     0.100 A 
ATOM     27  O   UNL     1      19.074  26.414   9.168  1.00  0.00    -0.289 OA
BRANCH  18  28
ATOM     28  O   UNL     1      16.762  27.998  13.529  1.00  0.00    -0.502 OA
ATOM     29  H   UNL     1      16.470  28.054  14.493  1.00  0.00     0.293 HD
ENDBRANCH  18  28
BRANCH  20  30
ATOM     30  O   UNL     1      18.435  27.860  11.209  1.00  0.00    -0.504 OA
ATOM     31  H   UNL     1      19.409  27.824  10.951  1.00  0.00     0.293 HD
ENDBRANCH  20  30
BRANCH  25  32
ATOM     32  C   UNL     1      17.889  21.754   8.946  1.00  0.00     0.017 A 
ATOM     33  C   UNL     1      16.692  21.034   8.755  1.00  0.00     0.012 A 
ATOM     34  C   UNL     1      19.110  21.141   8.595  1.00  0.00     0.012 A 
ATOM     35  C   UNL     1      16.716  19.737   8.229  1.00  0.00     0.001 A 
ATOM     36  C   UNL     1      19.125  19.848   8.061  1.00  0.00     0.001 A 
ATOM     37  C   UNL     1      17.931  19.145   7.880  1.00  0.00     0.000 A 
ENDBRANCH  25  32
ENDBRANCH   1  17
TORSDOF 9
ENDMDL
MODEL 2
REMARK VINA RESULT:    -1.647      2.506      9.036
REMARK INTER + INTRA:          -1.299
REMARK INTER:                  -0.942
REMARK INTRA:                  -0.357
REMARK UNBOUND:                 0.974
REMARK SMILES O=C([O-])[C@@H]1O[C@H](Oc2cc3oc(-c4ccccc4)cc(=O)c3c(O)c2O)[C@@H](O)[C@@H](O)[C@H]1O
REMARK SMILES IDX 7 1 6 2 4 3 31 4 5 5 29 6 27 7 2 8 1 9 3 10 32 11 30 13
REMARK SMILES IDX 28 15 8 17 25 18 9 19 23 20 10 21 22 22 11 23 20 24 12 25
REMARK SMILES IDX 19 26 21 27 26 28 24 30 13 32 14 33 18 34 15 35 17 36 16 37
REMARK H PARENT 32 12 30 14 28 16 26 29 24 31
REMARK Flexibility Score: inf
ROOT
ATOM      1  O   UNL     1      16.485  25.017  13.243  1.00  0.00    -0.458 OA
ENDROOT
BRANCH   1   2
ATOM      2  C   UNL     1      15.901  25.262  11.960  1.00  0.00     0.339 C 
ATOM      3  C   UNL     1      17.272  27.141  11.437  1.00  0.00     0.199 C 
ATOM      4  C   UNL     1      18.095  26.346  10.394  1.00  0.00     0.180 C 
ATOM      5  O   UNL     1      15.951  26.641  11.606  1.00  0.00    -0.328 OA
ATOM      6  C   UNL     1      18.035  24.830  10.671  1.00  0.00     0.181 C 
ATOM      7  C   UNL     1      16.589  24.372  10.905  1.00  0.00     0.214 C 
BRANCH   3   8
ATOM      8  C   UNL     1      17.961  27.352  12.763  1.00  0.00     0.073 C 
ATOM      9  O   UNL     1      17.634  28.333  13.479  1.00  0.00    -0.547 OA
ATOM     10  O   UNL     1      18.986  26.512  13.189  1.00  0.00    -0.547 OA
ENDBRANCH   3   8
BRANCH   4  11
ATOM     11  O   UNL     1      17.597  26.621   9.105  1.00  0.00    -0.387 OA
ATOM     12  H   UNL     1      18.367  26.626   8.479  1.00  0.00     0.211 HD
ENDBRANCH   4  11
BRANCH   6  13
ATOM     13  O   UNL     1      18.593  24.091   9.615  1.00  0.00    -0.387 OA
ATOM     14  H   UNL     1      19.376  24.602   9.278  1.00  0.00     0.211 HD
ENDBRANCH   6  13
BRANCH   7  15
ATOM     15  O   UNL     1      15.869  24.323   9.695  1.00  0.00    -0.384 OA
ATOM     16  H   UNL     1      14.957  24.681   9.844  1.00  0.00     0.211 HD
ENDBRANCH   7  15
ENDBRANCH   1   2
BRANCH   1  17
ATOM     17  C   UNL     1      15.849  25.111  14.495  1.00  0.00     0.172 A 
ATOM     18  C   UNL     1      14.590  24.538  14.793  1.00  0.00     0.201 A 
ATOM     19  C   UNL     1      16.528  25.830  15.480  1.00  0.00     0.098 A 
ATOM     20  C   UNL     1      14.055  24.655  16.103  1.00  0.00     0.176 A 
ATOM     21  C   UNL     1      16.003  25.974  16.761  1.00  0.00     0.146 A 
ATOM     22  C   UNL     1      14.754  25.403  17.084  1.00  0.00     0.111 A 
ATOM     23  O   UNL     1      16.702  26.641  17.672  1.00  0.00    -0.456 OA
ATOM     24  C   UNL     1      14.271  25.601  18.396  1.00  0.00     0.197 A 
ATOM     25  C   UNL     1      16.290  26.820  18.924  1.00  0.00     0.138 A 
ATOM     26  C   UNL     1      15.039  26.316  19.316  1.00  0.00     0.100 A 
ATOM     27  O   UNL     1      13.152  25.149  18.760  1.00  0.00    -0.289 OA
BRANCH  18  28
ATOM     28  O   UNL     1      13.875  23.898  13.781  1.00  0.00    -0.502 OA
ATOM     29  H   UNL     1      13.367  24.379  13.054  1.00  0.00     0.293 HD
ENDBRANCH  18  28
BRANCH  20  30
ATOM     30  O   UNL     1      12.860  24.021  16.456  1.00  0.00    -0.504 OA
ATOM     31  H   UNL     1      12.726  23.022  16.447  1.00  0.00     0.293 HD
ENDBRANCH  20  30
BRANCH  25  32
ATOM     32  C   UNL     1      17.179  27.542  19.869  1.00  0.00     0.017 A 
ATOM     33  C   UNL     1      16.979  28.918  20.096  1.00  0.00     0.012 A 
ATOM     34  C   UNL     1      18.265  26.902  20.502  1.00  0.00     0.012 A 
ATOM     35  C   UNL     1      17.844  29.637  20.931  1.00  0.00     0.001 A 
ATOM     36  C   UNL     1      19.119  27.625  21.343  1.00  0.00     0.001 A 
ATOM     37  C   UNL     1      18.911  28.990  21.556  1.00  0.00     0.000 A 
ENDBRANCH  25  32
ENDBRANCH   1  17
TORSDOF 9
ENDMDL
MODEL 3
REMARK VINA RESULT:    -1.132      2.459      3.819
REMARK INTER + INTRA:          -0.588
REMARK INTER:                   0.204
REMARK INTRA:                  -0.792
REMARK UNBOUND:                 0.974
REMARK SMILES O=C([O-])[C@@H]1O[C@H](Oc2cc3oc(-c4ccccc4)cc(=O)c3c(O)c2O)[C@@H](O)[C@@H](O)[C@H]1O
REMARK SMILES IDX 7 1 6 2 4 3 31 4 5 5 29 6 27 7 2 8 1 9 3 10 32 11 30 13
REMARK SMILES IDX 28 15 8 17 25 18 9 19 23 20 10 21 22 22 11 23 20 24 12 25
REMARK SMILES IDX 19 26 21 27 26 28 24 30 13 32 14 33 18 34 15 35 17 36 16 37
REMARK H PARENT 32 12 30 14 28 16 26 29 24 31
REMARK Flexibility Score: inf
ROOT
ATOM      1  O   UNL     1      17.480  27.654  16.797  1.00  0.00    -0.458 OA
ENDROOT
BRANCH   1   2
ATOM      2  C   UNL     1      17.567  26.347  17.372  1.00  0.00     0.339 C 
ATOM      3  C   UNL     1      17.588  27.091  19.637  1.00  0.00     0.199 C 
ATOM      4  C   UNL     1      16.142  26.600  19.892  1.00  0.00     0.180 C 
ATOM      5  O   UNL     1      18.257  26.357  18.618  1.00  0.00    -0.328 OA
ATOM      6  C   UNL     1      15.346  26.498  18.575  1.00  0.00     0.181 C 
ATOM      7  C   UNL     1      16.151  25.749  17.504  1.00  0.00     0.214 C 
BRANCH   3   8
ATOM      8  C   UNL     1      17.727  28.580  19.432  1.00  0.00     0.073 C 
ATOM      9  O   UNL     1      16.827  29.348  19.862  1.00  0.00    -0.547 OA
ATOM     10  O   UNL     1      18.804  29.119  18.736  1.00  0.00    -0.547 OA
ENDBRANCH   3   8
BRANCH   4  11
ATOM     11  O   UNL     1      16.186  25.344  20.529  1.00  0.00    -0.387 OA
ATOM     12  H   UNL     1      15.273  24.957  20.496  1.00  0.00     0.211 HD
ENDBRANCH   4  11
BRANCH   6  13
ATOM     13  O   UNL     1      14.114  25.851  18.767  1.00  0.00    -0.387 OA
ATOM     14  H   UNL     1      13.845  26.004  19.713  1.00  0.00     0.211 HD
ENDBRANCH   6  13
BRANCH   7  15
ATOM     15  O   UNL     1      16.177  24.364  17.762  1.00  0.00    -0.384 OA
ATOM     16  H   UNL     1      17.115  24.046  17.732  1.00  0.00     0.211 HD
ENDBRANCH   7  15
ENDBRANCH   1   2
BRANCH   1  17
ATOM     17  C   UNL     1      17.737  28.010  15.460  1.00  0.00     0.172 A 
ATOM     18  C   UNL     1      17.964  29.336  15.020  1.00  0.00     0.201 A 
ATOM     19  C   UNL     1      17.753  26.966  14.534  1.00  0.00     0.098 A 
ATOM     20  C   UNL     1      18.256  29.583  13.653  1.00  0.00     0.176 A 
ATOM     21  C   UNL     1      18.013  27.199  13.187  1.00  0.00     0.146 A 
ATOM     22  C   UNL     1      18.251  28.511  12.726  1.00  0.00     0.111 A 
ATOM     23  O   UNL     1      18.047  26.167  12.351  1.00  0.00    -0.456 OA
ATOM     24  C   UNL     1      18.492  28.679  11.345  1.00  0.00     0.197 A 
ATOM     25  C   UNL     1      18.300  26.288  11.050  1.00  0.00     0.138 A 
ATOM     26  C   UNL     1      18.509  27.565  10.505  1.00  0.00     0.100 A 
ATOM     27  O   UNL     1      18.686  29.820  10.846  1.00  0.00    -0.289 OA
BRANCH  18  28
ATOM     28  O   UNL     1      17.858  30.385  15.933  1.00  0.00    -0.502 OA
ATOM     29  H   UNL     1      17.329  30.340  16.790  1.00  0.00     0.293 HD
ENDBRANCH  18  28
BRANCH  20  30
ATOM     30  O   UNL     1      18.578  30.868  13.204  1.00  0.00    -0.504 OA
ATOM     31  H   UNL     1      18.634  31.130  12.232  1.00  0.00     0.293 HD
ENDBRANCH  20  30
BRANCH  25  32
ATOM     32  C   UNL     1      18.360  25.058  10.220  1.00  0.00     0.017 A 
ATOM     33  C   UNL     1      19.106  25.063   9.025  1.00  0.00     0.012 A 
ATOM     34  C   UNL     1      17.635  23.897  10.561  1.00  0.00     0.012 A 
ATOM     35  C   UNL     1      19.125  23.939   8.191  1.00  0.00     0.001 A 
ATOM     36  C   UNL     1      17.666  22.773   9.727  1.00  0.00     0.001 A 
ATOM     37  C   UNL     1      18.408  22.794   8.543  1.00  0.00     0.000 A 
ENDBRANCH  25  32
ENDBRANCH   1  17
TORSDOF 9
ENDMDL
MODEL 4
REMARK VINA RESULT:     0.186      2.922      9.318
REMARK INTER + INTRA:           1.231
REMARK INTER:                   2.135
REMARK INTRA:                  -0.904
REMARK UNBOUND:                 0.974
REMARK SMILES O=C([O-])[C@@H]1O[C@H](Oc2cc3oc(-c4ccccc4)cc(=O)c3c(O)c2O)[C@@H](O)[C@@H](O)[C@H]1O
REMARK SMILES IDX 7 1 6 2 4 3 31 4 5 5 29 6 27 7 2 8 1 9 3 10 32 11 30 13
REMARK SMILES IDX 28 15 8 17 25 18 9 19 23 20 10 21 22 22 11 23 20 24 12 25
REMARK SMILES IDX 19 26 21 27 26 28 24 30 13 32 14 33 18 34 15 35 17 36 16 37
REMARK H PARENT 32 12 30 14 28 16 26 29 24 31
REMARK Flexibility Score: inf
ROOT
ATOM      1  O   UNL     1      17.514  25.563  13.469  1.00  0.00    -0.458 OA
ENDROOT
BRANCH   1   2
ATOM      2  C   UNL     1      18.079  26.659  12.743  1.00  0.00     0.339 C 
ATOM      3  C   UNL     1      17.696  25.728  10.582  1.00  0.00     0.199 C 
ATOM      4  C   UNL     1      16.548  26.720  10.274  1.00  0.00     0.180 C 
ATOM      5  O   UNL     1      18.648  26.243  11.506  1.00  0.00    -0.328 OA
ATOM      6  C   UNL     1      15.921  27.270  11.571  1.00  0.00     0.181 C 
ATOM      7  C   UNL     1      17.006  27.750  12.545  1.00  0.00     0.214 C 
BRANCH   3   8
ATOM      8  C   UNL     1      17.249  24.337  10.961  1.00  0.00     0.073 C 
ATOM      9  O   UNL     1      18.043  23.372  10.814  1.00  0.00    -0.547 OA
ATOM     10  O   UNL     1      15.960  24.091  11.425  1.00  0.00    -0.547 OA
ENDBRANCH   3   8
BRANCH   4  11
ATOM     11  O   UNL     1      17.050  27.779   9.493  1.00  0.00    -0.387 OA
ATOM     12  H   UNL     1      18.041  27.738   9.531  1.00  0.00     0.211 HD
ENDBRANCH   4  11
BRANCH   6  13
ATOM     13  O   UNL     1      15.033  28.326  11.306  1.00  0.00    -0.387 OA
ATOM     14  H   UNL     1      15.576  29.093  10.982  1.00  0.00     0.211 HD
ENDBRANCH   6  13
BRANCH   7  15
ATOM     15  O   UNL     1      17.561  28.975  12.125  1.00  0.00    -0.384 OA
ATOM     16  H   UNL     1      16.992  29.718  12.450  1.00  0.00     0.211 HD
ENDBRANCH   7  15
ENDBRANCH   1   2
BRANCH   1  17
ATOM     17  C   UNL     1      16.941  25.603  14.754  1.00  0.00     0.172 A 
ATOM     18  C   UNL     1      15.895  24.753  15.184  1.00  0.00     0.201 A 
ATOM     19  C   UNL     1      17.454  26.559  15.631  1.00  0.00     0.098 A 
ATOM     20  C   UNL     1      15.415  24.846  16.517  1.00  0.00     0.176 A 
ATOM     21  C   UNL     1      16.975  26.678  16.932  1.00  0.00     0.146 A 
ATOM     22  C   UNL     1      15.940  25.835  17.387  1.00  0.00     0.111 A 
ATOM     23  O   UNL     1      17.519  27.583  17.737  1.00  0.00    -0.456 OA
ATOM     24  C   UNL     1      15.489  26.019  18.712  1.00  0.00     0.197 A 
ATOM     25  C   UNL     1      17.138  27.762  19.000  1.00  0.00     0.138 A 
ATOM     26  C   UNL     1      16.086  26.990  19.517  1.00  0.00     0.100 A 
ATOM     27  O   UNL     1      14.549  25.328  19.188  1.00  0.00    -0.289 OA
BRANCH  18  28
ATOM     28  O   UNL     1      15.324  23.860  14.277  1.00  0.00    -0.502 OA
ATOM     29  H   UNL     1      15.798  23.054  13.899  1.00  0.00     0.293 HD
ENDBRANCH  18  28
BRANCH  20  30
ATOM     30  O   UNL     1      14.449  23.958  17.001  1.00  0.00    -0.504 OA
ATOM     31  H   UNL     1      13.585  23.748  16.525  1.00  0.00     0.293 HD
ENDBRANCH  20  30
BRANCH  25  32
ATOM     32  C   UNL     1      17.851  28.772  19.822  1.00  0.00     0.017 A 
ATOM     33  C   UNL     1      18.500  28.371  21.006  1.00  0.00     0.012 A 
ATOM     34  C   UNL     1      17.843  30.142  19.484  1.00  0.00     0.012 A 
ATOM     35  C   UNL     1      19.123  29.314  21.832  1.00  0.00     0.001 A 
ATOM     36  C   UNL     1      18.476  31.078  20.311  1.00  0.00     0.001 A 
ATOM     37  C   UNL     1      19.113  30.666  21.484  1.00  0.00     0.000 A 
ENDBRANCH  25  32
ENDBRANCH   1  17
TORSDOF 9
ENDMDL
