MODEL 1
REMARK VINA RESULT:    -5.768      0.000      0.000
REMARK INTER + INTRA:          -6.200
REMARK INTER:                  -6.105
REMARK INTRA:                  -0.095
REMARK UNBOUND:                -0.095
REMARK SMILES C=C(C)[C@H]1CC=C(C)C(=O)C1
REMARK SMILES IDX 8 1 7 2 6 3 5 4 4 5 11 6 9 7 10 8 2 9 1 10 3 11
REMARK H PARENT
REMARK Flexibility Score: inf
ROOT
ATOM      1  C   UNL     1       0.013 -12.497  31.675  1.00  0.00     0.048 C 
ATOM      2  C   UNL     1      -1.090 -12.957  30.762  1.00  0.00    -0.012 C 
ATOM      3  C   UNL     1      -2.362 -12.952  31.195  1.00  0.00    -0.019 C 
ATOM      4  C   UNL     1      -3.502 -13.419  30.330  1.00  0.00     0.036 C 
ATOM      5  C   UNL     1      -3.231 -13.113  28.843  1.00  0.00     0.025 C 
ATOM      6  C   UNL     1      -1.884 -13.720  28.411  1.00  0.00     0.089 C 
ATOM      7  C   UNL     1      -0.787 -13.296  29.348  1.00  0.00     0.158 C 
ATOM      8  O   UNL     1       0.402 -13.267  28.931  1.00  0.00    -0.295 OA
ENDROOT
BRANCH   5   9
ATOM      9  C   UNL     1      -4.373 -13.589  27.955  1.00  0.00    -0.077 C 
ATOM     10  C   UNL     1      -5.635 -13.658  28.413  1.00  0.00     0.008 C 
ATOM     11  C   UNL     1      -4.100 -13.996  26.529  1.00  0.00     0.039 C 
ENDBRANCH   5   9
TORSDOF 1
ENDMDL
MODEL 2
REMARK VINA RESULT:    -5.508      1.751      2.276
REMARK INTER + INTRA:          -5.926
REMARK INTER:                  -5.836
REMARK INTRA:                  -0.090
REMARK UNBOUND:                -0.095
REMARK SMILES C=C(C)[C@H]1CC=C(C)C(=O)C1
REMARK SMILES IDX 8 1 7 2 6 3 5 4 4 5 11 6 9 7 10 8 2 9 1 10 3 11
REMARK H PARENT
REMARK Flexibility Score: inf
ROOT
ATOM      1  C   UNL     1       0.051 -12.467  31.837  1.00  0.00     0.048 C 
ATOM      2  C   UNL     1      -0.703 -12.483  30.536  1.00  0.00    -0.012 C 
ATOM      3  C   UNL     1      -0.580 -13.530  29.703  1.00  0.00    -0.019 C 
ATOM      4  C   UNL     1      -1.297 -13.588  28.382  1.00  0.00     0.036 C 
ATOM      5  C   UNL     1      -2.657 -12.867  28.456  1.00  0.00     0.025 C 
ATOM      6  C   UNL     1      -2.467 -11.421  28.954  1.00  0.00     0.089 C 
ATOM      7  C   UNL     1      -1.676 -11.402  30.232  1.00  0.00     0.158 C 
ATOM      8  O   UNL     1      -1.819 -10.436  31.030  1.00  0.00    -0.295 OA
ENDROOT
BRANCH   5   9
ATOM      9  C   UNL     1      -3.390 -12.909  27.122  1.00  0.00    -0.077 C 
ATOM     10  C   UNL     1      -4.116 -13.979  26.756  1.00  0.00     0.008 C 
ATOM     11  C   UNL     1      -3.309 -11.736  26.179  1.00  0.00     0.039 C 
ENDBRANCH   5   9
TORSDOF 1
ENDMDL
MODEL 3
REMARK VINA RESULT:    -5.450      2.659      4.103
REMARK INTER + INTRA:          -5.864
REMARK INTER:                  -5.768
REMARK INTRA:                  -0.096
REMARK UNBOUND:                -0.095
REMARK SMILES C=C(C)[C@H]1CC=C(C)C(=O)C1
REMARK SMILES IDX 8 1 7 2 6 3 5 4 4 5 11 6 9 7 10 8 2 9 1 10 3 11
REMARK H PARENT
REMARK Flexibility Score: inf
ROOT
ATOM      1  C   UNL     1      -3.038 -11.377  26.242  1.00  0.00     0.048 C 
ATOM      2  C   UNL     1      -3.624 -11.914  27.519  1.00  0.00    -0.012 C 
ATOM      3  C   UNL     1      -4.192 -13.131  27.536  1.00  0.00    -0.019 C 
ATOM      4  C   UNL     1      -4.810 -13.708  28.781  1.00  0.00     0.036 C 
ATOM      5  C   UNL     1      -4.063 -13.230  30.042  1.00  0.00     0.025 C 
ATOM      6  C   UNL     1      -4.007 -11.691  30.077  1.00  0.00     0.089 C 
ATOM      7  C   UNL     1      -3.462 -11.152  28.784  1.00  0.00     0.158 C 
ATOM      8  O   UNL     1      -2.897 -10.025  28.777  1.00  0.00    -0.295 OA
ENDROOT
BRANCH   5   9
ATOM      9  C   UNL     1      -4.684 -13.798  31.312  1.00  0.00    -0.077 C 
ATOM     10  C   UNL     1      -5.559 -14.818  31.267  1.00  0.00     0.008 C 
ATOM     11  C   UNL     1      -4.322 -13.217  32.655  1.00  0.00     0.039 C 
ENDBRANCH   5   9
TORSDOF 1
ENDMDL
MODEL 4
REMARK VINA RESULT:    -5.288      1.694      2.640
REMARK INTER + INTRA:          -5.692
REMARK INTER:                  -5.598
REMARK INTRA:                  -0.095
REMARK UNBOUND:                -0.095
REMARK SMILES C=C(C)[C@H]1CC=C(C)C(=O)C1
REMARK SMILES IDX 8 1 7 2 6 3 5 4 4 5 11 6 9 7 10 8 2 9 1 10 3 11
REMARK H PARENT
REMARK Flexibility Score: inf
ROOT
ATOM      1  C   UNL     1      -4.178 -13.650  32.606  1.00  0.00     0.048 C 
ATOM      2  C   UNL     1      -3.988 -13.586  31.115  1.00  0.00    -0.012 C 
ATOM      3  C   UNL     1      -5.055 -13.658  30.301  1.00  0.00    -0.019 C 
ATOM      4  C   UNL     1      -4.921 -13.618  28.803  1.00  0.00     0.036 C 
ATOM      5  C   UNL     1      -3.731 -12.736  28.376  1.00  0.00     0.025 C 
ATOM      6  C   UNL     1      -2.439 -13.214  29.066  1.00  0.00     0.089 C 
ATOM      7  C   UNL     1      -2.640 -13.319  30.552  1.00  0.00     0.158 C 
ATOM      8  O   UNL     1      -1.643 -13.216  31.317  1.00  0.00    -0.295 OA
ENDROOT
BRANCH   5   9
ATOM      9  C   UNL     1      -3.577 -12.694  26.862  1.00  0.00    -0.077 C 
ATOM     10  C   UNL     1      -3.908 -13.747  26.095  1.00  0.00     0.008 C 
ATOM     11  C   UNL     1      -3.043 -11.454  26.192  1.00  0.00     0.039 C 
ENDBRANCH   5   9
TORSDOF 1
ENDMDL
MODEL 5
REMARK VINA RESULT:    -5.189      2.811      3.545
REMARK INTER + INTRA:          -5.587
REMARK INTER:                  -5.494
REMARK INTRA:                  -0.093
REMARK UNBOUND:                -0.095
REMARK SMILES C=C(C)[C@H]1CC=C(C)C(=O)C1
REMARK SMILES IDX 8 1 7 2 6 3 5 4 4 5 11 6 9 7 10 8 2 9 1 10 3 11
REMARK H PARENT
REMARK Flexibility Score: inf
ROOT
ATOM      1  C   UNL     1      -4.486 -10.250  32.613  1.00  0.00     0.048 C 
ATOM      2  C   UNL     1      -4.401 -10.816  31.222  1.00  0.00    -0.012 C 
ATOM      3  C   UNL     1      -4.583 -10.013  30.160  1.00  0.00    -0.019 C 
ATOM      4  C   UNL     1      -4.527 -10.531  28.748  1.00  0.00     0.036 C 
ATOM      5  C   UNL     1      -3.524 -11.695  28.624  1.00  0.00     0.025 C 
ATOM      6  C   UNL     1      -3.865 -12.803  29.639  1.00  0.00     0.089 C 
ATOM      7  C   UNL     1      -3.993 -12.231  31.024  1.00  0.00     0.158 C 
ATOM      8  O   UNL     1      -3.787 -12.976  32.019  1.00  0.00    -0.295 OA
ENDROOT
BRANCH   5   9
ATOM      9  C   UNL     1      -3.464 -12.236  27.201  1.00  0.00    -0.077 C 
ATOM     10  C   UNL     1      -3.070 -11.463  26.175  1.00  0.00     0.008 C 
ATOM     11  C   UNL     1      -3.852 -13.665  26.920  1.00  0.00     0.039 C 
ENDBRANCH   5   9
TORSDOF 1
ENDMDL
MODEL 6
REMARK VINA RESULT:    -5.126      2.667      4.242
REMARK INTER + INTRA:          -5.521
REMARK INTER:                  -5.427
REMARK INTRA:                  -0.094
REMARK UNBOUND:                -0.095
REMARK SMILES C=C(C)[C@H]1CC=C(C)C(=O)C1
REMARK SMILES IDX 8 1 7 2 6 3 5 4 4 5 11 6 9 7 10 8 2 9 1 10 3 11
REMARK H PARENT
REMARK Flexibility Score: inf
ROOT
ATOM      1  C   UNL     1      -3.305 -11.395  25.513  1.00  0.00     0.048 C 
ATOM      2  C   UNL     1      -3.345 -11.756  26.972  1.00  0.00    -0.012 C 
ATOM      3  C   UNL     1      -3.059 -10.828  27.901  1.00  0.00    -0.019 C 
ATOM      4  C   UNL     1      -3.066 -11.141  29.373  1.00  0.00     0.036 C 
ATOM      5  C   UNL     1      -4.125 -12.210  29.707  1.00  0.00     0.025 C 
ATOM      6  C   UNL     1      -3.904 -13.467  28.844  1.00  0.00     0.089 C 
ATOM      7  C   UNL     1      -3.821 -13.101  27.388  1.00  0.00     0.158 C 
ATOM      8  O   UNL     1      -4.124 -13.962  26.519  1.00  0.00    -0.295 OA
ENDROOT
BRANCH   5   9
ATOM      9  C   UNL     1      -4.137 -12.544  31.193  1.00  0.00    -0.077 C 
ATOM     10  C   UNL     1      -4.137 -11.578  32.128  1.00  0.00     0.008 C 
ATOM     11  C   UNL     1      -4.149 -13.982  31.643  1.00  0.00     0.039 C 
ENDBRANCH   5   9
TORSDOF 1
ENDMDL
MODEL 7
REMARK VINA RESULT:    -4.961      2.716      3.357
REMARK INTER + INTRA:          -5.346
REMARK INTER:                  -5.253
REMARK INTRA:                  -0.093
REMARK UNBOUND:                -0.095
REMARK SMILES C=C(C)[C@H]1CC=C(C)C(=O)C1
REMARK SMILES IDX 8 1 7 2 6 3 5 4 4 5 11 6 9 7 10 8 2 9 1 10 3 11
REMARK H PARENT
REMARK Flexibility Score: inf
ROOT
ATOM      1  C   UNL     1      -4.495 -12.146  32.702  1.00  0.00     0.048 C 
ATOM      2  C   UNL     1      -4.101 -12.214  31.252  1.00  0.00    -0.012 C 
ATOM      3  C   UNL     1      -3.763 -13.393  30.705  1.00  0.00    -0.019 C 
ATOM      4  C   UNL     1      -3.343 -13.515  29.265  1.00  0.00     0.036 C 
ATOM      5  C   UNL     1      -4.072 -12.481  28.385  1.00  0.00     0.025 C 
ATOM      6  C   UNL     1      -3.852 -11.061  28.939  1.00  0.00     0.089 C 
ATOM      7  C   UNL     1      -4.205 -11.002  30.399  1.00  0.00     0.158 C 
ATOM      8  O   UNL     1      -4.557  -9.901  30.904  1.00  0.00    -0.295 OA
ENDROOT
BRANCH   5   9
ATOM      9  C   UNL     1      -3.648 -12.587  26.926  1.00  0.00    -0.077 C 
ATOM     10  C   UNL     1      -3.810 -13.726  26.231  1.00  0.00     0.008 C 
ATOM     11  C   UNL     1      -3.034 -11.399  26.231  1.00  0.00     0.039 C 
ENDBRANCH   5   9
TORSDOF 1
ENDMDL
MODEL 8
REMARK VINA RESULT:    -4.954      1.820      4.350
REMARK INTER + INTRA:          -5.339
REMARK INTER:                  -5.245
REMARK INTRA:                  -0.093
REMARK UNBOUND:                -0.095
REMARK SMILES C=C(C)[C@H]1CC=C(C)C(=O)C1
REMARK SMILES IDX 8 1 7 2 6 3 5 4 4 5 11 6 9 7 10 8 2 9 1 10 3 11
REMARK H PARENT
REMARK Flexibility Score: inf
ROOT
ATOM      1  C   UNL     1      -6.010 -14.375  28.000  1.00  0.00     0.048 C 
ATOM      2  C   UNL     1      -4.878 -13.642  28.664  1.00  0.00    -0.012 C 
ATOM      3  C   UNL     1      -4.835 -13.548  30.004  1.00  0.00    -0.019 C 
ATOM      4  C   UNL     1      -3.735 -12.810  30.719  1.00  0.00     0.036 C 
ATOM      5  C   UNL     1      -2.404 -12.917  29.948  1.00  0.00     0.025 C 
ATOM      6  C   UNL     1      -2.588 -12.430  28.499  1.00  0.00     0.089 C 
ATOM      7  C   UNL     1      -3.747 -13.131  27.847  1.00  0.00     0.158 C 
ATOM      8  O   UNL     1      -3.768 -13.250  26.592  1.00  0.00    -0.295 OA
ENDROOT
BRANCH   5   9
ATOM      9  C   UNL     1      -1.284 -12.165  30.656  1.00  0.00    -0.077 C 
ATOM     10  C   UNL     1      -1.410 -10.868  30.985  1.00  0.00     0.008 C 
ATOM     11  C   UNL     1      -0.000 -12.875  31.001  1.00  0.00     0.039 C 
ENDBRANCH   5   9
TORSDOF 1
ENDMDL
