MODEL 1
REMARK VINA RESULT:    -3.549      0.000      0.000
REMARK INTER + INTRA:         -12.336
REMARK INTER:                  -9.358
REMARK INTRA:                  -2.978
REMARK UNBOUND:                -2.978
REMARK SMILES CCCCCCCCCCCCCCCCCCCCCCCCCCCCCC(=O)[O-]
REMARK SMILES IDX 16 1 17 2 18 3 19 4 20 5 21 6 22 7 23 8 24 9 25 10 26 11
REMARK SMILES IDX 27 12 28 13 29 14 30 15 31 16 32 17 15 18 14 19 13 20 12 21
REMARK SMILES IDX 11 22 10 23 9 24 8 25 7 26 6 27 5 28 4 29 3 30 2 31 1 32
REMARK H PARENT
REMARK Flexibility Score: inf
ROOT
ATOM      1  C   UNL     1       1.056   3.858   9.097  1.00  0.00     0.000 C 
ENDROOT
BRANCH   1   2
ATOM      2  C   UNL     1       0.007   3.121   9.948  1.00  0.00     0.000 C 
BRANCH   2   3
ATOM      3  C   UNL     1      -1.410   3.678   9.746  1.00  0.00     0.000 C 
BRANCH   3   4
ATOM      4  C   UNL     1      -2.493   2.594   9.884  1.00  0.00     0.000 C 
BRANCH   4   5
ATOM      5  C   UNL     1      -1.904   1.182  10.051  1.00  0.00     0.000 C 
BRANCH   5   6
ATOM      6  C   UNL     1      -2.946   0.047  10.085  1.00  0.00     0.000 C 
BRANCH   6   7
ATOM      7  C   UNL     1      -2.385  -1.365   9.819  1.00  0.00     0.000 C 
BRANCH   7   8
ATOM      8  C   UNL     1      -0.932  -1.410   9.315  1.00  0.00     0.000 C 
BRANCH   8   9
ATOM      9  C   UNL     1      -0.833  -1.485   7.782  1.00  0.00     0.000 C 
BRANCH   9  10
ATOM     10  C   UNL     1       0.509  -0.955   7.245  1.00  0.00     0.000 C 
BRANCH  10  11
ATOM     11  C   UNL     1       0.635   0.581   7.184  1.00  0.00     0.000 C 
BRANCH  11  12
ATOM     12  C   UNL     1       1.000   1.151   5.803  1.00  0.00     0.000 C 
BRANCH  12  13
ATOM     13  C   UNL     1      -0.203   1.780   5.082  1.00  0.00     0.006 C 
BRANCH  13  14
ATOM     14  C   UNL     1      -1.235   0.731   4.652  1.00  0.00     0.053 C 
BRANCH  14  15
ATOM     15  C   UNL     1      -2.506   0.854   5.435  1.00  0.00     0.041 C 
ATOM     16  O   UNL     1      -2.530   1.523   6.503  1.00  0.00    -0.550 OA
ATOM     17  O   UNL     1      -3.670   0.258   4.970  1.00  0.00    -0.550 OA
ENDBRANCH  14  15
ENDBRANCH  13  14
ENDBRANCH  12  13
ENDBRANCH  11  12
ENDBRANCH  10  11
ENDBRANCH   9  10
ENDBRANCH   8   9
ENDBRANCH   7   8
ENDBRANCH   6   7
ENDBRANCH   5   6
ENDBRANCH   4   5
ENDBRANCH   3   4
ENDBRANCH   2   3
ENDBRANCH   1   2
BRANCH   1  18
ATOM     18  C   UNL     1       1.790   4.960   9.882  1.00  0.00     0.000 C 
BRANCH  18  19
ATOM     19  C   UNL     1       2.212   6.180   9.039  1.00  0.00     0.000 C 
BRANCH  19  20
ATOM     20  C   UNL     1       1.284   7.406   9.151  1.00  0.00     0.000 C 
BRANCH  20  21
ATOM     21  C   UNL     1       1.832   8.568  10.000  1.00  0.00     0.000 C 
BRANCH  21  22
ATOM     22  C   UNL     1       2.204   9.797   9.156  1.00  0.00     0.000 C 
BRANCH  22  23
ATOM     23  C   UNL     1       3.700   9.847   8.796  1.00  0.00     0.000 C 
BRANCH  23  24
ATOM     24  C   UNL     1       4.636   9.081   9.754  1.00  0.00    -0.000 C 
BRANCH  24  25
ATOM     25  C   UNL     1       5.514   8.004   9.093  1.00  0.00    -0.000 C 
BRANCH  25  26
ATOM     26  C   UNL     1       5.198   7.803   7.603  1.00  0.00    -0.000 C 
BRANCH  26  27
ATOM     27  C   UNL     1       6.490   7.621   6.793  1.00  0.00    -0.000 C 
BRANCH  27  28
ATOM     28  C   UNL     1       6.946   8.913   6.088  1.00  0.00    -0.000 C 
BRANCH  28  29
ATOM     29  C   UNL     1       7.301   8.756   4.596  1.00  0.00    -0.000 C 
BRANCH  29  30
ATOM     30  C   UNL     1       6.493   9.641   3.628  1.00  0.00    -0.000 C 
BRANCH  30  31
ATOM     31  C   UNL     1       5.000   9.268   3.540  1.00  0.00    -0.003 C 
ATOM     32  C   UNL     1       4.166   9.878   4.665  1.00  0.00     0.004 C 
ENDBRANCH  30  31
ENDBRANCH  29  30
ENDBRANCH  28  29
ENDBRANCH  27  28
ENDBRANCH  26  27
ENDBRANCH  25  26
ENDBRANCH  24  25
ENDBRANCH  23  24
ENDBRANCH  22  23
ENDBRANCH  21  22
ENDBRANCH  20  21
ENDBRANCH  19  20
ENDBRANCH  18  19
ENDBRANCH   1  18
TORSDOF 28
ENDMDL
MODEL 2
REMARK VINA RESULT:    -3.205      1.548      2.325
REMARK INTER + INTRA:         -11.429
REMARK INTER:                  -9.486
REMARK INTRA:                  -1.944
REMARK UNBOUND:                -2.978
REMARK SMILES CCCCCCCCCCCCCCCCCCCCCCCCCCCCCC(=O)[O-]
REMARK SMILES IDX 16 1 17 2 18 3 19 4 20 5 21 6 22 7 23 8 24 9 25 10 26 11
REMARK SMILES IDX 27 12 28 13 29 14 30 15 31 16 32 17 15 18 14 19 13 20 12 21
REMARK SMILES IDX 11 22 10 23 9 24 8 25 7 26 6 27 5 28 4 29 3 30 2 31 1 32
REMARK H PARENT
REMARK Flexibility Score: inf
ROOT
ATOM      1  C   UNL     1       0.719   3.600   9.245  1.00  0.00     0.000 C 
ENDROOT
BRANCH   1   2
ATOM      2  C   UNL     1      -0.365   2.743   9.923  1.00  0.00     0.000 C 
BRANCH   2   3
ATOM      3  C   UNL     1      -1.786   3.176   9.533  1.00  0.00     0.000 C 
BRANCH   3   4
ATOM      4  C   UNL     1      -2.780   2.003   9.533  1.00  0.00     0.000 C 
BRANCH   4   5
ATOM      5  C   UNL     1      -2.148   0.688  10.024  1.00  0.00     0.000 C 
BRANCH   5   6
ATOM      6  C   UNL     1      -3.092  -0.530  10.005  1.00  0.00     0.000 C 
BRANCH   6   7
ATOM      7  C   UNL     1      -2.396  -1.902  10.125  1.00  0.00     0.000 C 
BRANCH   7   8
ATOM      8  C   UNL     1      -0.904  -1.914   9.750  1.00  0.00     0.000 C 
BRANCH   8   9
ATOM      9  C   UNL     1      -0.669  -2.033   8.234  1.00  0.00     0.000 C 
BRANCH   9  10
ATOM     10  C   UNL     1       0.616  -1.322   7.773  1.00  0.00     0.000 C 
BRANCH  10  11
ATOM     11  C   UNL     1       0.424  -0.266   6.666  1.00  0.00     0.000 C 
BRANCH  11  12
ATOM     12  C   UNL     1      -0.960   0.403   6.635  1.00  0.00     0.000 C 
BRANCH  12  13
ATOM     13  C   UNL     1      -1.454   0.684   5.206  1.00  0.00     0.006 C 
BRANCH  13  14
ATOM     14  C   UNL     1      -0.296   0.876   4.221  1.00  0.00     0.053 C 
BRANCH  14  15
ATOM     15  C   UNL     1       0.339   2.225   4.373  1.00  0.00     0.041 C 
ATOM     16  O   UNL     1       0.675   2.642   5.513  1.00  0.00    -0.550 OA
ATOM     17  O   UNL     1       0.590   3.005   3.253  1.00  0.00    -0.550 OA
ENDBRANCH  14  15
ENDBRANCH  13  14
ENDBRANCH  12  13
ENDBRANCH  11  12
ENDBRANCH  10  11
ENDBRANCH   9  10
ENDBRANCH   8   9
ENDBRANCH   7   8
ENDBRANCH   6   7
ENDBRANCH   5   6
ENDBRANCH   4   5
ENDBRANCH   3   4
ENDBRANCH   2   3
ENDBRANCH   1   2
BRANCH   1  18
ATOM     18  C   UNL     1       1.063   4.867  10.048  1.00  0.00     0.000 C 
BRANCH  18  19
ATOM     19  C   UNL     1       1.950   5.883   9.302  1.00  0.00     0.000 C 
BRANCH  19  20
ATOM     20  C   UNL     1       3.439   5.870   9.700  1.00  0.00     0.000 C 
BRANCH  20  21
ATOM     21  C   UNL     1       4.379   6.636   8.750  1.00  0.00     0.000 C 
BRANCH  21  22
ATOM     22  C   UNL     1       4.251   8.162   8.891  1.00  0.00     0.000 C 
BRANCH  22  23
ATOM     23  C   UNL     1       5.560   8.904   8.568  1.00  0.00     0.000 C 
BRANCH  23  24
ATOM     24  C   UNL     1       6.673   8.040   7.940  1.00  0.00    -0.000 C 
BRANCH  24  25
ATOM     25  C   UNL     1       6.693   8.008   6.402  1.00  0.00    -0.000 C 
BRANCH  25  26
ATOM     26  C   UNL     1       7.223   9.310   5.782  1.00  0.00    -0.000 C 
BRANCH  26  27
ATOM     27  C   UNL     1       7.277   9.201   4.251  1.00  0.00    -0.000 C 
BRANCH  27  28
ATOM     28  C   UNL     1       6.182  10.027   3.550  1.00  0.00    -0.000 C 
BRANCH  28  29
ATOM     29  C   UNL     1       4.840   9.297   3.343  1.00  0.00    -0.000 C 
BRANCH  29  30
ATOM     30  C   UNL     1       3.581  10.125   3.666  1.00  0.00    -0.000 C 
BRANCH  30  31
ATOM     31  C   UNL     1       2.963   9.810   5.042  1.00  0.00    -0.003 C 
ATOM     32  C   UNL     1       1.436   9.883   5.039  1.00  0.00     0.004 C 
ENDBRANCH  30  31
ENDBRANCH  29  30
ENDBRANCH  28  29
ENDBRANCH  27  28
ENDBRANCH  26  27
ENDBRANCH  25  26
ENDBRANCH  24  25
ENDBRANCH  23  24
ENDBRANCH  22  23
ENDBRANCH  21  22
ENDBRANCH  20  21
ENDBRANCH  19  20
ENDBRANCH  18  19
ENDBRANCH   1  18
TORSDOF 28
ENDMDL
MODEL 3
REMARK VINA RESULT:    -3.178      1.761      2.468
REMARK INTER + INTRA:         -11.357
REMARK INTER:                  -9.300
REMARK INTRA:                  -2.057
REMARK UNBOUND:                -2.978
REMARK SMILES CCCCCCCCCCCCCCCCCCCCCCCCCCCCCC(=O)[O-]
REMARK SMILES IDX 16 1 17 2 18 3 19 4 20 5 21 6 22 7 23 8 24 9 25 10 26 11
REMARK SMILES IDX 27 12 28 13 29 14 30 15 31 16 32 17 15 18 14 19 13 20 12 21
REMARK SMILES IDX 11 22 10 23 9 24 8 25 7 26 6 27 5 28 4 29 3 30 2 31 1 32
REMARK H PARENT
REMARK Flexibility Score: inf
ROOT
ATOM      1  C   UNL     1       2.065   5.011   8.356  1.00  0.00     0.000 C 
ENDROOT
BRANCH   1   2
ATOM      2  C   UNL     1       1.307   4.035   9.272  1.00  0.00     0.000 C 
BRANCH   2   3
ATOM      3  C   UNL     1       0.633   2.898   8.491  1.00  0.00     0.000 C 
BRANCH   3   4
ATOM      4  C   UNL     1      -0.902   2.990   8.524  1.00  0.00     0.000 C 
BRANCH   4   5
ATOM      5  C   UNL     1      -1.493   2.577   9.884  1.00  0.00     0.000 C 
BRANCH   5   6
ATOM      6  C   UNL     1      -1.636   1.057  10.093  1.00  0.00     0.000 C 
BRANCH   6   7
ATOM      7  C   UNL     1      -2.309   0.296   8.932  1.00  0.00     0.000 C 
BRANCH   7   8
ATOM      8  C   UNL     1      -2.503  -1.213   9.164  1.00  0.00     0.000 C 
BRANCH   8   9
ATOM      9  C   UNL     1      -1.566  -2.076   8.301  1.00  0.00     0.000 C 
BRANCH   9  10
ATOM     10  C   UNL     1      -0.079  -1.853   8.631  1.00  0.00     0.000 C 
BRANCH  10  11
ATOM     11  C   UNL     1       0.723  -1.072   7.570  1.00  0.00     0.000 C 
BRANCH  11  12
ATOM     12  C   UNL     1      -0.125  -0.405   6.473  1.00  0.00     0.000 C 
BRANCH  12  13
ATOM     13  C   UNL     1       0.554   0.834   5.866  1.00  0.00     0.006 C 
BRANCH  13  14
ATOM     14  C   UNL     1      -0.245   1.416   4.694  1.00  0.00     0.053 C 
BRANCH  14  15
ATOM     15  C   UNL     1       0.638   2.157   3.738  1.00  0.00     0.041 C 
ATOM     16  O   UNL     1       1.819   1.767   3.534  1.00  0.00    -0.550 OA
ATOM     17  O   UNL     1       0.148   3.256   3.047  1.00  0.00    -0.550 OA
ENDBRANCH  14  15
ENDBRANCH  13  14
ENDBRANCH  12  13
ENDBRANCH  11  12
ENDBRANCH  10  11
ENDBRANCH   9  10
ENDBRANCH   8   9
ENDBRANCH   7   8
ENDBRANCH   6   7
ENDBRANCH   5   6
ENDBRANCH   4   5
ENDBRANCH   3   4
ENDBRANCH   2   3
ENDBRANCH   1   2
BRANCH   1  18
ATOM     18  C   UNL     1       2.119   6.440   8.925  1.00  0.00     0.000 C 
BRANCH  18  19
ATOM     19  C   UNL     1       0.968   6.795   9.888  1.00  0.00     0.000 C 
BRANCH  19  20
ATOM     20  C   UNL     1      -0.160   7.648   9.274  1.00  0.00     0.000 C 
BRANCH  20  21
ATOM     21  C   UNL     1       0.124   9.160   9.208  1.00  0.00     0.000 C 
BRANCH  21  22
ATOM     22  C   UNL     1       1.510   9.480   8.628  1.00  0.00     0.000 C 
BRANCH  22  23
ATOM     23  C   UNL     1       1.676   9.000   7.174  1.00  0.00     0.000 C 
BRANCH  23  24
ATOM     24  C   UNL     1       3.018   9.368   6.506  1.00  0.00    -0.000 C 
BRANCH  24  25
ATOM     25  C   UNL     1       4.013  10.125   7.402  1.00  0.00    -0.000 C 
BRANCH  25  26
ATOM     26  C   UNL     1       4.947   9.190   8.185  1.00  0.00    -0.000 C 
BRANCH  26  27
ATOM     27  C   UNL     1       6.241   8.932   7.399  1.00  0.00    -0.000 C 
BRANCH  27  28
ATOM     28  C   UNL     1       6.163   7.681   6.504  1.00  0.00    -0.000 C 
BRANCH  28  29
ATOM     29  C   UNL     1       6.079   7.961   4.990  1.00  0.00    -0.000 C 
BRANCH  29  30
ATOM     30  C   UNL     1       6.724   9.281   4.527  1.00  0.00    -0.000 C 
BRANCH  30  31
ATOM     31  C   UNL     1       8.042   9.093   3.749  1.00  0.00    -0.003 C 
ATOM     32  C   UNL     1       8.171  10.042   2.559  1.00  0.00     0.004 C 
ENDBRANCH  30  31
ENDBRANCH  29  30
ENDBRANCH  28  29
ENDBRANCH  27  28
ENDBRANCH  26  27
ENDBRANCH  25  26
ENDBRANCH  24  25
ENDBRANCH  23  24
ENDBRANCH  22  23
ENDBRANCH  21  22
ENDBRANCH  20  21
ENDBRANCH  19  20
ENDBRANCH  18  19
ENDBRANCH   1  18
TORSDOF 28
ENDMDL
MODEL 4
REMARK VINA RESULT:    -3.118      3.973     10.490
REMARK INTER + INTRA:         -11.199
REMARK INTER:                  -8.069
REMARK INTRA:                  -3.130
REMARK UNBOUND:                -2.978
REMARK SMILES CCCCCCCCCCCCCCCCCCCCCCCCCCCCCC(=O)[O-]
REMARK SMILES IDX 16 1 17 2 18 3 19 4 20 5 21 6 22 7 23 8 24 9 25 10 26 11
REMARK SMILES IDX 27 12 28 13 29 14 30 15 31 16 32 17 15 18 14 19 13 20 12 21
REMARK SMILES IDX 11 22 10 23 9 24 8 25 7 26 6 27 5 28 4 29 3 30 2 31 1 32
REMARK H PARENT
REMARK Flexibility Score: inf
ROOT
ATOM      1  C   UNL     1      -1.692  -1.985   8.275  1.00  0.00     0.000 C 
ENDROOT
BRANCH   1   2
ATOM      2  C   UNL     1      -2.735  -1.133   9.019  1.00  0.00     0.000 C 
BRANCH   2   3
ATOM      3  C   UNL     1      -2.092  -0.023   9.865  1.00  0.00     0.000 C 
BRANCH   3   4
ATOM      4  C   UNL     1      -2.653   1.370   9.532  1.00  0.00     0.000 C 
BRANCH   4   5
ATOM      5  C   UNL     1      -1.588   2.477   9.625  1.00  0.00     0.000 C 
BRANCH   5   6
ATOM      6  C   UNL     1      -0.345   2.256   8.741  1.00  0.00     0.000 C 
BRANCH   6   7
ATOM      7  C   UNL     1       0.721   3.368   8.816  1.00  0.00     0.000 C 
BRANCH   7   8
ATOM      8  C   UNL     1       1.644   3.474   7.589  1.00  0.00     0.000 C 
BRANCH   8   9
ATOM      9  C   UNL     1       2.616   4.663   7.674  1.00  0.00     0.000 C 
BRANCH   9  10
ATOM     10  C   UNL     1       2.061   5.828   8.514  1.00  0.00     0.000 C 
BRANCH  10  11
ATOM     11  C   UNL     1       2.218   7.228   7.886  1.00  0.00     0.000 C 
BRANCH  11  12
ATOM     12  C   UNL     1       3.006   8.239   8.736  1.00  0.00     0.000 C 
BRANCH  12  13
ATOM     13  C   UNL     1       4.225   8.817   7.998  1.00  0.00     0.006 C 
BRANCH  13  14
ATOM     14  C   UNL     1       4.677   7.922   6.838  1.00  0.00     0.053 C 
BRANCH  14  15
ATOM     15  C   UNL     1       6.169   7.905   6.703  1.00  0.00     0.041 C 
ATOM     16  O   UNL     1       6.864   7.157   7.441  1.00  0.00    -0.550 OA
ATOM     17  O   UNL     1       6.788   8.692   5.742  1.00  0.00    -0.550 OA
ENDBRANCH  14  15
ENDBRANCH  13  14
ENDBRANCH  12  13
ENDBRANCH  11  12
ENDBRANCH  10  11
ENDBRANCH   9  10
ENDBRANCH   8   9
ENDBRANCH   7   8
ENDBRANCH   6   7
ENDBRANCH   5   6
ENDBRANCH   4   5
ENDBRANCH   3   4
ENDBRANCH   2   3
ENDBRANCH   1   2
BRANCH   1  18
ATOM     18  C   UNL     1      -0.254  -1.713   8.750  1.00  0.00     0.000 C 
BRANCH  18  19
ATOM     19  C   UNL     1       0.662  -1.061   7.694  1.00  0.00     0.000 C 
BRANCH  19  20
ATOM     20  C   UNL     1      -0.023  -0.709   6.359  1.00  0.00     0.000 C 
BRANCH  20  21
ATOM     21  C   UNL     1       0.541   0.530   5.640  1.00  0.00     0.000 C 
BRANCH  21  22
ATOM     22  C   UNL     1      -0.549   1.541   5.252  1.00  0.00     0.000 C 
BRANCH  22  23
ATOM     23  C   UNL     1      -1.946   1.141   5.761  1.00  0.00     0.000 C 
BRANCH  23  24
ATOM     24  C   UNL     1      -2.829   0.387   4.746  1.00  0.00    -0.000 C 
BRANCH  24  25
ATOM     25  C   UNL     1      -4.266   0.096   5.213  1.00  0.00    -0.000 C 
BRANCH  25  26
ATOM     26  C   UNL     1      -5.160  -0.460   4.095  1.00  0.00    -0.000 C 
BRANCH  26  27
ATOM     27  C   UNL     1      -4.411  -1.524   3.279  1.00  0.00    -0.000 C 
BRANCH  27  28
ATOM     28  C   UNL     1      -5.302  -2.214   2.228  1.00  0.00    -0.000 C 
BRANCH  28  29
ATOM     29  C   UNL     1      -4.590  -2.604   0.918  1.00  0.00    -0.000 C 
BRANCH  29  30
ATOM     30  C   UNL     1      -3.080  -2.886   1.046  1.00  0.00    -0.000 C 
BRANCH  30  31
ATOM     31  C   UNL     1      -2.482  -3.643  -0.156  1.00  0.00    -0.003 C 
ATOM     32  C   UNL     1      -1.820  -4.961   0.242  1.00  0.00     0.004 C 
ENDBRANCH  30  31
ENDBRANCH  29  30
ENDBRANCH  28  29
ENDBRANCH  27  28
ENDBRANCH  26  27
ENDBRANCH  25  26
ENDBRANCH  24  25
ENDBRANCH  23  24
ENDBRANCH  22  23
ENDBRANCH  21  22
ENDBRANCH  20  21
ENDBRANCH  19  20
ENDBRANCH  18  19
ENDBRANCH   1  18
TORSDOF 28
ENDMDL
MODEL 5
REMARK VINA RESULT:    -2.961      1.925      4.028
REMARK INTER + INTRA:         -10.786
REMARK INTER:                  -9.609
REMARK INTRA:                  -1.176
REMARK UNBOUND:                -2.978
REMARK SMILES CCCCCCCCCCCCCCCCCCCCCCCCCCCCCC(=O)[O-]
REMARK SMILES IDX 16 1 17 2 18 3 19 4 20 5 21 6 22 7 23 8 24 9 25 10 26 11
REMARK SMILES IDX 27 12 28 13 29 14 30 15 31 16 32 17 15 18 14 19 13 20 12 21
REMARK SMILES IDX 11 22 10 23 9 24 8 25 7 26 6 27 5 28 4 29 3 30 2 31 1 32
REMARK H PARENT
REMARK Flexibility Score: inf
ROOT
ATOM      1  C   UNL     1       2.290   3.693   7.008  1.00  0.00     0.000 C 
ENDROOT
BRANCH   1   2
ATOM      2  C   UNL     1       1.054   2.776   7.024  1.00  0.00     0.000 C 
BRANCH   2   3
ATOM      3  C   UNL     1       0.987   1.860   5.793  1.00  0.00     0.000 C 
BRANCH   3   4
ATOM      4  C   UNL     1      -0.361   1.959   5.058  1.00  0.00     0.000 C 
BRANCH   4   5
ATOM      5  C   UNL     1      -1.530   1.388   5.880  1.00  0.00     0.000 C 
BRANCH   5   6
ATOM      6  C   UNL     1      -1.370  -0.088   6.294  1.00  0.00     0.000 C 
BRANCH   6   7
ATOM      7  C   UNL     1      -0.149  -0.391   7.185  1.00  0.00     0.000 C 
BRANCH   7   8
ATOM      8  C   UNL     1      -0.147  -1.783   7.843  1.00  0.00     0.000 C 
BRANCH   8   9
ATOM      9  C   UNL     1      -0.737  -1.774   9.263  1.00  0.00     0.000 C 
BRANCH   9  10
ATOM     10  C   UNL     1      -2.133  -1.129   9.325  1.00  0.00     0.000 C 
BRANCH  10  11
ATOM     11  C   UNL     1      -2.218   0.187  10.125  1.00  0.00     0.000 C 
BRANCH  11  12
ATOM     12  C   UNL     1      -1.431   1.365   9.527  1.00  0.00     0.000 C 
BRANCH  12  13
ATOM     13  C   UNL     1      -1.883   2.726  10.082  1.00  0.00     0.006 C 
BRANCH  13  14
ATOM     14  C   UNL     1      -3.404   2.905  10.007  1.00  0.00     0.053 C 
BRANCH  14  15
ATOM     15  C   UNL     1      -3.787   4.353   9.961  1.00  0.00     0.041 C 
ATOM     16  O   UNL     1      -4.992   4.685   9.804  1.00  0.00    -0.550 OA
ATOM     17  O   UNL     1      -2.818   5.334  10.123  1.00  0.00    -0.550 OA
ENDBRANCH  14  15
ENDBRANCH  13  14
ENDBRANCH  12  13
ENDBRANCH  11  12
ENDBRANCH  10  11
ENDBRANCH   9  10
ENDBRANCH   8   9
ENDBRANCH   7   8
ENDBRANCH   6   7
ENDBRANCH   5   6
ENDBRANCH   4   5
ENDBRANCH   3   4
ENDBRANCH   2   3
ENDBRANCH   1   2
BRANCH   1  18
ATOM     18  C   UNL     1       2.221   4.801   8.074  1.00  0.00     0.000 C 
BRANCH  18  19
ATOM     19  C   UNL     1       1.541   4.385   9.395  1.00  0.00     0.000 C 
BRANCH  19  20
ATOM     20  C   UNL     1       0.718   5.490  10.085  1.00  0.00     0.000 C 
BRANCH  20  21
ATOM     21  C   UNL     1       1.382   6.880  10.112  1.00  0.00     0.000 C 
BRANCH  21  22
ATOM     22  C   UNL     1       1.383   7.566   8.737  1.00  0.00     0.000 C 
BRANCH  22  23
ATOM     23  C   UNL     1       0.301   8.654   8.609  1.00  0.00     0.000 C 
BRANCH  23  24
ATOM     24  C   UNL     1       0.575   9.737   7.545  1.00  0.00    -0.000 C 
BRANCH  24  25
ATOM     25  C   UNL     1       2.059   9.984   7.226  1.00  0.00    -0.000 C 
BRANCH  25  26
ATOM     26  C   UNL     1       2.569   9.140   6.049  1.00  0.00    -0.000 C 
BRANCH  26  27
ATOM     27  C   UNL     1       3.925   9.662   5.552  1.00  0.00    -0.000 C 
BRANCH  27  28
ATOM     28  C   UNL     1       4.937   8.535   5.270  1.00  0.00    -0.000 C 
BRANCH  28  29
ATOM     29  C   UNL     1       6.315   8.708   5.940  1.00  0.00    -0.000 C 
BRANCH  29  30
ATOM     30  C   UNL     1       6.755   7.546   6.851  1.00  0.00    -0.000 C 
BRANCH  30  31
ATOM     31  C   UNL     1       6.550   7.818   8.354  1.00  0.00    -0.003 C 
ATOM     32  C   UNL     1       5.103   8.164   8.704  1.00  0.00     0.004 C 
ENDBRANCH  30  31
ENDBRANCH  29  30
ENDBRANCH  28  29
ENDBRANCH  27  28
ENDBRANCH  26  27
ENDBRANCH  25  26
ENDBRANCH  24  25
ENDBRANCH  23  24
ENDBRANCH  22  23
ENDBRANCH  21  22
ENDBRANCH  20  21
ENDBRANCH  19  20
ENDBRANCH  18  19
ENDBRANCH   1  18
TORSDOF 28
ENDMDL
MODEL 6
REMARK VINA RESULT:    -2.808      1.448      3.290
REMARK INTER + INTRA:         -10.383
REMARK INTER:                  -7.309
REMARK INTRA:                  -3.074
REMARK UNBOUND:                -2.978
REMARK SMILES CCCCCCCCCCCCCCCCCCCCCCCCCCCCCC(=O)[O-]
REMARK SMILES IDX 16 1 17 2 18 3 19 4 20 5 21 6 22 7 23 8 24 9 25 10 26 11
REMARK SMILES IDX 27 12 28 13 29 14 30 15 31 16 32 17 15 18 14 19 13 20 12 21
REMARK SMILES IDX 11 22 10 23 9 24 8 25 7 26 6 27 5 28 4 29 3 30 2 31 1 32
REMARK H PARENT
REMARK Flexibility Score: inf
ROOT
ATOM      1  C   UNL     1      -0.794   2.101   9.564  1.00  0.00     0.000 C 
ENDROOT
BRANCH   1   2
ATOM      2  C   UNL     1      -2.200   1.823  10.125  1.00  0.00     0.000 C 
BRANCH   2   3
ATOM      3  C   UNL     1      -2.891   0.646   9.422  1.00  0.00     0.000 C 
BRANCH   3   4
ATOM      4  C   UNL     1      -2.628  -0.696  10.125  1.00  0.00     0.000 C 
BRANCH   4   5
ATOM      5  C   UNL     1      -2.300  -1.830   9.138  1.00  0.00     0.000 C 
BRANCH   5   6
ATOM      6  C   UNL     1      -0.796  -2.113   8.953  1.00  0.00     0.000 C 
BRANCH   6   7
ATOM      7  C   UNL     1      -0.265  -1.925   7.517  1.00  0.00     0.000 C 
BRANCH   7   8
ATOM      8  C   UNL     1       0.241  -0.510   7.185  1.00  0.00     0.000 C 
BRANCH   8   9
ATOM      9  C   UNL     1       0.939  -0.430   5.817  1.00  0.00     0.000 C 
BRANCH   9  10
ATOM     10  C   UNL     1       0.881   0.979   5.200  1.00  0.00     0.000 C 
BRANCH  10  11
ATOM     11  C   UNL     1      -0.536   1.514   4.910  1.00  0.00     0.000 C 
BRANCH  11  12
ATOM     12  C   UNL     1      -1.425   1.712   6.149  1.00  0.00     0.000 C 
BRANCH  12  13
ATOM     13  C   UNL     1      -2.903   1.383   5.881  1.00  0.00     0.006 C 
BRANCH  13  14
ATOM     14  C   UNL     1      -3.084  -0.010   5.268  1.00  0.00     0.053 C 
BRANCH  14  15
ATOM     15  C   UNL     1      -4.389  -0.129   4.543  1.00  0.00     0.041 C 
ATOM     16  O   UNL     1      -5.311   0.703   4.758  1.00  0.00    -0.550 OA
ATOM     17  O   UNL     1      -4.576  -1.137   3.607  1.00  0.00    -0.550 OA
ENDBRANCH  14  15
ENDBRANCH  13  14
ENDBRANCH  12  13
ENDBRANCH  11  12
ENDBRANCH  10  11
ENDBRANCH   9  10
ENDBRANCH   8   9
ENDBRANCH   7   8
ENDBRANCH   6   7
ENDBRANCH   5   6
ENDBRANCH   4   5
ENDBRANCH   3   4
ENDBRANCH   2   3
ENDBRANCH   1   2
BRANCH   1  18
ATOM     18  C   UNL     1      -0.425   3.594   9.597  1.00  0.00     0.000 C 
BRANCH  18  19
ATOM     19  C   UNL     1       1.075   3.893   9.403  1.00  0.00     0.000 C 
BRANCH  19  20
ATOM     20  C   UNL     1       1.592   3.739   7.959  1.00  0.00     0.000 C 
BRANCH  20  21
ATOM     21  C   UNL     1       2.353   4.957   7.402  1.00  0.00     0.000 C 
BRANCH  21  22
ATOM     22  C   UNL     1       3.479   5.432   8.334  1.00  0.00     0.000 C 
BRANCH  22  23
ATOM     23  C   UNL     1       3.361   6.921   8.706  1.00  0.00     0.000 C 
BRANCH  23  24
ATOM     24  C   UNL     1       1.940   7.403   9.065  1.00  0.00    -0.000 C 
BRANCH  24  25
ATOM     25  C   UNL     1       1.486   8.693   8.361  1.00  0.00    -0.000 C 
BRANCH  25  26
ATOM     26  C   UNL     1       0.857   8.435   6.983  1.00  0.00    -0.000 C 
BRANCH  26  27
ATOM     27  C   UNL     1       1.248   9.541   5.992  1.00  0.00    -0.000 C 
BRANCH  27  28
ATOM     28  C   UNL     1       2.695  10.034   6.179  1.00  0.00    -0.000 C 
BRANCH  28  29
ATOM     29  C   UNL     1       3.788   8.980   5.913  1.00  0.00    -0.000 C 
BRANCH  29  30
ATOM     30  C   UNL     1       4.734   9.294   4.738  1.00  0.00    -0.000 C 
BRANCH  30  31
ATOM     31  C   UNL     1       5.878   8.275   4.569  1.00  0.00    -0.003 C 
ATOM     32  C   UNL     1       6.611   7.980   5.877  1.00  0.00     0.004 C 
ENDBRANCH  30  31
ENDBRANCH  29  30
ENDBRANCH  28  29
ENDBRANCH  27  28
ENDBRANCH  26  27
ENDBRANCH  25  26
ENDBRANCH  24  25
ENDBRANCH  23  24
ENDBRANCH  22  23
ENDBRANCH  21  22
ENDBRANCH  20  21
ENDBRANCH  19  20
ENDBRANCH  18  19
ENDBRANCH   1  18
TORSDOF 28
ENDMDL
MODEL 7
REMARK VINA RESULT:    -2.720      2.507      4.620
REMARK INTER + INTRA:         -10.151
REMARK INTER:                  -8.121
REMARK INTRA:                  -2.030
REMARK UNBOUND:                -2.978
REMARK SMILES CCCCCCCCCCCCCCCCCCCCCCCCCCCCCC(=O)[O-]
REMARK SMILES IDX 16 1 17 2 18 3 19 4 20 5 21 6 22 7 23 8 24 9 25 10 26 11
REMARK SMILES IDX 27 12 28 13 29 14 30 15 31 16 32 17 15 18 14 19 13 20 12 21
REMARK SMILES IDX 11 22 10 23 9 24 8 25 7 26 6 27 5 28 4 29 3 30 2 31 1 32
REMARK H PARENT
REMARK Flexibility Score: inf
ROOT
ATOM      1  C   UNL     1       1.516   2.279   5.140  1.00  0.00     0.000 C 
ENDROOT
BRANCH   1   2
ATOM      2  C   UNL     1       0.626   1.083   5.520  1.00  0.00     0.000 C 
BRANCH   2   3
ATOM      3  C   UNL     1      -0.848   1.305   5.150  1.00  0.00     0.000 C 
BRANCH   3   4
ATOM      4  C   UNL     1      -1.790   0.333   5.879  1.00  0.00     0.000 C 
BRANCH   4   5
ATOM      5  C   UNL     1      -2.853   1.056   6.725  1.00  0.00     0.000 C 
BRANCH   5   6
ATOM      6  C   UNL     1      -2.373   1.514   8.115  1.00  0.00     0.000 C 
BRANCH   6   7
ATOM      7  C   UNL     1      -1.122   0.787   8.650  1.00  0.00     0.000 C 
BRANCH   7   8
ATOM      8  C   UNL     1      -1.351  -0.075   9.905  1.00  0.00     0.000 C 
BRANCH   8   9
ATOM      9  C   UNL     1      -2.737  -0.741   9.928  1.00  0.00     0.000 C 
BRANCH   9  10
ATOM     10  C   UNL     1      -2.826  -1.963   8.996  1.00  0.00     0.000 C 
BRANCH  10  11
ATOM     11  C   UNL     1      -3.264  -3.278   9.673  1.00  0.00     0.000 C 
BRANCH  11  12
ATOM     12  C   UNL     1      -2.378  -4.497   9.362  1.00  0.00     0.000 C 
BRANCH  12  13
ATOM     13  C   UNL     1      -0.992  -4.410  10.021  1.00  0.00     0.006 C 
BRANCH  13  14
ATOM     14  C   UNL     1      -0.056  -3.451   9.276  1.00  0.00     0.053 C 
BRANCH  14  15
ATOM     15  C   UNL     1       1.342  -3.517   9.812  1.00  0.00     0.041 C 
ATOM     16  O   UNL     1       1.849  -4.627  10.124  1.00  0.00    -0.550 OA
ATOM     17  O   UNL     1       2.094  -2.357   9.935  1.00  0.00    -0.550 OA
ENDBRANCH  14  15
ENDBRANCH  13  14
ENDBRANCH  12  13
ENDBRANCH  11  12
ENDBRANCH  10  11
ENDBRANCH   9  10
ENDBRANCH   8   9
ENDBRANCH   7   8
ENDBRANCH   6   7
ENDBRANCH   5   6
ENDBRANCH   4   5
ENDBRANCH   3   4
ENDBRANCH   2   3
ENDBRANCH   1   2
BRANCH   1  18
ATOM     18  C   UNL     1       1.963   3.100   6.362  1.00  0.00     0.000 C 
BRANCH  18  19
ATOM     19  C   UNL     1       1.324   2.668   7.698  1.00  0.00     0.000 C 
BRANCH  19  20
ATOM     20  C   UNL     1       0.858   3.823   8.605  1.00  0.00     0.000 C 
BRANCH  20  21
ATOM     21  C   UNL     1       1.985   4.588   9.323  1.00  0.00     0.000 C 
BRANCH  21  22
ATOM     22  C   UNL     1       1.889   6.110   9.127  1.00  0.00     0.000 C 
BRANCH  22  23
ATOM     23  C   UNL     1       3.068   6.871   9.760  1.00  0.00     0.000 C 
BRANCH  23  24
ATOM     24  C   UNL     1       2.818   8.368  10.034  1.00  0.00    -0.000 C 
BRANCH  24  25
ATOM     25  C   UNL     1       3.536   9.340   9.081  1.00  0.00    -0.000 C 
BRANCH  25  26
ATOM     26  C   UNL     1       2.630   9.854   7.953  1.00  0.00    -0.000 C 
BRANCH  26  27
ATOM     27  C   UNL     1       2.981   9.176   6.621  1.00  0.00    -0.000 C 
BRANCH  27  28
ATOM     28  C   UNL     1       4.219   8.264   6.717  1.00  0.00    -0.000 C 
BRANCH  28  29
ATOM     29  C   UNL     1       5.561   8.942   6.373  1.00  0.00    -0.000 C 
BRANCH  29  30
ATOM     30  C   UNL     1       5.778   9.255   4.880  1.00  0.00    -0.000 C 
BRANCH  30  31
ATOM     31  C   UNL     1       7.253   9.490   4.500  1.00  0.00    -0.003 C 
ATOM     32  C   UNL     1       7.439   9.835   3.023  1.00  0.00     0.004 C 
ENDBRANCH  30  31
ENDBRANCH  29  30
ENDBRANCH  28  29
ENDBRANCH  27  28
ENDBRANCH  26  27
ENDBRANCH  25  26
ENDBRANCH  24  25
ENDBRANCH  23  24
ENDBRANCH  22  23
ENDBRANCH  21  22
ENDBRANCH  20  21
ENDBRANCH  19  20
ENDBRANCH  18  19
ENDBRANCH   1  18
TORSDOF 28
ENDMDL
MODEL 8
REMARK VINA RESULT:    -2.657      3.659     10.670
REMARK INTER + INTRA:          -9.985
REMARK INTER:                  -7.959
REMARK INTRA:                  -2.026
REMARK UNBOUND:                -2.978
REMARK SMILES CCCCCCCCCCCCCCCCCCCCCCCCCCCCCC(=O)[O-]
REMARK SMILES IDX 16 1 17 2 18 3 19 4 20 5 21 6 22 7 23 8 24 9 25 10 26 11
REMARK SMILES IDX 27 12 28 13 29 14 30 15 31 16 32 17 15 18 14 19 13 20 12 21
REMARK SMILES IDX 11 22 10 23 9 24 8 25 7 26 6 27 5 28 4 29 3 30 2 31 1 32
REMARK H PARENT
REMARK Flexibility Score: inf
ROOT
ATOM      1  C   UNL     1       0.737  -0.602   7.137  1.00  0.00     0.000 C 
ENDROOT
BRANCH   1   2
ATOM      2  C   UNL     1       0.628  -0.050   5.705  1.00  0.00     0.000 C 
BRANCH   2   3
ATOM      3  C   UNL     1       0.969   1.445   5.624  1.00  0.00     0.000 C 
BRANCH   3   4
ATOM      4  C   UNL     1       0.848   2.152   6.984  1.00  0.00     0.000 C 
BRANCH   4   5
ATOM      5  C   UNL     1       1.757   3.389   7.096  1.00  0.00     0.000 C 
BRANCH   5   6
ATOM      6  C   UNL     1       1.762   4.065   8.481  1.00  0.00     0.000 C 
BRANCH   6   7
ATOM      7  C   UNL     1       2.745   5.244   8.631  1.00  0.00     0.000 C 
BRANCH   7   8
ATOM      8  C   UNL     1       2.156   6.632   8.320  1.00  0.00     0.000 C 
BRANCH   8   9
ATOM      9  C   UNL     1       2.032   7.523   9.567  1.00  0.00     0.000 C 
BRANCH   9  10
ATOM     10  C   UNL     1       3.383   8.103  10.022  1.00  0.00     0.000 C 
BRANCH  10  11
ATOM     11  C   UNL     1       4.226   8.762   8.911  1.00  0.00     0.000 C 
BRANCH  11  12
ATOM     12  C   UNL     1       5.716   8.380   8.911  1.00  0.00     0.000 C 
BRANCH  12  13
ATOM     13  C   UNL     1       6.080   7.404   7.779  1.00  0.00     0.006 C 
BRANCH  13  14
ATOM     14  C   UNL     1       6.699   8.122   6.574  1.00  0.00     0.053 C 
BRANCH  14  15
ATOM     15  C   UNL     1       5.726   8.234   5.440  1.00  0.00     0.041 C 
ATOM     16  O   UNL     1       5.960   7.657   4.344  1.00  0.00    -0.550 OA
ATOM     17  O   UNL     1       4.546   8.947   5.604  1.00  0.00    -0.550 OA
ENDBRANCH  14  15
ENDBRANCH  13  14
ENDBRANCH  12  13
ENDBRANCH  11  12
ENDBRANCH  10  11
ENDBRANCH   9  10
ENDBRANCH   8   9
ENDBRANCH   7   8
ENDBRANCH   6   7
ENDBRANCH   5   6
ENDBRANCH   4   5
ENDBRANCH   3   4
ENDBRANCH   2   3
ENDBRANCH   1   2
BRANCH   1  18
ATOM     18  C   UNL     1      -0.436  -1.525   7.510  1.00  0.00     0.000 C 
BRANCH  18  19
ATOM     19  C   UNL     1      -0.709  -1.644   9.023  1.00  0.00     0.000 C 
BRANCH  19  20
ATOM     20  C   UNL     1      -1.774  -0.675   9.574  1.00  0.00     0.000 C 
BRANCH  20  21
ATOM     21  C   UNL     1      -1.363   0.809   9.591  1.00  0.00     0.000 C 
BRANCH  21  22
ATOM     22  C   UNL     1      -2.397   1.720   8.910  1.00  0.00     0.000 C 
BRANCH  22  23
ATOM     23  C   UNL     1      -2.244   1.760   7.379  1.00  0.00     0.000 C 
BRANCH  23  24
ATOM     24  C   UNL     1      -2.722   0.497   6.633  1.00  0.00    -0.000 C 
BRANCH  24  25
ATOM     25  C   UNL     1      -3.160   0.719   5.175  1.00  0.00    -0.000 C 
BRANCH  25  26
ATOM     26  C   UNL     1      -4.404  -0.095   4.791  1.00  0.00    -0.000 C 
BRANCH  26  27
ATOM     27  C   UNL     1      -4.105  -1.016   3.600  1.00  0.00    -0.000 C 
BRANCH  27  28
ATOM     28  C   UNL     1      -5.375  -1.633   2.982  1.00  0.00    -0.000 C 
BRANCH  28  29
ATOM     29  C   UNL     1      -5.128  -2.633   1.836  1.00  0.00    -0.000 C 
BRANCH  29  30
ATOM     30  C   UNL     1      -3.650  -2.847   1.454  1.00  0.00    -0.000 C 
BRANCH  30  31
ATOM     31  C   UNL     1      -3.403  -2.933  -0.065  1.00  0.00    -0.003 C 
ATOM     32  C   UNL     1      -1.935  -3.171  -0.416  1.00  0.00     0.004 C 
ENDBRANCH  30  31
ENDBRANCH  29  30
ENDBRANCH  28  29
ENDBRANCH  27  28
ENDBRANCH  26  27
ENDBRANCH  25  26
ENDBRANCH  24  25
ENDBRANCH  23  24
ENDBRANCH  22  23
ENDBRANCH  21  22
ENDBRANCH  20  21
ENDBRANCH  19  20
ENDBRANCH  18  19
ENDBRANCH   1  18
TORSDOF 28
ENDMDL
MODEL 9
REMARK VINA RESULT:    -2.410      2.892      5.231
REMARK INTER + INTRA:          -9.331
REMARK INTER:                  -6.948
REMARK INTRA:                  -2.383
REMARK UNBOUND:                -2.978
REMARK SMILES CCCCCCCCCCCCCCCCCCCCCCCCCCCCCC(=O)[O-]
REMARK SMILES IDX 16 1 17 2 18 3 19 4 20 5 21 6 22 7 23 8 24 9 25 10 26 11
REMARK SMILES IDX 27 12 28 13 29 14 30 15 31 16 32 17 15 18 14 19 13 20 12 21
REMARK SMILES IDX 11 22 10 23 9 24 8 25 7 26 6 27 5 28 4 29 3 30 2 31 1 32
REMARK H PARENT
REMARK Flexibility Score: inf
ROOT
ATOM      1  C   UNL     1       0.922   2.346   5.090  1.00  0.00     0.000 C 
ENDROOT
BRANCH   1   2
ATOM      2  C   UNL     1      -0.083   1.259   4.670  1.00  0.00     0.000 C 
BRANCH   2   3
ATOM      3  C   UNL     1      -0.487   0.347   5.837  1.00  0.00     0.000 C 
BRANCH   3   4
ATOM      4  C   UNL     1      -1.903   0.647   6.357  1.00  0.00     0.000 C 
BRANCH   4   5
ATOM      5  C   UNL     1      -2.425  -0.435   7.319  1.00  0.00     0.000 C 
BRANCH   5   6
ATOM      6  C   UNL     1      -2.511  -0.001   8.795  1.00  0.00     0.000 C 
BRANCH   6   7
ATOM      7  C   UNL     1      -2.552   1.523   9.030  1.00  0.00     0.000 C 
BRANCH   7   8
ATOM      8  C   UNL     1      -1.445   2.076   9.945  1.00  0.00     0.000 C 
BRANCH   8   9
ATOM      9  C   UNL     1      -1.277   3.600   9.828  1.00  0.00     0.000 C 
BRANCH   9  10
ATOM     10  C   UNL     1      -2.584   4.315   9.437  1.00  0.00     0.000 C 
BRANCH  10  11
ATOM     11  C   UNL     1      -2.824   5.674  10.124  1.00  0.00     0.000 C 
BRANCH  11  12
ATOM     12  C   UNL     1      -1.616   6.626  10.125  1.00  0.00     0.000 C 
BRANCH  12  13
ATOM     13  C   UNL     1      -2.025   8.107  10.061  1.00  0.00     0.006 C 
BRANCH  13  14
ATOM     14  C   UNL     1      -1.435   8.819   8.838  1.00  0.00     0.053 C 
BRANCH  14  15
ATOM     15  C   UNL     1       0.025   9.104   9.018  1.00  0.00     0.041 C 
ATOM     16  O   UNL     1       0.589   8.855  10.117  1.00  0.00    -0.550 OA
ATOM     17  O   UNL     1       0.769   9.614   7.963  1.00  0.00    -0.550 OA
ENDBRANCH  14  15
ENDBRANCH  13  14
ENDBRANCH  12  13
ENDBRANCH  11  12
ENDBRANCH  10  11
ENDBRANCH   9  10
ENDBRANCH   8   9
ENDBRANCH   7   8
ENDBRANCH   6   7
ENDBRANCH   5   6
ENDBRANCH   4   5
ENDBRANCH   3   4
ENDBRANCH   2   3
ENDBRANCH   1   2
BRANCH   1  18
ATOM     18  C   UNL     1       1.114   2.419   6.615  1.00  0.00     0.000 C 
BRANCH  18  19
ATOM     19  C   UNL     1       1.797   3.706   7.119  1.00  0.00     0.000 C 
BRANCH  19  20
ATOM     20  C   UNL     1       1.595   4.013   8.616  1.00  0.00     0.000 C 
BRANCH  20  21
ATOM     21  C   UNL     1       1.909   5.461   9.036  1.00  0.00     0.000 C 
BRANCH  21  22
ATOM     22  C   UNL     1       3.369   5.855   8.766  1.00  0.00     0.000 C 
BRANCH  22  23
ATOM     23  C   UNL     1       4.301   5.555   9.954  1.00  0.00     0.000 C 
BRANCH  23  24
ATOM     24  C   UNL     1       5.811   5.617   9.643  1.00  0.00    -0.000 C 
BRANCH  24  25
ATOM     25  C   UNL     1       6.508   6.932  10.030  1.00  0.00    -0.000 C 
BRANCH  25  26
ATOM     26  C   UNL     1       5.714   8.178   9.610  1.00  0.00    -0.000 C 
BRANCH  26  27
ATOM     27  C   UNL     1       6.662   9.333   9.254  1.00  0.00    -0.000 C 
BRANCH  27  28
ATOM     28  C   UNL     1       7.277   9.197   7.848  1.00  0.00    -0.000 C 
BRANCH  28  29
ATOM     29  C   UNL     1       6.567   8.195   6.916  1.00  0.00    -0.000 C 
BRANCH  29  30
ATOM     30  C   UNL     1       5.965   8.800   5.633  1.00  0.00    -0.000 C 
BRANCH  30  31
ATOM     31  C   UNL     1       4.631   9.540   5.857  1.00  0.00    -0.003 C 
ATOM     32  C   UNL     1       3.573   8.668   6.531  1.00  0.00     0.004 C 
ENDBRANCH  30  31
ENDBRANCH  29  30
ENDBRANCH  28  29
ENDBRANCH  27  28
ENDBRANCH  26  27
ENDBRANCH  25  26
ENDBRANCH  24  25
ENDBRANCH  23  24
ENDBRANCH  22  23
ENDBRANCH  21  22
ENDBRANCH  20  21
ENDBRANCH  19  20
ENDBRANCH  18  19
ENDBRANCH   1  18
TORSDOF 28
ENDMDL
