MODEL 1
REMARK VINA RESULT:    -8.289      0.000      0.000
REMARK INTER + INTRA:         -10.582
REMARK INTER:                 -10.954
REMARK INTRA:                   0.373
REMARK UNBOUND:                 0.373
REMARK SMILES C=C(CC[C@H](C)[C@H]1CC[C@@]2(C)[C@H]3CC[C@@H]4C(C)(C)[C@H](O)CC[C@@]45C[C@]35CC[C@]12C)C(C)C
REMARK SMILES IDX 4 1 3 2 2 3 1 4 30 5 31 6 32 7 5 8 6 9 7 10 8 11 28 12 9 13
REMARK SMILES IDX 10 14 27 15 29 16 11 17 12 18 26 19 25 20 13 21 23 22 24 23
REMARK SMILES IDX 14 24 15 25 22 26 16 27 21 28 19 29 17 30 18 31 20 32
REMARK H PARENT 20 33
REMARK Flexibility Score: inf
ROOT
ATOM      1  C   UNL     1     134.329 132.837 141.721  1.00  0.00     0.008 C 
ENDROOT
BRANCH   1   2
ATOM      2  C   UNL     1     134.110 134.296 142.167  1.00  0.00     0.031 C 
BRANCH   2   3
ATOM      3  C   UNL     1     134.074 134.428 143.677  1.00  0.00    -0.075 C 
ATOM      4  C   UNL     1     134.245 133.340 144.448  1.00  0.00     0.008 C 
BRANCH   3   5
ATOM      5  C   UNL     1     133.819 135.792 144.296  1.00  0.00     0.008 C 
ATOM      6  C   UNL     1     132.392 135.897 144.853  1.00  0.00     0.012 C 
ATOM      7  C   UNL     1     134.863 136.124 145.371  1.00  0.00     0.012 C 
ENDBRANCH   3   5
ENDBRANCH   2   3
ENDBRANCH   1   2
BRANCH   1   8
ATOM      8  C   UNL     1     133.018 131.992 141.674  1.00  0.00    -0.010 C 
ATOM      9  C   UNL     1     133.216 130.745 142.566  1.00  0.00     0.008 C 
BRANCH   8  10
ATOM     10  C   UNL     1     132.622 131.573 140.208  1.00  0.00    -0.002 C 
ATOM     11  C   UNL     1     132.730 132.764 139.202  1.00  0.00     0.005 C 
ATOM     12  C   UNL     1     133.420 130.438 139.472  1.00  0.00    -0.024 C 
ATOM     13  C   UNL     1     133.151 132.197 137.829  1.00  0.00     0.008 C 
ATOM     14  C   UNL     1     132.988 130.681 137.980  1.00  0.00    -0.024 C 
ATOM     15  C   UNL     1     133.085 128.969 139.842  1.00  0.00     0.008 C 
ATOM     16  C   UNL     1     134.943 130.672 139.747  1.00  0.00     0.012 C 
ATOM     17  C   UNL     1     131.447 130.400 137.735  1.00  0.00     0.012 C 
ATOM     18  C   UNL     1     133.731 129.765 136.942  1.00  0.00     0.002 C 
ATOM     19  C   UNL     1     133.766 127.970 138.873  1.00  0.00     0.008 C 
ATOM     20  C   UNL     1     133.534 128.294 137.341  1.00  0.00    -0.020 C 
ATOM     21  C   UNL     1     135.255 130.011 136.615  1.00  0.00     0.005 C 
ATOM     22  C   UNL     1     134.163 127.445 136.148  1.00  0.00    -0.020 C 
ATOM     23  C   UNL     1     132.769 127.169 136.701  1.00  0.00     0.015 C 
ATOM     24  C   UNL     1     136.239 128.765 136.676  1.00  0.00     0.005 C 
ATOM     25  C   UNL     1     135.624 127.298 136.600  1.00  0.00     0.004 C 
ATOM     26  C   UNL     1     134.020 127.812 134.618  1.00  0.00     0.010 C 
ATOM     27  C   UNL     1     136.399 126.214 135.731  1.00  0.00    -0.006 C 
ATOM     28  C   UNL     1     135.255 127.431 133.790  1.00  0.00     0.033 C 
ATOM     29  C   UNL     1     135.828 126.100 134.273  1.00  0.00     0.120 C 
ATOM     30  C   UNL     1     136.206 124.824 136.398  1.00  0.00     0.014 C 
ATOM     31  C   UNL     1     137.926 126.489 135.717  1.00  0.00     0.014 C 
BRANCH  29  32
ATOM     32  O   UNL     1     136.809 125.642 133.370  1.00  0.00    -0.393 OA
ATOM     33  H   UNL     1     136.999 124.696 133.608  1.00  0.00     0.210 HD
ENDBRANCH  29  32
ENDBRANCH   8  10
ENDBRANCH   1   8
TORSDOF 6
ENDMDL
MODEL 2
REMARK VINA RESULT:    -8.040      3.033      8.530
REMARK INTER + INTRA:         -10.252
REMARK INTER:                  -9.238
REMARK INTRA:                  -1.014
REMARK UNBOUND:                 0.373
REMARK SMILES C=C(CC[C@H](C)[C@H]1CC[C@@]2(C)[C@H]3CC[C@@H]4C(C)(C)[C@H](O)CC[C@@]45C[C@]35CC[C@]12C)C(C)C
REMARK SMILES IDX 4 1 3 2 2 3 1 4 30 5 31 6 32 7 5 8 6 9 7 10 8 11 28 12 9 13
REMARK SMILES IDX 10 14 27 15 29 16 11 17 12 18 26 19 25 20 13 21 23 22 24 23
REMARK SMILES IDX 14 24 15 25 22 26 16 27 21 28 19 29 17 30 18 31 20 32
REMARK H PARENT 20 33
REMARK Flexibility Score: inf
ROOT
ATOM      1  C   UNL     1     134.774 125.629 137.023  1.00  0.00     0.008 C 
ENDROOT
BRANCH   1   2
ATOM      2  C   UNL     1     136.111 125.684 136.257  1.00  0.00     0.031 C 
BRANCH   2   3
ATOM      3  C   UNL     1     136.461 127.096 135.830  1.00  0.00    -0.075 C 
ATOM      4  C   UNL     1     137.630 127.641 136.214  1.00  0.00     0.008 C 
BRANCH   3   5
ATOM      5  C   UNL     1     135.471 127.885 134.990  1.00  0.00     0.008 C 
ATOM      6  C   UNL     1     135.785 129.388 135.018  1.00  0.00     0.012 C 
ATOM      7  C   UNL     1     135.407 127.354 133.552  1.00  0.00     0.012 C 
ENDBRANCH   3   5
ENDBRANCH   2   3
ENDBRANCH   1   2
BRANCH   1   8
ATOM      8  C   UNL     1     134.860 124.859 138.379  1.00  0.00    -0.010 C 
ATOM      9  C   UNL     1     134.340 123.422 138.150  1.00  0.00     0.008 C 
BRANCH   8  10
ATOM     10  C   UNL     1     134.051 125.570 139.528  1.00  0.00    -0.002 C 
ATOM     11  C   UNL     1     134.463 125.060 140.947  1.00  0.00     0.005 C 
ATOM     12  C   UNL     1     134.129 127.129 139.697  1.00  0.00    -0.024 C 
ATOM     13  C   UNL     1     134.329 126.236 141.938  1.00  0.00     0.008 C 
ATOM     14  C   UNL     1     133.565 127.307 141.153  1.00  0.00    -0.024 C 
ATOM     15  C   UNL     1     133.275 127.999 138.736  1.00  0.00     0.008 C 
ATOM     16  C   UNL     1     135.627 127.552 139.530  1.00  0.00     0.012 C 
ATOM     17  C   UNL     1     132.038 126.902 141.273  1.00  0.00     0.012 C 
ATOM     18  C   UNL     1     133.631 128.783 141.689  1.00  0.00     0.002 C 
ATOM     19  C   UNL     1     133.263 129.485 139.174  1.00  0.00     0.008 C 
ATOM     20  C   UNL     1     132.903 129.706 140.700  1.00  0.00    -0.020 C 
ATOM     21  C   UNL     1     135.020 129.427 142.071  1.00  0.00     0.005 C 
ATOM     22  C   UNL     1     132.867 131.135 141.406  1.00  0.00    -0.020 C 
ATOM     23  C   UNL     1     131.624 130.489 140.804  1.00  0.00     0.015 C 
ATOM     24  C   UNL     1     135.368 130.856 141.470  1.00  0.00     0.005 C 
ATOM     25  C   UNL     1     134.181 131.763 140.917  1.00  0.00     0.004 C 
ATOM     26  C   UNL     1     132.605 131.364 142.947  1.00  0.00     0.010 C 
ATOM     27  C   UNL     1     134.236 133.323 141.228  1.00  0.00    -0.006 C 
ATOM     28  C   UNL     1     133.375 132.564 143.517  1.00  0.00     0.033 C 
ATOM     29  C   UNL     1     133.404 133.706 142.502  1.00  0.00     0.120 C 
ATOM     30  C   UNL     1     133.599 134.081 140.031  1.00  0.00     0.014 C 
ATOM     31  C   UNL     1     135.699 133.825 141.340  1.00  0.00     0.014 C 
BRANCH  29  32
ATOM     32  O   UNL     1     133.901 134.877 143.109  1.00  0.00    -0.393 OA
ATOM     33  H   UNL     1     133.174 135.231 143.686  1.00  0.00     0.210 HD
ENDBRANCH  29  32
ENDBRANCH   8  10
ENDBRANCH   1   8
TORSDOF 6
ENDMDL
MODEL 3
REMARK VINA RESULT:    -7.830      1.573      3.020
REMARK INTER + INTRA:          -9.975
REMARK INTER:                  -9.067
REMARK INTRA:                  -0.908
REMARK UNBOUND:                 0.373
REMARK SMILES C=C(CC[C@H](C)[C@H]1CC[C@@]2(C)[C@H]3CC[C@@H]4C(C)(C)[C@H](O)CC[C@@]45C[C@]35CC[C@]12C)C(C)C
REMARK SMILES IDX 4 1 3 2 2 3 1 4 30 5 31 6 32 7 5 8 6 9 7 10 8 11 28 12 9 13
REMARK SMILES IDX 10 14 27 15 29 16 11 17 12 18 26 19 25 20 13 21 23 22 24 23
REMARK SMILES IDX 14 24 15 25 22 26 16 27 21 28 19 29 17 30 18 31 20 32
REMARK H PARENT 20 33
REMARK Flexibility Score: inf
ROOT
ATOM      1  C   UNL     1     133.064 131.298 143.404  1.00  0.00     0.008 C 
ENDROOT
BRANCH   1   2
ATOM      2  C   UNL     1     133.429 129.801 143.466  1.00  0.00     0.031 C 
BRANCH   2   3
ATOM      3  C   UNL     1     134.892 129.588 143.801  1.00  0.00    -0.075 C 
ATOM      4  C   UNL     1     135.752 130.620 143.728  1.00  0.00     0.008 C 
BRANCH   3   5
ATOM      5  C   UNL     1     135.369 128.200 144.193  1.00  0.00     0.008 C 
ATOM      6  C   UNL     1     135.374 127.249 142.987  1.00  0.00     0.012 C 
ATOM      7  C   UNL     1     136.745 128.250 144.870  1.00  0.00     0.012 C 
ENDBRANCH   3   5
ENDBRANCH   2   3
ENDBRANCH   1   2
BRANCH   1   8
ATOM      8  C   UNL     1     133.708 132.051 142.198  1.00  0.00    -0.010 C 
ATOM      9  C   UNL     1     133.505 133.568 142.414  1.00  0.00     0.008 C 
BRANCH   8  10
ATOM     10  C   UNL     1     133.108 131.598 140.814  1.00  0.00    -0.002 C 
ATOM     11  C   UNL     1     132.978 132.786 139.806  1.00  0.00     0.005 C 
ATOM     12  C   UNL     1     133.845 130.510 139.955  1.00  0.00    -0.024 C 
ATOM     13  C   UNL     1     133.206 132.236 138.382  1.00  0.00     0.008 C 
ATOM     14  C   UNL     1     133.164 130.714 138.553  1.00  0.00    -0.024 C 
ATOM     15  C   UNL     1     133.667 129.025 140.370  1.00  0.00     0.008 C 
ATOM     16  C   UNL     1     135.376 130.839 139.981  1.00  0.00     0.012 C 
ATOM     17  C   UNL     1     131.625 130.337 138.559  1.00  0.00     0.012 C 
ATOM     18  C   UNL     1     133.786 129.839 137.406  1.00  0.00     0.002 C 
ATOM     19  C   UNL     1     134.243 128.064 139.301  1.00  0.00     0.008 C 
ATOM     20  C   UNL     1     133.747 128.362 137.828  1.00  0.00    -0.020 C 
ATOM     21  C   UNL     1     135.219 130.176 136.838  1.00  0.00     0.005 C 
ATOM     22  C   UNL     1     134.227 127.545 136.545  1.00  0.00    -0.020 C 
ATOM     23  C   UNL     1     132.961 127.187 137.316  1.00  0.00     0.015 C 
ATOM     24  C   UNL     1     136.276 128.994 136.735  1.00  0.00     0.005 C 
ATOM     25  C   UNL     1     135.748 127.492 136.755  1.00  0.00     0.004 C 
ATOM     26  C   UNL     1     133.817 127.891 135.060  1.00  0.00     0.010 C 
ATOM     27  C   UNL     1     136.439 126.452 135.769  1.00  0.00    -0.006 C 
ATOM     28  C   UNL     1     134.923 127.582 134.042  1.00  0.00     0.033 C 
ATOM     29  C   UNL     1     135.649 126.292 134.423  1.00  0.00     0.120 C 
ATOM     30  C   UNL     1     136.443 125.058 136.455  1.00  0.00     0.014 C 
ATOM     31  C   UNL     1     137.923 126.821 135.510  1.00  0.00     0.014 C 
BRANCH  29  32
ATOM     32  O   UNL     1     136.498 125.889 133.372  1.00  0.00    -0.393 OA
ATOM     33  H   UNL     1     136.264 124.947 133.159  1.00  0.00     0.210 HD
ENDBRANCH  29  32
ENDBRANCH   8  10
ENDBRANCH   1   8
TORSDOF 6
ENDMDL
MODEL 4
REMARK VINA RESULT:    -7.111      3.511      6.713
REMARK INTER + INTRA:          -9.025
REMARK INTER:                  -8.070
REMARK INTRA:                  -0.955
REMARK UNBOUND:                 0.373
REMARK SMILES C=C(CC[C@H](C)[C@H]1CC[C@@]2(C)[C@H]3CC[C@@H]4C(C)(C)[C@H](O)CC[C@@]45C[C@]35CC[C@]12C)C(C)C
REMARK SMILES IDX 4 1 3 2 2 3 1 4 30 5 31 6 32 7 5 8 6 9 7 10 8 11 28 12 9 13
REMARK SMILES IDX 10 14 27 15 29 16 11 17 12 18 26 19 25 20 13 21 23 22 24 23
REMARK SMILES IDX 14 24 15 25 22 26 16 27 21 28 19 29 17 30 18 31 20 32
REMARK H PARENT 20 33
REMARK Flexibility Score: inf
ROOT
ATOM      1  C   UNL     1     131.824 131.292 135.830  1.00  0.00     0.008 C 
ENDROOT
BRANCH   1   2
ATOM      2  C   UNL     1     133.182 131.763 135.271  1.00  0.00     0.031 C 
BRANCH   2   3
ATOM      3  C   UNL     1     134.261 130.713 135.445  1.00  0.00    -0.075 C 
ATOM      4  C   UNL     1     134.001 129.429 135.138  1.00  0.00     0.008 C 
BRANCH   3   5
ATOM      5  C   UNL     1     135.619 131.126 135.987  1.00  0.00     0.008 C 
ATOM      6  C   UNL     1     136.666 130.024 135.773  1.00  0.00     0.012 C 
ATOM      7  C   UNL     1     136.080 132.460 135.385  1.00  0.00     0.012 C 
ENDBRANCH   3   5
ENDBRANCH   2   3
ENDBRANCH   1   2
BRANCH   1   8
ATOM      8  C   UNL     1     131.520 131.822 137.267  1.00  0.00    -0.010 C 
ATOM      9  C   UNL     1     131.253 133.341 137.174  1.00  0.00     0.008 C 
BRANCH   8  10
ATOM     10  C   UNL     1     132.687 131.520 138.280  1.00  0.00    -0.002 C 
ATOM     11  C   UNL     1     132.600 132.406 139.565  1.00  0.00     0.005 C 
ATOM     12  C   UNL     1     132.857 130.078 138.878  1.00  0.00    -0.024 C 
ATOM     13  C   UNL     1     133.141 131.582 140.755  1.00  0.00     0.008 C 
ATOM     14  C   UNL     1     133.802 130.364 140.101  1.00  0.00    -0.024 C 
ATOM     15  C   UNL     1     133.533 129.005 137.983  1.00  0.00     0.008 C 
ATOM     16  C   UNL     1     131.435 129.554 139.271  1.00  0.00     0.012 C 
ATOM     17  C   UNL     1     135.242 130.857 139.661  1.00  0.00     0.012 C 
ATOM     18  C   UNL     1     134.070 129.110 141.010  1.00  0.00     0.002 C 
ATOM     19  C   UNL     1     133.850 127.717 138.782  1.00  0.00     0.008 C 
ATOM     20  C   UNL     1     134.624 127.971 140.139  1.00  0.00    -0.020 C 
ATOM     21  C   UNL     1     132.925 128.542 141.935  1.00  0.00     0.005 C 
ATOM     22  C   UNL     1     135.028 126.818 141.163  1.00  0.00    -0.020 C 
ATOM     23  C   UNL     1     135.976 127.316 140.077  1.00  0.00     0.015 C 
ATOM     24  C   UNL     1     132.618 126.985 141.869  1.00  0.00     0.005 C 
ATOM     25  C   UNL     1     133.723 126.012 141.262  1.00  0.00     0.004 C 
ATOM     26  C   UNL     1     135.713 127.065 142.564  1.00  0.00     0.010 C 
ATOM     27  C   UNL     1     133.954 124.612 141.983  1.00  0.00    -0.006 C 
ATOM     28  C   UNL     1     135.281 126.052 143.633  1.00  0.00     0.033 C 
ATOM     29  C   UNL     1     135.133 124.661 143.016  1.00  0.00     0.120 C 
ATOM     30  C   UNL     1     134.345 123.566 140.904  1.00  0.00     0.014 C 
ATOM     31  C   UNL     1     132.648 124.097 142.644  1.00  0.00     0.014 C 
BRANCH  29  32
ATOM     32  O   UNL     1     134.968 123.699 144.034  1.00  0.00    -0.393 OA
ATOM     33  H   UNL     1     134.174 123.975 144.563  1.00  0.00     0.210 HD
ENDBRANCH  29  32
ENDBRANCH   8  10
ENDBRANCH   1   8
TORSDOF 6
ENDMDL
MODEL 5
REMARK VINA RESULT:    -6.646      1.727      3.615
REMARK INTER + INTRA:          -8.410
REMARK INTER:                  -7.442
REMARK INTRA:                  -0.967
REMARK UNBOUND:                 0.373
REMARK SMILES C=C(CC[C@H](C)[C@H]1CC[C@@]2(C)[C@H]3CC[C@@H]4C(C)(C)[C@H](O)CC[C@@]45C[C@]35CC[C@]12C)C(C)C
REMARK SMILES IDX 4 1 3 2 2 3 1 4 30 5 31 6 32 7 5 8 6 9 7 10 8 11 28 12 9 13
REMARK SMILES IDX 10 14 27 15 29 16 11 17 12 18 26 19 25 20 13 21 23 22 24 23
REMARK SMILES IDX 14 24 15 25 22 26 16 27 21 28 19 29 17 30 18 31 20 32
REMARK H PARENT 20 33
REMARK Flexibility Score: inf
ROOT
ATOM      1  C   UNL     1     133.710 132.291 143.991  1.00  0.00     0.008 C 
ENDROOT
BRANCH   1   2
ATOM      2  C   UNL     1     134.824 131.282 144.333  1.00  0.00     0.031 C 
BRANCH   2   3
ATOM      3  C   UNL     1     134.436 129.864 143.965  1.00  0.00    -0.075 C 
ATOM      4  C   UNL     1     133.144 129.492 144.001  1.00  0.00     0.008 C 
BRANCH   3   5
ATOM      5  C   UNL     1     135.523 128.873 143.582  1.00  0.00     0.008 C 
ATOM      6  C   UNL     1     136.202 128.279 144.825  1.00  0.00     0.012 C 
ATOM      7  C   UNL     1     134.979 127.771 142.663  1.00  0.00     0.012 C 
ENDBRANCH   3   5
ENDBRANCH   2   3
ENDBRANCH   1   2
BRANCH   1   8
ATOM      8  C   UNL     1     134.209 133.523 143.172  1.00  0.00    -0.010 C 
ATOM      9  C   UNL     1     133.685 134.804 143.860  1.00  0.00     0.008 C 
BRANCH   8  10
ATOM     10  C   UNL     1     133.751 133.471 141.666  1.00  0.00    -0.002 C 
ATOM     11  C   UNL     1     134.488 134.531 140.785  1.00  0.00     0.005 C 
ATOM     12  C   UNL     1     133.938 132.153 140.832  1.00  0.00    -0.024 C 
ATOM     13  C   UNL     1     134.662 133.941 139.368  1.00  0.00     0.008 C 
ATOM     14  C   UNL     1     133.772 132.695 139.365  1.00  0.00    -0.024 C 
ATOM     15  C   UNL     1     132.908 131.014 141.049  1.00  0.00     0.008 C 
ATOM     16  C   UNL     1     135.362 131.585 141.151  1.00  0.00     0.012 C 
ATOM     17  C   UNL     1     132.309 133.227 139.071  1.00  0.00     0.012 C 
ATOM     18  C   UNL     1     134.037 131.617 138.252  1.00  0.00     0.002 C 
ATOM     19  C   UNL     1     133.073 129.890 139.995  1.00  0.00     0.008 C 
ATOM     20  C   UNL     1     133.123 130.407 138.500  1.00  0.00    -0.020 C 
ATOM     21  C   UNL     1     135.504 131.108 137.974  1.00  0.00     0.005 C 
ATOM     22  C   UNL     1     133.331 129.457 137.237  1.00  0.00    -0.020 C 
ATOM     23  C   UNL     1     131.948 129.857 137.740  1.00  0.00     0.015 C 
ATOM     24  C   UNL     1     135.751 129.539 137.925  1.00  0.00     0.005 C 
ATOM     25  C   UNL     1     134.504 128.575 137.694  1.00  0.00     0.004 C 
ATOM     26  C   UNL     1     133.480 129.967 135.750  1.00  0.00     0.010 C 
ATOM     27  C   UNL     1     134.705 127.324 136.733  1.00  0.00    -0.006 C 
ATOM     28  C   UNL     1     134.422 129.096 134.906  1.00  0.00     0.033 C 
ATOM     29  C   UNL     1     134.242 127.621 135.263  1.00  0.00     0.120 C 
ATOM     30  C   UNL     1     133.818 126.160 137.256  1.00  0.00     0.014 C 
ATOM     31  C   UNL     1     136.169 126.814 136.769  1.00  0.00     0.014 C 
BRANCH  29  32
ATOM     32  O   UNL     1     134.929 126.813 134.333  1.00  0.00    -0.393 OA
ATOM     33  H   UNL     1     135.876 127.111 134.340  1.00  0.00     0.210 HD
ENDBRANCH  29  32
ENDBRANCH   8  10
ENDBRANCH   1   8
TORSDOF 6
ENDMDL
MODEL 6
REMARK VINA RESULT:    -6.561      1.486      2.514
REMARK INTER + INTRA:          -8.297
REMARK INTER:                  -8.082
REMARK INTRA:                  -0.215
REMARK UNBOUND:                 0.373
REMARK SMILES C=C(CC[C@H](C)[C@H]1CC[C@@]2(C)[C@H]3CC[C@@H]4C(C)(C)[C@H](O)CC[C@@]45C[C@]35CC[C@]12C)C(C)C
REMARK SMILES IDX 4 1 3 2 2 3 1 4 30 5 31 6 32 7 5 8 6 9 7 10 8 11 28 12 9 13
REMARK SMILES IDX 10 14 27 15 29 16 11 17 12 18 26 19 25 20 13 21 23 22 24 23
REMARK SMILES IDX 14 24 15 25 22 26 16 27 21 28 19 29 17 30 18 31 20 32
REMARK H PARENT 20 33
REMARK Flexibility Score: inf
ROOT
ATOM      1  C   UNL     1     133.442 131.581 143.749  1.00  0.00     0.008 C 
ENDROOT
BRANCH   1   2
ATOM      2  C   UNL     1     134.734 132.217 143.199  1.00  0.00     0.031 C 
BRANCH   2   3
ATOM      3  C   UNL     1     134.442 133.377 142.268  1.00  0.00    -0.075 C 
ATOM      4  C   UNL     1     133.910 134.512 142.758  1.00  0.00     0.008 C 
BRANCH   3   5
ATOM      5  C   UNL     1     134.735 133.230 140.784  1.00  0.00     0.008 C 
ATOM      6  C   UNL     1     133.483 133.497 139.937  1.00  0.00     0.012 C 
ATOM      7  C   UNL     1     135.904 134.127 140.352  1.00  0.00     0.012 C 
ENDBRANCH   3   5
ENDBRANCH   2   3
ENDBRANCH   1   2
BRANCH   1   8
ATOM      8  C   UNL     1     133.408 130.025 143.630  1.00  0.00    -0.010 C 
ATOM      9  C   UNL     1     134.857 129.501 143.761  1.00  0.00     0.008 C 
BRANCH   8  10
ATOM     10  C   UNL     1     132.758 129.537 142.281  1.00  0.00    -0.002 C 
ATOM     11  C   UNL     1     132.051 130.699 141.509  1.00  0.00     0.005 C 
ATOM     12  C   UNL     1     133.653 128.889 141.164  1.00  0.00    -0.024 C 
ATOM     13  C   UNL     1     132.191 130.425 139.995  1.00  0.00     0.008 C 
ATOM     14  C   UNL     1     132.701 128.983 139.918  1.00  0.00    -0.024 C 
ATOM     15  C   UNL     1     134.068 127.406 141.349  1.00  0.00     0.008 C 
ATOM     16  C   UNL     1     134.958 129.746 141.044  1.00  0.00     0.012 C 
ATOM     17  C   UNL     1     131.410 128.075 140.063  1.00  0.00     0.012 C 
ATOM     18  C   UNL     1     133.364 128.521 138.570  1.00  0.00     0.002 C 
ATOM     19  C   UNL     1     134.734 126.839 140.070  1.00  0.00     0.008 C 
ATOM     20  C   UNL     1     133.907 127.094 138.744  1.00  0.00    -0.020 C 
ATOM     21  C   UNL     1     134.469 129.413 137.883  1.00  0.00     0.005 C 
ATOM     22  C   UNL     1     134.396 126.650 137.293  1.00  0.00    -0.020 C 
ATOM     23  C   UNL     1     133.489 125.776 138.153  1.00  0.00     0.015 C 
ATOM     24  C   UNL     1     135.828 128.713 137.449  1.00  0.00     0.005 C 
ATOM     25  C   UNL     1     135.856 127.129 137.290  1.00  0.00     0.004 C 
ATOM     26  C   UNL     1     133.630 126.981 135.951  1.00  0.00     0.010 C 
ATOM     27  C   UNL     1     136.668 126.522 136.063  1.00  0.00    -0.006 C 
ATOM     28  C   UNL     1     134.572 127.206 134.760  1.00  0.00     0.033 C 
ATOM     29  C   UNL     1     135.749 126.233 134.825  1.00  0.00     0.120 C 
ATOM     30  C   UNL     1     137.270 125.159 136.504  1.00  0.00     0.014 C 
ATOM     31  C   UNL     1     137.865 127.430 135.677  1.00  0.00     0.014 C 
BRANCH  29  32
ATOM     32  O   UNL     1     136.480 126.281 133.619  1.00  0.00    -0.393 OA
ATOM     33  H   UNL     1     137.137 125.537 133.652  1.00  0.00     0.210 HD
ENDBRANCH  29  32
ENDBRANCH   8  10
ENDBRANCH   1   8
TORSDOF 6
ENDMDL
MODEL 7
REMARK VINA RESULT:    -6.459      3.969      7.193
REMARK INTER + INTRA:          -8.163
REMARK INTER:                  -7.703
REMARK INTRA:                  -0.460
REMARK UNBOUND:                 0.373
REMARK SMILES C=C(CC[C@H](C)[C@H]1CC[C@@]2(C)[C@H]3CC[C@@H]4C(C)(C)[C@H](O)CC[C@@]45C[C@]35CC[C@]12C)C(C)C
REMARK SMILES IDX 4 1 3 2 2 3 1 4 30 5 31 6 32 7 5 8 6 9 7 10 8 11 28 12 9 13
REMARK SMILES IDX 10 14 27 15 29 16 11 17 12 18 26 19 25 20 13 21 23 22 24 23
REMARK SMILES IDX 14 24 15 25 22 26 16 27 21 28 19 29 17 30 18 31 20 32
REMARK H PARENT 20 33
REMARK Flexibility Score: inf
ROOT
ATOM      1  C   UNL     1     133.828 131.440 136.465  1.00  0.00     0.008 C 
ENDROOT
BRANCH   1   2
ATOM      2  C   UNL     1     134.457 131.061 135.109  1.00  0.00     0.031 C 
BRANCH   2   3
ATOM      3  C   UNL     1     135.739 130.270 135.281  1.00  0.00    -0.075 C 
ATOM      4  C   UNL     1     136.899 130.915 135.502  1.00  0.00     0.008 C 
BRANCH   3   5
ATOM      5  C   UNL     1     135.696 128.755 135.175  1.00  0.00     0.008 C 
ATOM      6  C   UNL     1     135.767 128.293 133.713  1.00  0.00     0.012 C 
ATOM      7  C   UNL     1     136.799 128.103 136.021  1.00  0.00     0.012 C 
ENDBRANCH   3   5
ENDBRANCH   2   3
ENDBRANCH   1   2
BRANCH   1   8
ATOM      8  C   UNL     1     132.312 131.085 136.574  1.00  0.00    -0.010 C 
ATOM      9  C   UNL     1     131.620 132.183 137.414  1.00  0.00     0.008 C 
BRANCH   8  10
ATOM     10  C   UNL     1     132.069 129.663 137.205  1.00  0.00    -0.002 C 
ATOM     11  C   UNL     1     132.443 128.506 136.222  1.00  0.00     0.005 C 
ATOM     12  C   UNL     1     132.825 129.244 138.517  1.00  0.00    -0.024 C 
ATOM     13  C   UNL     1     132.975 127.320 137.055  1.00  0.00     0.008 C 
ATOM     14  C   UNL     1     132.624 127.686 138.500  1.00  0.00    -0.024 C 
ATOM     15  C   UNL     1     132.281 129.790 139.863  1.00  0.00     0.008 C 
ATOM     16  C   UNL     1     134.315 129.704 138.375  1.00  0.00     0.012 C 
ATOM     17  C   UNL     1     131.108 127.261 138.682  1.00  0.00     0.012 C 
ATOM     18  C   UNL     1     133.390 126.930 139.646  1.00  0.00     0.002 C 
ATOM     19  C   UNL     1     132.967 129.107 141.072  1.00  0.00     0.008 C 
ATOM     20  C   UNL     1     132.977 127.525 141.001  1.00  0.00    -0.020 C 
ATOM     21  C   UNL     1     134.962 126.800 139.596  1.00  0.00     0.005 C 
ATOM     22  C   UNL     1     133.659 126.590 142.097  1.00  0.00    -0.020 C 
ATOM     23  C   UNL     1     132.182 126.966 142.148  1.00  0.00     0.015 C 
ATOM     24  C   UNL     1     135.783 127.205 140.895  1.00  0.00     0.005 C 
ATOM     25  C   UNL     1     135.022 127.273 142.292  1.00  0.00     0.004 C 
ATOM     26  C   UNL     1     133.762 125.017 141.991  1.00  0.00     0.010 C 
ATOM     27  C   UNL     1     135.778 126.714 143.575  1.00  0.00    -0.006 C 
ATOM     28  C   UNL     1     135.046 124.455 142.618  1.00  0.00     0.033 C 
ATOM     29  C   UNL     1     135.396 125.225 143.891  1.00  0.00     0.120 C 
ATOM     30  C   UNL     1     135.344 127.559 144.805  1.00  0.00     0.014 C 
ATOM     31  C   UNL     1     137.315 126.885 143.443  1.00  0.00     0.014 C 
BRANCH  29  32
ATOM     32  O   UNL     1     136.431 124.563 144.584  1.00  0.00    -0.393 OA
ATOM     33  H   UNL     1     136.252 123.590 144.504  1.00  0.00     0.210 HD
ENDBRANCH  29  32
ENDBRANCH   8  10
ENDBRANCH   1   8
TORSDOF 6
ENDMDL
MODEL 8
REMARK VINA RESULT:    -6.325      2.853      8.303
REMARK INTER + INTRA:          -7.986
REMARK INTER:                  -8.040
REMARK INTRA:                   0.054
REMARK UNBOUND:                 0.373
REMARK SMILES C=C(CC[C@H](C)[C@H]1CC[C@@]2(C)[C@H]3CC[C@@H]4C(C)(C)[C@H](O)CC[C@@]45C[C@]35CC[C@]12C)C(C)C
REMARK SMILES IDX 4 1 3 2 2 3 1 4 30 5 31 6 32 7 5 8 6 9 7 10 8 11 28 12 9 13
REMARK SMILES IDX 10 14 27 15 29 16 11 17 12 18 26 19 25 20 13 21 23 22 24 23
REMARK SMILES IDX 14 24 15 25 22 26 16 27 21 28 19 29 17 30 18 31 20 32
REMARK H PARENT 20 33
REMARK Flexibility Score: inf
ROOT
ATOM      1  C   UNL     1     135.552 126.780 134.192  1.00  0.00     0.008 C 
ENDROOT
BRANCH   1   2
ATOM      2  C   UNL     1     136.749 126.483 135.117  1.00  0.00     0.031 C 
BRANCH   2   3
ATOM      3  C   UNL     1     136.433 125.390 136.118  1.00  0.00    -0.075 C 
ATOM      4  C   UNL     1     136.855 124.133 135.892  1.00  0.00     0.008 C 
BRANCH   3   5
ATOM      5  C   UNL     1     135.622 125.730 137.357  1.00  0.00     0.008 C 
ATOM      6  C   UNL     1     134.755 124.543 137.802  1.00  0.00     0.012 C 
ATOM      7  C   UNL     1     136.520 126.225 138.498  1.00  0.00     0.012 C 
ENDBRANCH   3   5
ENDBRANCH   2   3
ENDBRANCH   1   2
BRANCH   1   8
ATOM      8  C   UNL     1     135.162 128.291 134.135  1.00  0.00    -0.010 C 
ATOM      9  C   UNL     1     136.418 129.125 134.476  1.00  0.00     0.008 C 
BRANCH   8  10
ATOM     10  C   UNL     1     133.975 128.644 135.108  1.00  0.00    -0.002 C 
ATOM     11  C   UNL     1     133.245 127.369 135.641  1.00  0.00     0.005 C 
ATOM     12  C   UNL     1     134.254 129.447 136.429  1.00  0.00    -0.024 C 
ATOM     13  C   UNL     1     132.751 127.661 137.075  1.00  0.00     0.008 C 
ATOM     14  C   UNL     1     132.932 129.174 137.236  1.00  0.00    -0.024 C 
ATOM     15  C   UNL     1     134.441 130.983 136.310  1.00  0.00     0.008 C 
ATOM     16  C   UNL     1     135.544 128.852 137.085  1.00  0.00     0.012 C 
ATOM     17  C   UNL     1     131.655 129.822 136.559  1.00  0.00     0.012 C 
ATOM     18  C   UNL     1     132.945 129.750 138.698  1.00  0.00     0.002 C 
ATOM     19  C   UNL     1     134.463 131.662 137.702  1.00  0.00     0.008 C 
ATOM     20  C   UNL     1     133.255 131.254 138.640  1.00  0.00    -0.020 C 
ATOM     21  C   UNL     1     133.846 129.080 139.807  1.00  0.00     0.005 C 
ATOM     22  C   UNL     1     133.072 131.779 140.134  1.00  0.00    -0.020 C 
ATOM     23  C   UNL     1     132.420 132.468 138.940  1.00  0.00     0.015 C 
ATOM     24  C   UNL     1     134.794 130.023 140.665  1.00  0.00     0.005 C 
ATOM     25  C   UNL     1     134.482 131.584 140.713  1.00  0.00     0.004 C 
ATOM     26  C   UNL     1     131.927 131.307 141.114  1.00  0.00     0.010 C 
ATOM     27  C   UNL     1     134.651 132.331 142.107  1.00  0.00    -0.006 C 
ATOM     28  C   UNL     1     132.372 131.262 142.583  1.00  0.00     0.033 C 
ATOM     29  C   UNL     1     133.297 132.439 142.893  1.00  0.00     0.120 C 
ATOM     30  C   UNL     1     135.126 133.783 141.829  1.00  0.00     0.014 C 
ATOM     31  C   UNL     1     135.752 131.664 142.974  1.00  0.00     0.014 C 
BRANCH  29  32
ATOM     32  O   UNL     1     133.513 132.528 144.283  1.00  0.00    -0.393 OA
ATOM     33  H   UNL     1     133.840 133.448 144.465  1.00  0.00     0.210 HD
ENDBRANCH  29  32
ENDBRANCH   8  10
ENDBRANCH   1   8
TORSDOF 6
ENDMDL
MODEL 9
REMARK VINA RESULT:    -5.840      3.816      7.251
REMARK INTER + INTRA:          -7.345
REMARK INTER:                  -8.427
REMARK INTRA:                   1.083
REMARK UNBOUND:                 0.373
REMARK SMILES C=C(CC[C@H](C)[C@H]1CC[C@@]2(C)[C@H]3CC[C@@H]4C(C)(C)[C@H](O)CC[C@@]45C[C@]35CC[C@]12C)C(C)C
REMARK SMILES IDX 4 1 3 2 2 3 1 4 30 5 31 6 32 7 5 8 6 9 7 10 8 11 28 12 9 13
REMARK SMILES IDX 10 14 27 15 29 16 11 17 12 18 26 19 25 20 13 21 23 22 24 23
REMARK SMILES IDX 14 24 15 25 22 26 16 27 21 28 19 29 17 30 18 31 20 32
REMARK H PARENT 20 33
REMARK Flexibility Score: inf
ROOT
ATOM      1  C   UNL     1     134.772 130.622 134.992  1.00  0.00     0.008 C 
ENDROOT
BRANCH   1   2
ATOM      2  C   UNL     1     136.134 129.904 135.078  1.00  0.00     0.031 C 
BRANCH   2   3
ATOM      3  C   UNL     1     136.023 128.435 134.724  1.00  0.00    -0.075 C 
ATOM      4  C   UNL     1     135.369 128.061 133.610  1.00  0.00     0.008 C 
BRANCH   3   5
ATOM      5  C   UNL     1     136.637 127.400 135.653  1.00  0.00     0.008 C 
ATOM      6  C   UNL     1     136.807 126.046 134.948  1.00  0.00     0.012 C 
ATOM      7  C   UNL     1     137.965 127.892 136.243  1.00  0.00     0.012 C 
ENDBRANCH   3   5
ENDBRANCH   2   3
ENDBRANCH   1   2
BRANCH   1   8
ATOM      8  C   UNL     1     134.527 131.641 136.149  1.00  0.00    -0.010 C 
ATOM      9  C   UNL     1     135.879 131.916 136.844  1.00  0.00     0.008 C 
BRANCH   8  10
ATOM     10  C   UNL     1     133.458 131.130 137.187  1.00  0.00    -0.002 C 
ATOM     11  C   UNL     1     132.122 130.700 136.500  1.00  0.00     0.005 C 
ATOM     12  C   UNL     1     133.778 129.892 138.100  1.00  0.00    -0.024 C 
ATOM     13  C   UNL     1     131.518 129.532 137.310  1.00  0.00     0.008 C 
ATOM     14  C   UNL     1     132.340 129.505 138.603  1.00  0.00    -0.024 C 
ATOM     15  C   UNL     1     134.679 130.130 139.341  1.00  0.00     0.008 C 
ATOM     16  C   UNL     1     134.464 128.805 137.206  1.00  0.00     0.012 C 
ATOM     17  C   UNL     1     131.696 130.614 139.533  1.00  0.00     0.012 C 
ATOM     18  C   UNL     1     132.296 128.189 139.461  1.00  0.00     0.002 C 
ATOM     19  C   UNL     1     134.706 128.890 140.270  1.00  0.00     0.008 C 
ATOM     20  C   UNL     1     133.273 128.328 140.639  1.00  0.00    -0.020 C 
ATOM     21  C   UNL     1     132.513 126.785 138.773  1.00  0.00     0.005 C 
ATOM     22  C   UNL     1     133.031 127.036 141.541  1.00  0.00    -0.020 C 
ATOM     23  C   UNL     1     133.056 128.446 142.122  1.00  0.00     0.015 C 
ATOM     24  C   UNL     1     133.575 125.796 139.420  1.00  0.00     0.005 C 
ATOM     25  C   UNL     1     134.022 126.033 140.930  1.00  0.00     0.004 C 
ATOM     26  C   UNL     1     131.613 126.406 141.839  1.00  0.00     0.010 C 
ATOM     27  C   UNL     1     134.205 124.753 141.857  1.00  0.00    -0.006 C 
ATOM     28  C   UNL     1     131.650 124.878 141.976  1.00  0.00     0.033 C 
ATOM     29  C   UNL     1     132.921 124.441 142.704  1.00  0.00     0.120 C 
ATOM     30  C   UNL     1     135.349 125.042 142.868  1.00  0.00     0.014 C 
ATOM     31  C   UNL     1     134.648 123.517 141.031  1.00  0.00     0.014 C 
BRANCH  29  32
ATOM     32  O   UNL     1     132.840 123.072 143.032  1.00  0.00    -0.393 OA
ATOM     33  H   UNL     1     131.977 122.941 143.506  1.00  0.00     0.210 HD
ENDBRANCH  29  32
ENDBRANCH   8  10
ENDBRANCH   1   8
TORSDOF 6
ENDMDL
