MODEL 1
REMARK VINA RESULT:    -6.174      0.000      0.000
REMARK INTER + INTRA:         -15.902
REMARK INTER:                 -14.116
REMARK INTRA:                  -1.786
REMARK UNBOUND:                -1.786
REMARK SMILES CCCCCCCCCCCCCCCCCCCCCCCC(=O)[O-]
REMARK SMILES IDX 13 1 14 2 15 3 16 4 17 5 18 6 19 7 20 8 21 9 22 10 23 11
REMARK SMILES IDX 24 12 25 13 26 14 12 15 11 16 10 17 9 18 8 19 7 20 6 21 5 22
REMARK SMILES IDX 4 23 3 24 2 25 1 26
REMARK H PARENT
REMARK Flexibility Score: inf
ROOT
ATOM      1  C   UNL     1      -9.150  13.264   4.359  1.00  0.00     0.000 C 
ENDROOT
BRANCH   1   2
ATOM      2  C   UNL     1      -7.644  13.200   4.030  1.00  0.00     0.000 C 
BRANCH   2   3
ATOM      3  C   UNL     1      -7.351  12.439   2.721  1.00  0.00     0.000 C 
BRANCH   3   4
ATOM      4  C   UNL     1      -5.859  12.142   2.483  1.00  0.00     0.000 C 
BRANCH   4   5
ATOM      5  C   UNL     1      -5.483  10.685   2.794  1.00  0.00     0.000 C 
BRANCH   5   6
ATOM      6  C   UNL     1      -4.898  10.505   4.204  1.00  0.00     0.000 C 
BRANCH   6   7
ATOM      7  C   UNL     1      -4.491   9.048   4.494  1.00  0.00     0.000 C 
BRANCH   7   8
ATOM      8  C   UNL     1      -5.597   8.042   4.131  1.00  0.00     0.000 C 
BRANCH   8   9
ATOM      9  C   UNL     1      -5.301   6.626   4.649  1.00  0.00     0.000 C 
BRANCH   9  10
ATOM     10  C   UNL     1      -6.013   6.363   5.985  1.00  0.00     0.006 C 
BRANCH  10  11
ATOM     11  C   UNL     1      -5.024   6.123   7.137  1.00  0.00     0.053 C 
BRANCH  11  12
ATOM     12  C   UNL     1      -4.548   7.409   7.742  1.00  0.00     0.041 C 
ATOM     13  O   UNL     1      -5.368   8.202   8.276  1.00  0.00    -0.550 OA
ATOM     14  O   UNL     1      -3.201   7.746   7.690  1.00  0.00    -0.550 OA
ENDBRANCH  11  12
ENDBRANCH  10  11
ENDBRANCH   9  10
ENDBRANCH   8   9
ENDBRANCH   7   8
ENDBRANCH   6   7
ENDBRANCH   5   6
ENDBRANCH   4   5
ENDBRANCH   3   4
ENDBRANCH   2   3
ENDBRANCH   1   2
BRANCH   1  15
ATOM     15  C   UNL     1     -10.024  12.601   3.282  1.00  0.00     0.000 C 
BRANCH  15  16
ATOM     16  C   UNL     1     -10.876  11.439   3.827  1.00  0.00     0.000 C 
BRANCH  16  17
ATOM     17  C   UNL     1     -11.035  11.495   5.361  1.00  0.00     0.000 C 
BRANCH  17  18
ATOM     18  C   UNL     1     -12.049  10.478   5.927  1.00  0.00    -0.000 C 
BRANCH  18  19
ATOM     19  C   UNL     1     -12.117  10.400   7.463  1.00  0.00    -0.000 C 
BRANCH  19  20
ATOM     20  C   UNL     1     -13.108  11.408   8.074  1.00  0.00    -0.000 C 
BRANCH  20  21
ATOM     21  C   UNL     1     -12.399  12.640   8.661  1.00  0.00    -0.000 C 
BRANCH  21  22
ATOM     22  C   UNL     1     -10.898  12.400   8.911  1.00  0.00    -0.000 C 
BRANCH  22  23
ATOM     23  C   UNL     1     -10.216  13.591   9.603  1.00  0.00    -0.000 C 
BRANCH  23  24
ATOM     24  C   UNL     1      -9.233  14.326   8.674  1.00  0.00    -0.000 C 
BRANCH  24  25
ATOM     25  C   UNL     1      -7.887  14.626   9.353  1.00  0.00    -0.003 C 
ATOM     26  C   UNL     1      -7.839  14.163  10.809  1.00  0.00     0.004 C 
ENDBRANCH  24  25
ENDBRANCH  23  24
ENDBRANCH  22  23
ENDBRANCH  21  22
ENDBRANCH  20  21
ENDBRANCH  19  20
ENDBRANCH  18  19
ENDBRANCH  17  18
ENDBRANCH  16  17
ENDBRANCH  15  16
ENDBRANCH   1  15
TORSDOF 22
ENDMDL
MODEL 2
REMARK VINA RESULT:    -6.136      2.083      7.497
REMARK INTER + INTRA:         -15.814
REMARK INTER:                 -13.939
REMARK INTRA:                  -1.875
REMARK UNBOUND:                -1.786
REMARK SMILES CCCCCCCCCCCCCCCCCCCCCCCC(=O)[O-]
REMARK SMILES IDX 13 1 14 2 15 3 16 4 17 5 18 6 19 7 20 8 21 9 22 10 23 11
REMARK SMILES IDX 24 12 25 13 26 14 12 15 11 16 10 17 9 18 8 19 7 20 6 21 5 22
REMARK SMILES IDX 4 23 3 24 2 25 1 26
REMARK H PARENT
REMARK Flexibility Score: inf
ROOT
ATOM      1  C   UNL     1     -11.050  11.712   5.513  1.00  0.00     0.000 C 
ENDROOT
BRANCH   1   2
ATOM      2  C   UNL     1     -12.000  10.803   6.321  1.00  0.00     0.000 C 
BRANCH   2   3
ATOM      3  C   UNL     1     -11.901  11.040   7.842  1.00  0.00     0.000 C 
BRANCH   3   4
ATOM      4  C   UNL     1     -10.874  12.112   8.249  1.00  0.00     0.000 C 
BRANCH   4   5
ATOM      5  C   UNL     1     -11.474  13.206   9.146  1.00  0.00     0.000 C 
BRANCH   5   6
ATOM      6  C   UNL     1     -10.505  14.372   9.399  1.00  0.00     0.000 C 
BRANCH   6   7
ATOM      7  C   UNL     1      -9.182  14.221   8.625  1.00  0.00     0.000 C 
BRANCH   7   8
ATOM      8  C   UNL     1      -7.955  14.605   9.470  1.00  0.00     0.000 C 
BRANCH   8   9
ATOM      9  C   UNL     1      -8.292  14.768  10.961  1.00  0.00     0.000 C 
BRANCH   9  10
ATOM     10  C   UNL     1      -7.224  14.107  11.847  1.00  0.00     0.006 C 
BRANCH  10  11
ATOM     11  C   UNL     1      -7.641  12.705  12.318  1.00  0.00     0.053 C 
BRANCH  11  12
ATOM     12  C   UNL     1      -6.565  12.044  13.126  1.00  0.00     0.041 C 
ATOM     13  O   UNL     1      -5.373  12.049  12.722  1.00  0.00    -0.550 OA
ATOM     14  O   UNL     1      -6.886  11.396  14.313  1.00  0.00    -0.550 OA
ENDBRANCH  11  12
ENDBRANCH  10  11
ENDBRANCH   9  10
ENDBRANCH   8   9
ENDBRANCH   7   8
ENDBRANCH   6   7
ENDBRANCH   5   6
ENDBRANCH   4   5
ENDBRANCH   3   4
ENDBRANCH   2   3
ENDBRANCH   1   2
BRANCH   1  15
ATOM     15  C   UNL     1     -10.793  11.190   4.090  1.00  0.00     0.000 C 
BRANCH  15  16
ATOM     16  C   UNL     1     -10.141  12.241   3.172  1.00  0.00     0.000 C 
BRANCH  16  17
ATOM     17  C   UNL     1      -9.373  13.321   3.964  1.00  0.00     0.000 C 
BRANCH  17  18
ATOM     18  C   UNL     1      -7.853  13.073   4.056  1.00  0.00    -0.000 C 
BRANCH  18  19
ATOM     19  C   UNL     1      -7.191  12.552   2.768  1.00  0.00    -0.000 C 
BRANCH  19  20
ATOM     20  C   UNL     1      -6.586  11.145   2.926  1.00  0.00    -0.000 C 
BRANCH  20  21
ATOM     21  C   UNL     1      -5.132  11.188   3.423  1.00  0.00    -0.000 C 
BRANCH  21  22
ATOM     22  C   UNL     1      -4.824  10.088   4.456  1.00  0.00    -0.000 C 
BRANCH  22  23
ATOM     23  C   UNL     1      -5.417   8.725   4.065  1.00  0.00    -0.000 C 
BRANCH  23  24
ATOM     24  C   UNL     1      -5.287   7.683   5.191  1.00  0.00    -0.000 C 
BRANCH  24  25
ATOM     25  C   UNL     1      -4.696   8.275   6.480  1.00  0.00    -0.003 C 
ATOM     26  C   UNL     1      -5.371   7.740   7.744  1.00  0.00     0.004 C 
ENDBRANCH  24  25
ENDBRANCH  23  24
ENDBRANCH  22  23
ENDBRANCH  21  22
ENDBRANCH  20  21
ENDBRANCH  19  20
ENDBRANCH  18  19
ENDBRANCH  17  18
ENDBRANCH  16  17
ENDBRANCH  15  16
ENDBRANCH   1  15
TORSDOF 22
ENDMDL
MODEL 3
REMARK VINA RESULT:    -6.113      2.432      7.256
REMARK INTER + INTRA:         -15.761
REMARK INTER:                 -13.487
REMARK INTRA:                  -2.274
REMARK UNBOUND:                -1.786
REMARK SMILES CCCCCCCCCCCCCCCCCCCCCCCC(=O)[O-]
REMARK SMILES IDX 13 1 14 2 15 3 16 4 17 5 18 6 19 7 20 8 21 9 22 10 23 11
REMARK SMILES IDX 24 12 25 13 26 14 12 15 11 16 10 17 9 18 8 19 7 20 6 21 5 22
REMARK SMILES IDX 4 23 3 24 2 25 1 26
REMARK H PARENT
REMARK Flexibility Score: inf
ROOT
ATOM      1  C   UNL     1      -7.640  12.991   3.832  1.00  0.00     0.000 C 
ENDROOT
BRANCH   1   2
ATOM      2  C   UNL     1      -8.629  13.449   2.740  1.00  0.00     0.000 C 
BRANCH   2   3
ATOM      3  C   UNL     1     -10.045  12.869   2.936  1.00  0.00     0.000 C 
BRANCH   3   4
ATOM      4  C   UNL     1     -10.087  11.336   3.063  1.00  0.00     0.000 C 
BRANCH   4   5
ATOM      5  C   UNL     1     -11.100  10.850   4.112  1.00  0.00     0.000 C 
BRANCH   5   6
ATOM      6  C   UNL     1     -11.172  11.765   5.344  1.00  0.00     0.000 C 
BRANCH   6   7
ATOM      7  C   UNL     1     -11.548  11.002   6.628  1.00  0.00     0.000 C 
BRANCH   7   8
ATOM      8  C   UNL     1     -12.845  11.527   7.268  1.00  0.00     0.000 C 
BRANCH   8   9
ATOM      9  C   UNL     1     -12.597  12.243   8.605  1.00  0.00     0.000 C 
BRANCH   9  10
ATOM     10  C   UNL     1     -11.095  12.327   8.920  1.00  0.00     0.006 C 
BRANCH  10  11
ATOM     11  C   UNL     1     -10.646  13.759   9.248  1.00  0.00     0.053 C 
BRANCH  11  12
ATOM     12  C   UNL     1      -9.415  13.777  10.105  1.00  0.00     0.041 C 
ATOM     13  O   UNL     1      -8.485  14.591   9.864  1.00  0.00    -0.550 OA
ATOM     14  O   UNL     1      -9.283  12.873  11.151  1.00  0.00    -0.550 OA
ENDBRANCH  11  12
ENDBRANCH  10  11
ENDBRANCH   9  10
ENDBRANCH   8   9
ENDBRANCH   7   8
ENDBRANCH   6   7
ENDBRANCH   5   6
ENDBRANCH   4   5
ENDBRANCH   3   4
ENDBRANCH   2   3
ENDBRANCH   1   2
BRANCH   1  15
ATOM     15  C   UNL     1      -6.474  12.162   3.271  1.00  0.00     0.000 C 
BRANCH  15  16
ATOM     16  C   UNL     1      -6.538  11.990   1.742  1.00  0.00     0.000 C 
BRANCH  16  17
ATOM     17  C   UNL     1      -6.790  10.526   1.323  1.00  0.00     0.000 C 
BRANCH  17  18
ATOM     18  C   UNL     1      -6.409   9.488   2.400  1.00  0.00    -0.000 C 
BRANCH  18  19
ATOM     19  C   UNL     1      -5.039   8.814   2.209  1.00  0.00    -0.000 C 
BRANCH  19  20
ATOM     20  C   UNL     1      -4.344   8.469   3.539  1.00  0.00    -0.000 C 
BRANCH  20  21
ATOM     21  C   UNL     1      -5.259   8.704   4.752  1.00  0.00    -0.000 C 
BRANCH  21  22
ATOM     22  C   UNL     1      -5.353   7.472   5.673  1.00  0.00    -0.000 C 
BRANCH  22  23
ATOM     23  C   UNL     1      -4.408   7.563   6.882  1.00  0.00    -0.000 C 
BRANCH  23  24
ATOM     24  C   UNL     1      -4.996   8.410   8.025  1.00  0.00    -0.000 C 
BRANCH  24  25
ATOM     25  C   UNL     1      -4.022   9.487   8.527  1.00  0.00    -0.003 C 
ATOM     26  C   UNL     1      -3.619  10.480   7.437  1.00  0.00     0.004 C 
ENDBRANCH  24  25
ENDBRANCH  23  24
ENDBRANCH  22  23
ENDBRANCH  21  22
ENDBRANCH  20  21
ENDBRANCH  19  20
ENDBRANCH  18  19
ENDBRANCH  17  18
ENDBRANCH  16  17
ENDBRANCH  15  16
ENDBRANCH   1  15
TORSDOF 22
ENDMDL
MODEL 4
REMARK VINA RESULT:    -6.087      1.238      1.887
REMARK INTER + INTRA:         -15.701
REMARK INTER:                 -13.912
REMARK INTRA:                  -1.788
REMARK UNBOUND:                -1.786
REMARK SMILES CCCCCCCCCCCCCCCCCCCCCCCC(=O)[O-]
REMARK SMILES IDX 13 1 14 2 15 3 16 4 17 5 18 6 19 7 20 8 21 9 22 10 23 11
REMARK SMILES IDX 24 12 25 13 26 14 12 15 11 16 10 17 9 18 8 19 7 20 6 21 5 22
REMARK SMILES IDX 4 23 3 24 2 25 1 26
REMARK H PARENT
REMARK Flexibility Score: inf
ROOT
ATOM      1  C   UNL     1      -7.903  13.281   4.083  1.00  0.00     0.000 C 
ENDROOT
BRANCH   1   2
ATOM      2  C   UNL     1      -7.501  12.437   2.855  1.00  0.00     0.000 C 
BRANCH   2   3
ATOM      3  C   UNL     1      -6.928  11.058   3.241  1.00  0.00     0.000 C 
BRANCH   3   4
ATOM      4  C   UNL     1      -5.420  11.065   3.550  1.00  0.00     0.000 C 
BRANCH   4   5
ATOM      5  C   UNL     1      -4.714   9.772   3.112  1.00  0.00     0.000 C 
BRANCH   5   6
ATOM      6  C   UNL     1      -4.855   8.636   4.137  1.00  0.00     0.000 C 
BRANCH   6   7
ATOM      7  C   UNL     1      -3.511   8.249   4.781  1.00  0.00     0.000 C 
BRANCH   7   8
ATOM      8  C   UNL     1      -3.210   9.060   6.053  1.00  0.00     0.000 C 
BRANCH   8   9
ATOM      9  C   UNL     1      -4.458   9.285   6.920  1.00  0.00     0.000 C 
BRANCH   9  10
ATOM     10  C   UNL     1      -4.545   8.247   8.050  1.00  0.00     0.006 C 
BRANCH  10  11
ATOM     11  C   UNL     1      -5.644   7.202   7.799  1.00  0.00     0.053 C 
BRANCH  11  12
ATOM     12  C   UNL     1      -5.079   5.818   7.668  1.00  0.00     0.041 C 
ATOM     13  O   UNL     1      -3.850   5.652   7.454  1.00  0.00    -0.550 OA
ATOM     14  O   UNL     1      -5.918   4.714   7.753  1.00  0.00    -0.550 OA
ENDBRANCH  11  12
ENDBRANCH  10  11
ENDBRANCH   9  10
ENDBRANCH   8   9
ENDBRANCH   7   8
ENDBRANCH   6   7
ENDBRANCH   5   6
ENDBRANCH   4   5
ENDBRANCH   3   4
ENDBRANCH   2   3
ENDBRANCH   1   2
BRANCH   1  15
ATOM     15  C   UNL     1      -9.346  13.015   4.543  1.00  0.00     0.000 C 
BRANCH  15  16
ATOM     16  C   UNL     1     -10.193  12.289   3.481  1.00  0.00     0.000 C 
BRANCH  16  17
ATOM     17  C   UNL     1     -11.134  11.233   4.098  1.00  0.00     0.000 C 
BRANCH  17  18
ATOM     18  C   UNL     1     -11.217  11.287   5.639  1.00  0.00    -0.000 C 
BRANCH  18  19
ATOM     19  C   UNL     1     -12.535  10.773   6.245  1.00  0.00    -0.000 C 
BRANCH  19  20
ATOM     20  C   UNL     1     -12.708  11.158   7.726  1.00  0.00    -0.000 C 
BRANCH  20  21
ATOM     21  C   UNL     1     -11.376  11.543   8.389  1.00  0.00    -0.000 C 
BRANCH  21  22
ATOM     22  C   UNL     1     -11.340  13.015   8.843  1.00  0.00    -0.000 C 
BRANCH  22  23
ATOM     23  C   UNL     1     -10.065  13.361   9.629  1.00  0.00    -0.000 C 
BRANCH  23  24
ATOM     24  C   UNL     1      -9.457  14.708   9.197  1.00  0.00    -0.000 C 
BRANCH  24  25
ATOM     25  C   UNL     1      -8.262  15.126  10.070  1.00  0.00    -0.003 C 
ATOM     26  C   UNL     1      -7.638  13.953  10.825  1.00  0.00     0.004 C 
ENDBRANCH  24  25
ENDBRANCH  23  24
ENDBRANCH  22  23
ENDBRANCH  21  22
ENDBRANCH  20  21
ENDBRANCH  19  20
ENDBRANCH  18  19
ENDBRANCH  17  18
ENDBRANCH  16  17
ENDBRANCH  15  16
ENDBRANCH   1  15
TORSDOF 22
ENDMDL
MODEL 5
REMARK VINA RESULT:    -6.084      1.819      5.084
REMARK INTER + INTRA:         -15.694
REMARK INTER:                 -13.800
REMARK INTRA:                  -1.894
REMARK UNBOUND:                -1.786
REMARK SMILES CCCCCCCCCCCCCCCCCCCCCCCC(=O)[O-]
REMARK SMILES IDX 13 1 14 2 15 3 16 4 17 5 18 6 19 7 20 8 21 9 22 10 23 11
REMARK SMILES IDX 24 12 25 13 26 14 12 15 11 16 10 17 9 18 8 19 7 20 6 21 5 22
REMARK SMILES IDX 4 23 3 24 2 25 1 26
REMARK H PARENT
REMARK Flexibility Score: inf
ROOT
ATOM      1  C   UNL     1     -11.922  10.912   7.476  1.00  0.00     0.000 C 
ENDROOT
BRANCH   1   2
ATOM      2  C   UNL     1     -12.036  10.680   5.954  1.00  0.00     0.000 C 
BRANCH   2   3
ATOM      3  C   UNL     1     -11.212  11.693   5.134  1.00  0.00     0.000 C 
BRANCH   3   4
ATOM      4  C   UNL     1     -10.579  11.107   3.859  1.00  0.00     0.000 C 
BRANCH   4   5
ATOM      5  C   UNL     1      -9.738  12.132   3.082  1.00  0.00     0.000 C 
BRANCH   5   6
ATOM      6  C   UNL     1      -9.114  13.205   3.988  1.00  0.00     0.000 C 
BRANCH   6   7
ATOM      7  C   UNL     1      -7.575  13.194   3.946  1.00  0.00     0.000 C 
BRANCH   7   8
ATOM      8  C   UNL     1      -7.024  12.979   2.526  1.00  0.00     0.000 C 
BRANCH   8   9
ATOM      9  C   UNL     1      -6.124  11.738   2.422  1.00  0.00     0.000 C 
BRANCH   9  10
ATOM     10  C   UNL     1      -5.509  11.382   3.785  1.00  0.00     0.006 C 
BRANCH  10  11
ATOM     11  C   UNL     1      -4.855   9.991   3.784  1.00  0.00     0.053 C 
BRANCH  11  12
ATOM     12  C   UNL     1      -4.396   9.589   5.154  1.00  0.00     0.041 C 
ATOM     13  O   UNL     1      -4.334   8.372   5.472  1.00  0.00    -0.550 OA
ATOM     14  O   UNL     1      -4.063  10.562   6.089  1.00  0.00    -0.550 OA
ENDBRANCH  11  12
ENDBRANCH  10  11
ENDBRANCH   9  10
ENDBRANCH   8   9
ENDBRANCH   7   8
ENDBRANCH   6   7
ENDBRANCH   5   6
ENDBRANCH   4   5
ENDBRANCH   3   4
ENDBRANCH   2   3
ENDBRANCH   1   2
BRANCH   1  15
ATOM     15  C   UNL     1     -10.886  11.988   7.839  1.00  0.00     0.000 C 
BRANCH  15  16
ATOM     16  C   UNL     1     -11.119  12.601   9.233  1.00  0.00     0.000 C 
BRANCH  16  17
ATOM     17  C   UNL     1     -10.525  14.021   9.358  1.00  0.00     0.000 C 
BRANCH  17  18
ATOM     18  C   UNL     1      -9.288  14.267   8.469  1.00  0.00    -0.000 C 
BRANCH  18  19
ATOM     19  C   UNL     1      -7.973  14.524   9.227  1.00  0.00    -0.000 C 
BRANCH  19  20
ATOM     20  C   UNL     1      -8.112  15.588  10.332  1.00  0.00    -0.000 C 
BRANCH  20  21
ATOM     21  C   UNL     1      -7.850  15.012  11.733  1.00  0.00    -0.000 C 
BRANCH  21  22
ATOM     22  C   UNL     1      -7.524  13.507  11.706  1.00  0.00    -0.000 C 
BRANCH  22  23
ATOM     23  C   UNL     1      -6.377  13.133  12.658  1.00  0.00    -0.000 C 
BRANCH  23  24
ATOM     24  C   UNL     1      -6.667  11.844  13.449  1.00  0.00    -0.000 C 
BRANCH  24  25
ATOM     25  C   UNL     1      -6.956  10.642  12.537  1.00  0.00    -0.003 C 
ATOM     26  C   UNL     1      -5.749  10.231  11.694  1.00  0.00     0.004 C 
ENDBRANCH  24  25
ENDBRANCH  23  24
ENDBRANCH  22  23
ENDBRANCH  21  22
ENDBRANCH  20  21
ENDBRANCH  19  20
ENDBRANCH  18  19
ENDBRANCH  17  18
ENDBRANCH  16  17
ENDBRANCH  15  16
ENDBRANCH   1  15
TORSDOF 22
ENDMDL
MODEL 6
REMARK VINA RESULT:    -6.033      2.287      7.667
REMARK INTER + INTRA:         -15.578
REMARK INTER:                 -14.037
REMARK INTRA:                  -1.541
REMARK UNBOUND:                -1.786
REMARK SMILES CCCCCCCCCCCCCCCCCCCCCCCC(=O)[O-]
REMARK SMILES IDX 13 1 14 2 15 3 16 4 17 5 18 6 19 7 20 8 21 9 22 10 23 11
REMARK SMILES IDX 24 12 25 13 26 14 12 15 11 16 10 17 9 18 8 19 7 20 6 21 5 22
REMARK SMILES IDX 4 23 3 24 2 25 1 26
REMARK H PARENT
REMARK Flexibility Score: inf
ROOT
ATOM      1  C   UNL     1     -10.979  11.451   4.258  1.00  0.00     0.000 C 
ENDROOT
BRANCH   1   2
ATOM      2  C   UNL     1     -11.264  11.128   5.739  1.00  0.00     0.000 C 
BRANCH   2   3
ATOM      3  C   UNL     1     -12.687  11.533   6.175  1.00  0.00     0.000 C 
BRANCH   3   4
ATOM      4  C   UNL     1     -12.852  11.727   7.693  1.00  0.00     0.000 C 
BRANCH   4   5
ATOM      5  C   UNL     1     -11.574  11.396   8.481  1.00  0.00     0.000 C 
BRANCH   5   6
ATOM      6  C   UNL     1     -11.019  12.601   9.256  1.00  0.00     0.000 C 
BRANCH   6   7
ATOM      7  C   UNL     1     -10.051  13.452   8.413  1.00  0.00     0.000 C 
BRANCH   7   8
ATOM      8  C   UNL     1      -9.485  14.651   9.193  1.00  0.00     0.000 C 
BRANCH   8   9
ATOM      9  C   UNL     1      -7.995  14.487   9.530  1.00  0.00     0.000 C 
BRANCH   9  10
ATOM     10  C   UNL     1      -7.755  14.572  11.046  1.00  0.00     0.006 C 
BRANCH  10  11
ATOM     11  C   UNL     1      -7.687  13.186  11.705  1.00  0.00     0.053 C 
BRANCH  11  12
ATOM     12  C   UNL     1      -6.751  13.170  12.877  1.00  0.00     0.041 C 
ATOM     13  O   UNL     1      -6.870  14.023  13.796  1.00  0.00    -0.550 OA
ATOM     14  O   UNL     1      -5.730  12.230  12.939  1.00  0.00    -0.550 OA
ENDBRANCH  11  12
ENDBRANCH  10  11
ENDBRANCH   9  10
ENDBRANCH   8   9
ENDBRANCH   7   8
ENDBRANCH   6   7
ENDBRANCH   5   6
ENDBRANCH   4   5
ENDBRANCH   3   4
ENDBRANCH   2   3
ENDBRANCH   1   2
BRANCH   1  15
ATOM     15  C   UNL     1      -9.821  12.445   4.076  1.00  0.00     0.000 C 
BRANCH  15  16
ATOM     16  C   UNL     1      -8.726  11.927   3.123  1.00  0.00     0.000 C 
BRANCH  16  17
ATOM     17  C   UNL     1      -7.387  12.674   3.304  1.00  0.00     0.000 C 
BRANCH  17  18
ATOM     18  C   UNL     1      -6.143  11.764   3.231  1.00  0.00    -0.000 C 
BRANCH  18  19
ATOM     19  C   UNL     1      -6.435  10.265   3.038  1.00  0.00    -0.000 C 
BRANCH  19  20
ATOM     20  C   UNL     1      -5.172   9.388   3.125  1.00  0.00    -0.000 C 
BRANCH  20  21
ATOM     21  C   UNL     1      -4.479   9.498   4.493  1.00  0.00    -0.000 C 
BRANCH  21  22
ATOM     22  C   UNL     1      -4.909   8.386   5.469  1.00  0.00    -0.000 C 
BRANCH  22  23
ATOM     23  C   UNL     1      -4.658   8.760   6.939  1.00  0.00    -0.000 C 
BRANCH  23  24
ATOM     24  C   UNL     1      -5.144   7.671   7.913  1.00  0.00    -0.000 C 
BRANCH  24  25
ATOM     25  C   UNL     1      -5.904   6.539   7.204  1.00  0.00    -0.003 C 
ATOM     26  C   UNL     1      -6.615   5.599   8.177  1.00  0.00     0.004 C 
ENDBRANCH  24  25
ENDBRANCH  23  24
ENDBRANCH  22  23
ENDBRANCH  21  22
ENDBRANCH  20  21
ENDBRANCH  19  20
ENDBRANCH  18  19
ENDBRANCH  17  18
ENDBRANCH  16  17
ENDBRANCH  15  16
ENDBRANCH   1  15
TORSDOF 22
ENDMDL
MODEL 7
REMARK VINA RESULT:    -6.016      1.467      3.507
REMARK INTER + INTRA:         -15.540
REMARK INTER:                 -13.826
REMARK INTRA:                  -1.714
REMARK UNBOUND:                -1.786
REMARK SMILES CCCCCCCCCCCCCCCCCCCCCCCC(=O)[O-]
REMARK SMILES IDX 13 1 14 2 15 3 16 4 17 5 18 6 19 7 20 8 21 9 22 10 23 11
REMARK SMILES IDX 24 12 25 13 26 14 12 15 11 16 10 17 9 18 8 19 7 20 6 21 5 22
REMARK SMILES IDX 4 23 3 24 2 25 1 26
REMARK H PARENT
REMARK Flexibility Score: inf
ROOT
ATOM      1  C   UNL     1     -11.399  10.689   4.733  1.00  0.00     0.000 C 
ENDROOT
BRANCH   1   2
ATOM      2  C   UNL     1     -10.551  11.573   3.795  1.00  0.00     0.000 C 
BRANCH   2   3
ATOM      3  C   UNL     1      -9.917  12.777   4.522  1.00  0.00     0.000 C 
BRANCH   3   4
ATOM      4  C   UNL     1      -8.948  13.599   3.654  1.00  0.00     0.000 C 
BRANCH   4   5
ATOM      5  C   UNL     1      -7.477  13.203   3.859  1.00  0.00     0.000 C 
BRANCH   5   6
ATOM      6  C   UNL     1      -6.978  12.192   2.814  1.00  0.00     0.000 C 
BRANCH   6   7
ATOM      7  C   UNL     1      -5.719  11.436   3.275  1.00  0.00     0.000 C 
BRANCH   7   8
ATOM      8  C   UNL     1      -5.899   9.908   3.237  1.00  0.00     0.000 C 
BRANCH   8   9
ATOM      9  C   UNL     1      -4.772   9.161   3.966  1.00  0.00     0.000 C 
BRANCH   9  10
ATOM     10  C   UNL     1      -4.440   9.830   5.310  1.00  0.00     0.006 C 
BRANCH  10  11
ATOM     11  C   UNL     1      -3.841   8.841   6.321  1.00  0.00     0.053 C 
BRANCH  11  12
ATOM     12  C   UNL     1      -4.429   9.016   7.690  1.00  0.00     0.041 C 
ATOM     13  O   UNL     1      -5.250   8.175   8.140  1.00  0.00    -0.550 OA
ATOM     14  O   UNL     1      -4.091  10.125   8.455  1.00  0.00    -0.550 OA
ENDBRANCH  11  12
ENDBRANCH  10  11
ENDBRANCH   9  10
ENDBRANCH   8   9
ENDBRANCH   7   8
ENDBRANCH   6   7
ENDBRANCH   5   6
ENDBRANCH   4   5
ENDBRANCH   3   4
ENDBRANCH   2   3
ENDBRANCH   1   2
BRANCH   1  15
ATOM     15  C   UNL     1     -11.924  11.452   5.959  1.00  0.00     0.000 C 
BRANCH  15  16
ATOM     16  C   UNL     1     -11.971  10.588   7.233  1.00  0.00     0.000 C 
BRANCH  16  17
ATOM     17  C   UNL     1     -11.636  11.395   8.506  1.00  0.00     0.000 C 
BRANCH  17  18
ATOM     18  C   UNL     1     -10.719  12.611   8.257  1.00  0.00    -0.000 C 
BRANCH  18  19
ATOM     19  C   UNL     1     -10.246  13.348   9.523  1.00  0.00    -0.000 C 
BRANCH  19  20
ATOM     20  C   UNL     1      -9.852  14.813   9.256  1.00  0.00    -0.000 C 
BRANCH  20  21
ATOM     21  C   UNL     1      -8.629  15.247  10.080  1.00  0.00    -0.000 C 
BRANCH  21  22
ATOM     22  C   UNL     1      -7.864  14.054  10.684  1.00  0.00    -0.000 C 
BRANCH  22  23
ATOM     23  C   UNL     1      -7.041  14.445  11.922  1.00  0.00    -0.000 C 
BRANCH  23  24
ATOM     24  C   UNL     1      -6.631  13.222  12.764  1.00  0.00    -0.000 C 
BRANCH  24  25
ATOM     25  C   UNL     1      -7.186  11.903  12.202  1.00  0.00    -0.003 C 
ATOM     26  C   UNL     1      -6.148  10.782  12.182  1.00  0.00     0.004 C 
ENDBRANCH  24  25
ENDBRANCH  23  24
ENDBRANCH  22  23
ENDBRANCH  21  22
ENDBRANCH  20  21
ENDBRANCH  19  20
ENDBRANCH  18  19
ENDBRANCH  17  18
ENDBRANCH  16  17
ENDBRANCH  15  16
ENDBRANCH   1  15
TORSDOF 22
ENDMDL
MODEL 8
REMARK VINA RESULT:    -5.888      3.320      8.119
REMARK INTER + INTRA:         -15.247
REMARK INTER:                 -12.600
REMARK INTRA:                  -2.647
REMARK UNBOUND:                -1.786
REMARK SMILES CCCCCCCCCCCCCCCCCCCCCCCC(=O)[O-]
REMARK SMILES IDX 13 1 14 2 15 3 16 4 17 5 18 6 19 7 20 8 21 9 22 10 23 11
REMARK SMILES IDX 24 12 25 13 26 14 12 15 11 16 10 17 9 18 8 19 7 20 6 21 5 22
REMARK SMILES IDX 4 23 3 24 2 25 1 26
REMARK H PARENT
REMARK Flexibility Score: inf
ROOT
ATOM      1  C   UNL     1     -11.066  11.127   3.595  1.00  0.00     0.000 C 
ENDROOT
BRANCH   1   2
ATOM      2  C   UNL     1     -10.919  11.476   5.091  1.00  0.00     0.000 C 
BRANCH   2   3
ATOM      3  C   UNL     1     -12.037  10.862   5.959  1.00  0.00     0.000 C 
BRANCH   3   4
ATOM      4  C   UNL     1     -11.834  11.048   7.474  1.00  0.00     0.000 C 
BRANCH   4   5
ATOM      5  C   UNL     1     -10.854  12.183   7.812  1.00  0.00     0.000 C 
BRANCH   5   6
ATOM      6  C   UNL     1     -10.861  12.557   9.302  1.00  0.00     0.000 C 
BRANCH   6   7
ATOM      7  C   UNL     1     -10.408  14.007   9.552  1.00  0.00     0.000 C 
BRANCH   7   8
ATOM      8  C   UNL     1      -9.147  14.378   8.752  1.00  0.00     0.000 C 
BRANCH   8   9
ATOM      9  C   UNL     1      -7.979  14.806   9.654  1.00  0.00     0.000 C 
BRANCH   9  10
ATOM     10  C   UNL     1      -7.796  13.829  10.827  1.00  0.00     0.006 C 
BRANCH  10  11
ATOM     11  C   UNL     1      -7.500  14.553  12.150  1.00  0.00     0.053 C 
BRANCH  11  12
ATOM     12  C   UNL     1      -6.841  13.648  13.147  1.00  0.00     0.041 C 
ATOM     13  O   UNL     1      -6.405  12.521  12.791  1.00  0.00    -0.550 OA
ATOM     14  O   UNL     1      -6.733  14.038  14.476  1.00  0.00    -0.550 OA
ENDBRANCH  11  12
ENDBRANCH  10  11
ENDBRANCH   9  10
ENDBRANCH   8   9
ENDBRANCH   7   8
ENDBRANCH   6   7
ENDBRANCH   5   6
ENDBRANCH   4   5
ENDBRANCH   3   4
ENDBRANCH   2   3
ENDBRANCH   1   2
BRANCH   1  15
ATOM     15  C   UNL     1      -9.874  11.605   2.752  1.00  0.00     0.000 C 
BRANCH  15  16
ATOM     16  C   UNL     1      -9.796  13.139   2.635  1.00  0.00     0.000 C 
BRANCH  16  17
ATOM     17  C   UNL     1      -8.367  13.676   2.865  1.00  0.00     0.000 C 
BRANCH  17  18
ATOM     18  C   UNL     1      -7.443  12.701   3.626  1.00  0.00    -0.000 C 
BRANCH  18  19
ATOM     19  C   UNL     1      -6.219  12.202   2.837  1.00  0.00    -0.000 C 
BRANCH  19  20
ATOM     20  C   UNL     1      -6.374  10.755   2.334  1.00  0.00    -0.000 C 
BRANCH  20  21
ATOM     21  C   UNL     1      -6.295  10.658   0.802  1.00  0.00    -0.000 C 
BRANCH  21  22
ATOM     22  C   UNL     1      -7.676  10.764   0.127  1.00  0.00    -0.000 C 
BRANCH  22  23
ATOM     23  C   UNL     1      -7.833  12.048  -0.703  1.00  0.00    -0.000 C 
BRANCH  23  24
ATOM     24  C   UNL     1      -6.504  12.808  -0.863  1.00  0.00    -0.000 C 
BRANCH  24  25
ATOM     25  C   UNL     1      -6.554  14.223  -0.266  1.00  0.00    -0.003 C 
ATOM     26  C   UNL     1      -5.187  14.720   0.205  1.00  0.00     0.004 C 
ENDBRANCH  24  25
ENDBRANCH  23  24
ENDBRANCH  22  23
ENDBRANCH  21  22
ENDBRANCH  20  21
ENDBRANCH  19  20
ENDBRANCH  18  19
ENDBRANCH  17  18
ENDBRANCH  16  17
ENDBRANCH  15  16
ENDBRANCH   1  15
TORSDOF 22
ENDMDL
MODEL 9
REMARK VINA RESULT:    -5.875      2.766      5.878
REMARK INTER + INTRA:         -15.216
REMARK INTER:                 -13.330
REMARK INTRA:                  -1.886
REMARK UNBOUND:                -1.786
REMARK SMILES CCCCCCCCCCCCCCCCCCCCCCCC(=O)[O-]
REMARK SMILES IDX 13 1 14 2 15 3 16 4 17 5 18 6 19 7 20 8 21 9 22 10 23 11
REMARK SMILES IDX 24 12 25 13 26 14 12 15 11 16 10 17 9 18 8 19 7 20 6 21 5 22
REMARK SMILES IDX 4 23 3 24 2 25 1 26
REMARK H PARENT
REMARK Flexibility Score: inf
ROOT
ATOM      1  C   UNL     1      -4.025   9.868   6.127  1.00  0.00     0.000 C 
ENDROOT
BRANCH   1   2
ATOM      2  C   UNL     1      -3.673   8.866   7.247  1.00  0.00     0.000 C 
BRANCH   2   3
ATOM      3  C   UNL     1      -4.907   8.419   8.056  1.00  0.00     0.000 C 
BRANCH   3   4
ATOM      4  C   UNL     1      -5.409   7.004   7.713  1.00  0.00     0.000 C 
BRANCH   4   5
ATOM      5  C   UNL     1      -4.266   6.023   7.407  1.00  0.00     0.000 C 
BRANCH   5   6
ATOM      6  C   UNL     1      -4.611   5.036   6.279  1.00  0.00     0.000 C 
BRANCH   6   7
ATOM      7  C   UNL     1      -5.640   5.608   5.286  1.00  0.00     0.000 C 
BRANCH   7   8
ATOM      8  C   UNL     1      -6.804   4.639   5.019  1.00  0.00     0.000 C 
BRANCH   8   9
ATOM      9  C   UNL     1      -7.185   3.815   6.259  1.00  0.00     0.000 C 
BRANCH   9  10
ATOM     10  C   UNL     1      -7.536   2.368   5.879  1.00  0.00     0.006 C 
BRANCH  10  11
ATOM     11  C   UNL     1      -6.400   1.672   5.114  1.00  0.00     0.053 C 
BRANCH  11  12
ATOM     12  C   UNL     1      -5.240   1.350   6.008  1.00  0.00     0.041 C 
ATOM     13  O   UNL     1      -4.062   1.407   5.565  1.00  0.00    -0.550 OA
ATOM     14  O   UNL     1      -5.462   0.959   7.322  1.00  0.00    -0.550 OA
ENDBRANCH  11  12
ENDBRANCH  10  11
ENDBRANCH   9  10
ENDBRANCH   8   9
ENDBRANCH   7   8
ENDBRANCH   6   7
ENDBRANCH   5   6
ENDBRANCH   4   5
ENDBRANCH   3   4
ENDBRANCH   2   3
ENDBRANCH   1   2
BRANCH   1  15
ATOM     15  C   UNL     1      -4.692   9.197   4.915  1.00  0.00     0.000 C 
BRANCH  15  16
ATOM     16  C   UNL     1      -4.889  10.158   3.727  1.00  0.00     0.000 C 
BRANCH  16  17
ATOM     17  C   UNL     1      -6.191   9.874   2.949  1.00  0.00     0.000 C 
BRANCH  17  18
ATOM     18  C   UNL     1      -7.118  11.099   2.803  1.00  0.00    -0.000 C 
BRANCH  18  19
ATOM     19  C   UNL     1      -8.575  10.780   2.424  1.00  0.00    -0.000 C 
BRANCH  19  20
ATOM     20  C   UNL     1      -9.454  12.038   2.295  1.00  0.00    -0.000 C 
BRANCH  20  21
ATOM     21  C   UNL     1     -10.123  12.421   3.626  1.00  0.00    -0.000 C 
BRANCH  21  22
ATOM     22  C   UNL     1     -10.876  11.244   4.274  1.00  0.00    -0.000 C 
BRANCH  22  23
ATOM     23  C   UNL     1     -11.243  11.513   5.742  1.00  0.00    -0.000 C 
BRANCH  23  24
ATOM     24  C   UNL     1     -12.034  10.352   6.372  1.00  0.00    -0.000 C 
BRANCH  24  25
ATOM     25  C   UNL     1     -12.127  10.459   7.902  1.00  0.00    -0.003 C 
ATOM     26  C   UNL     1     -11.483  11.733   8.450  1.00  0.00     0.004 C 
ENDBRANCH  24  25
ENDBRANCH  23  24
ENDBRANCH  22  23
ENDBRANCH  21  22
ENDBRANCH  20  21
ENDBRANCH  19  20
ENDBRANCH  18  19
ENDBRANCH  17  18
ENDBRANCH  16  17
ENDBRANCH  15  16
ENDBRANCH   1  15
TORSDOF 22
ENDMDL
