MODEL 1
REMARK VINA RESULT:    -3.408      0.000      0.000
REMARK INTER + INTRA:         -10.981
REMARK INTER:                  -7.392
REMARK INTRA:                  -3.589
REMARK UNBOUND:                -3.589
REMARK SMILES CCCCCCCCCCCCCCCCCCCCCC(=O)[O-]
REMARK SMILES IDX 12 1 11 2 10 3 9 4 8 5 7 6 6 7 5 8 4 9 3 10 2 11 1 12 13 13
REMARK SMILES IDX 14 14 15 15 16 16 17 17 18 18 19 19 20 20 21 21 22 22 23 23
REMARK SMILES IDX 24 24
REMARK H PARENT
REMARK Flexibility Score: inf
ROOT
ATOM      1  C   UNL     1      41.237  10.891  12.052  1.00  0.00     0.000 C 
ENDROOT
BRANCH   1   2
ATOM      2  C   UNL     1      39.910  10.157  11.791  1.00  0.00     0.000 C 
BRANCH   2   3
ATOM      3  C   UNL     1      40.024   8.640  12.024  1.00  0.00     0.000 C 
BRANCH   3   4
ATOM      4  C   UNL     1      39.091   8.137  13.141  1.00  0.00    -0.000 C 
BRANCH   4   5
ATOM      5  C   UNL     1      38.361   9.244  13.924  1.00  0.00    -0.000 C 
BRANCH   5   6
ATOM      6  C   UNL     1      38.938   9.458  15.336  1.00  0.00    -0.000 C 
BRANCH   6   7
ATOM      7  C   UNL     1      38.556  10.829  15.925  1.00  0.00    -0.000 C 
BRANCH   7   8
ATOM      8  C   UNL     1      39.514  11.312  17.033  1.00  0.00    -0.000 C 
BRANCH   8   9
ATOM      9  C   UNL     1      40.873  10.584  17.042  1.00  0.00    -0.000 C 
BRANCH   9  10
ATOM     10  C   UNL     1      42.063  11.554  16.924  1.00  0.00    -0.000 C 
BRANCH  10  11
ATOM     11  C   UNL     1      42.010  12.674  17.976  1.00  0.00    -0.003 C 
ATOM     12  C   UNL     1      43.021  12.467  19.105  1.00  0.00     0.004 C 
ENDBRANCH  10  11
ENDBRANCH   9  10
ENDBRANCH   8   9
ENDBRANCH   7   8
ENDBRANCH   6   7
ENDBRANCH   5   6
ENDBRANCH   4   5
ENDBRANCH   3   4
ENDBRANCH   2   3
ENDBRANCH   1   2
BRANCH   1  13
ATOM     13  C   UNL     1      41.243  11.640  13.396  1.00  0.00     0.000 C 
BRANCH  13  14
ATOM     14  C   UNL     1      40.239  12.804  13.432  1.00  0.00     0.000 C 
BRANCH  14  15
ATOM     15  C   UNL     1      40.838  14.121  13.971  1.00  0.00     0.000 C 
BRANCH  15  16
ATOM     16  C   UNL     1      40.265  14.502  15.344  1.00  0.00     0.000 C 
BRANCH  16  17
ATOM     17  C   UNL     1      38.731  14.570  15.301  1.00  0.00     0.000 C 
BRANCH  17  18
ATOM     18  C   UNL     1      38.103  14.860  16.675  1.00  0.00     0.000 C 
BRANCH  18  19
ATOM     19  C   UNL     1      39.035  14.632  17.878  1.00  0.00     0.000 C 
BRANCH  19  20
ATOM     20  C   UNL     1      39.261  15.904  18.714  1.00  0.00     0.006 C 
BRANCH  20  21
ATOM     21  C   UNL     1      40.685  16.454  18.558  1.00  0.00     0.053 C 
BRANCH  21  22
ATOM     22  C   UNL     1      40.743  17.568  17.556  1.00  0.00     0.041 C 
ATOM     23  O   UNL     1      39.688  17.979  17.004  1.00  0.00    -0.550 OA
ATOM     24  O   UNL     1      41.965  18.127  17.206  1.00  0.00    -0.550 OA
ENDBRANCH  21  22
ENDBRANCH  20  21
ENDBRANCH  19  20
ENDBRANCH  18  19
ENDBRANCH  17  18
ENDBRANCH  16  17
ENDBRANCH  15  16
ENDBRANCH  14  15
ENDBRANCH  13  14
ENDBRANCH   1  13
TORSDOF 20
ENDMDL
MODEL 2
REMARK VINA RESULT:    -3.333      1.227      4.044
REMARK INTER + INTRA:         -10.819
REMARK INTER:                  -7.217
REMARK INTRA:                  -3.602
REMARK UNBOUND:                -3.589
REMARK SMILES CCCCCCCCCCCCCCCCCCCCCC(=O)[O-]
REMARK SMILES IDX 12 1 11 2 10 3 9 4 8 5 7 6 6 7 5 8 4 9 3 10 2 11 1 12 13 13
REMARK SMILES IDX 14 14 15 15 16 16 17 17 18 18 19 19 20 20 21 21 22 22 23 23
REMARK SMILES IDX 24 24
REMARK H PARENT
REMARK Flexibility Score: inf
ROOT
ATOM      1  C   UNL     1      42.082  12.101  16.265  1.00  0.00     0.000 C 
ENDROOT
BRANCH   1   2
ATOM      2  C   UNL     1      41.634  10.977  17.215  1.00  0.00     0.000 C 
BRANCH   2   3
ATOM      3  C   UNL     1      40.448  11.396  18.102  1.00  0.00     0.000 C 
BRANCH   3   4
ATOM      4  C   UNL     1      39.106  10.823  17.612  1.00  0.00    -0.000 C 
BRANCH   4   5
ATOM      5  C   UNL     1      39.217   9.529  16.784  1.00  0.00    -0.000 C 
BRANCH   5   6
ATOM      6  C   UNL     1      38.226   9.486  15.605  1.00  0.00    -0.000 C 
BRANCH   6   7
ATOM      7  C   UNL     1      38.901   9.062  14.286  1.00  0.00    -0.000 C 
BRANCH   7   8
ATOM      8  C   UNL     1      38.127   9.505  13.028  1.00  0.00    -0.000 C 
BRANCH   8   9
ATOM      9  C   UNL     1      38.775   9.049  11.706  1.00  0.00    -0.000 C 
BRANCH   9  10
ATOM     10  C   UNL     1      40.282   8.771  11.852  1.00  0.00    -0.000 C 
BRANCH  10  11
ATOM     11  C   UNL     1      41.135  10.020  11.577  1.00  0.00    -0.003 C 
ATOM     12  C   UNL     1      40.542  10.906  10.481  1.00  0.00     0.004 C 
ENDBRANCH  10  11
ENDBRANCH   9  10
ENDBRANCH   8   9
ENDBRANCH   7   8
ENDBRANCH   6   7
ENDBRANCH   5   6
ENDBRANCH   4   5
ENDBRANCH   3   4
ENDBRANCH   2   3
ENDBRANCH   1   2
BRANCH   1  13
ATOM     13  C   UNL     1      41.536  11.921  14.838  1.00  0.00     0.000 C 
BRANCH  13  14
ATOM     14  C   UNL     1      40.651  13.094  14.387  1.00  0.00     0.000 C 
BRANCH  14  15
ATOM     15  C   UNL     1      39.499  12.676  13.448  1.00  0.00     0.000 C 
BRANCH  15  16
ATOM     16  C   UNL     1      38.140  13.209  13.922  1.00  0.00     0.000 C 
BRANCH  16  17
ATOM     17  C   UNL     1      38.075  13.267  15.455  1.00  0.00     0.000 C 
BRANCH  17  18
ATOM     18  C   UNL     1      38.051  14.705  16.003  1.00  0.00     0.000 C 
BRANCH  18  19
ATOM     19  C   UNL     1      38.634  14.873  17.417  1.00  0.00     0.000 C 
BRANCH  19  20
ATOM     20  C   UNL     1      40.166  15.020  17.421  1.00  0.00     0.006 C 
BRANCH  20  21
ATOM     21  C   UNL     1      40.649  16.018  18.483  1.00  0.00     0.053 C 
BRANCH  21  22
ATOM     22  C   UNL     1      40.974  17.353  17.882  1.00  0.00     0.041 C 
ATOM     23  O   UNL     1      40.982  17.499  16.631  1.00  0.00    -0.550 OA
ATOM     24  O   UNL     1      41.303  18.424  18.703  1.00  0.00    -0.550 OA
ENDBRANCH  21  22
ENDBRANCH  20  21
ENDBRANCH  19  20
ENDBRANCH  18  19
ENDBRANCH  17  18
ENDBRANCH  16  17
ENDBRANCH  15  16
ENDBRANCH  14  15
ENDBRANCH  13  14
ENDBRANCH   1  13
TORSDOF 20
ENDMDL
MODEL 3
REMARK VINA RESULT:    -3.172      1.338      1.694
REMARK INTER + INTRA:         -10.469
REMARK INTER:                  -7.063
REMARK INTRA:                  -3.406
REMARK UNBOUND:                -3.589
REMARK SMILES CCCCCCCCCCCCCCCCCCCCCC(=O)[O-]
REMARK SMILES IDX 12 1 11 2 10 3 9 4 8 5 7 6 6 7 5 8 4 9 3 10 2 11 1 12 13 13
REMARK SMILES IDX 14 14 15 15 16 16 17 17 18 18 19 19 20 20 21 21 22 22 23 23
REMARK SMILES IDX 24 24
REMARK H PARENT
REMARK Flexibility Score: inf
ROOT
ATOM      1  C   UNL     1      41.579  10.323  11.984  1.00  0.00     0.000 C 
ENDROOT
BRANCH   1   2
ATOM      2  C   UNL     1      40.510   9.447  11.308  1.00  0.00     0.000 C 
BRANCH   2   3
ATOM      3  C   UNL     1      39.843   8.470  12.293  1.00  0.00     0.000 C 
BRANCH   3   4
ATOM      4  C   UNL     1      38.337   8.738  12.469  1.00  0.00    -0.000 C 
BRANCH   4   5
ATOM      5  C   UNL     1      37.892   9.011  13.918  1.00  0.00    -0.000 C 
BRANCH   5   6
ATOM      6  C   UNL     1      39.069   9.352  14.850  1.00  0.00    -0.000 C 
BRANCH   6   7
ATOM      7  C   UNL     1      38.633   9.486  16.322  1.00  0.00    -0.000 C 
BRANCH   7   8
ATOM      8  C   UNL     1      39.804   9.408  17.322  1.00  0.00    -0.000 C 
BRANCH   8   9
ATOM      9  C   UNL     1      40.378  10.783  17.717  1.00  0.00    -0.000 C 
BRANCH   9  10
ATOM     10  C   UNL     1      41.621  11.163  16.892  1.00  0.00    -0.000 C 
BRANCH  10  11
ATOM     11  C   UNL     1      41.774  12.685  16.735  1.00  0.00    -0.003 C 
ATOM     12  C   UNL     1      41.185  13.459  17.914  1.00  0.00     0.004 C 
ENDBRANCH  10  11
ENDBRANCH   9  10
ENDBRANCH   8   9
ENDBRANCH   7   8
ENDBRANCH   6   7
ENDBRANCH   5   6
ENDBRANCH   4   5
ENDBRANCH   3   4
ENDBRANCH   2   3
ENDBRANCH   1   2
BRANCH   1  13
ATOM     13  C   UNL     1      40.966  11.450  12.834  1.00  0.00     0.000 C 
BRANCH  13  14
ATOM     14  C   UNL     1      39.764  12.123  12.151  1.00  0.00     0.000 C 
BRANCH  14  15
ATOM     15  C   UNL     1      38.656  12.559  13.134  1.00  0.00     0.000 C 
BRANCH  15  16
ATOM     16  C   UNL     1      39.204  12.835  14.542  1.00  0.00     0.000 C 
BRANCH  16  17
ATOM     17  C   UNL     1      38.144  13.516  15.421  1.00  0.00     0.000 C 
BRANCH  17  18
ATOM     18  C   UNL     1      38.429  15.010  15.657  1.00  0.00     0.000 C 
BRANCH  18  19
ATOM     19  C   UNL     1      39.630  15.575  14.878  1.00  0.00     0.000 C 
BRANCH  19  20
ATOM     20  C   UNL     1      40.558  16.440  15.750  1.00  0.00     0.006 C 
BRANCH  20  21
ATOM     21  C   UNL     1      39.807  17.104  16.912  1.00  0.00     0.053 C 
BRANCH  21  22
ATOM     22  C   UNL     1      40.705  17.340  18.089  1.00  0.00     0.041 C 
ATOM     23  O   UNL     1      40.591  16.633  19.125  1.00  0.00    -0.550 OA
ATOM     24  O   UNL     1      41.643  18.364  18.055  1.00  0.00    -0.550 OA
ENDBRANCH  21  22
ENDBRANCH  20  21
ENDBRANCH  19  20
ENDBRANCH  18  19
ENDBRANCH  17  18
ENDBRANCH  16  17
ENDBRANCH  15  16
ENDBRANCH  14  15
ENDBRANCH  13  14
ENDBRANCH   1  13
TORSDOF 20
ENDMDL
MODEL 4
REMARK VINA RESULT:    -3.159      1.121      2.161
REMARK INTER + INTRA:         -10.442
REMARK INTER:                  -7.640
REMARK INTRA:                  -2.802
REMARK UNBOUND:                -3.589
REMARK SMILES CCCCCCCCCCCCCCCCCCCCCC(=O)[O-]
REMARK SMILES IDX 12 1 11 2 10 3 9 4 8 5 7 6 6 7 5 8 4 9 3 10 2 11 1 12 13 13
REMARK SMILES IDX 14 14 15 15 16 16 17 17 18 18 19 19 20 20 21 21 22 22 23 23
REMARK SMILES IDX 24 24
REMARK H PARENT
REMARK Flexibility Score: inf
ROOT
ATOM      1  C   UNL     1      40.977  11.536  13.462  1.00  0.00     0.000 C 
ENDROOT
BRANCH   1   2
ATOM      2  C   UNL     1      41.312  10.888  12.107  1.00  0.00     0.000 C 
BRANCH   2   3
ATOM      3  C   UNL     1      40.134  10.953  11.119  1.00  0.00     0.000 C 
BRANCH   3   4
ATOM      4  C   UNL     1      38.991   9.989  11.490  1.00  0.00    -0.000 C 
BRANCH   4   5
ATOM      5  C   UNL     1      39.441   8.562  11.855  1.00  0.00    -0.000 C 
BRANCH   5   6
ATOM      6  C   UNL     1      39.035   8.155  13.284  1.00  0.00    -0.000 C 
BRANCH   6   7
ATOM      7  C   UNL     1      38.449   9.333  14.086  1.00  0.00    -0.000 C 
BRANCH   7   8
ATOM      8  C   UNL     1      38.422   9.089  15.609  1.00  0.00    -0.000 C 
BRANCH   8   9
ATOM      9  C   UNL     1      39.274  10.089  16.415  1.00  0.00    -0.000 C 
BRANCH   9  10
ATOM     10  C   UNL     1      40.198   9.393  17.430  1.00  0.00    -0.000 C 
BRANCH  10  11
ATOM     11  C   UNL     1      41.215  10.363  18.054  1.00  0.00    -0.003 C 
ATOM     12  C   UNL     1      41.969  11.178  17.004  1.00  0.00     0.004 C 
ENDBRANCH  10  11
ENDBRANCH   9  10
ENDBRANCH   8   9
ENDBRANCH   7   8
ENDBRANCH   6   7
ENDBRANCH   5   6
ENDBRANCH   4   5
ENDBRANCH   3   4
ENDBRANCH   2   3
ENDBRANCH   1   2
BRANCH   1  13
ATOM     13  C   UNL     1      40.337  12.927  13.308  1.00  0.00     0.000 C 
BRANCH  13  14
ATOM     14  C   UNL     1      38.883  12.971  13.808  1.00  0.00     0.000 C 
BRANCH  14  15
ATOM     15  C   UNL     1      38.680  13.879  15.040  1.00  0.00     0.000 C 
BRANCH  15  16
ATOM     16  C   UNL     1      39.826  13.751  16.053  1.00  0.00     0.000 C 
BRANCH  16  17
ATOM     17  C   UNL     1      39.304  13.866  17.493  1.00  0.00     0.000 C 
BRANCH  17  18
ATOM     18  C   UNL     1      40.420  14.136  18.518  1.00  0.00     0.000 C 
BRANCH  18  19
ATOM     19  C   UNL     1      40.511  15.590  19.013  1.00  0.00     0.000 C 
BRANCH  19  20
ATOM     20  C   UNL     1      39.250  16.413  18.695  1.00  0.00     0.006 C 
BRANCH  20  21
ATOM     21  C   UNL     1      39.576  17.692  17.912  1.00  0.00     0.053 C 
BRANCH  21  22
ATOM     22  C   UNL     1      40.842  17.550  17.120  1.00  0.00     0.041 C 
ATOM     23  O   UNL     1      41.897  18.119  17.505  1.00  0.00    -0.550 OA
ATOM     24  O   UNL     1      40.845  16.820  15.939  1.00  0.00    -0.550 OA
ENDBRANCH  21  22
ENDBRANCH  20  21
ENDBRANCH  19  20
ENDBRANCH  18  19
ENDBRANCH  17  18
ENDBRANCH  16  17
ENDBRANCH  15  16
ENDBRANCH  14  15
ENDBRANCH  13  14
ENDBRANCH   1  13
TORSDOF 20
ENDMDL
MODEL 5
REMARK VINA RESULT:    -3.041      2.143      3.230
REMARK INTER + INTRA:         -10.185
REMARK INTER:                  -6.908
REMARK INTRA:                  -3.277
REMARK UNBOUND:                -3.589
REMARK SMILES CCCCCCCCCCCCCCCCCCCCCC(=O)[O-]
REMARK SMILES IDX 12 1 11 2 10 3 9 4 8 5 7 6 6 7 5 8 4 9 3 10 2 11 1 12 13 13
REMARK SMILES IDX 14 14 15 15 16 16 17 17 18 18 19 19 20 20 21 21 22 22 23 23
REMARK SMILES IDX 24 24
REMARK H PARENT
REMARK Flexibility Score: inf
ROOT
ATOM      1  C   UNL     1      41.045  12.283  13.180  1.00  0.00     0.000 C 
ENDROOT
BRANCH   1   2
ATOM      2  C   UNL     1      41.486  10.877  12.739  1.00  0.00     0.000 C 
BRANCH   2   3
ATOM      3  C   UNL     1      40.958  10.508  11.342  1.00  0.00     0.000 C 
BRANCH   3   4
ATOM      4  C   UNL     1      40.215   9.159  11.322  1.00  0.00    -0.000 C 
BRANCH   4   5
ATOM      5  C   UNL     1      38.850   9.161  12.036  1.00  0.00    -0.000 C 
BRANCH   5   6
ATOM      6  C   UNL     1      38.603   7.881  12.856  1.00  0.00    -0.000 C 
BRANCH   6   7
ATOM      7  C   UNL     1      38.111   8.184  14.285  1.00  0.00    -0.000 C 
BRANCH   7   8
ATOM      8  C   UNL     1      38.369   9.638  14.730  1.00  0.00    -0.000 C 
BRANCH   8   9
ATOM      9  C   UNL     1      39.366   9.763  15.899  1.00  0.00    -0.000 C 
BRANCH   9  10
ATOM     10  C   UNL     1      38.665   9.998  17.250  1.00  0.00    -0.000 C 
BRANCH  10  11
ATOM     11  C   UNL     1      39.593   9.722  18.444  1.00  0.00    -0.003 C 
ATOM     12  C   UNL     1      40.858   8.963  18.042  1.00  0.00     0.004 C 
ENDBRANCH  10  11
ENDBRANCH   9  10
ENDBRANCH   8   9
ENDBRANCH   7   8
ENDBRANCH   6   7
ENDBRANCH   5   6
ENDBRANCH   4   5
ENDBRANCH   3   4
ENDBRANCH   2   3
ENDBRANCH   1   2
BRANCH   1  13
ATOM     13  C   UNL     1      39.720  12.716  12.529  1.00  0.00     0.000 C 
BRANCH  13  14
ATOM     14  C   UNL     1      38.570  12.837  13.543  1.00  0.00     0.000 C 
BRANCH  14  15
ATOM     15  C   UNL     1      39.030  13.260  14.954  1.00  0.00     0.000 C 
BRANCH  15  16
ATOM     16  C   UNL     1      38.719  14.734  15.250  1.00  0.00     0.000 C 
BRANCH  16  17
ATOM     17  C   UNL     1      39.962  15.612  15.037  1.00  0.00     0.000 C 
BRANCH  17  18
ATOM     18  C   UNL     1      40.758  15.853  16.332  1.00  0.00     0.000 C 
BRANCH  18  19
ATOM     19  C   UNL     1      40.026  15.461  17.628  1.00  0.00     0.000 C 
BRANCH  19  20
ATOM     20  C   UNL     1      40.889  14.602  18.569  1.00  0.00     0.006 C 
BRANCH  20  21
ATOM     21  C   UNL     1      40.820  13.110  18.218  1.00  0.00     0.053 C 
BRANCH  21  22
ATOM     22  C   UNL     1      42.147  12.587  17.757  1.00  0.00     0.041 C 
ATOM     23  O   UNL     1      43.174  12.751  18.467  1.00  0.00    -0.550 OA
ATOM     24  O   UNL     1      42.255  11.951  16.526  1.00  0.00    -0.550 OA
ENDBRANCH  21  22
ENDBRANCH  20  21
ENDBRANCH  19  20
ENDBRANCH  18  19
ENDBRANCH  17  18
ENDBRANCH  16  17
ENDBRANCH  15  16
ENDBRANCH  14  15
ENDBRANCH  13  14
ENDBRANCH   1  13
TORSDOF 20
ENDMDL
MODEL 6
REMARK VINA RESULT:    -2.972      3.002      5.736
REMARK INTER + INTRA:         -10.036
REMARK INTER:                  -6.590
REMARK INTRA:                  -3.447
REMARK UNBOUND:                -3.589
REMARK SMILES CCCCCCCCCCCCCCCCCCCCCC(=O)[O-]
REMARK SMILES IDX 12 1 11 2 10 3 9 4 8 5 7 6 6 7 5 8 4 9 3 10 2 11 1 12 13 13
REMARK SMILES IDX 14 14 15 15 16 16 17 17 18 18 19 19 20 20 21 21 22 22 23 23
REMARK SMILES IDX 24 24
REMARK H PARENT
REMARK Flexibility Score: inf
ROOT
ATOM      1  C   UNL     1      41.518  11.487  13.232  1.00  0.00     0.000 C 
ENDROOT
BRANCH   1   2
ATOM      2  C   UNL     1      40.533  12.644  13.475  1.00  0.00     0.000 C 
BRANCH   2   3
ATOM      3  C   UNL     1      40.108  12.752  14.950  1.00  0.00     0.000 C 
BRANCH   3   4
ATOM      4  C   UNL     1      38.595  12.983  15.118  1.00  0.00    -0.000 C 
BRANCH   4   5
ATOM      5  C   UNL     1      38.048  12.694  16.529  1.00  0.00    -0.000 C 
BRANCH   5   6
ATOM      6  C   UNL     1      39.052  13.045  17.643  1.00  0.00    -0.000 C 
BRANCH   6   7
ATOM      7  C   UNL     1      38.483  14.068  18.646  1.00  0.00    -0.000 C 
BRANCH   7   8
ATOM      8  C   UNL     1      39.171  15.446  18.577  1.00  0.00    -0.000 C 
BRANCH   8   9
ATOM      9  C   UNL     1      40.422  15.474  17.678  1.00  0.00    -0.000 C 
BRANCH   9  10
ATOM     10  C   UNL     1      40.458  16.705  16.754  1.00  0.00    -0.000 C 
BRANCH  10  11
ATOM     11  C   UNL     1      39.847  16.418  15.373  1.00  0.00    -0.003 C 
ATOM     12  C   UNL     1      38.330  16.611  15.351  1.00  0.00     0.004 C 
ENDBRANCH  10  11
ENDBRANCH   9  10
ENDBRANCH   8   9
ENDBRANCH   7   8
ENDBRANCH   6   7
ENDBRANCH   5   6
ENDBRANCH   4   5
ENDBRANCH   3   4
ENDBRANCH   2   3
ENDBRANCH   1   2
BRANCH   1  13
ATOM     13  C   UNL     1      41.207  10.708  11.942  1.00  0.00     0.000 C 
BRANCH  13  14
ATOM     14  C   UNL     1      39.784  10.966  11.419  1.00  0.00     0.000 C 
BRANCH  14  15
ATOM     15  C   UNL     1      38.809   9.798  11.676  1.00  0.00     0.000 C 
BRANCH  15  16
ATOM     16  C   UNL     1      38.144   9.888  13.057  1.00  0.00     0.000 C 
BRANCH  16  17
ATOM     17  C   UNL     1      38.765   8.878  14.034  1.00  0.00     0.000 C 
BRANCH  17  18
ATOM     18  C   UNL     1      38.325   9.101  15.491  1.00  0.00     0.000 C 
BRANCH  18  19
ATOM     19  C   UNL     1      39.470   9.367  16.484  1.00  0.00     0.000 C 
BRANCH  19  20
ATOM     20  C   UNL     1      39.010   9.346  17.952  1.00  0.00     0.006 C 
BRANCH  20  21
ATOM     21  C   UNL     1      40.053   8.705  18.877  1.00  0.00     0.053 C 
BRANCH  21  22
ATOM     22  C   UNL     1      41.452   8.999  18.423  1.00  0.00     0.041 C 
ATOM     23  O   UNL     1      41.875  10.184  18.404  1.00  0.00    -0.550 OA
ATOM     24  O   UNL     1      42.273   7.967  17.987  1.00  0.00    -0.550 OA
ENDBRANCH  21  22
ENDBRANCH  20  21
ENDBRANCH  19  20
ENDBRANCH  18  19
ENDBRANCH  17  18
ENDBRANCH  16  17
ENDBRANCH  15  16
ENDBRANCH  14  15
ENDBRANCH  13  14
ENDBRANCH   1  13
TORSDOF 20
ENDMDL
MODEL 7
REMARK VINA RESULT:    -2.804      2.811      5.814
REMARK INTER + INTRA:          -9.671
REMARK INTER:                  -6.924
REMARK INTRA:                  -2.747
REMARK UNBOUND:                -3.589
REMARK SMILES CCCCCCCCCCCCCCCCCCCCCC(=O)[O-]
REMARK SMILES IDX 12 1 11 2 10 3 9 4 8 5 7 6 6 7 5 8 4 9 3 10 2 11 1 12 13 13
REMARK SMILES IDX 14 14 15 15 16 16 17 17 18 18 19 19 20 20 21 21 22 22 23 23
REMARK SMILES IDX 24 24
REMARK H PARENT
REMARK Flexibility Score: inf
ROOT
ATOM      1  C   UNL     1      41.697  11.600  13.136  1.00  0.00     0.000 C 
ENDROOT
BRANCH   1   2
ATOM      2  C   UNL     1      40.740  12.782  13.365  1.00  0.00     0.000 C 
BRANCH   2   3
ATOM      3  C   UNL     1      40.049  12.719  14.739  1.00  0.00     0.000 C 
BRANCH   3   4
ATOM      4  C   UNL     1      38.711  13.480  14.769  1.00  0.00    -0.000 C 
BRANCH   4   5
ATOM      5  C   UNL     1      38.123  13.703  16.175  1.00  0.00    -0.000 C 
BRANCH   5   6
ATOM      6  C   UNL     1      39.120  14.369  17.142  1.00  0.00    -0.000 C 
BRANCH   6   7
ATOM      7  C   UNL     1      38.569  15.674  17.747  1.00  0.00    -0.000 C 
BRANCH   7   8
ATOM      8  C   UNL     1      38.476  16.833  16.734  1.00  0.00    -0.000 C 
BRANCH   8   9
ATOM      9  C   UNL     1      38.857  18.206  17.322  1.00  0.00    -0.000 C 
BRANCH   9  10
ATOM     10  C   UNL     1      39.190  18.133  18.824  1.00  0.00    -0.000 C 
BRANCH  10  11
ATOM     11  C   UNL     1      40.637  18.560  19.121  1.00  0.00    -0.003 C 
ATOM     12  C   UNL     1      41.666  17.672  18.421  1.00  0.00     0.004 C 
ENDBRANCH  10  11
ENDBRANCH   9  10
ENDBRANCH   8   9
ENDBRANCH   7   8
ENDBRANCH   6   7
ENDBRANCH   5   6
ENDBRANCH   4   5
ENDBRANCH   3   4
ENDBRANCH   2   3
ENDBRANCH   1   2
BRANCH   1  13
ATOM     13  C   UNL     1      41.167  10.607  12.086  1.00  0.00     0.000 C 
BRANCH  13  14
ATOM     14  C   UNL     1      39.955  11.150  11.312  1.00  0.00     0.000 C 
BRANCH  14  15
ATOM     15  C   UNL     1      38.729  10.212  11.343  1.00  0.00     0.000 C 
BRANCH  15  16
ATOM     16  C   UNL     1      37.875  10.412  12.603  1.00  0.00     0.000 C 
BRANCH  16  17
ATOM     17  C   UNL     1      38.223   9.369  13.676  1.00  0.00     0.000 C 
BRANCH  17  18
ATOM     18  C   UNL     1      37.968   9.871  15.108  1.00  0.00     0.000 C 
BRANCH  18  19
ATOM     19  C   UNL     1      39.002   9.414  16.152  1.00  0.00     0.000 C 
BRANCH  19  20
ATOM     20  C   UNL     1      39.052  10.328  17.389  1.00  0.00     0.006 C 
BRANCH  20  21
ATOM     21  C   UNL     1      39.860   9.707  18.536  1.00  0.00     0.053 C 
BRANCH  21  22
ATOM     22  C   UNL     1      41.328   9.686  18.232  1.00  0.00     0.041 C 
ATOM     23  O   UNL     1      41.941  10.760  17.993  1.00  0.00    -0.550 OA
ATOM     24  O   UNL     1      42.011   8.477  18.176  1.00  0.00    -0.550 OA
ENDBRANCH  21  22
ENDBRANCH  20  21
ENDBRANCH  19  20
ENDBRANCH  18  19
ENDBRANCH  17  18
ENDBRANCH  16  17
ENDBRANCH  15  16
ENDBRANCH  14  15
ENDBRANCH  13  14
ENDBRANCH   1  13
TORSDOF 20
ENDMDL
MODEL 8
REMARK VINA RESULT:    -2.753      3.229      5.966
REMARK INTER + INTRA:          -9.560
REMARK INTER:                  -5.939
REMARK INTRA:                  -3.621
REMARK UNBOUND:                -3.589
REMARK SMILES CCCCCCCCCCCCCCCCCCCCCC(=O)[O-]
REMARK SMILES IDX 12 1 11 2 10 3 9 4 8 5 7 6 6 7 5 8 4 9 3 10 2 11 1 12 13 13
REMARK SMILES IDX 14 14 15 15 16 16 17 17 18 18 19 19 20 20 21 21 22 22 23 23
REMARK SMILES IDX 24 24
REMARK H PARENT
REMARK Flexibility Score: inf
ROOT
ATOM      1  C   UNL     1      41.727  12.399  13.945  1.00  0.00     0.000 C 
ENDROOT
BRANCH   1   2
ATOM      2  C   UNL     1      41.505  11.754  15.324  1.00  0.00     0.000 C 
BRANCH   2   3
ATOM      3  C   UNL     1      42.344  12.426  16.427  1.00  0.00     0.000 C 
BRANCH   3   4
ATOM      4  C   UNL     1      42.197  11.732  17.793  1.00  0.00    -0.000 C 
BRANCH   4   5
ATOM      5  C   UNL     1      41.097  10.655  17.858  1.00  0.00    -0.000 C 
BRANCH   5   6
ATOM      6  C   UNL     1      39.922  11.055  18.770  1.00  0.00    -0.000 C 
BRANCH   6   7
ATOM      7  C   UNL     1      39.938  12.555  19.125  1.00  0.00    -0.000 C 
BRANCH   7   8
ATOM      8  C   UNL     1      38.745  13.339  18.541  1.00  0.00    -0.000 C 
BRANCH   8   9
ATOM      9  C   UNL     1      39.008  14.850  18.392  1.00  0.00    -0.000 C 
BRANCH   9  10
ATOM     10  C   UNL     1      40.400  15.153  17.807  1.00  0.00    -0.000 C 
BRANCH  10  11
ATOM     11  C   UNL     1      40.520  16.601  17.304  1.00  0.00    -0.003 C 
ATOM     12  C   UNL     1      39.163  17.294  17.182  1.00  0.00     0.004 C 
ENDBRANCH  10  11
ENDBRANCH   9  10
ENDBRANCH   8   9
ENDBRANCH   7   8
ENDBRANCH   6   7
ENDBRANCH   5   6
ENDBRANCH   4   5
ENDBRANCH   3   4
ENDBRANCH   2   3
ENDBRANCH   1   2
BRANCH   1  13
ATOM     13  C   UNL     1      40.483  13.146  13.436  1.00  0.00     0.000 C 
BRANCH  13  14
ATOM     14  C   UNL     1      39.784  13.958  14.539  1.00  0.00     0.000 C 
BRANCH  14  15
ATOM     15  C   UNL     1      38.262  13.711  14.619  1.00  0.00     0.000 C 
BRANCH  15  16
ATOM     16  C   UNL     1      37.894  12.247  14.340  1.00  0.00     0.000 C 
BRANCH  16  17
ATOM     17  C   UNL     1      37.894  11.422  15.635  1.00  0.00     0.000 C 
BRANCH  17  18
ATOM     18  C   UNL     1      37.912   9.904  15.383  1.00  0.00     0.000 C 
BRANCH  18  19
ATOM     19  C   UNL     1      38.995   9.421  14.402  1.00  0.00     0.000 C 
BRANCH  19  20
ATOM     20  C   UNL     1      38.437   9.093  13.006  1.00  0.00     0.006 C 
BRANCH  20  21
ATOM     21  C   UNL     1      38.959  10.057  11.932  1.00  0.00     0.053 C 
BRANCH  21  22
ATOM     22  C   UNL     1      40.334   9.679  11.468  1.00  0.00     0.041 C 
ATOM     23  O   UNL     1      40.840   8.580  11.816  1.00  0.00    -0.550 OA
ATOM     24  O   UNL     1      41.069  10.557  10.682  1.00  0.00    -0.550 OA
ENDBRANCH  21  22
ENDBRANCH  20  21
ENDBRANCH  19  20
ENDBRANCH  18  19
ENDBRANCH  17  18
ENDBRANCH  16  17
ENDBRANCH  15  16
ENDBRANCH  14  15
ENDBRANCH  13  14
ENDBRANCH   1  13
TORSDOF 20
ENDMDL
MODEL 9
REMARK VINA RESULT:    -2.606      3.337      6.659
REMARK INTER + INTRA:          -9.242
REMARK INTER:                  -6.457
REMARK INTRA:                  -2.785
REMARK UNBOUND:                -3.589
REMARK SMILES CCCCCCCCCCCCCCCCCCCCCC(=O)[O-]
REMARK SMILES IDX 12 1 11 2 10 3 9 4 8 5 7 6 6 7 5 8 4 9 3 10 2 11 1 12 13 13
REMARK SMILES IDX 14 14 15 15 16 16 17 17 18 18 19 19 20 20 21 21 22 22 23 23
REMARK SMILES IDX 24 24
REMARK H PARENT
REMARK Flexibility Score: inf
ROOT
ATOM      1  C   UNL     1      40.840  13.217  13.859  1.00  0.00     0.000 C 
ENDROOT
BRANCH   1   2
ATOM      2  C   UNL     1      39.511  12.944  13.131  1.00  0.00     0.000 C 
BRANCH   2   3
ATOM      3  C   UNL     1      38.291  13.117  14.053  1.00  0.00     0.000 C 
BRANCH   3   4
ATOM      4  C   UNL     1      38.473  14.255  15.074  1.00  0.00    -0.000 C 
BRANCH   4   5
ATOM      5  C   UNL     1      38.119  13.885  16.527  1.00  0.00    -0.000 C 
BRANCH   5   6
ATOM      6  C   UNL     1      38.760  14.833  17.558  1.00  0.00    -0.000 C 
BRANCH   6   7
ATOM      7  C   UNL     1      39.633  15.917  16.897  1.00  0.00    -0.000 C 
BRANCH   7   8
ATOM      8  C   UNL     1      40.756  16.446  17.812  1.00  0.00    -0.000 C 
BRANCH   8   9
ATOM      9  C   UNL     1      40.664  17.958  18.099  1.00  0.00    -0.000 C 
BRANCH   9  10
ATOM     10  C   UNL     1      39.282  18.374  18.636  1.00  0.00    -0.000 C 
BRANCH  10  11
ATOM     11  C   UNL     1      38.291  18.698  17.506  1.00  0.00    -0.003 C 
ATOM     12  C   UNL     1      37.876  20.170  17.494  1.00  0.00     0.004 C 
ENDBRANCH  10  11
ENDBRANCH   9  10
ENDBRANCH   8   9
ENDBRANCH   7   8
ENDBRANCH   6   7
ENDBRANCH   5   6
ENDBRANCH   4   5
ENDBRANCH   3   4
ENDBRANCH   2   3
ENDBRANCH   1   2
BRANCH   1  13
ATOM     13  C   UNL     1      41.527  11.926  14.335  1.00  0.00     0.000 C 
BRANCH  13  14
ATOM     14  C   UNL     1      42.019  12.015  15.789  1.00  0.00     0.000 C 
BRANCH  14  15
ATOM     15  C   UNL     1      40.906  11.790  16.835  1.00  0.00     0.000 C 
BRANCH  15  16
ATOM     16  C   UNL     1      40.854  10.335  17.325  1.00  0.00     0.000 C 
BRANCH  16  17
ATOM     17  C   UNL     1      39.409   9.814  17.348  1.00  0.00     0.000 C 
BRANCH  17  18
ATOM     18  C   UNL     1      38.533  10.421  16.238  1.00  0.00     0.000 C 
BRANCH  18  19
ATOM     19  C   UNL     1      38.029   9.419  15.184  1.00  0.00     0.000 C 
BRANCH  19  20
ATOM     20  C   UNL     1      39.124   8.993  14.190  1.00  0.00     0.006 C 
BRANCH  20  21
ATOM     21  C   UNL     1      38.903   9.591  12.794  1.00  0.00     0.053 C 
BRANCH  21  22
ATOM     22  C   UNL     1      40.040   9.274  11.869  1.00  0.00     0.041 C 
ATOM     23  O   UNL     1      40.360   8.077  11.646  1.00  0.00    -0.550 OA
ATOM     24  O   UNL     1      40.768  10.302  11.283  1.00  0.00    -0.550 OA
ENDBRANCH  21  22
ENDBRANCH  20  21
ENDBRANCH  19  20
ENDBRANCH  18  19
ENDBRANCH  17  18
ENDBRANCH  16  17
ENDBRANCH  15  16
ENDBRANCH  14  15
ENDBRANCH  13  14
ENDBRANCH   1  13
TORSDOF 20
ENDMDL
