MODEL 1
REMARK VINA RESULT:    -3.260      0.000      0.000
REMARK INTER + INTRA:          -3.355
REMARK INTER:                  -3.355
REMARK INTRA:                   0.000
REMARK UNBOUND:                 0.000
REMARK SMILES Oc1ccc2[nH]ccc2c1
REMARK SMILES IDX 3 1 4 2 5 3 9 4 8 5 7 6 6 7 10 8 2 9 1 11
REMARK H PARENT 6 10 1 12
REMARK Flexibility Score: inf
ROOT
ATOM      1  C   UNL     1      31.014  20.943  26.879  1.00  0.00     0.048 A 
ATOM      2  C   UNL     1      32.262  21.442  27.293  1.00  0.00     0.030 A 
ATOM      3  C   UNL     1      32.273  22.521  28.174  1.00  0.00     0.046 A 
ATOM      4  C   UNL     1      31.113  23.088  28.631  1.00  0.00     0.003 A 
ATOM      5  C   UNL     1      31.462  24.120  29.474  1.00  0.00     0.028 A 
ATOM      6  C   UNL     1      32.854  24.125  29.484  1.00  0.00     0.083 A 
ATOM      7  N   UNL     1      33.344  23.146  28.689  1.00  0.00    -0.361 N 
ATOM      8  C   UNL     1      29.860  22.620  28.241  1.00  0.00     0.056 A 
ATOM      9  C   UNL     1      29.813  21.529  27.351  1.00  0.00     0.116 A 
ATOM     10  H   UNL     1      34.350  22.925  28.514  1.00  0.00     0.166 HD
ENDROOT
BRANCH   9  11
ATOM     11  O   UNL     1      28.577  21.034  26.941  1.00  0.00    -0.508 OA
ATOM     12  H   UNL     1      27.989  21.547  26.296  1.00  0.00     0.293 HD
ENDBRANCH   9  11
TORSDOF 1
ENDMDL
MODEL 2
REMARK VINA RESULT:    -3.154      2.615      4.086
REMARK INTER + INTRA:          -3.246
REMARK INTER:                  -3.246
REMARK INTRA:                   0.000
REMARK UNBOUND:                 0.000
REMARK SMILES Oc1ccc2[nH]ccc2c1
REMARK SMILES IDX 3 1 4 2 5 3 9 4 8 5 7 6 6 7 10 8 2 9 1 11
REMARK H PARENT 6 10 1 12
REMARK Flexibility Score: inf
ROOT
ATOM      1  C   UNL     1      31.713  24.118  29.666  1.00  0.00     0.048 A 
ATOM      2  C   UNL     1      30.441  23.680  29.253  1.00  0.00     0.030 A 
ATOM      3  C   UNL     1      30.380  22.663  28.302  1.00  0.00     0.046 A 
ATOM      4  C   UNL     1      31.513  22.100  27.777  1.00  0.00     0.003 A 
ATOM      5  C   UNL     1      31.114  21.138  26.875  1.00  0.00     0.028 A 
ATOM      6  C   UNL     1      29.723  21.169  26.901  1.00  0.00     0.083 A 
ATOM      7  N   UNL     1      29.280  22.102  27.775  1.00  0.00    -0.361 N 
ATOM      8  C   UNL     1      32.787  22.511  28.162  1.00  0.00     0.056 A 
ATOM      9  C   UNL     1      32.885  23.536  29.123  1.00  0.00     0.116 A 
ATOM     10  H   UNL     1      28.285  22.335  27.992  1.00  0.00     0.166 HD
ENDROOT
BRANCH   9  11
ATOM     11  O   UNL     1      34.143  23.971  29.532  1.00  0.00    -0.508 OA
ATOM     12  H   UNL     1      34.787  23.353  30.012  1.00  0.00     0.293 HD
ENDBRANCH   9  11
TORSDOF 1
ENDMDL
MODEL 3
REMARK VINA RESULT:    -3.125      1.069      2.106
REMARK INTER + INTRA:          -3.216
REMARK INTER:                  -3.216
REMARK INTRA:                   0.000
REMARK UNBOUND:                 0.000
REMARK SMILES Oc1ccc2[nH]ccc2c1
REMARK SMILES IDX 3 1 4 2 5 3 9 4 8 5 7 6 6 7 10 8 2 9 1 11
REMARK H PARENT 6 10 1 12
REMARK Flexibility Score: inf
ROOT
ATOM      1  C   UNL     1      29.695  22.676  28.342  1.00  0.00     0.048 A 
ATOM      2  C   UNL     1      30.699  23.552  28.794  1.00  0.00     0.030 A 
ATOM      3  C   UNL     1      31.981  23.401  28.269  1.00  0.00     0.046 A 
ATOM      4  C   UNL     1      32.270  22.433  27.343  1.00  0.00     0.003 A 
ATOM      5  C   UNL     1      33.607  22.547  27.033  1.00  0.00     0.028 A 
ATOM      6  C   UNL     1      34.071  23.605  27.808  1.00  0.00     0.083 A 
ATOM      7  N   UNL     1      33.074  24.124  28.561  1.00  0.00    -0.361 N 
ATOM      8  C   UNL     1      31.301  21.549  26.875  1.00  0.00     0.056 A 
ATOM      9  C   UNL     1      29.993  21.675  27.384  1.00  0.00     0.116 A 
ATOM     10  H   UNL     1      33.144  24.922  29.230  1.00  0.00     0.166 HD
ENDROOT
BRANCH   9  11
ATOM     11  O   UNL     1      28.999  20.807  26.937  1.00  0.00    -0.508 OA
ATOM     12  H   UNL     1      28.299  21.104  26.267  1.00  0.00     0.293 HD
ENDBRANCH   9  11
TORSDOF 1
ENDMDL
MODEL 4
REMARK VINA RESULT:    -2.486      1.720      2.151
REMARK INTER + INTRA:          -2.559
REMARK INTER:                  -2.559
REMARK INTRA:                   0.000
REMARK UNBOUND:                 0.000
REMARK SMILES Oc1ccc2[nH]ccc2c1
REMARK SMILES IDX 3 1 4 2 5 3 9 4 8 5 7 6 6 7 10 8 2 9 1 11
REMARK H PARENT 6 10 1 12
REMARK Flexibility Score: inf
ROOT
ATOM      1  C   UNL     1      30.309  21.859  27.461  1.00  0.00     0.048 A 
ATOM      2  C   UNL     1      31.563  21.366  27.056  1.00  0.00     0.030 A 
ATOM      3  C   UNL     1      32.668  22.202  27.196  1.00  0.00     0.046 A 
ATOM      4  C   UNL     1      32.553  23.467  27.710  1.00  0.00     0.003 A 
ATOM      5  C   UNL     1      33.812  24.026  27.715  1.00  0.00     0.028 A 
ATOM      6  C   UNL     1      34.647  23.045  27.189  1.00  0.00     0.083 A 
ATOM      7  N   UNL     1      33.944  21.933  26.875  1.00  0.00    -0.361 N 
ATOM      8  C   UNL     1      31.327  23.987  28.120  1.00  0.00     0.056 A 
ATOM      9  C   UNL     1      30.189  23.167  27.993  1.00  0.00     0.116 A 
ATOM     10  H   UNL     1      34.320  21.048  26.466  1.00  0.00     0.166 HD
ENDROOT
BRANCH   9  11
ATOM     11  O   UNL     1      28.947  23.654  28.394  1.00  0.00    -0.508 OA
ATOM     12  H   UNL     1      28.084  23.252  28.048  1.00  0.00     0.293 HD
ENDBRANCH   9  11
TORSDOF 1
ENDMDL
MODEL 5
REMARK VINA RESULT:    -2.315      2.878      3.782
REMARK INTER + INTRA:          -2.383
REMARK INTER:                  -2.383
REMARK INTRA:                   0.000
REMARK UNBOUND:                 0.000
REMARK SMILES Oc1ccc2[nH]ccc2c1
REMARK SMILES IDX 3 1 4 2 5 3 9 4 8 5 7 6 6 7 10 8 2 9 1 11
REMARK H PARENT 6 10 1 12
REMARK Flexibility Score: inf
ROOT
ATOM      1  C   UNL     1      34.294  22.980  27.531  1.00  0.00     0.048 A 
ATOM      2  C   UNL     1      33.146  22.495  26.878  1.00  0.00     0.030 A 
ATOM      3  C   UNL     1      31.913  22.692  27.496  1.00  0.00     0.046 A 
ATOM      4  C   UNL     1      31.807  23.334  28.701  1.00  0.00     0.003 A 
ATOM      5  C   UNL     1      30.471  23.364  29.035  1.00  0.00     0.028 A 
ATOM      6  C   UNL     1      29.819  22.721  27.987  1.00  0.00     0.083 A 
ATOM      7  N   UNL     1      30.705  22.313  27.049  1.00  0.00    -0.361 N 
ATOM      8  C   UNL     1      32.922  23.825  29.375  1.00  0.00     0.056 A 
ATOM      9  C   UNL     1      34.185  23.645  28.778  1.00  0.00     0.116 A 
ATOM     10  H   UNL     1      30.489  21.807  26.161  1.00  0.00     0.166 HD
ENDROOT
BRANCH   9  11
ATOM     11  O   UNL     1      35.322  24.124  29.424  1.00  0.00    -0.508 OA
ATOM     12  H   UNL     1      36.247  23.783  29.190  1.00  0.00     0.293 HD
ENDBRANCH   9  11
TORSDOF 1
ENDMDL
MODEL 6
REMARK VINA RESULT:    -2.198      2.287      3.047
REMARK INTER + INTRA:          -2.263
REMARK INTER:                  -2.263
REMARK INTRA:                   0.000
REMARK UNBOUND:                 0.000
REMARK SMILES Oc1ccc2[nH]ccc2c1
REMARK SMILES IDX 3 1 4 2 5 3 9 4 8 5 7 6 6 7 10 8 2 9 1 11
REMARK H PARENT 6 10 1 12
REMARK Flexibility Score: inf
ROOT
ATOM      1  C   UNL     1      31.323  22.850  27.886  1.00  0.00     0.048 A 
ATOM      2  C   UNL     1      32.425  22.465  27.102  1.00  0.00     0.030 A 
ATOM      3  C   UNL     1      33.686  22.922  27.480  1.00  0.00     0.046 A 
ATOM      4  C   UNL     1      33.861  23.723  28.577  1.00  0.00     0.003 A 
ATOM      5  C   UNL     1      35.207  23.998  28.676  1.00  0.00     0.028 A 
ATOM      6  C   UNL     1      35.794  23.332  27.604  1.00  0.00     0.083 A 
ATOM      7  N   UNL     1      34.859  22.676  26.877  1.00  0.00    -0.361 N 
ATOM      8  C   UNL     1      32.792  24.123  29.376  1.00  0.00     0.056 A 
ATOM      9  C   UNL     1      31.503  23.678  29.022  1.00  0.00     0.116 A 
ATOM     10  H   UNL     1      35.023  22.098  26.022  1.00  0.00     0.166 HD
ENDROOT
BRANCH   9  11
ATOM     11  O   UNL     1      30.412  24.059  29.799  1.00  0.00    -0.508 OA
ATOM     12  H   UNL     1      30.422  23.969  30.808  1.00  0.00     0.293 HD
ENDBRANCH   9  11
TORSDOF 1
ENDMDL
MODEL 7
REMARK VINA RESULT:    -1.897      2.148      2.998
REMARK INTER + INTRA:          -1.952
REMARK INTER:                  -1.952
REMARK INTRA:                   0.000
REMARK UNBOUND:                 0.000
REMARK SMILES Oc1ccc2[nH]ccc2c1
REMARK SMILES IDX 3 1 4 2 5 3 9 4 8 5 7 6 6 7 10 8 2 9 1 11
REMARK H PARENT 6 10 1 12
REMARK Flexibility Score: inf
ROOT
ATOM      1  C   UNL     1      30.217  22.896  29.085  1.00  0.00     0.048 A 
ATOM      2  C   UNL     1      30.953  22.469  27.964  1.00  0.00     0.030 A 
ATOM      3  C   UNL     1      32.286  22.865  27.871  1.00  0.00     0.046 A 
ATOM      4  C   UNL     1      32.874  23.645  28.831  1.00  0.00     0.003 A 
ATOM      5  C   UNL     1      34.179  23.857  28.447  1.00  0.00     0.028 A 
ATOM      6  C   UNL     1      34.319  23.176  27.241  1.00  0.00     0.083 A 
ATOM      7  N   UNL     1      33.159  22.571  26.894  1.00  0.00    -0.361 N 
ATOM      8  C   UNL     1      32.175  24.085  29.952  1.00  0.00     0.056 A 
ATOM      9  C   UNL     1      30.825  23.703  30.079  1.00  0.00     0.116 A 
ATOM     10  H   UNL     1      32.984  21.996  26.040  1.00  0.00     0.166 HD
ENDROOT
BRANCH   9  11
ATOM     11  O   UNL     1      30.096  24.125  31.188  1.00  0.00    -0.508 OA
ATOM     12  H   UNL     1      29.120  24.384  31.112  1.00  0.00     0.293 HD
ENDBRANCH   9  11
TORSDOF 1
ENDMDL
MODEL 8
REMARK VINA RESULT:    -0.978     20.229     21.098
REMARK INTER + INTRA:          -1.006
REMARK INTER:                  -1.006
REMARK INTRA:                   0.000
REMARK UNBOUND:                 0.000
REMARK SMILES Oc1ccc2[nH]ccc2c1
REMARK SMILES IDX 3 1 4 2 5 3 9 4 8 5 7 6 6 7 10 8 2 9 1 11
REMARK H PARENT 6 10 1 12
REMARK Flexibility Score: inf
ROOT
ATOM      1  C   UNL     1      21.233  22.078  46.949  1.00  0.00     0.048 A 
ATOM      2  C   UNL     1      19.860  22.330  47.124  1.00  0.00     0.030 A 
ATOM      3  C   UNL     1      19.194  23.033  46.123  1.00  0.00     0.046 A 
ATOM      4  C   UNL     1      19.842  23.472  44.999  1.00  0.00     0.003 A 
ATOM      5  C   UNL     1      18.915  24.125  44.217  1.00  0.00     0.028 A 
ATOM      6  C   UNL     1      17.720  24.045  44.927  1.00  0.00     0.083 A 
ATOM      7  N   UNL     1      17.897  23.376  46.090  1.00  0.00    -0.361 N 
ATOM      8  C   UNL     1      21.201  23.242  44.794  1.00  0.00     0.056 A 
ATOM      9  C   UNL     1      21.905  22.533  45.787  1.00  0.00     0.116 A 
ATOM     10  H   UNL     1      17.169  23.172  46.811  1.00  0.00     0.166 HD
ENDROOT
BRANCH   9  11
ATOM     11  O   UNL     1      23.264  22.284  45.615  1.00  0.00    -0.508 OA
ATOM     12  H   UNL     1      23.614  21.347  45.450  1.00  0.00     0.293 HD
ENDBRANCH   9  11
TORSDOF 1
ENDMDL
