MODEL 1
REMARK VINA RESULT:    -5.134      0.000      0.000
REMARK INTER + INTRA:          -6.517
REMARK INTER:                  -6.335
REMARK INTRA:                  -0.182
REMARK UNBOUND:                -0.182
REMARK SMILES CCCCC=CC(C)=O
REMARK SMILES IDX 4 1 3 2 2 3 1 4 5 5 6 6 7 7 9 8 8 9
REMARK H PARENT
REMARK Flexibility Score: inf
ROOT
ATOM      1  C   UNL     1      -1.736  27.525  29.339  1.00  0.00     0.027 C 
ENDROOT
BRANCH   1   2
ATOM      2  C   UNL     1      -1.839  27.206  27.842  1.00  0.00     0.004 C 
BRANCH   2   3
ATOM      3  C   UNL     1      -1.184  25.857  27.522  1.00  0.00    -0.003 C 
ATOM      4  C   UNL     1       0.220  25.771  28.115  1.00  0.00     0.004 C 
ENDBRANCH   2   3
ENDBRANCH   1   2
BRANCH   1   5
ATOM      5  C   UNL     1      -2.949  28.266  29.821  1.00  0.00    -0.023 C 
ATOM      6  C   UNL     1      -3.926  28.628  28.980  1.00  0.00     0.042 C 
BRANCH   6   7
ATOM      7  C   UNL     1      -5.142  29.347  29.410  1.00  0.00     0.152 C 
ATOM      8  O   UNL     1      -5.563  29.173  30.583  1.00  0.00    -0.295 OA
ATOM      9  C   UNL     1      -5.892  30.274  28.499  1.00  0.00     0.093 C 
ENDBRANCH   6   7
ENDBRANCH   1   5
TORSDOF 4
ENDMDL
MODEL 2
REMARK VINA RESULT:    -5.104      1.378      1.540
REMARK INTER + INTRA:          -6.479
REMARK INTER:                  -6.328
REMARK INTRA:                  -0.152
REMARK UNBOUND:                -0.182
REMARK SMILES CCCCC=CC(C)=O
REMARK SMILES IDX 4 1 3 2 2 3 1 4 5 5 6 6 7 7 9 8 8 9
REMARK H PARENT
REMARK Flexibility Score: inf
ROOT
ATOM      1  C   UNL     1      -2.987  27.415  29.073  1.00  0.00     0.027 C 
ENDROOT
BRANCH   1   2
ATOM      2  C   UNL     1      -2.037  27.472  27.871  1.00  0.00     0.004 C 
BRANCH   2   3
ATOM      3  C   UNL     1      -1.564  26.068  27.477  1.00  0.00    -0.003 C 
ATOM      4  C   UNL     1      -0.121  25.830  27.914  1.00  0.00     0.004 C 
ENDBRANCH   2   3
ENDBRANCH   1   2
BRANCH   1   5
ATOM      5  C   UNL     1      -3.926  28.586  29.080  1.00  0.00    -0.023 C 
ATOM      6  C   UNL     1      -4.010  29.420  28.036  1.00  0.00     0.042 C 
BRANCH   6   7
ATOM      7  C   UNL     1      -4.927  30.577  27.991  1.00  0.00     0.152 C 
ATOM      8  O   UNL     1      -6.124  30.412  28.345  1.00  0.00    -0.295 OA
ATOM      9  C   UNL     1      -4.484  31.937  27.541  1.00  0.00     0.093 C 
ENDBRANCH   6   7
ENDBRANCH   1   5
TORSDOF 4
ENDMDL
MODEL 3
REMARK VINA RESULT:    -5.035      1.370      1.582
REMARK INTER + INTRA:          -6.395
REMARK INTER:                  -6.115
REMARK INTRA:                  -0.280
REMARK UNBOUND:                -0.182
REMARK SMILES CCCCC=CC(C)=O
REMARK SMILES IDX 4 1 3 2 2 3 1 4 5 5 6 6 7 7 9 8 8 9
REMARK H PARENT
REMARK Flexibility Score: inf
ROOT
ATOM      1  C   UNL     1      -1.250  27.511  30.346  1.00  0.00     0.027 C 
ENDROOT
BRANCH   1   2
ATOM      2  C   UNL     1      -0.536  27.617  28.993  1.00  0.00     0.004 C 
BRANCH   2   3
ATOM      3  C   UNL     1      -0.239  26.227  28.418  1.00  0.00    -0.003 C 
ATOM      4  C   UNL     1      -1.290  25.821  27.388  1.00  0.00     0.004 C 
ENDBRANCH   2   3
ENDBRANCH   1   2
BRANCH   1   5
ATOM      5  C   UNL     1      -2.595  28.176  30.304  1.00  0.00    -0.023 C 
ATOM      6  C   UNL     1      -3.190  28.473  29.142  1.00  0.00     0.042 C 
BRANCH   6   7
ATOM      7  C   UNL     1      -4.518  29.115  29.051  1.00  0.00     0.152 C 
ATOM      8  O   UNL     1      -4.872  29.614  27.951  1.00  0.00    -0.295 OA
ATOM      9  C   UNL     1      -5.455  29.193  30.220  1.00  0.00     0.093 C 
ENDBRANCH   6   7
ENDBRANCH   1   5
TORSDOF 4
ENDMDL
MODEL 4
REMARK VINA RESULT:    -4.992      2.318      4.907
REMARK INTER + INTRA:          -6.342
REMARK INTER:                  -6.132
REMARK INTRA:                  -0.211
REMARK UNBOUND:                -0.182
REMARK SMILES CCCCC=CC(C)=O
REMARK SMILES IDX 4 1 3 2 2 3 1 4 5 5 6 6 7 7 9 8 8 9
REMARK H PARENT
REMARK Flexibility Score: inf
ROOT
ATOM      1  C   UNL     1      -3.380  29.417  28.272  1.00  0.00     0.027 C 
ENDROOT
BRANCH   1   2
ATOM      2  C   UNL     1      -4.679  29.278  29.076  1.00  0.00     0.004 C 
BRANCH   2   3
ATOM      3  C   UNL     1      -4.451  28.454  30.349  1.00  0.00    -0.003 C 
ATOM      4  C   UNL     1      -3.466  29.147  31.285  1.00  0.00     0.004 C 
ENDBRANCH   2   3
ENDBRANCH   1   2
BRANCH   1   5
ATOM      5  C   UNL     1      -2.869  28.077  27.830  1.00  0.00    -0.023 C 
ATOM      6  C   UNL     1      -1.658  27.637  28.194  1.00  0.00     0.042 C 
BRANCH   6   7
ATOM      7  C   UNL     1      -1.118  26.321  27.795  1.00  0.00     0.152 C 
ATOM      8  O   UNL     1      -1.856  25.539  27.140  1.00  0.00    -0.295 OA
ATOM      9  C   UNL     1       0.275  25.885  28.141  1.00  0.00     0.093 C 
ENDBRANCH   6   7
ENDBRANCH   1   5
TORSDOF 4
ENDMDL
MODEL 5
REMARK VINA RESULT:    -4.826      2.026      4.946
REMARK INTER + INTRA:          -6.136
REMARK INTER:                  -5.882
REMARK INTRA:                  -0.254
REMARK UNBOUND:                -0.182
REMARK SMILES CCCCC=CC(C)=O
REMARK SMILES IDX 4 1 3 2 2 3 1 4 5 5 6 6 7 7 9 8 8 9
REMARK H PARENT
REMARK Flexibility Score: inf
ROOT
ATOM      1  C   UNL     1      -4.900  27.894  29.749  1.00  0.00     0.027 C 
ENDROOT
BRANCH   1   2
ATOM      2  C   UNL     1      -5.118  29.363  30.131  1.00  0.00     0.004 C 
BRANCH   2   3
ATOM      3  C   UNL     1      -5.837  30.121  29.009  1.00  0.00    -0.003 C 
ATOM      4  C   UNL     1      -4.854  30.580  27.936  1.00  0.00     0.004 C 
ENDBRANCH   2   3
ENDBRANCH   1   2
BRANCH   1   5
ATOM      5  C   UNL     1      -3.441  27.540  29.764  1.00  0.00    -0.023 C 
ATOM      6  C   UNL     1      -2.726  27.477  28.634  1.00  0.00     0.042 C 
BRANCH   6   7
ATOM      7  C   UNL     1      -1.287  27.146  28.601  1.00  0.00     0.152 C 
ATOM      8  O   UNL     1      -0.495  27.828  29.302  1.00  0.00    -0.295 OA
ATOM      9  C   UNL     1      -0.738  26.029  27.763  1.00  0.00     0.093 C 
ENDBRANCH   6   7
ENDBRANCH   1   5
TORSDOF 4
ENDMDL
MODEL 6
REMARK VINA RESULT:    -4.777      2.193      5.138
REMARK INTER + INTRA:          -6.077
REMARK INTER:                  -5.917
REMARK INTRA:                  -0.160
REMARK UNBOUND:                -0.182
REMARK SMILES CCCCC=CC(C)=O
REMARK SMILES IDX 4 1 3 2 2 3 1 4 5 5 6 6 7 7 9 8 8 9
REMARK H PARENT
REMARK Flexibility Score: inf
ROOT
ATOM      1  C   UNL     1      -4.731  29.051  29.145  1.00  0.00     0.027 C 
ENDROOT
BRANCH   1   2
ATOM      2  C   UNL     1      -4.626  29.953  27.908  1.00  0.00     0.004 C 
BRANCH   2   3
ATOM      3  C   UNL     1      -5.473  31.219  28.079  1.00  0.00    -0.003 C 
ATOM      4  C   UNL     1      -4.779  32.433  27.468  1.00  0.00     0.004 C 
ENDBRANCH   2   3
ENDBRANCH   1   2
BRANCH   1   5
ATOM      5  C   UNL     1      -3.548  28.133  29.249  1.00  0.00    -0.023 C 
ATOM      6  C   UNL     1      -2.634  28.058  28.273  1.00  0.00     0.042 C 
BRANCH   6   7
ATOM      7  C   UNL     1      -1.448  27.180  28.336  1.00  0.00     0.152 C 
ATOM      8  O   UNL     1      -0.533  27.461  29.153  1.00  0.00    -0.295 OA
ATOM      9  C   UNL     1      -1.297  25.969  27.464  1.00  0.00     0.093 C 
ENDBRANCH   6   7
ENDBRANCH   1   5
TORSDOF 4
ENDMDL
MODEL 7
REMARK VINA RESULT:    -4.466      1.899      2.816
REMARK INTER + INTRA:          -5.693
REMARK INTER:                  -5.431
REMARK INTRA:                  -0.262
REMARK UNBOUND:                -0.182
REMARK SMILES CCCCC=CC(C)=O
REMARK SMILES IDX 4 1 3 2 2 3 1 4 5 5 6 6 7 7 9 8 8 9
REMARK H PARENT
REMARK Flexibility Score: inf
ROOT
ATOM      1  C   UNL     1      -4.028  28.026  29.813  1.00  0.00     0.027 C 
ENDROOT
BRANCH   1   2
ATOM      2  C   UNL     1      -2.916  28.515  30.750  1.00  0.00     0.004 C 
BRANCH   2   3
ATOM      3  C   UNL     1      -1.599  27.783  30.465  1.00  0.00    -0.003 C 
ATOM      4  C   UNL     1      -1.253  27.828  28.980  1.00  0.00     0.004 C 
ENDBRANCH   2   3
ENDBRANCH   1   2
BRANCH   1   5
ATOM      5  C   UNL     1      -4.785  29.180  29.222  1.00  0.00    -0.023 C 
ATOM      6  C   UNL     1      -4.160  30.152  28.545  1.00  0.00     0.042 C 
BRANCH   6   7
ATOM      7  C   UNL     1      -4.864  31.298  27.935  1.00  0.00     0.152 C 
ATOM      8  O   UNL     1      -6.117  31.248  27.825  1.00  0.00    -0.295 OA
ATOM      9  C   UNL     1      -4.140  32.517  27.444  1.00  0.00     0.093 C 
ENDBRANCH   6   7
ENDBRANCH   1   5
TORSDOF 4
ENDMDL
MODEL 8
REMARK VINA RESULT:    -4.371      2.903      4.190
REMARK INTER + INTRA:          -5.576
REMARK INTER:                  -5.374
REMARK INTRA:                  -0.202
REMARK UNBOUND:                -0.182
REMARK SMILES CCCCC=CC(C)=O
REMARK SMILES IDX 4 1 3 2 2 3 1 4 5 5 6 6 7 7 9 8 8 9
REMARK H PARENT
REMARK Flexibility Score: inf
ROOT
ATOM      1  C   UNL     1      -5.947  29.374  29.349  1.00  0.00     0.027 C 
ENDROOT
BRANCH   1   2
ATOM      2  C   UNL     1      -5.007  28.309  29.927  1.00  0.00     0.004 C 
BRANCH   2   3
ATOM      3  C   UNL     1      -3.814  28.957  30.638  1.00  0.00    -0.003 C 
ATOM      4  C   UNL     1      -2.557  28.103  30.497  1.00  0.00     0.004 C 
ENDBRANCH   2   3
ENDBRANCH   1   2
BRANCH   1   5
ATOM      5  C   UNL     1      -5.247  30.215  28.321  1.00  0.00    -0.023 C 
ATOM      6  C   UNL     1      -5.431  31.540  28.260  1.00  0.00     0.042 C 
BRANCH   6   7
ATOM      7  C   UNL     1      -4.755  32.409  27.276  1.00  0.00     0.152 C 
ATOM      8  O   UNL     1      -3.625  32.882  27.565  1.00  0.00    -0.295 OA
ATOM      9  C   UNL     1      -5.366  32.747  25.948  1.00  0.00     0.093 C 
ENDBRANCH   6   7
ENDBRANCH   1   5
TORSDOF 4
ENDMDL
MODEL 9
REMARK VINA RESULT:    -4.368      2.581      5.322
REMARK INTER + INTRA:          -5.572
REMARK INTER:                  -5.400
REMARK INTRA:                  -0.171
REMARK UNBOUND:                -0.182
REMARK SMILES CCCCC=CC(C)=O
REMARK SMILES IDX 4 1 3 2 2 3 1 4 5 5 6 6 7 7 9 8 8 9
REMARK H PARENT
REMARK Flexibility Score: inf
ROOT
ATOM      1  C   UNL     1      -5.841  31.127  28.262  1.00  0.00     0.027 C 
ENDROOT
BRANCH   1   2
ATOM      2  C   UNL     1      -4.744  31.938  27.560  1.00  0.00     0.004 C 
BRANCH   2   3
ATOM      3  C   UNL     1      -5.318  32.733  26.382  1.00  0.00    -0.003 C 
ATOM      4  C   UNL     1      -4.207  33.393  25.569  1.00  0.00     0.004 C 
ENDBRANCH   2   3
ENDBRANCH   1   2
BRANCH   1   5
ATOM      5  C   UNL     1      -5.285  29.871  28.867  1.00  0.00    -0.023 C 
ATOM      6  C   UNL     1      -4.132  29.340  28.439  1.00  0.00     0.042 C 
BRANCH   6   7
ATOM      7  C   UNL     1      -3.540  28.115  29.013  1.00  0.00     0.152 C 
ATOM      8  O   UNL     1      -2.308  27.910  28.857  1.00  0.00    -0.295 OA
ATOM      9  C   UNL     1      -4.353  27.108  29.771  1.00  0.00     0.093 C 
ENDBRANCH   6   7
ENDBRANCH   1   5
TORSDOF 4
ENDMDL
