MODEL 1
REMARK VINA RESULT:    -3.864      0.000      0.000
REMARK INTER + INTRA:          -4.453
REMARK INTER:                  -4.202
REMARK INTRA:                  -0.250
REMARK UNBOUND:                -0.250
REMARK SMILES O=C([O-])c1ccccc1O
REMARK SMILES IDX 4 1 9 2 5 3 8 4 6 5 7 6 2 7 1 8 3 9 10 10
REMARK H PARENT 10 11
REMARK Flexibility Score: inf
ROOT
ATOM      1  C   UNL     1      -9.364  -9.882  90.273  1.00  0.00     0.039 A 
ATOM      2  C   UNL     1      -8.197  -9.105  90.044  1.00  0.00     0.124 A 
ATOM      3  C   UNL     1      -9.944  -9.875  91.555  1.00  0.00     0.014 A 
ATOM      4  C   UNL     1      -7.686  -8.304  91.073  1.00  0.00     0.047 A 
ATOM      5  C   UNL     1      -9.409  -9.086  92.575  1.00  0.00     0.001 A 
ATOM      6  C   UNL     1      -8.288  -8.294  92.332  1.00  0.00     0.004 A 
ENDROOT
BRANCH   1   7
ATOM      7  C   UNL     1     -10.020 -10.676  89.210  1.00  0.00     0.075 C 
ATOM      8  O   UNL     1     -11.271 -10.669  89.075  1.00  0.00    -0.545 OA
ATOM      9  O   UNL     1      -9.258 -11.498  88.388  1.00  0.00    -0.545 OA
ENDBRANCH   1   7
BRANCH   2  10
ATOM     10  O   UNL     1      -7.503  -9.126  88.832  1.00  0.00    -0.507 OA
ATOM     11  H   UNL     1      -6.515  -8.928  88.751  1.00  0.00     0.293 HD
ENDBRANCH   2  10
TORSDOF 2
ENDMDL
MODEL 2
REMARK VINA RESULT:    -3.842      6.182      6.568
REMARK INTER + INTRA:          -4.429
REMARK INTER:                  -4.216
REMARK INTRA:                  -0.214
REMARK UNBOUND:                -0.250
REMARK SMILES O=C([O-])c1ccccc1O
REMARK SMILES IDX 4 1 9 2 5 3 8 4 6 5 7 6 2 7 1 8 3 9 10 10
REMARK H PARENT 10 11
REMARK Flexibility Score: inf
ROOT
ATOM      1  C   UNL     1     -13.869 -11.025  94.381  1.00  0.00     0.039 A 
ATOM      2  C   UNL     1     -12.813 -11.871  94.812  1.00  0.00     0.124 A 
ATOM      3  C   UNL     1     -14.313 -10.002  95.240  1.00  0.00     0.014 A 
ATOM      4  C   UNL     1     -12.195 -11.632  96.047  1.00  0.00     0.047 A 
ATOM      5  C   UNL     1     -13.700  -9.792  96.476  1.00  0.00     0.001 A 
ATOM      6  C   UNL     1     -12.636 -10.599  96.875  1.00  0.00     0.004 A 
ENDROOT
BRANCH   1   7
ATOM      7  C   UNL     1     -14.505 -11.150  93.051  1.00  0.00     0.075 C 
ATOM      8  O   UNL     1     -15.119 -12.199  92.723  1.00  0.00    -0.545 OA
ATOM      9  O   UNL     1     -14.371 -10.129  92.118  1.00  0.00    -0.545 OA
ENDBRANCH   1   7
BRANCH   2  10
ATOM     10  O   UNL     1     -12.373 -12.967  94.068  1.00  0.00    -0.507 OA
ATOM     11  H   UNL     1     -11.555 -12.948  93.475  1.00  0.00     0.293 HD
ENDBRANCH   2  10
TORSDOF 2
ENDMDL
MODEL 3
REMARK VINA RESULT:    -3.744      6.375      7.675
REMARK INTER + INTRA:          -4.323
REMARK INTER:                  -4.075
REMARK INTRA:                  -0.248
REMARK UNBOUND:                -0.250
REMARK SMILES O=C([O-])c1ccccc1O
REMARK SMILES IDX 4 1 9 2 5 3 8 4 6 5 7 6 2 7 1 8 3 9 10 10
REMARK H PARENT 10 11
REMARK Flexibility Score: inf
ROOT
ATOM      1  C   UNL     1     -14.009 -10.371  95.692  1.00  0.00     0.039 A 
ATOM      2  C   UNL     1     -13.152 -11.160  96.506  1.00  0.00     0.124 A 
ATOM      3  C   UNL     1     -14.974  -9.556  96.313  1.00  0.00     0.014 A 
ATOM      4  C   UNL     1     -13.241 -11.063  97.901  1.00  0.00     0.047 A 
ATOM      5  C   UNL     1     -15.062  -9.488  97.705  1.00  0.00     0.001 A 
ATOM      6  C   UNL     1     -14.191 -10.233  98.498  1.00  0.00     0.004 A 
ENDROOT
BRANCH   1   7
ATOM      7  C   UNL     1     -13.910 -10.343  94.216  1.00  0.00     0.075 C 
ATOM      8  O   UNL     1     -13.935  -9.254  93.586  1.00  0.00    -0.545 OA
ATOM      9  O   UNL     1     -13.858 -11.533  93.501  1.00  0.00    -0.545 OA
ENDBRANCH   1   7
BRANCH   2  10
ATOM     10  O   UNL     1     -12.232 -12.066  95.975  1.00  0.00    -0.507 OA
ATOM     11  H   UNL     1     -11.292 -11.812  95.702  1.00  0.00     0.293 HD
ENDBRANCH   2  10
TORSDOF 2
ENDMDL
MODEL 4
REMARK VINA RESULT:    -3.702      9.265     10.460
REMARK INTER + INTRA:          -4.277
REMARK INTER:                  -4.031
REMARK INTRA:                  -0.246
REMARK UNBOUND:                -0.250
REMARK SMILES O=C([O-])c1ccccc1O
REMARK SMILES IDX 4 1 9 2 5 3 8 4 6 5 7 6 2 7 1 8 3 9 10 10
REMARK H PARENT 10 11
REMARK Flexibility Score: inf
ROOT
ATOM      1  C   UNL     1     -14.175 -10.229  98.758  1.00  0.00     0.039 A 
ATOM      2  C   UNL     1     -15.218  -9.372  98.317  1.00  0.00     0.124 A 
ATOM      3  C   UNL     1     -13.368 -10.867  97.797  1.00  0.00     0.014 A 
ATOM      4  C   UNL     1     -15.381  -9.128  96.947  1.00  0.00     0.047 A 
ATOM      5  C   UNL     1     -13.558 -10.629  96.435  1.00  0.00     0.001 A 
ATOM      6  C   UNL     1     -14.557  -9.753  96.010  1.00  0.00     0.004 A 
ENDROOT
BRANCH   1   7
ATOM      7  C   UNL     1     -13.877 -10.459 100.189  1.00  0.00     0.075 C 
ATOM      8  O   UNL     1     -13.428 -11.565 100.588  1.00  0.00    -0.545 OA
ATOM      9  O   UNL     1     -14.157  -9.469 101.124  1.00  0.00    -0.545 OA
ENDBRANCH   1   7
BRANCH   2  10
ATOM     10  O   UNL     1     -16.124  -8.774  99.195  1.00  0.00    -0.507 OA
ATOM     11  H   UNL     1     -15.858  -8.101  99.901  1.00  0.00     0.293 HD
ENDBRANCH   2  10
TORSDOF 2
ENDMDL
MODEL 5
REMARK VINA RESULT:    -3.680      1.965      3.600
REMARK INTER + INTRA:          -4.253
REMARK INTER:                  -4.047
REMARK INTRA:                  -0.207
REMARK UNBOUND:                -0.250
REMARK SMILES O=C([O-])c1ccccc1O
REMARK SMILES IDX 4 1 9 2 5 3 8 4 6 5 7 6 2 7 1 8 3 9 10 10
REMARK H PARENT 10 11
REMARK Flexibility Score: inf
ROOT
ATOM      1  C   UNL     1      -8.959  -9.487  90.165  1.00  0.00     0.039 A 
ATOM      2  C   UNL     1      -8.311 -10.400  89.293  1.00  0.00     0.124 A 
ATOM      3  C   UNL     1     -10.361  -9.375  90.113  1.00  0.00     0.014 A 
ATOM      4  C   UNL     1      -9.077 -11.213  88.448  1.00  0.00     0.047 A 
ATOM      5  C   UNL     1     -11.108 -10.179  89.249  1.00  0.00     0.001 A 
ATOM      6  C   UNL     1     -10.468 -11.103  88.425  1.00  0.00     0.004 A 
ENDROOT
BRANCH   1   7
ATOM      7  C   UNL     1      -8.227  -8.666  91.155  1.00  0.00     0.075 C 
ATOM      8  O   UNL     1      -7.392  -7.799  90.788  1.00  0.00    -0.545 OA
ATOM      9  O   UNL     1      -8.406  -8.894  92.515  1.00  0.00    -0.545 OA
ENDBRANCH   1   7
BRANCH   2  10
ATOM     10  O   UNL     1      -6.921 -10.507  89.211  1.00  0.00    -0.507 OA
ATOM     11  H   UNL     1      -6.346 -10.892  89.947  1.00  0.00     0.293 HD
ENDBRANCH   2  10
TORSDOF 2
ENDMDL
MODEL 6
REMARK VINA RESULT:    -3.624      6.601      7.967
REMARK INTER + INTRA:          -4.192
REMARK INTER:                  -3.939
REMARK INTRA:                  -0.253
REMARK UNBOUND:                -0.250
REMARK SMILES O=C([O-])c1ccccc1O
REMARK SMILES IDX 4 1 9 2 5 3 8 4 6 5 7 6 2 7 1 8 3 9 10 10
REMARK H PARENT 10 11
REMARK Flexibility Score: inf
ROOT
ATOM      1  C   UNL     1     -13.346 -10.838  96.400  1.00  0.00     0.039 A 
ATOM      2  C   UNL     1     -14.334  -9.972  95.861  1.00  0.00     0.124 A 
ATOM      3  C   UNL     1     -13.273 -11.000  97.796  1.00  0.00     0.014 A 
ATOM      4  C   UNL     1     -15.251  -9.350  96.718  1.00  0.00     0.047 A 
ATOM      5  C   UNL     1     -14.182 -10.356  98.637  1.00  0.00     0.001 A 
ATOM      6  C   UNL     1     -15.176  -9.539  98.099  1.00  0.00     0.004 A 
ENDROOT
BRANCH   1   7
ATOM      7  C   UNL     1     -12.407 -11.607  95.554  1.00  0.00     0.075 C 
ATOM      8  O   UNL     1     -11.188 -11.696  95.854  1.00  0.00    -0.545 OA
ATOM      9  O   UNL     1     -12.852 -12.188  94.372  1.00  0.00    -0.545 OA
ENDBRANCH   1   7
BRANCH   2  10
ATOM     10  O   UNL     1     -14.418  -9.679  94.498  1.00  0.00    -0.507 OA
ATOM     11  H   UNL     1     -14.653  -8.765  94.136  1.00  0.00     0.293 HD
ENDBRANCH   2  10
TORSDOF 2
ENDMDL
MODEL 7
REMARK VINA RESULT:    -3.615      8.334      9.840
REMARK INTER + INTRA:          -4.182
REMARK INTER:                  -3.991
REMARK INTRA:                  -0.191
REMARK UNBOUND:                -0.250
REMARK SMILES O=C([O-])c1ccccc1O
REMARK SMILES IDX 4 1 9 2 5 3 8 4 6 5 7 6 2 7 1 8 3 9 10 10
REMARK H PARENT 10 11
REMARK Flexibility Score: inf
ROOT
ATOM      1  C   UNL     1     -14.524  -9.811  98.047  1.00  0.00     0.039 A 
ATOM      2  C   UNL     1     -15.053  -9.400  96.794  1.00  0.00     0.124 A 
ATOM      3  C   UNL     1     -13.508 -10.784  98.068  1.00  0.00     0.014 A 
ATOM      4  C   UNL     1     -14.512  -9.918  95.611  1.00  0.00     0.047 A 
ATOM      5  C   UNL     1     -12.995 -11.306  96.879  1.00  0.00     0.001 A 
ATOM      6  C   UNL     1     -13.489 -10.867  95.652  1.00  0.00     0.004 A 
ENDROOT
BRANCH   1   7
ATOM      7  C   UNL     1     -14.973  -9.237  99.334  1.00  0.00     0.075 C 
ATOM      8  O   UNL     1     -14.440  -9.584 100.420  1.00  0.00    -0.545 OA
ATOM      9  O   UNL     1     -16.045  -8.352  99.364  1.00  0.00    -0.545 OA
ENDBRANCH   1   7
BRANCH   2  10
ATOM     10  O   UNL     1     -16.125  -8.512  96.684  1.00  0.00    -0.507 OA
ATOM     11  H   UNL     1     -17.073  -8.802  96.487  1.00  0.00     0.293 HD
ENDBRANCH   2  10
TORSDOF 2
ENDMDL
MODEL 8
REMARK VINA RESULT:    -3.608      2.173      3.594
REMARK INTER + INTRA:          -4.174
REMARK INTER:                  -3.921
REMARK INTRA:                  -0.253
REMARK UNBOUND:                -0.250
REMARK SMILES O=C([O-])c1ccccc1O
REMARK SMILES IDX 4 1 9 2 5 3 8 4 6 5 7 6 2 7 1 8 3 9 10 10
REMARK H PARENT 10 11
REMARK Flexibility Score: inf
ROOT
ATOM      1  C   UNL     1      -9.943  -9.389  89.741  1.00  0.00     0.039 A 
ATOM      2  C   UNL     1     -10.299 -10.586  89.064  1.00  0.00     0.124 A 
ATOM      3  C   UNL     1      -8.580  -9.078  89.898  1.00  0.00     0.014 A 
ATOM      4  C   UNL     1      -9.296 -11.394  88.513  1.00  0.00     0.047 A 
ATOM      5  C   UNL     1      -7.592  -9.906  89.361  1.00  0.00     0.001 A 
ATOM      6  C   UNL     1      -7.950 -11.058  88.661  1.00  0.00     0.004 A 
ENDROOT
BRANCH   1   7
ATOM      7  C   UNL     1     -10.946  -8.435  90.263  1.00  0.00     0.075 C 
ATOM      8  O   UNL     1     -10.798  -7.891  91.388  1.00  0.00    -0.545 OA
ATOM      9  O   UNL     1     -12.105  -8.180  89.539  1.00  0.00    -0.545 OA
ENDBRANCH   1   7
BRANCH   2  10
ATOM     10  O   UNL     1     -11.621 -11.021  88.946  1.00  0.00    -0.507 OA
ATOM     11  H   UNL     1     -11.896 -11.992  88.994  1.00  0.00     0.293 HD
ENDBRANCH   2  10
TORSDOF 2
ENDMDL
MODEL 9
REMARK VINA RESULT:    -3.545      0.994      2.202
REMARK INTER + INTRA:          -4.107
REMARK INTER:                  -3.860
REMARK INTRA:                  -0.247
REMARK UNBOUND:                -0.250
REMARK SMILES O=C([O-])c1ccccc1O
REMARK SMILES IDX 4 1 9 2 5 3 8 4 6 5 7 6 2 7 1 8 3 9 10 10
REMARK H PARENT 10 11
REMARK Flexibility Score: inf
ROOT
ATOM      1  C   UNL     1      -9.379 -10.024  89.970  1.00  0.00     0.039 A 
ATOM      2  C   UNL     1     -10.131  -9.988  91.174  1.00  0.00     0.124 A 
ATOM      3  C   UNL     1      -8.192  -9.273  89.887  1.00  0.00     0.014 A 
ATOM      4  C   UNL     1      -9.648  -9.262  92.270  1.00  0.00     0.047 A 
ATOM      5  C   UNL     1      -7.735  -8.538  90.984  1.00  0.00     0.001 A 
ATOM      6  C   UNL     1      -8.457  -8.540  92.177  1.00  0.00     0.004 A 
ENDROOT
BRANCH   1   7
ATOM      7  C   UNL     1      -9.771 -10.846  88.804  1.00  0.00     0.075 C 
ATOM      8  O   UNL     1     -10.981 -10.980  88.483  1.00  0.00    -0.545 OA
ATOM      9  O   UNL     1      -8.804 -11.539  88.085  1.00  0.00    -0.545 OA
ENDBRANCH   1   7
BRANCH   2  10
ATOM     10  O   UNL     1     -11.366 -10.625  91.311  1.00  0.00    -0.507 OA
ATOM     11  H   UNL     1     -12.101 -10.294  91.921  1.00  0.00     0.293 HD
ENDBRANCH   2  10
TORSDOF 2
ENDMDL
