MODEL 1
REMARK VINA RESULT:    -6.099      0.000      0.000
REMARK INTER + INTRA:          -7.973
REMARK INTER:                  -7.526
REMARK INTRA:                  -0.447
REMARK UNBOUND:                -0.447
REMARK SMILES CC(C)=CCC[C@@H](C)c1ccc(C)cc1
REMARK SMILES IDX 6 1 7 2 8 3 9 4 13 5 12 6 11 7 14 8 10 9 15 10 5 11 4 12
REMARK SMILES IDX 2 13 1 14 3 15
REMARK H PARENT
REMARK Flexibility Score: inf
ROOT
ATOM      1  C   UNL     1      25.738 -10.829  25.009  1.00  0.00     0.012 C 
ENDROOT
BRANCH   1   2
ATOM      2  C   UNL     1      26.688 -10.095  24.035  1.00  0.00     0.016 C 
ATOM      3  C   UNL     1      25.958  -9.735  22.734  1.00  0.00     0.013 C 
BRANCH   2   4
ATOM      4  C   UNL     1      27.303  -8.855  24.660  1.00  0.00    -0.045 A 
ATOM      5  C   UNL     1      28.979  -5.290  26.431  1.00  0.00     0.044 C 
ATOM      6  C   UNL     1      28.416  -6.545  25.833  1.00  0.00    -0.051 A 
ATOM      7  C   UNL     1      28.951  -7.061  24.645  1.00  0.00     0.004 A 
ATOM      8  C   UNL     1      27.308  -7.173  26.420  1.00  0.00     0.004 A 
ATOM      9  C   UNL     1      28.404  -8.210  24.065  1.00  0.00     0.004 A 
ATOM     10  C   UNL     1      26.760  -8.321  25.841  1.00  0.00     0.004 A 
ENDBRANCH   2   4
ENDBRANCH   1   2
BRANCH   1  11
ATOM     11  C   UNL     1      25.545 -12.321  24.679  1.00  0.00     0.028 C 
BRANCH  11  12
ATOM     12  C   UNL     1      24.215 -12.592  24.018  1.00  0.00    -0.028 C 
ATOM     13  C   UNL     1      23.407 -13.633  24.321  1.00  0.00    -0.080 C 
ATOM     14  C   UNL     1      23.805 -14.696  25.314  1.00  0.00     0.039 C 
ATOM     15  C   UNL     1      22.091 -13.790  23.605  1.00  0.00     0.039 C 
ENDBRANCH  11  12
ENDBRANCH   1  11
TORSDOF 4
ENDMDL
MODEL 2
REMARK VINA RESULT:    -6.052      1.913      4.419
REMARK INTER + INTRA:          -7.913
REMARK INTER:                  -6.922
REMARK INTRA:                  -0.991
REMARK UNBOUND:                -0.447
REMARK SMILES CC(C)=CCC[C@@H](C)c1ccc(C)cc1
REMARK SMILES IDX 6 1 7 2 8 3 9 4 13 5 12 6 11 7 14 8 10 9 15 10 5 11 4 12
REMARK SMILES IDX 2 13 1 14 3 15
REMARK H PARENT
REMARK Flexibility Score: inf
ROOT
ATOM      1  C   UNL     1      27.464  -7.627  26.649  1.00  0.00     0.012 C 
ENDROOT
BRANCH   1   2
ATOM      2  C   UNL     1      28.241  -6.776  25.618  1.00  0.00     0.016 C 
ATOM      3  C   UNL     1      29.049  -5.678  26.320  1.00  0.00     0.013 C 
BRANCH   2   4
ATOM      4  C   UNL     1      29.145  -7.624  24.741  1.00  0.00    -0.045 A 
ATOM      5  C   UNL     1      31.779  -9.979  22.255  1.00  0.00     0.044 C 
ATOM      6  C   UNL     1      30.850  -9.187  23.128  1.00  0.00    -0.051 A 
ATOM      7  C   UNL     1      29.639  -8.704  22.614  1.00  0.00     0.004 A 
ATOM      8  C   UNL     1      31.218  -8.866  24.442  1.00  0.00     0.004 A 
ATOM      9  C   UNL     1      28.790  -7.934  23.414  1.00  0.00     0.004 A 
ATOM     10  C   UNL     1      30.370  -8.097  25.243  1.00  0.00     0.004 A 
ENDBRANCH   2   4
ENDBRANCH   1   2
BRANCH   1  11
ATOM     11  C   UNL     1      26.086  -8.099  26.150  1.00  0.00     0.028 C 
BRANCH  11  12
ATOM     12  C   UNL     1      25.992  -9.604  26.068  1.00  0.00    -0.028 C 
ATOM     13  C   UNL     1      25.881 -10.302  24.916  1.00  0.00    -0.080 C 
ATOM     14  C   UNL     1      25.753  -9.625  23.574  1.00  0.00     0.039 C 
ATOM     15  C   UNL     1      25.814 -11.807  24.959  1.00  0.00     0.039 C 
ENDBRANCH  11  12
ENDBRANCH   1  11
TORSDOF 4
ENDMDL
MODEL 3
REMARK VINA RESULT:    -6.037      3.492      6.458
REMARK INTER + INTRA:          -7.896
REMARK INTER:                  -6.968
REMARK INTRA:                  -0.928
REMARK UNBOUND:                -0.447
REMARK SMILES CC(C)=CCC[C@@H](C)c1ccc(C)cc1
REMARK SMILES IDX 6 1 7 2 8 3 9 4 13 5 12 6 11 7 14 8 10 9 15 10 5 11 4 12
REMARK SMILES IDX 2 13 1 14 3 15
REMARK H PARENT
REMARK Flexibility Score: inf
ROOT
ATOM      1  C   UNL     1      28.412  -6.077  26.917  1.00  0.00     0.012 C 
ENDROOT
BRANCH   1   2
ATOM      2  C   UNL     1      28.097  -7.429  27.600  1.00  0.00     0.016 C 
ATOM      3  C   UNL     1      28.524  -7.405  29.073  1.00  0.00     0.013 C 
BRANCH   2   4
ATOM      4  C   UNL     1      26.631  -7.805  27.476  1.00  0.00    -0.045 A 
ATOM      5  C   UNL     1      22.474  -8.939  27.178  1.00  0.00     0.044 C 
ATOM      6  C   UNL     1      23.909  -8.515  27.277  1.00  0.00    -0.051 A 
ATOM      7  C   UNL     1      24.717  -8.484  26.131  1.00  0.00     0.004 A 
ATOM      8  C   UNL     1      24.473  -8.215  28.525  1.00  0.00     0.004 A 
ATOM      9  C   UNL     1      26.064  -8.126  26.228  1.00  0.00     0.004 A 
ATOM     10  C   UNL     1      25.820  -7.856  28.623  1.00  0.00     0.004 A 
ENDBRANCH   2   4
ENDBRANCH   1   2
BRANCH   1  11
ATOM     11  C   UNL     1      28.984  -6.220  25.495  1.00  0.00     0.028 C 
BRANCH  11  12
ATOM     12  C   UNL     1      30.208  -7.104  25.458  1.00  0.00    -0.028 C 
ATOM     13  C   UNL     1      30.288  -8.274  24.786  1.00  0.00    -0.080 C 
ATOM     14  C   UNL     1      29.106  -8.866  24.059  1.00  0.00     0.039 C 
ATOM     15  C   UNL     1      31.572  -9.063  24.808  1.00  0.00     0.039 C 
ENDBRANCH  11  12
ENDBRANCH   1  11
TORSDOF 4
ENDMDL
MODEL 4
REMARK VINA RESULT:    -6.033      2.383      4.667
REMARK INTER + INTRA:          -7.890
REMARK INTER:                  -6.725
REMARK INTRA:                  -1.165
REMARK UNBOUND:                -0.447
REMARK SMILES CC(C)=CCC[C@@H](C)c1ccc(C)cc1
REMARK SMILES IDX 6 1 7 2 8 3 9 4 13 5 12 6 11 7 14 8 10 9 15 10 5 11 4 12
REMARK SMILES IDX 2 13 1 14 3 15
REMARK H PARENT
REMARK Flexibility Score: inf
ROOT
ATOM      1  C   UNL     1      27.714  -7.307  27.628  1.00  0.00     0.012 C 
ENDROOT
BRANCH   1   2
ATOM      2  C   UNL     1      27.961  -6.596  26.277  1.00  0.00     0.016 C 
ATOM      3  C   UNL     1      28.583  -5.211  26.499  1.00  0.00     0.013 C 
BRANCH   2   4
ATOM      4  C   UNL     1      28.826  -7.424  25.344  1.00  0.00    -0.045 A 
ATOM      5  C   UNL     1      31.335  -9.713  22.675  1.00  0.00     0.044 C 
ATOM      6  C   UNL     1      30.459  -8.944  23.618  1.00  0.00    -0.051 A 
ATOM      7  C   UNL     1      29.091  -8.797  23.349  1.00  0.00     0.004 A 
ATOM      8  C   UNL     1      31.012  -8.309  24.739  1.00  0.00     0.004 A 
ATOM      9  C   UNL     1      28.279  -8.049  24.207  1.00  0.00     0.004 A 
ATOM     10  C   UNL     1      30.202  -7.561  25.597  1.00  0.00     0.004 A 
ENDBRANCH   2   4
ENDBRANCH   1   2
BRANCH   1  11
ATOM     11  C   UNL     1      26.259  -7.769  27.827  1.00  0.00     0.028 C 
BRANCH  11  12
ATOM     12  C   UNL     1      25.979  -9.087  27.144  1.00  0.00    -0.028 C 
ATOM     13  C   UNL     1      25.262  -9.223  26.007  1.00  0.00    -0.080 C 
ATOM     14  C   UNL     1      24.583  -8.053  25.340  1.00  0.00     0.039 C 
ATOM     15  C   UNL     1      25.065 -10.592  25.407  1.00  0.00     0.039 C 
ENDBRANCH  11  12
ENDBRANCH   1  11
TORSDOF 4
ENDMDL
MODEL 5
REMARK VINA RESULT:    -6.000      1.319      6.384
REMARK INTER + INTRA:          -7.850
REMARK INTER:                  -6.840
REMARK INTRA:                  -1.010
REMARK UNBOUND:                -0.447
REMARK SMILES CC(C)=CCC[C@@H](C)c1ccc(C)cc1
REMARK SMILES IDX 6 1 7 2 8 3 9 4 13 5 12 6 11 7 14 8 10 9 15 10 5 11 4 12
REMARK SMILES IDX 2 13 1 14 3 15
REMARK H PARENT
REMARK Flexibility Score: inf
ROOT
ATOM      1  C   UNL     1      29.702  -8.877  23.795  1.00  0.00     0.012 C 
ENDROOT
BRANCH   1   2
ATOM      2  C   UNL     1      28.254  -8.492  23.414  1.00  0.00     0.016 C 
ATOM      3  C   UNL     1      28.170  -8.094  21.935  1.00  0.00     0.013 C 
BRANCH   2   4
ATOM      4  C   UNL     1      27.266  -9.603  23.724  1.00  0.00    -0.045 A 
ATOM      5  C   UNL     1      24.510 -12.793  24.664  1.00  0.00     0.044 C 
ATOM      6  C   UNL     1      25.443 -11.667  24.331  1.00  0.00    -0.051 A 
ATOM      7  C   UNL     1      25.951 -11.533  23.031  1.00  0.00     0.004 A 
ATOM      8  C   UNL     1      25.867 -10.781  25.331  1.00  0.00     0.004 A 
ATOM      9  C   UNL     1      26.850 -10.507  22.728  1.00  0.00     0.004 A 
ATOM     10  C   UNL     1      26.766  -9.755  25.029  1.00  0.00     0.004 A 
ENDBRANCH   2   4
ENDBRANCH   1   2
BRANCH   1  11
ATOM     11  C   UNL     1      30.184  -8.246  25.114  1.00  0.00     0.028 C 
BRANCH  11  12
ATOM     12  C   UNL     1      29.723  -6.816  25.265  1.00  0.00    -0.028 C 
ATOM     13  C   UNL     1      28.936  -6.367  26.268  1.00  0.00    -0.080 C 
ATOM     14  C   UNL     1      28.360  -7.290  27.313  1.00  0.00     0.039 C 
ATOM     15  C   UNL     1      28.555  -4.909  26.324  1.00  0.00     0.039 C 
ENDBRANCH  11  12
ENDBRANCH   1  11
TORSDOF 4
ENDMDL
MODEL 6
REMARK VINA RESULT:    -5.990     12.807     15.635
REMARK INTER + INTRA:          -7.837
REMARK INTER:                  -7.157
REMARK INTRA:                  -0.680
REMARK UNBOUND:                -0.447
REMARK SMILES CC(C)=CCC[C@@H](C)c1ccc(C)cc1
REMARK SMILES IDX 6 1 7 2 8 3 9 4 13 5 12 6 11 7 14 8 10 9 15 10 5 11 4 12
REMARK SMILES IDX 2 13 1 14 3 15
REMARK H PARENT
REMARK Flexibility Score: inf
ROOT
ATOM      1  C   UNL     1      32.407  -1.886  14.043  1.00  0.00     0.012 C 
ENDROOT
BRANCH   1   2
ATOM      2  C   UNL     1      31.619  -3.126  14.526  1.00  0.00     0.016 C 
ATOM      3  C   UNL     1      30.993  -2.868  15.902  1.00  0.00     0.013 C 
BRANCH   2   4
ATOM      4  C   UNL     1      30.556  -3.553  13.528  1.00  0.00    -0.045 A 
ATOM      5  C   UNL     1      27.559  -4.705  10.640  1.00  0.00     0.044 C 
ATOM      6  C   UNL     1      28.602  -4.334  11.652  1.00  0.00    -0.051 A 
ATOM      7  C   UNL     1      28.223  -3.934  12.941  1.00  0.00     0.004 A 
ATOM      8  C   UNL     1      29.958  -4.318  11.296  1.00  0.00     0.004 A 
ATOM      9  C   UNL     1      29.191  -3.552  13.874  1.00  0.00     0.004 A 
ATOM     10  C   UNL     1      30.927  -3.937  12.228  1.00  0.00     0.004 A 
ENDBRANCH   2   4
ENDBRANCH   1   2
BRANCH   1  11
ATOM     11  C   UNL     1      33.922  -2.127  13.914  1.00  0.00     0.028 C 
BRANCH  11  12
ATOM     12  C   UNL     1      34.733  -1.027  14.558  1.00  0.00    -0.028 C 
ATOM     13  C   UNL     1      35.127  -1.023  15.850  1.00  0.00    -0.080 C 
ATOM     14  C   UNL     1      34.714  -2.102  16.820  1.00  0.00     0.039 C 
ATOM     15  C   UNL     1      35.950   0.125  16.376  1.00  0.00     0.039 C 
ENDBRANCH  11  12
ENDBRANCH   1  11
TORSDOF 4
ENDMDL
MODEL 7
REMARK VINA RESULT:    -5.943      1.491      6.819
REMARK INTER + INTRA:          -7.779
REMARK INTER:                  -6.973
REMARK INTRA:                  -0.806
REMARK UNBOUND:                -0.447
REMARK SMILES CC(C)=CCC[C@@H](C)c1ccc(C)cc1
REMARK SMILES IDX 6 1 7 2 8 3 9 4 13 5 12 6 11 7 14 8 10 9 15 10 5 11 4 12
REMARK SMILES IDX 2 13 1 14 3 15
REMARK H PARENT
REMARK Flexibility Score: inf
ROOT
ATOM      1  C   UNL     1      27.215  -8.816  22.984  1.00  0.00     0.012 C 
ENDROOT
BRANCH   1   2
ATOM      2  C   UNL     1      26.978  -9.593  24.300  1.00  0.00     0.016 C 
ATOM      3  C   UNL     1      26.683  -8.627  25.455  1.00  0.00     0.013 C 
BRANCH   2   4
ATOM      4  C   UNL     1      25.865 -10.619  24.167  1.00  0.00    -0.045 A 
ATOM      5  C   UNL     1      22.662 -13.483  23.734  1.00  0.00     0.044 C 
ATOM      6  C   UNL     1      23.794 -12.512  23.889  1.00  0.00    -0.051 A 
ATOM      7  C   UNL     1      24.103 -11.983  25.150  1.00  0.00     0.004 A 
ATOM      8  C   UNL     1      24.508 -12.074  22.764  1.00  0.00     0.004 A 
ATOM      9  C   UNL     1      25.133 -11.048  25.290  1.00  0.00     0.004 A 
ATOM     10  C   UNL     1      25.538 -11.140  22.903  1.00  0.00     0.004 A 
ENDBRANCH   2   4
ENDBRANCH   1   2
BRANCH   1  11
ATOM     11  C   UNL     1      28.460  -7.910  23.016  1.00  0.00     0.028 C 
BRANCH  11  12
ATOM     12  C   UNL     1      29.714  -8.675  23.368  1.00  0.00    -0.028 C 
ATOM     13  C   UNL     1      30.497  -8.410  24.437  1.00  0.00    -0.080 C 
ATOM     14  C   UNL     1      30.235  -7.243  25.357  1.00  0.00     0.039 C 
ATOM     15  C   UNL     1      31.717  -9.256  24.697  1.00  0.00     0.039 C 
ENDBRANCH  11  12
ENDBRANCH   1  11
TORSDOF 4
ENDMDL
MODEL 8
REMARK VINA RESULT:    -5.897      1.160      2.040
REMARK INTER + INTRA:          -7.723
REMARK INTER:                  -7.053
REMARK INTRA:                  -0.670
REMARK UNBOUND:                -0.447
REMARK SMILES CC(C)=CCC[C@@H](C)c1ccc(C)cc1
REMARK SMILES IDX 6 1 7 2 8 3 9 4 13 5 12 6 11 7 14 8 10 9 15 10 5 11 4 12
REMARK SMILES IDX 2 13 1 14 3 15
REMARK H PARENT
REMARK Flexibility Score: inf
ROOT
ATOM      1  C   UNL     1      26.549  -9.355  22.830  1.00  0.00     0.012 C 
ENDROOT
BRANCH   1   2
ATOM      2  C   UNL     1      27.945  -8.733  23.070  1.00  0.00     0.016 C 
ATOM      3  C   UNL     1      28.325  -7.793  21.919  1.00  0.00     0.013 C 
BRANCH   2   4
ATOM      4  C   UNL     1      28.025  -8.005  24.401  1.00  0.00    -0.045 A 
ATOM      5  C   UNL     1      28.173  -5.908  28.174  1.00  0.00     0.044 C 
ATOM      6  C   UNL     1      28.142  -6.657  26.875  1.00  0.00    -0.051 A 
ATOM      7  C   UNL     1      29.030  -6.320  25.845  1.00  0.00     0.004 A 
ATOM      8  C   UNL     1      27.179  -7.653  26.656  1.00  0.00     0.004 A 
ATOM      9  C   UNL     1      28.977  -6.991  24.620  1.00  0.00     0.004 A 
ATOM     10  C   UNL     1      27.125  -8.325  25.432  1.00  0.00     0.004 A 
ENDBRANCH   2   4
ENDBRANCH   1   2
BRANCH   1  11
ATOM     11  C   UNL     1      26.591 -10.859  22.500  1.00  0.00     0.028 C 
BRANCH  11  12
ATOM     12  C   UNL     1      25.240 -11.515  22.655  1.00  0.00    -0.028 C 
ATOM     13  C   UNL     1      24.803 -12.110  23.787  1.00  0.00    -0.080 C 
ATOM     14  C   UNL     1      25.676 -12.254  25.008  1.00  0.00     0.039 C 
ATOM     15  C   UNL     1      23.423 -12.717  23.827  1.00  0.00     0.039 C 
ENDBRANCH  11  12
ENDBRANCH   1  11
TORSDOF 4
ENDMDL
MODEL 9
REMARK VINA RESULT:    -5.849     11.704     13.622
REMARK INTER + INTRA:          -7.663
REMARK INTER:                  -6.205
REMARK INTRA:                  -1.458
REMARK UNBOUND:                -0.447
REMARK SMILES CC(C)=CCC[C@@H](C)c1ccc(C)cc1
REMARK SMILES IDX 6 1 7 2 8 3 9 4 13 5 12 6 11 7 14 8 10 9 15 10 5 11 4 12
REMARK SMILES IDX 2 13 1 14 3 15
REMARK H PARENT
REMARK Flexibility Score: inf
ROOT
ATOM      1  C   UNL     1      31.605  -3.250  17.024  1.00  0.00     0.012 C 
ENDROOT
BRANCH   1   2
ATOM      2  C   UNL     1      31.594  -2.334  15.778  1.00  0.00     0.016 C 
ATOM      3  C   UNL     1      33.021  -2.081  15.278  1.00  0.00     0.013 C 
BRANCH   2   4
ATOM      4  C   UNL     1      30.730  -2.897  14.662  1.00  0.00    -0.045 A 
ATOM      5  C   UNL     1      28.285  -4.425  11.446  1.00  0.00     0.044 C 
ATOM      6  C   UNL     1      29.144  -3.924  12.569  1.00  0.00    -0.051 A 
ATOM      7  C   UNL     1      28.619  -3.813  13.864  1.00  0.00     0.004 A 
ATOM      8  C   UNL     1      30.456  -3.496  12.319  1.00  0.00     0.004 A 
ATOM      9  C   UNL     1      29.406  -3.310  14.904  1.00  0.00     0.004 A 
ATOM     10  C   UNL     1      31.244  -2.993  13.357  1.00  0.00     0.004 A 
ENDBRANCH   2   4
ENDBRANCH   1   2
BRANCH   1  11
ATOM     11  C   UNL     1      32.603  -4.419  16.924  1.00  0.00     0.028 C 
BRANCH  11  12
ATOM     12  C   UNL     1      32.024  -5.603  16.187  1.00  0.00    -0.028 C 
ATOM     13  C   UNL     1      32.562  -6.151  15.076  1.00  0.00    -0.080 C 
ATOM     14  C   UNL     1      33.777  -5.567  14.399  1.00  0.00     0.039 C 
ATOM     15  C   UNL     1      31.902  -7.346  14.437  1.00  0.00     0.039 C 
ENDBRANCH  11  12
ENDBRANCH   1  11
TORSDOF 4
ENDMDL
