MODEL 1
REMARK VINA RESULT:    24.690      0.000      0.000
REMARK INTER + INTRA:          37.545
REMARK INTER:                  36.237
REMARK INTRA:                   1.308
REMARK UNBOUND:                 1.308
REMARK SMILES Cc1cc2c(C(C)C)c(O)c(O)c(C=O)c2c(O)c1-c1c(C)cc2c(C(C)C)c(O)c(O)c(C=O)c2c1O
REMARK SMILES IDX 1 1 2 2 3 3 4 4 16 5 13 6 11 7 9 8 5 9 17 10 19 11 20 12
REMARK SMILES IDX 37 13 21 14 36 15 23 16 22 17 24 18 33 19 25 20 31 21 29 22
REMARK SMILES IDX 38 23 34 25 35 26 26 27 27 28 28 29 32 30 30 32 18 34 6 36
REMARK SMILES IDX 7 37 8 38 14 39 15 40 10 41 12 43
REMARK H PARENT 38 24 32 31 30 33 18 35 10 42 12 44
REMARK Flexibility Score: inf
ROOT
ATOM      1  C   UNL     1      10.906  14.664  30.991  1.00  0.00     0.045 C 
ATOM      2  C   UNL     1      10.391  14.633  29.572  1.00  0.00    -0.039 A 
ATOM      3  C   UNL     1      11.226  14.183  28.550  1.00  0.00     0.013 A 
ATOM      4  C   UNL     1      10.804  14.138  27.203  1.00  0.00    -0.006 A 
ATOM      5  C   UNL     1       9.444  14.454  26.898  1.00  0.00     0.039 A 
ATOM      6  C   UNL     1       8.983  14.284  25.557  1.00  0.00     0.072 A 
ATOM      7  C   UNL     1       9.844  13.744  24.580  1.00  0.00     0.169 A 
ATOM      8  C   UNL     1      11.173  13.443  24.892  1.00  0.00     0.162 A 
ATOM      9  C   UNL     1      11.703  13.744  26.165  1.00  0.00     0.008 A 
ATOM     10  C   UNL     1       8.583  14.889  27.953  1.00  0.00     0.132 A 
ATOM     11  C   UNL     1       9.069  15.000  29.274  1.00  0.00     0.031 A 
ENDROOT
BRANCH  11  12
ATOM     12  C   UNL     1       8.173  15.467  30.365  1.00  0.00     0.031 A 
ATOM     13  C   UNL     1       8.449  16.670  31.047  1.00  0.00     0.132 A 
ATOM     14  C   UNL     1       7.050  14.701  30.717  1.00  0.00    -0.039 A 
ATOM     15  C   UNL     1       7.605  17.105  32.113  1.00  0.00     0.039 A 
ATOM     16  C   UNL     1       6.166  15.182  31.685  1.00  0.00     0.013 A 
ATOM     17  C   UNL     1       6.775  13.373  30.054  1.00  0.00     0.045 C 
ATOM     18  C   UNL     1       6.378  16.416  32.339  1.00  0.00    -0.006 A 
ATOM     19  C   UNL     1       7.931  18.220  32.939  1.00  0.00     0.072 A 
ATOM     20  C   UNL     1       5.407  16.956  33.234  1.00  0.00     0.008 A 
ATOM     21  C   UNL     1       7.022  18.665  33.916  1.00  0.00     0.169 A 
ATOM     22  C   UNL     1       5.782  18.017  34.086  1.00  0.00     0.162 A 
BRANCH  13  23
ATOM     23  O   UNL     1       9.536  17.454  30.644  1.00  0.00    -0.507 OA
ATOM     24  H   UNL     1       9.483  18.168  29.929  1.00  0.00     0.293 HD
ENDBRANCH  13  23
BRANCH  19  25
ATOM     25  C   UNL     1       9.267  18.862  32.901  1.00  0.00     0.264 C 
ATOM     26  O   UNL     1       9.702  19.515  33.887  1.00  0.00    -0.298 OA
ENDBRANCH  19  25
BRANCH  20  27
ATOM     27  C   UNL     1       3.973  16.397  33.295  1.00  0.00     0.017 C 
ATOM     28  C   UNL     1       3.591  16.012  34.727  1.00  0.00     0.012 C 
ATOM     29  C   UNL     1       2.919  17.327  32.663  1.00  0.00     0.012 C 
ENDBRANCH  20  27
BRANCH  21  30
ATOM     30  O   UNL     1       7.385  19.758  34.713  1.00  0.00    -0.504 OA
ATOM     31  H   UNL     1       8.304  20.176  34.734  1.00  0.00     0.293 HD
ENDBRANCH  21  30
BRANCH  22  32
ATOM     32  O   UNL     1       4.920  18.383  35.125  1.00  0.00    -0.504 OA
ATOM     33  H   UNL     1       4.589  19.320  35.297  1.00  0.00     0.293 HD
ENDBRANCH  22  32
ENDBRANCH  11  12
BRANCH  10  34
ATOM     34  O   UNL     1       7.242  15.195  27.695  1.00  0.00    -0.507 OA
ATOM     35  H   UNL     1       6.817  16.093  27.893  1.00  0.00     0.293 HD
ENDBRANCH  10  34
BRANCH   9  36
ATOM     36  C   UNL     1      13.219  13.623  26.406  1.00  0.00     0.017 C 
ATOM     37  C   UNL     1      13.826  12.524  25.527  1.00  0.00     0.012 C 
ATOM     38  C   UNL     1      13.985  14.951  26.248  1.00  0.00     0.012 C 
ENDBRANCH   9  36
BRANCH   6  39
ATOM     39  C   UNL     1       7.611  14.647  25.150  1.00  0.00     0.264 C 
ATOM     40  O   UNL     1       7.403  15.669  24.444  1.00  0.00    -0.298 OA
ENDBRANCH   6  39
BRANCH   8  41
ATOM     41  O   UNL     1      11.981  12.838  23.926  1.00  0.00    -0.504 OA
ATOM     42  H   UNL     1      12.974  12.684  24.053  1.00  0.00     0.293 HD
ENDBRANCH   8  41
BRANCH   7  43
ATOM     43  O   UNL     1       9.417  13.523  23.265  1.00  0.00    -0.504 OA
ATOM     44  H   UNL     1       8.469  13.282  23.008  1.00  0.00     0.293 HD
ENDBRANCH   7  43
TORSDOF 11
ENDMDL
MODEL 2
REMARK VINA RESULT:    26.060      0.351      9.434
REMARK INTER + INTRA:          39.555
REMARK INTER:                  39.197
REMARK INTRA:                   0.358
REMARK UNBOUND:                 1.308
REMARK SMILES Cc1cc2c(C(C)C)c(O)c(O)c(C=O)c2c(O)c1-c1c(C)cc2c(C(C)C)c(O)c(O)c(C=O)c2c1O
REMARK SMILES IDX 1 1 2 2 3 3 4 4 16 5 13 6 11 7 9 8 5 9 17 10 19 11 20 12
REMARK SMILES IDX 37 13 21 14 36 15 23 16 22 17 24 18 33 19 25 20 31 21 29 22
REMARK SMILES IDX 38 23 34 25 35 26 26 27 27 28 28 29 32 30 30 32 18 34 6 36
REMARK SMILES IDX 7 37 8 38 14 39 15 40 10 41 12 43
REMARK H PARENT 38 24 32 31 30 33 18 35 10 42 12 44
REMARK Flexibility Score: inf
ROOT
ATOM      1  C   UNL     1       6.848  13.315  29.852  1.00  0.00     0.045 C 
ATOM      2  C   UNL     1       7.169  14.631  30.520  1.00  0.00    -0.039 A 
ATOM      3  C   UNL     1       6.340  15.101  31.539  1.00  0.00     0.013 A 
ATOM      4  C   UNL     1       6.584  16.327  32.195  1.00  0.00    -0.006 A 
ATOM      5  C   UNL     1       7.778  17.049  31.884  1.00  0.00     0.039 A 
ATOM      6  C   UNL     1       8.089  18.220  32.639  1.00  0.00     0.072 A 
ATOM      7  C   UNL     1       7.264  18.604  33.716  1.00  0.00     0.169 A 
ATOM      8  C   UNL     1       6.098  17.890  34.006  1.00  0.00     0.162 A 
ATOM      9  C   UNL     1       5.679  16.822  33.185  1.00  0.00     0.008 A 
ATOM     10  C   UNL     1       8.638  16.550  30.858  1.00  0.00     0.132 A 
ATOM     11  C   UNL     1       8.314  15.361  30.167  1.00  0.00     0.031 A 
ENDROOT
BRANCH  11  12
ATOM     12  C   UNL     1       9.205  14.855  29.090  1.00  0.00     0.031 A 
ATOM     13  C   UNL     1       8.763  14.834  27.751  1.00  0.00     0.132 A 
ATOM     14  C   UNL     1      10.491  14.391  29.413  1.00  0.00    -0.039 A 
ATOM     15  C   UNL     1       9.608  14.322  26.720  1.00  0.00     0.039 A 
ATOM     16  C   UNL     1      11.355  13.992  28.391  1.00  0.00     0.013 A 
ATOM     17  C   UNL     1      10.959  14.332  30.846  1.00  0.00     0.045 C 
ATOM     18  C   UNL     1      10.965  14.024  27.033  1.00  0.00    -0.006 A 
ATOM     19  C   UNL     1       9.149  14.127  25.385  1.00  0.00     0.072 A 
ATOM     20  C   UNL     1      11.895  13.733  25.990  1.00  0.00     0.008 A 
ATOM     21  C   UNL     1      10.046  13.707  24.385  1.00  0.00     0.169 A 
ATOM     22  C   UNL     1      11.403  13.479  24.691  1.00  0.00     0.162 A 
BRANCH  13  23
ATOM     23  O   UNL     1       7.504  15.357  27.436  1.00  0.00    -0.507 OA
ATOM     24  H   UNL     1       7.228  16.313  27.619  1.00  0.00     0.293 HD
ENDBRANCH  13  23
BRANCH  19  25
ATOM     25  C   UNL     1       7.714  14.222  25.024  1.00  0.00     0.264 C 
ATOM     26  O   UNL     1       7.225  15.298  24.587  1.00  0.00    -0.298 OA
ENDBRANCH  19  25
BRANCH  20  27
ATOM     27  C   UNL     1      13.411  13.680  26.257  1.00  0.00     0.017 C 
ATOM     28  C   UNL     1      14.074  12.561  25.449  1.00  0.00     0.012 C 
ATOM     29  C   UNL     1      14.125  15.028  26.042  1.00  0.00     0.012 C 
ENDBRANCH  20  27
BRANCH  21  30
ATOM     30  O   UNL     1       9.554  13.518  23.087  1.00  0.00    -0.504 OA
ATOM     31  H   UNL     1      10.084  13.669  22.242  1.00  0.00     0.293 HD
ENDBRANCH  21  30
BRANCH  22  32
ATOM     32  O   UNL     1      12.275  12.958  23.731  1.00  0.00    -0.504 OA
ATOM     33  H   UNL     1      12.510  13.409  22.859  1.00  0.00     0.293 HD
ENDBRANCH  22  32
ENDBRANCH  11  12
BRANCH  10  34
ATOM     34  O   UNL     1       9.822  17.221  30.534  1.00  0.00    -0.507 OA
ATOM     35  H   UNL     1       9.856  18.102  30.035  1.00  0.00     0.293 HD
ENDBRANCH  10  34
BRANCH   9  36
ATOM     36  C   UNL     1       4.281  16.210  33.385  1.00  0.00     0.017 C 
ATOM     37  C   UNL     1       4.065  15.806  34.847  1.00  0.00     0.012 C 
ATOM     38  C   UNL     1       3.131  17.101  32.876  1.00  0.00     0.012 C 
ENDBRANCH   9  36
BRANCH   6  39
ATOM     39  C   UNL     1       9.270  19.054  32.337  1.00  0.00     0.264 C 
ATOM     40  O   UNL     1      10.085  19.362  33.246  1.00  0.00    -0.298 OA
ENDBRANCH   6  39
BRANCH   8  41
ATOM     41  O   UNL     1       5.340  18.247  35.125  1.00  0.00    -0.504 OA
ATOM     42  H   UNL     1       4.985  19.183  35.277  1.00  0.00     0.293 HD
ENDBRANCH   8  41
BRANCH   7  43
ATOM     43  O   UNL     1       7.559  19.722  34.506  1.00  0.00    -0.504 OA
ATOM     44  H   UNL     1       6.862  20.296  34.961  1.00  0.00     0.293 HD
ENDBRANCH   7  43
TORSDOF 11
ENDMDL
MODEL 3
REMARK VINA RESULT:    26.146      5.372     10.052
REMARK INTER + INTRA:          39.682
REMARK INTER:                  40.551
REMARK INTRA:                  -0.869
REMARK UNBOUND:                 1.308
REMARK SMILES Cc1cc2c(C(C)C)c(O)c(O)c(C=O)c2c(O)c1-c1c(C)cc2c(C(C)C)c(O)c(O)c(C=O)c2c1O
REMARK SMILES IDX 1 1 2 2 3 3 4 4 16 5 13 6 11 7 9 8 5 9 17 10 19 11 20 12
REMARK SMILES IDX 37 13 21 14 36 15 23 16 22 17 24 18 33 19 25 20 31 21 29 22
REMARK SMILES IDX 38 23 34 25 35 26 26 27 27 28 28 29 32 30 30 32 18 34 6 36
REMARK SMILES IDX 7 37 8 38 14 39 15 40 10 41 12 43
REMARK H PARENT 38 24 32 31 30 33 18 35 10 42 12 44
REMARK Flexibility Score: inf
ROOT
ATOM      1  C   UNL     1       8.768  15.372  20.396  1.00  0.00     0.045 C 
ATOM      2  C   UNL     1       9.036  13.977  19.883  1.00  0.00    -0.039 A 
ATOM      3  C   UNL     1       8.576  13.614  18.617  1.00  0.00     0.013 A 
ATOM      4  C   UNL     1       8.789  12.323  18.086  1.00  0.00    -0.006 A 
ATOM      5  C   UNL     1       9.599  11.402  18.820  1.00  0.00     0.039 A 
ATOM      6  C   UNL     1       9.922  10.145  18.225  1.00  0.00     0.072 A 
ATOM      7  C   UNL     1       9.503   9.861  16.908  1.00  0.00     0.169 A 
ATOM      8  C   UNL     1       8.709  10.770  16.204  1.00  0.00     0.162 A 
ATOM      9  C   UNL     1       8.244  11.952  16.818  1.00  0.00     0.008 A 
ATOM     10  C   UNL     1      10.091  11.788  20.105  1.00  0.00     0.132 A 
ATOM     11  C   UNL     1       9.785  13.060  20.636  1.00  0.00     0.031 A 
ENDROOT
BRANCH  11  12
ATOM     12  C   UNL     1      10.288  13.450  21.980  1.00  0.00     0.031 A 
ATOM     13  C   UNL     1       9.416  13.469  23.089  1.00  0.00     0.132 A 
ATOM     14  C   UNL     1      11.636  13.807  22.141  1.00  0.00    -0.039 A 
ATOM     15  C   UNL     1       9.891  13.870  24.373  1.00  0.00     0.039 A 
ATOM     16  C   UNL     1      12.124  14.095  23.417  1.00  0.00     0.013 A 
ATOM     17  C   UNL     1      12.570  13.869  20.957  1.00  0.00     0.045 C 
ATOM     18  C   UNL     1      11.292  14.055  24.558  1.00  0.00    -0.006 A 
ATOM     19  C   UNL     1       9.019  14.064  25.484  1.00  0.00     0.072 A 
ATOM     20  C   UNL     1      11.827  14.229  25.870  1.00  0.00     0.008 A 
ATOM     21  C   UNL     1       9.547  14.370  26.752  1.00  0.00     0.169 A 
ATOM     22  C   UNL     1      10.939  14.486  26.938  1.00  0.00     0.162 A 
BRANCH  13  23
ATOM     23  O   UNL     1       8.090  13.051  22.926  1.00  0.00    -0.507 OA
ATOM     24  H   UNL     1       7.531  12.647  23.666  1.00  0.00     0.293 HD
ENDBRANCH  13  23
BRANCH  19  25
ATOM     25  C   UNL     1       7.544  14.086  25.330  1.00  0.00     0.264 C 
ATOM     26  O   UNL     1       6.958  15.084  24.831  1.00  0.00    -0.298 OA
ENDBRANCH  19  25
BRANCH  20  27
ATOM     27  C   UNL     1      13.342  14.155  26.135  1.00  0.00     0.017 C 
ATOM     28  C   UNL     1      13.928  12.840  25.615  1.00  0.00     0.012 C 
ATOM     29  C   UNL     1      14.124  15.370  25.601  1.00  0.00     0.012 C 
ENDBRANCH  20  27
BRANCH  21  30
ATOM     30  O   UNL     1       8.655  14.562  27.814  1.00  0.00    -0.504 OA
ATOM     31  H   UNL     1       8.034  15.352  27.911  1.00  0.00     0.293 HD
ENDBRANCH  21  30
BRANCH  22  32
ATOM     32  O   UNL     1      11.465  14.896  28.166  1.00  0.00    -0.504 OA
ATOM     33  H   UNL     1      10.926  15.035  29.008  1.00  0.00     0.293 HD
ENDBRANCH  22  32
ENDBRANCH  11  12
BRANCH  10  34
ATOM     34  O   UNL     1      10.898  10.919  20.847  1.00  0.00    -0.507 OA
ATOM     35  H   UNL     1      10.539  10.219  21.486  1.00  0.00     0.293 HD
ENDBRANCH  10  34
BRANCH   9  36
ATOM     36  C   UNL     1       7.184  12.813  16.106  1.00  0.00     0.017 C 
ATOM     37  C   UNL     1       7.778  13.504  14.875  1.00  0.00     0.012 C 
ATOM     38  C   UNL     1       5.894  12.048  15.750  1.00  0.00     0.012 C 
ENDBRANCH   9  36
BRANCH   6  39
ATOM     39  C   UNL     1      10.700   9.116  18.943  1.00  0.00     0.264 C 
ATOM     40  O   UNL     1      11.856   8.801  18.556  1.00  0.00    -0.298 OA
ENDBRANCH   6  39
BRANCH   8  41
ATOM     41  O   UNL     1       8.374  10.497  14.875  1.00  0.00    -0.504 OA
ATOM     42  H   UNL     1       7.474  10.730  14.472  1.00  0.00     0.293 HD
ENDBRANCH   8  41
BRANCH   7  43
ATOM     43  O   UNL     1       9.835   8.657  16.275  1.00  0.00    -0.504 OA
ATOM     44  H   UNL     1      10.761   8.427  15.939  1.00  0.00     0.293 HD
ENDBRANCH   7  43
TORSDOF 11
ENDMDL
MODEL 4
REMARK VINA RESULT:    26.448      5.528     12.189
REMARK INTER + INTRA:          40.124
REMARK INTER:                  38.804
REMARK INTRA:                   1.321
REMARK UNBOUND:                 1.308
REMARK SMILES Cc1cc2c(C(C)C)c(O)c(O)c(C=O)c2c(O)c1-c1c(C)cc2c(C(C)C)c(O)c(O)c(C=O)c2c1O
REMARK SMILES IDX 1 1 2 2 3 3 4 4 16 5 13 6 11 7 9 8 5 9 17 10 19 11 20 12
REMARK SMILES IDX 37 13 21 14 36 15 23 16 22 17 24 18 33 19 25 20 31 21 29 22
REMARK SMILES IDX 38 23 34 25 35 26 26 27 27 28 28 29 32 30 30 32 18 34 6 36
REMARK SMILES IDX 7 37 8 38 14 39 15 40 10 41 12 43
REMARK H PARENT 38 24 32 31 30 33 18 35 10 42 12 44
REMARK Flexibility Score: inf
ROOT
ATOM      1  C   UNL     1      12.436  13.610  20.624  1.00  0.00     0.045 C 
ATOM      2  C   UNL     1      11.536  13.672  21.835  1.00  0.00    -0.039 A 
ATOM      3  C   UNL     1      12.068  14.060  23.065  1.00  0.00     0.013 A 
ATOM      4  C   UNL     1      11.279  14.129  24.233  1.00  0.00    -0.006 A 
ATOM      5  C   UNL     1       9.871  13.907  24.127  1.00  0.00     0.039 A 
ATOM      6  C   UNL     1       9.055  14.104  25.281  1.00  0.00     0.072 A 
ATOM      7  C   UNL     1       9.631  14.580  26.477  1.00  0.00     0.169 A 
ATOM      8  C   UNL     1      11.009  14.789  26.568  1.00  0.00     0.162 A 
ATOM      9  C   UNL     1      11.864  14.457  25.495  1.00  0.00     0.008 A 
ATOM     10  C   UNL     1       9.325  13.536  22.859  1.00  0.00     0.132 A 
ATOM     11  C   UNL     1      10.164  13.396  21.731  1.00  0.00     0.031 A 
ENDROOT
BRANCH  11  12
ATOM     12  C   UNL     1       9.592  12.996  20.418  1.00  0.00     0.031 A 
ATOM     13  C   UNL     1       9.942  11.759  19.837  1.00  0.00     0.132 A 
ATOM     14  C   UNL     1       8.704  13.858  19.755  1.00  0.00    -0.039 A 
ATOM     15  C   UNL     1       9.415  11.387  18.563  1.00  0.00     0.039 A 
ATOM     16  C   UNL     1       8.106  13.446  18.563  1.00  0.00     0.013 A 
ATOM     17  C   UNL     1       8.373  15.218  20.320  1.00  0.00     0.045 C 
ATOM     18  C   UNL     1       8.383  12.184  17.989  1.00  0.00    -0.006 A 
ATOM     19  C   UNL     1       9.864  10.230  17.861  1.00  0.00     0.072 A 
ATOM     20  C   UNL     1       7.675  11.723  16.839  1.00  0.00     0.008 A 
ATOM     21  C   UNL     1       9.248   9.855  16.652  1.00  0.00     0.169 A 
ATOM     22  C   UNL     1       8.183  10.614  16.127  1.00  0.00     0.162 A 
BRANCH  13  23
ATOM     23  O   UNL     1      10.779  10.884  20.537  1.00  0.00    -0.507 OA
ATOM     24  H   UNL     1      11.537  10.366  20.112  1.00  0.00     0.293 HD
ENDBRANCH  13  23
BRANCH  19  25
ATOM     25  C   UNL     1      11.059   9.465  18.289  1.00  0.00     0.264 C 
ATOM     26  O   UNL     1      10.967   8.537  19.136  1.00  0.00    -0.298 OA
ENDBRANCH  19  25
BRANCH  20  27
ATOM     27  C   UNL     1       6.385  12.414  16.360  1.00  0.00     0.017 C 
ATOM     28  C   UNL     1       6.556  12.982  14.948  1.00  0.00     0.012 C 
ATOM     29  C   UNL     1       5.132  11.523  16.460  1.00  0.00     0.012 C 
ENDBRANCH  20  27
BRANCH  21  30
ATOM     30  O   UNL     1       9.725   8.718  15.989  1.00  0.00    -0.504 OA
ATOM     31  H   UNL     1      10.402   8.072  16.367  1.00  0.00     0.293 HD
ENDBRANCH  21  30
BRANCH  22  32
ATOM     32  O   UNL     1       7.639  10.312  14.875  1.00  0.00    -0.504 OA
ATOM     33  H   UNL     1       7.155   9.457  14.647  1.00  0.00     0.293 HD
ENDBRANCH  22  32
ENDBRANCH  11  12
BRANCH  10  34
ATOM     34  O   UNL     1       7.950  13.323  22.712  1.00  0.00    -0.507 OA
ATOM     35  H   UNL     1       7.267  14.066  22.628  1.00  0.00     0.293 HD
ENDBRANCH  10  34
BRANCH   9  36
ATOM     36  C   UNL     1      13.389  14.474  25.704  1.00  0.00     0.017 C 
ATOM     37  C   UNL     1      13.737  14.564  27.193  1.00  0.00     0.012 C 
ATOM     38  C   UNL     1      14.125  13.301  25.028  1.00  0.00     0.012 C 
ENDBRANCH   9  36
BRANCH   6  39
ATOM     39  C   UNL     1       7.603  13.835  25.268  1.00  0.00     0.264 C 
ATOM     40  O   UNL     1       6.783  14.759  25.027  1.00  0.00    -0.298 OA
ENDBRANCH   6  39
BRANCH   8  41
ATOM     41  O   UNL     1      11.542  15.334  27.739  1.00  0.00    -0.504 OA
ATOM     42  H   UNL     1      11.312  14.989  28.664  1.00  0.00     0.293 HD
ENDBRANCH   8  41
BRANCH   7  43
ATOM     43  O   UNL     1       8.857  14.825  27.619  1.00  0.00    -0.504 OA
ATOM     44  H   UNL     1       7.869  14.622  27.690  1.00  0.00     0.293 HD
ENDBRANCH   7  43
TORSDOF 11
ENDMDL
