MODEL 1
REMARK VINA RESULT:    -6.418      0.000      0.000
REMARK INTER + INTRA:          -8.619
REMARK INTER:                  -8.106
REMARK INTRA:                  -0.513
REMARK UNBOUND:                -0.513
REMARK SMILES Oc1cc(O)cc(CCc2ccccc2O)c1
REMARK SMILES IDX 9 1 10 2 12 3 13 4 11 5 14 6 15 7 16 8 8 10 7 11 6 12 17 13
REMARK SMILES IDX 4 14 2 15 3 16 5 17 1 19
REMARK H PARENT 16 9 5 18 1 20
REMARK Flexibility Score: inf
ROOT
ATOM      1  C   UNL     1       5.758   4.308 -32.293  1.00  0.00     0.044 C 
ENDROOT
BRANCH   1   2
ATOM      2  C   UNL     1       4.634   4.617 -31.328  1.00  0.00    -0.006 A 
ATOM      3  C   UNL     1       3.690   6.156 -29.691  1.00  0.00     0.001 A 
ATOM      4  C   UNL     1       2.635   5.276 -29.460  1.00  0.00     0.004 A 
ATOM      5  C   UNL     1       4.684   5.829 -30.615  1.00  0.00     0.007 A 
ATOM      6  C   UNL     1       2.572   4.064 -30.149  1.00  0.00     0.046 A 
ATOM      7  C   UNL     1       3.563   3.718 -31.076  1.00  0.00     0.118 A 
BRANCH   7   8
ATOM      8  O   UNL     1       3.448   2.479 -31.713  1.00  0.00    -0.508 OA
ATOM      9  H   UNL     1       3.607   2.332 -32.698  1.00  0.00     0.293 HD
ENDBRANCH   7   8
ENDBRANCH   1   2
BRANCH   1  10
ATOM     10  C   UNL     1       7.122   4.760 -31.751  1.00  0.00     0.040 C 
BRANCH  10  11
ATOM     11  C   UNL     1       7.759   5.810 -32.625  1.00  0.00    -0.040 A 
ATOM     12  C   UNL     1       9.158   5.905 -32.710  1.00  0.00     0.050 A 
ATOM     13  C   UNL     1       6.962   6.734 -33.319  1.00  0.00     0.050 A 
ATOM     14  C   UNL     1       9.752   6.905 -33.486  1.00  0.00     0.119 A 
ATOM     15  C   UNL     1       7.553   7.736 -34.095  1.00  0.00     0.119 A 
ATOM     16  C   UNL     1       8.949   7.821 -34.179  1.00  0.00     0.092 A 
BRANCH  14  17
ATOM     17  O   UNL     1      11.141   6.983 -33.559  1.00  0.00    -0.508 OA
ATOM     18  H   UNL     1      11.617   7.166 -34.435  1.00  0.00     0.293 HD
ENDBRANCH  14  17
BRANCH  15  19
ATOM     19  O   UNL     1       6.745   8.646 -34.773  1.00  0.00    -0.508 OA
ATOM     20  H   UNL     1       7.004   9.621 -34.861  1.00  0.00     0.293 HD
ENDBRANCH  15  19
ENDBRANCH  10  11
ENDBRANCH   1  10
TORSDOF 6
ENDMDL
MODEL 2
REMARK VINA RESULT:    -6.409      0.028      2.039
REMARK INTER + INTRA:          -8.608
REMARK INTER:                  -8.100
REMARK INTRA:                  -0.508
REMARK UNBOUND:                -0.513
REMARK SMILES Oc1cc(O)cc(CCc2ccccc2O)c1
REMARK SMILES IDX 9 1 10 2 12 3 13 4 11 5 14 6 15 7 16 8 8 10 7 11 6 12 17 13
REMARK SMILES IDX 4 14 2 15 3 16 5 17 1 19
REMARK H PARENT 16 9 5 18 1 20
REMARK Flexibility Score: inf
ROOT
ATOM      1  C   UNL     1       5.748   4.340 -32.305  1.00  0.00     0.044 C 
ENDROOT
BRANCH   1   2
ATOM      2  C   UNL     1       4.628   4.636 -31.331  1.00  0.00    -0.006 A 
ATOM      3  C   UNL     1       3.690   6.154 -29.671  1.00  0.00     0.001 A 
ATOM      4  C   UNL     1       2.636   5.271 -29.447  1.00  0.00     0.004 A 
ATOM      5  C   UNL     1       4.681   5.839 -30.602  1.00  0.00     0.007 A 
ATOM      6  C   UNL     1       2.571   4.068 -30.151  1.00  0.00     0.046 A 
ATOM      7  C   UNL     1       3.558   3.734 -31.086  1.00  0.00     0.118 A 
BRANCH   7   8
ATOM      8  O   UNL     1       3.441   2.503 -31.738  1.00  0.00    -0.508 OA
ATOM      9  H   UNL     1       3.950   1.673 -31.475  1.00  0.00     0.293 HD
ENDBRANCH   7   8
ENDBRANCH   1   2
BRANCH   1  10
ATOM     10  C   UNL     1       7.118   4.755 -31.748  1.00  0.00     0.040 C 
BRANCH  10  11
ATOM     11  C   UNL     1       7.758   5.842 -32.573  1.00  0.00    -0.040 A 
ATOM     12  C   UNL     1       6.960   6.745 -33.294  1.00  0.00     0.050 A 
ATOM     13  C   UNL     1       9.157   5.928 -32.670  1.00  0.00     0.050 A 
ATOM     14  C   UNL     1       7.552   7.728 -34.095  1.00  0.00     0.119 A 
ATOM     15  C   UNL     1       9.751   6.909 -33.471  1.00  0.00     0.119 A 
ATOM     16  C   UNL     1       8.948   7.809 -34.182  1.00  0.00     0.092 A 
BRANCH  14  17
ATOM     17  O   UNL     1       6.744   8.615 -34.801  1.00  0.00    -0.508 OA
ATOM     18  H   UNL     1       5.737   8.502 -34.837  1.00  0.00     0.293 HD
ENDBRANCH  14  17
BRANCH  15  19
ATOM     19  O   UNL     1      11.140   6.975 -33.557  1.00  0.00    -0.508 OA
ATOM     20  H   UNL     1      11.655   7.771 -33.200  1.00  0.00     0.293 HD
ENDBRANCH  15  19
ENDBRANCH  10  11
ENDBRANCH   1  10
TORSDOF 6
ENDMDL
MODEL 3
REMARK VINA RESULT:    -6.268      1.886      2.140
REMARK INTER + INTRA:          -8.430
REMARK INTER:                  -7.984
REMARK INTRA:                  -0.446
REMARK UNBOUND:                -0.513
REMARK SMILES Oc1cc(O)cc(CCc2ccccc2O)c1
REMARK SMILES IDX 9 1 10 2 12 3 13 4 11 5 14 6 15 7 16 8 8 10 7 11 6 12 17 13
REMARK SMILES IDX 4 14 2 15 3 16 5 17 1 19
REMARK H PARENT 16 9 5 18 1 20
REMARK Flexibility Score: inf
ROOT
ATOM      1  C   UNL     1       5.980   4.503 -31.924  1.00  0.00     0.044 C 
ENDROOT
BRANCH   1   2
ATOM      2  C   UNL     1       4.731   4.724 -31.097  1.00  0.00    -0.006 A 
ATOM      3  C   UNL     1       3.516   6.160 -29.547  1.00  0.00     0.001 A 
ATOM      4  C   UNL     1       2.488   5.223 -29.473  1.00  0.00     0.004 A 
ATOM      5  C   UNL     1       4.631   5.912 -30.349  1.00  0.00     0.007 A 
ATOM      6  C   UNL     1       2.573   4.033 -30.198  1.00  0.00     0.046 A 
ATOM      7  C   UNL     1       3.686   3.767 -31.005  1.00  0.00     0.118 A 
BRANCH   7   8
ATOM      8  O   UNL     1       3.714   2.547 -31.685  1.00  0.00    -0.508 OA
ATOM      9  H   UNL     1       3.623   1.647 -31.237  1.00  0.00     0.293 HD
ENDBRANCH   7   8
ENDBRANCH   1   2
BRANCH   1  10
ATOM     10  C   UNL     1       6.467   5.799 -32.588  1.00  0.00     0.040 C 
BRANCH  10  11
ATOM     11  C   UNL     1       7.969   5.845 -32.706  1.00  0.00    -0.040 A 
ATOM     12  C   UNL     1       8.620   5.138 -33.729  1.00  0.00     0.050 A 
ATOM     13  C   UNL     1       8.732   6.553 -31.763  1.00  0.00     0.050 A 
ATOM     14  C   UNL     1      10.017   5.144 -33.814  1.00  0.00     0.119 A 
ATOM     15  C   UNL     1      10.128   6.559 -31.844  1.00  0.00     0.119 A 
ATOM     16  C   UNL     1      10.770   5.856 -32.871  1.00  0.00     0.092 A 
BRANCH  14  17
ATOM     17  O   UNL     1      10.645   4.437 -34.837  1.00  0.00    -0.508 OA
ATOM     18  H   UNL     1      11.421   4.831 -35.355  1.00  0.00     0.293 HD
ENDBRANCH  14  17
BRANCH  15  19
ATOM     19  O   UNL     1      10.868   7.264 -30.897  1.00  0.00    -0.508 OA
ATOM     20  H   UNL     1      10.780   8.268 -30.796  1.00  0.00     0.293 HD
ENDBRANCH  15  19
ENDBRANCH  10  11
ENDBRANCH   1  10
TORSDOF 6
ENDMDL
MODEL 4
REMARK VINA RESULT:    -6.258      1.888      2.100
REMARK INTER + INTRA:          -8.418
REMARK INTER:                  -7.967
REMARK INTRA:                  -0.451
REMARK UNBOUND:                -0.513
REMARK SMILES Oc1cc(O)cc(CCc2ccccc2O)c1
REMARK SMILES IDX 9 1 10 2 12 3 13 4 11 5 14 6 15 7 16 8 8 10 7 11 6 12 17 13
REMARK SMILES IDX 4 14 2 15 3 16 5 17 1 19
REMARK H PARENT 16 9 5 18 1 20
REMARK Flexibility Score: inf
ROOT
ATOM      1  C   UNL     1       6.087   4.370 -31.952  1.00  0.00     0.044 C 
ENDROOT
BRANCH   1   2
ATOM      2  C   UNL     1       4.845   4.627 -31.126  1.00  0.00    -0.006 A 
ATOM      3  C   UNL     1       3.682   6.084 -29.556  1.00  0.00     0.001 A 
ATOM      4  C   UNL     1       2.617   5.187 -29.500  1.00  0.00     0.004 A 
ATOM      5  C   UNL     1       4.789   5.806 -30.359  1.00  0.00     0.007 A 
ATOM      6  C   UNL     1       2.658   4.006 -30.244  1.00  0.00     0.046 A 
ATOM      7  C   UNL     1       3.763   3.710 -31.052  1.00  0.00     0.118 A 
BRANCH   7   8
ATOM      8  O   UNL     1       3.746   2.500 -31.751  1.00  0.00    -0.508 OA
ATOM      9  H   UNL     1       2.903   2.017 -32.026  1.00  0.00     0.293 HD
ENDBRANCH   7   8
ENDBRANCH   1   2
BRANCH   1  10
ATOM     10  C   UNL     1       6.553   5.629 -32.697  1.00  0.00     0.040 C 
BRANCH  10  11
ATOM     11  C   UNL     1       8.055   5.738 -32.742  1.00  0.00    -0.040 A 
ATOM     12  C   UNL     1       8.739   6.486 -31.770  1.00  0.00     0.050 A 
ATOM     13  C   UNL     1       8.779   5.136 -33.784  1.00  0.00     0.050 A 
ATOM     14  C   UNL     1      10.130   6.625 -31.834  1.00  0.00     0.119 A 
ATOM     15  C   UNL     1      10.169   5.274 -33.852  1.00  0.00     0.119 A 
ATOM     16  C   UNL     1      10.845   6.018 -32.875  1.00  0.00     0.092 A 
BRANCH  14  17
ATOM     17  O   UNL     1      10.790   7.370 -30.860  1.00  0.00    -0.508 OA
ATOM     18  H   UNL     1      11.631   7.894 -31.073  1.00  0.00     0.293 HD
ENDBRANCH  14  17
BRANCH  15  19
ATOM     19  O   UNL     1      10.869   4.673 -34.896  1.00  0.00    -0.508 OA
ATOM     20  H   UNL     1      11.103   3.687 -34.878  1.00  0.00     0.293 HD
ENDBRANCH  15  19
ENDBRANCH  10  11
ENDBRANCH   1  10
TORSDOF 6
ENDMDL
MODEL 5
REMARK VINA RESULT:    -6.141      1.531      6.524
REMARK INTER + INTRA:          -8.270
REMARK INTER:                  -7.762
REMARK INTRA:                  -0.508
REMARK UNBOUND:                -0.513
REMARK SMILES Oc1cc(O)cc(CCc2ccccc2O)c1
REMARK SMILES IDX 9 1 10 2 12 3 13 4 11 5 14 6 15 7 16 8 8 10 7 11 6 12 17 13
REMARK SMILES IDX 4 14 2 15 3 16 5 17 1 19
REMARK H PARENT 16 9 5 18 1 20
REMARK Flexibility Score: inf
ROOT
ATOM      1  C   UNL     1       7.039   5.725 -31.383  1.00  0.00     0.044 C 
ENDROOT
BRANCH   1   2
ATOM      2  C   UNL     1       7.733   6.426 -32.533  1.00  0.00    -0.006 A 
ATOM      3  C   UNL     1       7.608   7.230 -34.829  1.00  0.00     0.001 A 
ATOM      4  C   UNL     1       8.932   7.658 -34.760  1.00  0.00     0.004 A 
ATOM      5  C   UNL     1       7.013   6.615 -33.727  1.00  0.00     0.007 A 
ATOM      6  C   UNL     1       9.667   7.470 -33.588  1.00  0.00     0.046 A 
ATOM      7  C   UNL     1       9.086   6.851 -32.474  1.00  0.00     0.118 A 
BRANCH   7   8
ATOM      8  O   UNL     1       9.888   6.675 -31.343  1.00  0.00    -0.508 OA
ATOM      9  H   UNL     1      10.506   7.381 -30.971  1.00  0.00     0.293 HD
ENDBRANCH   7   8
ENDBRANCH   1   2
BRANCH   1  10
ATOM     10  C   UNL     1       5.853   6.539 -30.846  1.00  0.00     0.040 C 
BRANCH  10  11
ATOM     11  C   UNL     1       4.609   5.700 -30.704  1.00  0.00    -0.040 A 
ATOM     12  C   UNL     1       4.572   4.396 -31.225  1.00  0.00     0.050 A 
ATOM     13  C   UNL     1       3.460   6.233 -30.097  1.00  0.00     0.050 A 
ATOM     14  C   UNL     1       3.404   3.631 -31.132  1.00  0.00     0.119 A 
ATOM     15  C   UNL     1       2.291   5.471 -30.004  1.00  0.00     0.119 A 
ATOM     16  C   UNL     1       2.264   4.169 -30.521  1.00  0.00     0.092 A 
BRANCH  14  17
ATOM     17  O   UNL     1       3.388   2.340 -31.654  1.00  0.00    -0.508 OA
ATOM     18  H   UNL     1       3.753   2.137 -32.578  1.00  0.00     0.293 HD
ENDBRANCH  14  17
BRANCH  15  19
ATOM     19  O   UNL     1       1.160   6.019 -29.402  1.00  0.00    -0.508 OA
ATOM     20  H   UNL     1       0.269   5.538 -29.413  1.00  0.00     0.293 HD
ENDBRANCH  15  19
ENDBRANCH  10  11
ENDBRANCH   1  10
TORSDOF 6
ENDMDL
MODEL 6
REMARK VINA RESULT:    -6.092      1.519      6.701
REMARK INTER + INTRA:          -8.208
REMARK INTER:                  -7.704
REMARK INTRA:                  -0.504
REMARK UNBOUND:                -0.513
REMARK SMILES Oc1cc(O)cc(CCc2ccccc2O)c1
REMARK SMILES IDX 9 1 10 2 12 3 13 4 11 5 14 6 15 7 16 8 8 10 7 11 6 12 17 13
REMARK SMILES IDX 4 14 2 15 3 16 5 17 1 19
REMARK H PARENT 16 9 5 18 1 20
REMARK Flexibility Score: inf
ROOT
ATOM      1  C   UNL     1       7.111   5.733 -31.429  1.00  0.00     0.044 C 
ENDROOT
BRANCH   1   2
ATOM      2  C   UNL     1       7.815   6.458 -32.556  1.00  0.00    -0.006 A 
ATOM      3  C   UNL     1       7.698   7.352 -34.820  1.00  0.00     0.001 A 
ATOM      4  C   UNL     1       9.033   7.742 -34.744  1.00  0.00     0.004 A 
ATOM      5  C   UNL     1       7.093   6.711 -33.737  1.00  0.00     0.007 A 
ATOM      6  C   UNL     1       9.770   7.489 -33.585  1.00  0.00     0.046 A 
ATOM      7  C   UNL     1       9.180   6.845 -32.491  1.00  0.00     0.118 A 
BRANCH   7   8
ATOM      8  O   UNL     1       9.984   6.605 -31.373  1.00  0.00    -0.508 OA
ATOM      9  H   UNL     1       9.661   6.670 -30.419  1.00  0.00     0.293 HD
ENDBRANCH   7   8
ENDBRANCH   1   2
BRANCH   1  10
ATOM     10  C   UNL     1       5.928   6.542 -30.876  1.00  0.00     0.040 C 
BRANCH  10  11
ATOM     11  C   UNL     1       4.683   5.704 -30.741  1.00  0.00    -0.040 A 
ATOM     12  C   UNL     1       3.586   6.180 -30.004  1.00  0.00     0.050 A 
ATOM     13  C   UNL     1       4.627   4.420 -31.307  1.00  0.00     0.050 A 
ATOM     14  C   UNL     1       2.446   5.387 -29.841  1.00  0.00     0.119 A 
ATOM     15  C   UNL     1       3.489   3.624 -31.145  1.00  0.00     0.119 A 
ATOM     16  C   UNL     1       2.398   4.108 -30.413  1.00  0.00     0.092 A 
BRANCH  14  17
ATOM     17  O   UNL     1       1.368   5.877 -29.107  1.00  0.00    -0.508 OA
ATOM     18  H   UNL     1       0.673   5.257 -28.707  1.00  0.00     0.293 HD
ENDBRANCH  14  17
BRANCH  15  19
ATOM     19  O   UNL     1       3.455   2.351 -31.711  1.00  0.00    -0.508 OA
ATOM     20  H   UNL     1       4.179   2.033 -32.344  1.00  0.00     0.293 HD
ENDBRANCH  15  19
ENDBRANCH  10  11
ENDBRANCH   1  10
TORSDOF 6
ENDMDL
MODEL 7
REMARK VINA RESULT:    -5.865      2.416      6.370
REMARK INTER + INTRA:          -7.921
REMARK INTER:                  -7.288
REMARK INTRA:                  -0.633
REMARK UNBOUND:                -0.513
REMARK SMILES Oc1cc(O)cc(CCc2ccccc2O)c1
REMARK SMILES IDX 9 1 10 2 12 3 13 4 11 5 14 6 15 7 16 8 8 10 7 11 6 12 17 13
REMARK SMILES IDX 4 14 2 15 3 16 5 17 1 19
REMARK H PARENT 16 9 5 18 1 20
REMARK Flexibility Score: inf
ROOT
ATOM      1  C   UNL     1       6.079   3.729 -31.354  1.00  0.00     0.044 C 
ENDROOT
BRANCH   1   2
ATOM      2  C   UNL     1       6.818   4.831 -32.084  1.00  0.00    -0.006 A 
ATOM      3  C   UNL     1       8.280   5.457 -33.930  1.00  0.00     0.001 A 
ATOM      4  C   UNL     1       8.283   6.779 -33.490  1.00  0.00     0.004 A 
ATOM      5  C   UNL     1       7.557   4.488 -33.231  1.00  0.00     0.007 A 
ATOM      6  C   UNL     1       7.566   7.136 -32.348  1.00  0.00     0.046 A 
ATOM      7  C   UNL     1       6.838   6.177 -31.633  1.00  0.00     0.118 A 
BRANCH   7   8
ATOM      8  O   UNL     1       6.161   6.602 -30.486  1.00  0.00    -0.508 OA
ATOM      9  H   UNL     1       6.591   7.123 -29.736  1.00  0.00     0.293 HD
ENDBRANCH   7   8
ENDBRANCH   1   2
BRANCH   1  10
ATOM     10  C   UNL     1       4.804   3.302 -32.096  1.00  0.00     0.040 C 
BRANCH  10  11
ATOM     11  C   UNL     1       3.583   4.019 -31.581  1.00  0.00    -0.040 A 
ATOM     12  C   UNL     1       2.554   4.387 -32.464  1.00  0.00     0.050 A 
ATOM     13  C   UNL     1       3.487   4.373 -30.225  1.00  0.00     0.050 A 
ATOM     14  C   UNL     1       1.439   5.090 -31.996  1.00  0.00     0.119 A 
ATOM     15  C   UNL     1       2.374   5.077 -29.755  1.00  0.00     0.119 A 
ATOM     16  C   UNL     1       1.349   5.435 -30.641  1.00  0.00     0.092 A 
BRANCH  14  17
ATOM     17  O   UNL     1       0.429   5.445 -32.887  1.00  0.00    -0.508 OA
ATOM     18  H   UNL     1       0.085   4.795 -33.585  1.00  0.00     0.293 HD
ENDBRANCH  14  17
BRANCH  15  19
ATOM     19  O   UNL     1       2.299   5.422 -28.407  1.00  0.00    -0.508 OA
ATOM     20  H   UNL     1       2.795   4.896 -27.698  1.00  0.00     0.293 HD
ENDBRANCH  15  19
ENDBRANCH  10  11
ENDBRANCH   1  10
TORSDOF 6
ENDMDL
MODEL 8
REMARK VINA RESULT:    -5.819      2.401      6.213
REMARK INTER + INTRA:          -7.863
REMARK INTER:                  -7.240
REMARK INTRA:                  -0.623
REMARK UNBOUND:                -0.513
REMARK SMILES Oc1cc(O)cc(CCc2ccccc2O)c1
REMARK SMILES IDX 9 1 10 2 12 3 13 4 11 5 14 6 15 7 16 8 8 10 7 11 6 12 17 13
REMARK SMILES IDX 4 14 2 15 3 16 5 17 1 19
REMARK H PARENT 16 9 5 18 1 20
REMARK Flexibility Score: inf
ROOT
ATOM      1  C   UNL     1       6.053   3.705 -31.363  1.00  0.00     0.044 C 
ENDROOT
BRANCH   1   2
ATOM      2  C   UNL     1       6.822   4.773 -32.111  1.00  0.00    -0.006 A 
ATOM      3  C   UNL     1       8.286   5.328 -33.978  1.00  0.00     0.001 A 
ATOM      4  C   UNL     1       8.340   6.654 -33.553  1.00  0.00     0.004 A 
ATOM      5  C   UNL     1       7.537   4.393 -33.262  1.00  0.00     0.007 A 
ATOM      6  C   UNL     1       7.647   7.048 -32.407  1.00  0.00     0.046 A 
ATOM      7  C   UNL     1       6.894   6.123 -31.675  1.00  0.00     0.118 A 
BRANCH   7   8
ATOM      8  O   UNL     1       6.244   6.583 -30.526  1.00  0.00    -0.508 OA
ATOM      9  H   UNL     1       5.498   6.088 -30.061  1.00  0.00     0.293 HD
ENDBRANCH   7   8
ENDBRANCH   1   2
BRANCH   1  10
ATOM     10  C   UNL     1       4.757   3.315 -32.088  1.00  0.00     0.040 C 
BRANCH  10  11
ATOM     11  C   UNL     1       3.567   4.083 -31.573  1.00  0.00    -0.040 A 
ATOM     12  C   UNL     1       3.462   4.393 -30.207  1.00  0.00     0.050 A 
ATOM     13  C   UNL     1       2.527   4.449 -32.444  1.00  0.00     0.050 A 
ATOM     14  C   UNL     1       2.338   5.067 -29.719  1.00  0.00     0.119 A 
ATOM     15  C   UNL     1       1.402   5.122 -31.959  1.00  0.00     0.119 A 
ATOM     16  C   UNL     1       1.308   5.432 -30.596  1.00  0.00     0.092 A 
BRANCH  14  17
ATOM     17  O   UNL     1       2.253   5.366 -28.361  1.00  0.00    -0.508 OA
ATOM     18  H   UNL     1       3.060   5.297 -27.752  1.00  0.00     0.293 HD
ENDBRANCH  14  17
BRANCH  15  19
ATOM     19  O   UNL     1       0.380   5.473 -32.839  1.00  0.00    -0.508 OA
ATOM     20  H   UNL     1       0.092   6.437 -32.959  1.00  0.00     0.293 HD
ENDBRANCH  15  19
ENDBRANCH  10  11
ENDBRANCH   1  10
TORSDOF 6
ENDMDL
MODEL 9
REMARK VINA RESULT:    -5.633      2.098      6.805
REMARK INTER + INTRA:          -7.628
REMARK INTER:                  -7.222
REMARK INTRA:                  -0.406
REMARK UNBOUND:                -0.513
REMARK SMILES Oc1cc(O)cc(CCc2ccccc2O)c1
REMARK SMILES IDX 9 1 10 2 12 3 13 4 11 5 14 6 15 7 16 8 8 10 7 11 6 12 17 13
REMARK SMILES IDX 4 14 2 15 3 16 5 17 1 19
REMARK H PARENT 16 9 5 18 1 20
REMARK Flexibility Score: inf
ROOT
ATOM      1  C   UNL     1       8.386   5.945 -32.662  1.00  0.00     0.044 C 
ENDROOT
BRANCH   1   2
ATOM      2  C   UNL     1       9.852   5.682 -32.933  1.00  0.00    -0.006 A 
ATOM      3  C   UNL     1      11.522   4.535 -34.288  1.00  0.00     0.001 A 
ATOM      4  C   UNL     1      12.539   5.067 -33.499  1.00  0.00     0.004 A 
ATOM      5  C   UNL     1      10.188   4.836 -34.007  1.00  0.00     0.007 A 
ATOM      6  C   UNL     1      12.226   5.898 -32.423  1.00  0.00     0.046 A 
ATOM      7  C   UNL     1      10.894   6.208 -32.124  1.00  0.00     0.118 A 
BRANCH   7   8
ATOM      8  O   UNL     1      10.654   7.028 -31.018  1.00  0.00    -0.508 OA
ATOM      9  H   UNL     1      10.602   6.696 -30.067  1.00  0.00     0.293 HD
ENDBRANCH   7   8
ENDBRANCH   1   2
BRANCH   1  10
ATOM     10  C   UNL     1       7.521   4.704 -32.927  1.00  0.00     0.040 C 
BRANCH  10  11
ATOM     11  C   UNL     1       6.232   4.736 -32.146  1.00  0.00    -0.040 A 
ATOM     12  C   UNL     1       5.904   5.858 -31.368  1.00  0.00     0.050 A 
ATOM     13  C   UNL     1       5.375   3.623 -32.147  1.00  0.00     0.050 A 
ATOM     14  C   UNL     1       4.729   5.873 -30.609  1.00  0.00     0.119 A 
ATOM     15  C   UNL     1       4.201   3.634 -31.387  1.00  0.00     0.119 A 
ATOM     16  C   UNL     1       3.877   4.760 -30.619  1.00  0.00     0.092 A 
BRANCH  14  17
ATOM     17  O   UNL     1       4.420   6.996 -29.845  1.00  0.00    -0.508 OA
ATOM     18  H   UNL     1       4.897   7.879 -29.984  1.00  0.00     0.293 HD
ENDBRANCH  14  17
BRANCH  15  19
ATOM     19  O   UNL     1       3.365   2.519 -31.399  1.00  0.00    -0.508 OA
ATOM     20  H   UNL     1       3.716   1.592 -31.190  1.00  0.00     0.293 HD
ENDBRANCH  15  19
ENDBRANCH  10  11
ENDBRANCH   1  10
TORSDOF 6
ENDMDL
