MODEL 1
REMARK VINA RESULT:    -5.836      0.000      0.000
REMARK INTER + INTRA:         -10.247
REMARK INTER:                  -8.907
REMARK INTRA:                  -1.341
REMARK UNBOUND:                -1.341
REMARK SMILES CC(=O)CCC=C(C)CCC=C(C)CCC=C(C)C
REMARK SMILES IDX 10 1 11 2 12 3 13 4 14 5 15 6 16 7 18 8 17 9 19 10 9 11 7 12
REMARK SMILES IDX 6 13 8 14 5 15 4 16 2 17 3 18 1 19
REMARK H PARENT
REMARK Flexibility Score: inf
ROOT
ATOM      1  C   UNL     1      72.024  62.809  25.244  1.00  0.00     0.032 C 
ENDROOT
BRANCH   1   2
ATOM      2  C   UNL     1      71.201  62.638  26.499  1.00  0.00    -0.028 C 
ATOM      3  C   UNL     1      71.695  62.111  27.641  1.00  0.00    -0.077 C 
ATOM      4  C   UNL     1      73.132  61.658  27.741  1.00  0.00     0.039 C 
BRANCH   3   5
ATOM      5  C   UNL     1      70.789  61.983  28.847  1.00  0.00     0.034 C 
BRANCH   5   6
ATOM      6  C   UNL     1      70.083  60.620  28.863  1.00  0.00     0.032 C 
BRANCH   6   7
ATOM      7  C   UNL     1      68.698  60.729  28.277  1.00  0.00    -0.028 C 
ATOM      8  C   UNL     1      69.377  59.746  26.072  1.00  0.00     0.039 C 
ATOM      9  C   UNL     1      68.377  60.381  27.008  1.00  0.00    -0.080 C 
ATOM     10  C   UNL     1      66.955  60.537  26.533  1.00  0.00     0.039 C 
ENDBRANCH   6   7
ENDBRANCH   5   6
ENDBRANCH   3   5
ENDBRANCH   1   2
BRANCH   1  11
ATOM     11  C   UNL     1      71.342  62.143  24.042  1.00  0.00     0.034 C 
BRANCH  11  12
ATOM     12  C   UNL     1      71.652  62.888  22.762  1.00  0.00    -0.077 C 
ATOM     13  C   UNL     1      72.156  64.141  22.837  1.00  0.00    -0.028 C 
ATOM     14  C   UNL     1      71.385  62.214  21.435  1.00  0.00     0.039 C 
BRANCH  13  15
ATOM     15  C   UNL     1      72.565  64.969  21.645  1.00  0.00     0.035 C 
BRANCH  15  16
ATOM     16  C   UNL     1      73.963  65.559  21.846  1.00  0.00     0.079 C 
BRANCH  16  17
ATOM     17  C   UNL     1      74.958  64.869  20.952  1.00  0.00     0.130 C 
ATOM     18  O   UNL     1      76.153  65.089  21.097  1.00  0.00    -0.300 OA
ATOM     19  C   UNL     1      74.509  63.924  19.876  1.00  0.00     0.087 C 
ENDBRANCH  16  17
ENDBRANCH  15  16
ENDBRANCH  13  15
ENDBRANCH  11  12
ENDBRANCH   1  11
TORSDOF 9
ENDMDL
MODEL 2
REMARK VINA RESULT:    -5.721      2.959      8.462
REMARK INTER + INTRA:         -10.071
REMARK INTER:                  -9.159
REMARK INTRA:                  -0.912
REMARK UNBOUND:                -1.341
REMARK SMILES CC(=O)CCC=C(C)CCC=C(C)CCC=C(C)C
REMARK SMILES IDX 10 1 11 2 12 3 13 4 14 5 15 6 16 7 18 8 17 9 19 10 9 11 7 12
REMARK SMILES IDX 6 13 8 14 5 15 4 16 2 17 3 18 1 19
REMARK H PARENT
REMARK Flexibility Score: inf
ROOT
ATOM      1  C   UNL     1      71.313  62.494  23.438  1.00  0.00     0.032 C 
ENDROOT
BRANCH   1   2
ATOM      2  C   UNL     1      72.021  63.622  22.724  1.00  0.00    -0.028 C 
ATOM      3  C   UNL     1      72.215  63.643  21.386  1.00  0.00    -0.077 C 
ATOM      4  C   UNL     1      71.719  62.523  20.502  1.00  0.00     0.039 C 
BRANCH   3   5
ATOM      5  C   UNL     1      72.935  64.820  20.764  1.00  0.00     0.034 C 
BRANCH   5   6
ATOM      6  C   UNL     1      74.449  64.570  20.705  1.00  0.00     0.032 C 
BRANCH   6   7
ATOM      7  C   UNL     1      75.171  65.426  21.714  1.00  0.00    -0.028 C 
ATOM      8  C   UNL     1      77.413  65.082  20.642  1.00  0.00     0.039 C 
ATOM      9  C   UNL     1      76.511  65.628  21.723  1.00  0.00    -0.080 C 
ATOM     10  C   UNL     1      77.121  66.505  22.786  1.00  0.00     0.039 C 
ENDBRANCH   6   7
ENDBRANCH   5   6
ENDBRANCH   3   5
ENDBRANCH   1   2
BRANCH   1  11
ATOM     11  C   UNL     1      71.614  62.520  24.942  1.00  0.00     0.034 C 
BRANCH  11  12
ATOM     12  C   UNL     1      71.078  61.278  25.622  1.00  0.00    -0.077 C 
ATOM     13  C   UNL     1      71.032  61.237  26.974  1.00  0.00    -0.028 C 
ATOM     14  C   UNL     1      70.616  60.116  24.773  1.00  0.00     0.039 C 
BRANCH  13  15
ATOM     15  C   UNL     1      70.467  60.091  27.773  1.00  0.00     0.035 C 
BRANCH  15  16
ATOM     16  C   UNL     1      69.337  60.571  28.689  1.00  0.00     0.079 C 
BRANCH  16  17
ATOM     17  C   UNL     1      68.178  61.074  27.872  1.00  0.00     0.130 C 
ATOM     18  O   UNL     1      67.721  62.188  28.094  1.00  0.00    -0.300 OA
ATOM     19  C   UNL     1      67.563  60.229  26.796  1.00  0.00     0.087 C 
ENDBRANCH  16  17
ENDBRANCH  15  16
ENDBRANCH  13  15
ENDBRANCH  11  12
ENDBRANCH   1  11
TORSDOF 9
ENDMDL
MODEL 3
REMARK VINA RESULT:    -5.601      1.370      1.720
REMARK INTER + INTRA:          -9.889
REMARK INTER:                  -9.183
REMARK INTRA:                  -0.706
REMARK UNBOUND:                -1.341
REMARK SMILES CC(=O)CCC=C(C)CCC=C(C)CCC=C(C)C
REMARK SMILES IDX 10 1 11 2 12 3 13 4 14 5 15 6 16 7 18 8 17 9 19 10 9 11 7 12
REMARK SMILES IDX 6 13 8 14 5 15 4 16 2 17 3 18 1 19
REMARK H PARENT
REMARK Flexibility Score: inf
ROOT
ATOM      1  C   UNL     1      72.178  62.497  25.598  1.00  0.00     0.032 C 
ENDROOT
BRANCH   1   2
ATOM      2  C   UNL     1      71.235  62.637  26.770  1.00  0.00    -0.028 C 
ATOM      3  C   UNL     1      71.406  61.978  27.938  1.00  0.00    -0.077 C 
ATOM      4  C   UNL     1      72.578  61.050  28.154  1.00  0.00     0.039 C 
BRANCH   3   5
ATOM      5  C   UNL     1      70.406  62.186  29.055  1.00  0.00     0.034 C 
BRANCH   5   6
ATOM      6  C   UNL     1      69.554  60.927  29.272  1.00  0.00     0.032 C 
BRANCH   6   7
ATOM      7  C   UNL     1      68.293  60.987  28.448  1.00  0.00    -0.028 C 
ATOM      8  C   UNL     1      69.314  59.774  26.504  1.00  0.00     0.039 C 
ATOM      9  C   UNL     1      68.185  60.512  27.184  1.00  0.00    -0.080 C 
ATOM     10  C   UNL     1      66.870  60.630  26.457  1.00  0.00     0.039 C 
ENDBRANCH   6   7
ENDBRANCH   5   6
ENDBRANCH   3   5
ENDBRANCH   1   2
BRANCH   1  11
ATOM     11  C   UNL     1      71.720  63.361  24.416  1.00  0.00     0.034 C 
BRANCH  11  12
ATOM     12  C   UNL     1      71.582  62.529  23.159  1.00  0.00    -0.077 C 
ATOM     13  C   UNL     1      71.372  63.154  21.978  1.00  0.00    -0.028 C 
ATOM     14  C   UNL     1      71.676  61.023  23.260  1.00  0.00     0.039 C 
BRANCH  13  15
ATOM     15  C   UNL     1      71.277  62.452  20.647  1.00  0.00     0.035 C 
BRANCH  15  16
ATOM     16  C   UNL     1      72.643  62.413  19.955  1.00  0.00     0.079 C 
BRANCH  16  17
ATOM     17  C   UNL     1      73.246  63.790  19.905  1.00  0.00     0.130 C 
ATOM     18  O   UNL     1      72.512  64.770  19.880  1.00  0.00    -0.300 OA
ATOM     19  C   UNL     1      74.733  63.986  19.875  1.00  0.00     0.087 C 
ENDBRANCH  16  17
ENDBRANCH  15  16
ENDBRANCH  13  15
ENDBRANCH  11  12
ENDBRANCH   1  11
TORSDOF 9
ENDMDL
MODEL 4
REMARK VINA RESULT:    -5.289      2.614      7.147
REMARK INTER + INTRA:          -9.412
REMARK INTER:                  -8.384
REMARK INTRA:                  -1.028
REMARK UNBOUND:                -1.341
REMARK SMILES CC(=O)CCC=C(C)CCC=C(C)CCC=C(C)C
REMARK SMILES IDX 10 1 11 2 12 3 13 4 14 5 15 6 16 7 18 8 17 9 19 10 9 11 7 12
REMARK SMILES IDX 6 13 8 14 5 15 4 16 2 17 3 18 1 19
REMARK H PARENT
REMARK Flexibility Score: inf
ROOT
ATOM      1  C   UNL     1      73.187  62.051  27.893  1.00  0.00     0.032 C 
ENDROOT
BRANCH   1   2
ATOM      2  C   UNL     1      72.508  61.877  26.556  1.00  0.00    -0.028 C 
ATOM      3  C   UNL     1      71.631  62.774  26.050  1.00  0.00    -0.077 C 
ATOM      4  C   UNL     1      71.276  64.035  26.801  1.00  0.00     0.039 C 
BRANCH   3   5
ATOM      5  C   UNL     1      71.003  62.510  24.698  1.00  0.00     0.034 C 
BRANCH   5   6
ATOM      6  C   UNL     1      71.703  63.323  23.599  1.00  0.00     0.032 C 
BRANCH   6   7
ATOM      7  C   UNL     1      71.725  62.558  22.301  1.00  0.00    -0.028 C 
ATOM      8  C   UNL     1      72.633  64.494  20.989  1.00  0.00     0.039 C 
ATOM      9  C   UNL     1      72.099  63.086  21.111  1.00  0.00    -0.080 C 
ATOM     10  C   UNL     1      72.080  62.222  19.877  1.00  0.00     0.039 C 
ENDBRANCH   6   7
ENDBRANCH   5   6
ENDBRANCH   3   5
ENDBRANCH   1   2
BRANCH   1  11
ATOM     11  C   UNL     1      72.776  60.941  28.869  1.00  0.00     0.034 C 
BRANCH  11  12
ATOM     12  C   UNL     1      71.326  60.556  28.670  1.00  0.00    -0.077 C 
ATOM     13  C   UNL     1      70.358  61.366  29.158  1.00  0.00    -0.028 C 
ATOM     14  C   UNL     1      70.999  59.274  27.938  1.00  0.00     0.039 C 
BRANCH  13  15
ATOM     15  C   UNL     1      68.880  61.133  28.977  1.00  0.00     0.035 C 
BRANCH  15  16
ATOM     16  C   UNL     1      68.388  61.752  27.666  1.00  0.00     0.079 C 
BRANCH  16  17
ATOM     17  C   UNL     1      67.971  60.676  26.700  1.00  0.00     0.130 C 
ATOM     18  O   UNL     1      68.814  60.143  25.990  1.00  0.00    -0.300 OA
ATOM     19  C   UNL     1      66.537  60.251  26.584  1.00  0.00     0.087 C 
ENDBRANCH  16  17
ENDBRANCH  15  16
ENDBRANCH  13  15
ENDBRANCH  11  12
ENDBRANCH   1  11
TORSDOF 9
ENDMDL
MODEL 5
REMARK VINA RESULT:    -5.112      1.851      3.099
REMARK INTER + INTRA:          -9.142
REMARK INTER:                  -8.254
REMARK INTRA:                  -0.889
REMARK UNBOUND:                -1.341
REMARK SMILES CC(=O)CCC=C(C)CCC=C(C)CCC=C(C)C
REMARK SMILES IDX 10 1 11 2 12 3 13 4 14 5 15 6 16 7 18 8 17 9 19 10 9 11 7 12
REMARK SMILES IDX 6 13 8 14 5 15 4 16 2 17 3 18 1 19
REMARK H PARENT
REMARK Flexibility Score: inf
ROOT
ATOM      1  C   UNL     1      72.114  64.072  23.253  1.00  0.00     0.032 C 
ENDROOT
BRANCH   1   2
ATOM      2  C   UNL     1      71.697  62.642  23.506  1.00  0.00    -0.028 C 
ATOM      3  C   UNL     1      71.428  62.158  24.740  1.00  0.00    -0.077 C 
ATOM      4  C   UNL     1      71.520  63.035  25.966  1.00  0.00     0.039 C 
BRANCH   3   5
ATOM      5  C   UNL     1      71.016  60.709  24.889  1.00  0.00     0.034 C 
BRANCH   5   6
ATOM      6  C   UNL     1      70.377  60.458  26.263  1.00  0.00     0.032 C 
BRANCH   6   7
ATOM      7  C   UNL     1      68.923  60.090  26.116  1.00  0.00    -0.028 C 
ATOM      8  C   UNL     1      68.178  61.648  27.937  1.00  0.00     0.039 C 
ATOM      9  C   UNL     1      67.928  60.584  26.893  1.00  0.00    -0.080 C 
ATOM     10  C   UNL     1      66.509  60.140  26.653  1.00  0.00     0.039 C 
ENDBRANCH   6   7
ENDBRANCH   5   6
ENDBRANCH   3   5
ENDBRANCH   1   2
BRANCH   1  11
ATOM     11  C   UNL     1      72.066  64.403  21.757  1.00  0.00     0.034 C 
BRANCH  11  12
ATOM     12  C   UNL     1      73.459  64.616  21.204  1.00  0.00    -0.077 C 
ATOM     13  C   UNL     1      74.337  65.366  21.908  1.00  0.00    -0.028 C 
ATOM     14  C   UNL     1      73.828  63.989  19.879  1.00  0.00     0.039 C 
BRANCH  13  15
ATOM     15  C   UNL     1      75.770  65.606  21.504  1.00  0.00     0.035 C 
BRANCH  15  16
ATOM     16  C   UNL     1      76.638  65.903  22.730  1.00  0.00     0.079 C 
BRANCH  16  17
ATOM     17  C   UNL     1      77.445  67.154  22.510  1.00  0.00     0.130 C 
ATOM     18  O   UNL     1      77.659  67.908  23.451  1.00  0.00    -0.300 OA
ATOM     19  C   UNL     1      77.986  67.500  21.154  1.00  0.00     0.087 C 
ENDBRANCH  16  17
ENDBRANCH  15  16
ENDBRANCH  13  15
ENDBRANCH  11  12
ENDBRANCH   1  11
TORSDOF 9
ENDMDL
MODEL 6
REMARK VINA RESULT:    -4.992      1.587      2.845
REMARK INTER + INTRA:          -8.959
REMARK INTER:                  -8.356
REMARK INTRA:                  -0.603
REMARK UNBOUND:                -1.341
REMARK SMILES CC(=O)CCC=C(C)CCC=C(C)CCC=C(C)C
REMARK SMILES IDX 10 1 11 2 12 3 13 4 14 5 15 6 16 7 18 8 17 9 19 10 9 11 7 12
REMARK SMILES IDX 6 13 8 14 5 15 4 16 2 17 3 18 1 19
REMARK H PARENT
REMARK Flexibility Score: inf
ROOT
ATOM      1  C   UNL     1      71.794  63.469  23.434  1.00  0.00     0.032 C 
ENDROOT
BRANCH   1   2
ATOM      2  C   UNL     1      71.316  62.090  23.821  1.00  0.00    -0.028 C 
ATOM      3  C   UNL     1      71.280  61.652  25.100  1.00  0.00    -0.077 C 
ATOM      4  C   UNL     1      71.714  62.535  26.246  1.00  0.00     0.039 C 
BRANCH   3   5
ATOM      5  C   UNL     1      70.782  60.251  25.386  1.00  0.00     0.034 C 
BRANCH   5   6
ATOM      6  C   UNL     1      69.496  60.285  26.223  1.00  0.00     0.032 C 
BRANCH   6   7
ATOM      7  C   UNL     1      69.819  60.341  27.695  1.00  0.00    -0.028 C 
ATOM      8  C   UNL     1      67.862  61.815  28.234  1.00  0.00     0.039 C 
ATOM      9  C   UNL     1      69.118  61.062  28.603  1.00  0.00    -0.080 C 
ATOM     10  C   UNL     1      69.537  61.041  30.050  1.00  0.00     0.039 C 
ENDBRANCH   6   7
ENDBRANCH   5   6
ENDBRANCH   3   5
ENDBRANCH   1   2
BRANCH   1  11
ATOM     11  C   UNL     1      71.528  63.749  21.949  1.00  0.00     0.034 C 
BRANCH  11  12
ATOM     12  C   UNL     1      72.822  64.001  21.205  1.00  0.00    -0.077 C 
ATOM     13  C   UNL     1      73.739  64.834  21.747  1.00  0.00    -0.028 C 
ATOM     14  C   UNL     1      73.050  63.320  19.875  1.00  0.00     0.039 C 
BRANCH  13  15
ATOM     15  C   UNL     1      75.090  65.124  21.143  1.00  0.00     0.035 C 
BRANCH  15  16
ATOM     16  C   UNL     1      75.971  65.896  22.128  1.00  0.00     0.079 C 
BRANCH  16  17
ATOM     17  C   UNL     1      77.257  66.314  21.467  1.00  0.00     0.130 C 
ATOM     18  O   UNL     1      77.889  65.499  20.807  1.00  0.00    -0.300 OA
ATOM     19  C   UNL     1      77.785  67.711  21.610  1.00  0.00     0.087 C 
ENDBRANCH  16  17
ENDBRANCH  15  16
ENDBRANCH  13  15
ENDBRANCH  11  12
ENDBRANCH   1  11
TORSDOF 9
ENDMDL
MODEL 7
REMARK VINA RESULT:    -4.888      1.250      3.217
REMARK INTER + INTRA:          -8.801
REMARK INTER:                  -7.384
REMARK INTRA:                  -1.417
REMARK UNBOUND:                -1.341
REMARK SMILES CC(=O)CCC=C(C)CCC=C(C)CCC=C(C)C
REMARK SMILES IDX 10 1 11 2 12 3 13 4 14 5 15 6 16 7 18 8 17 9 19 10 9 11 7 12
REMARK SMILES IDX 6 13 8 14 5 15 4 16 2 17 3 18 1 19
REMARK H PARENT
REMARK Flexibility Score: inf
ROOT
ATOM      1  C   UNL     1      70.133  60.089  24.851  1.00  0.00     0.032 C 
ENDROOT
BRANCH   1   2
ATOM      2  C   UNL     1      70.229  60.021  26.357  1.00  0.00    -0.028 C 
ATOM      3  C   UNL     1      69.196  60.317  27.178  1.00  0.00    -0.077 C 
ATOM      4  C   UNL     1      67.851  60.733  26.631  1.00  0.00     0.039 C 
BRANCH   3   5
ATOM      5  C   UNL     1      69.392  60.217  28.676  1.00  0.00     0.034 C 
BRANCH   5   6
ATOM      6  C   UNL     1      70.541  61.122  29.142  1.00  0.00     0.032 C 
BRANCH   6   7
ATOM      7  C   UNL     1      70.430  62.490  28.519  1.00  0.00    -0.028 C 
ATOM      8  C   UNL     1      72.611  62.288  27.296  1.00  0.00     0.039 C 
ATOM      9  C   UNL     1      71.375  63.045  27.722  1.00  0.00    -0.080 C 
ATOM     10  C   UNL     1      71.152  64.423  27.157  1.00  0.00     0.039 C 
ENDBRANCH   6   7
ENDBRANCH   5   6
ENDBRANCH   3   5
ENDBRANCH   1   2
BRANCH   1  11
ATOM     11  C   UNL     1      71.501  60.385  24.225  1.00  0.00     0.034 C 
BRANCH  11  12
ATOM     12  C   UNL     1      71.434  61.603  23.328  1.00  0.00    -0.077 C 
ATOM     13  C   UNL     1      71.424  61.432  21.987  1.00  0.00    -0.028 C 
ATOM     14  C   UNL     1      71.388  62.977  23.957  1.00  0.00     0.039 C 
BRANCH  13  15
ATOM     15  C   UNL     1      71.298  62.551  20.985  1.00  0.00     0.035 C 
BRANCH  15  16
ATOM     16  C   UNL     1      72.560  62.654  20.124  1.00  0.00     0.079 C 
BRANCH  16  17
ATOM     17  C   UNL     1      73.256  63.966  20.367  1.00  0.00     0.130 C 
ATOM     18  O   UNL     1      74.370  64.155  19.894  1.00  0.00    -0.300 OA
ATOM     19  C   UNL     1      72.614  65.044  21.188  1.00  0.00     0.087 C 
ENDBRANCH  16  17
ENDBRANCH  15  16
ENDBRANCH  13  15
ENDBRANCH  11  12
ENDBRANCH   1  11
TORSDOF 9
ENDMDL
MODEL 8
REMARK VINA RESULT:    -4.116     10.162     12.975
REMARK INTER + INTRA:          -7.622
REMARK INTER:                  -5.244
REMARK INTRA:                  -2.377
REMARK UNBOUND:                -1.341
REMARK SMILES CC(=O)CCC=C(C)CCC=C(C)CCC=C(C)C
REMARK SMILES IDX 10 1 11 2 12 3 13 4 14 5 15 6 16 7 18 8 17 9 19 10 9 11 7 12
REMARK SMILES IDX 6 13 8 14 5 15 4 16 2 17 3 18 1 19
REMARK H PARENT
REMARK Flexibility Score: inf
ROOT
ATOM      1  C   UNL     1      73.816  73.171  19.875  1.00  0.00     0.032 C 
ENDROOT
BRANCH   1   2
ATOM      2  C   UNL     1      75.228  72.651  20.002  1.00  0.00    -0.028 C 
ATOM      3  C   UNL     1      75.632  71.847  21.012  1.00  0.00    -0.077 C 
ATOM      4  C   UNL     1      74.675  71.401  22.092  1.00  0.00     0.039 C 
BRANCH   3   5
ATOM      5  C   UNL     1      77.070  71.376  21.050  1.00  0.00     0.034 C 
BRANCH   5   6
ATOM      6  C   UNL     1      77.818  71.991  22.241  1.00  0.00     0.032 C 
BRANCH   6   7
ATOM      7  C   UNL     1      77.878  73.492  22.117  1.00  0.00    -0.028 C 
ATOM      8  C   UNL     1      76.362  73.877  24.078  1.00  0.00     0.039 C 
ATOM      9  C   UNL     1      77.192  74.351  22.908  1.00  0.00    -0.080 C 
ATOM     10  C   UNL     1      77.331  75.835  22.688  1.00  0.00     0.039 C 
ENDBRANCH   6   7
ENDBRANCH   5   6
ENDBRANCH   3   5
ENDBRANCH   1   2
BRANCH   1  11
ATOM     11  C   UNL     1      73.691  74.578  20.474  1.00  0.00     0.034 C 
BRANCH  11  12
ATOM     12  C   UNL     1      72.833  74.561  21.721  1.00  0.00    -0.077 C 
ATOM     13  C   UNL     1      71.748  73.755  21.761  1.00  0.00    -0.028 C 
ATOM     14  C   UNL     1      73.210  75.450  22.885  1.00  0.00     0.039 C 
BRANCH  13  15
ATOM     15  C   UNL     1      70.847  73.596  22.960  1.00  0.00     0.035 C 
BRANCH  15  16
ATOM     16  C   UNL     1      71.027  72.215  23.596  1.00  0.00     0.079 C 
BRANCH  16  17
ATOM     17  C   UNL     1      71.586  72.346  24.987  1.00  0.00     0.130 C 
ATOM     18  O   UNL     1      70.826  72.540  25.927  1.00  0.00    -0.300 OA
ATOM     19  C   UNL     1      73.062  72.255  25.242  1.00  0.00     0.087 C 
ENDBRANCH  16  17
ENDBRANCH  15  16
ENDBRANCH  13  15
ENDBRANCH  11  12
ENDBRANCH   1  11
TORSDOF 9
ENDMDL
MODEL 9
REMARK VINA RESULT:    -4.039      8.375     11.876
REMARK INTER + INTRA:          -7.505
REMARK INTER:                  -5.286
REMARK INTRA:                  -2.219
REMARK UNBOUND:                -1.341
REMARK SMILES CC(=O)CCC=C(C)CCC=C(C)CCC=C(C)C
REMARK SMILES IDX 10 1 11 2 12 3 13 4 14 5 15 6 16 7 18 8 17 9 19 10 9 11 7 12
REMARK SMILES IDX 6 13 8 14 5 15 4 16 2 17 3 18 1 19
REMARK H PARENT
REMARK Flexibility Score: inf
ROOT
ATOM      1  C   UNL     1      71.949  72.901  23.843  1.00  0.00     0.032 C 
ENDROOT
BRANCH   1   2
ATOM      2  C   UNL     1      72.614  72.389  22.587  1.00  0.00    -0.028 C 
ATOM      3  C   UNL     1      73.270  73.192  21.718  1.00  0.00    -0.077 C 
ATOM      4  C   UNL     1      73.391  74.678  21.959  1.00  0.00     0.039 C 
BRANCH   3   5
ATOM      5  C   UNL     1      73.906  72.582  20.487  1.00  0.00     0.034 C 
BRANCH   5   6
ATOM      6  C   UNL     1      75.438  72.635  20.576  1.00  0.00     0.032 C 
BRANCH   6   7
ATOM      7  C   UNL     1      75.963  71.502  21.420  1.00  0.00    -0.028 C 
ATOM      8  C   UNL     1      76.542  72.994  23.351  1.00  0.00     0.039 C 
ATOM      9  C   UNL     1      76.504  71.656  22.652  1.00  0.00    -0.080 C 
ATOM     10  C   UNL     1      76.998  70.446  23.402  1.00  0.00     0.039 C 
ENDBRANCH   6   7
ENDBRANCH   5   6
ENDBRANCH   3   5
ENDBRANCH   1   2
BRANCH   1  11
ATOM     11  C   UNL     1      72.161  71.931  25.013  1.00  0.00     0.034 C 
BRANCH  11  12
ATOM     12  C   UNL     1      73.481  72.197  25.704  1.00  0.00    -0.077 C 
ATOM     13  C   UNL     1      74.224  71.148  26.125  1.00  0.00    -0.028 C 
ATOM     14  C   UNL     1      73.928  73.626  25.910  1.00  0.00     0.039 C 
BRANCH  13  15
ATOM     15  C   UNL     1      75.582  71.270  26.770  1.00  0.00     0.035 C 
BRANCH  15  16
ATOM     16  C   UNL     1      75.541  70.775  28.218  1.00  0.00     0.079 C 
BRANCH  16  17
ATOM     17  C   UNL     1      75.739  69.284  28.269  1.00  0.00     0.130 C 
ATOM     18  O   UNL     1      76.794  68.801  27.877  1.00  0.00    -0.300 OA
ATOM     19  C   UNL     1      74.661  68.375  28.782  1.00  0.00     0.087 C 
ENDBRANCH  16  17
ENDBRANCH  15  16
ENDBRANCH  13  15
ENDBRANCH  11  12
ENDBRANCH   1  11
TORSDOF 9
ENDMDL
