MODEL 1
REMARK VINA RESULT:    -6.040      0.000      0.000
REMARK INTER + INTRA:         -12.280
REMARK INTER:                 -10.983
REMARK INTRA:                  -1.297
REMARK UNBOUND:                -1.297
REMARK SMILES CCCCCCCCCCCCCCCC(=O)[O-]
REMARK SMILES IDX 9 1 10 2 11 3 12 4 13 5 14 6 15 7 16 8 17 9 18 10 8 11 7 12
REMARK SMILES IDX 6 13 5 14 4 15 3 16 2 17 1 18
REMARK H PARENT
REMARK Flexibility Score: inf
ROOT
ATOM      1  C   UNL     1      -6.881 -12.957  -3.545  1.00  0.00     0.000 C 
ENDROOT
BRANCH   1   2
ATOM      2  C   UNL     1      -6.932 -13.284  -5.047  1.00  0.00     0.000 C 
BRANCH   2   3
ATOM      3  C   UNL     1      -8.365 -13.314  -5.602  1.00  0.00     0.000 C 
BRANCH   3   4
ATOM      4  C   UNL     1      -8.805 -14.726  -6.022  1.00  0.00     0.000 C 
BRANCH   4   5
ATOM      5  C   UNL     1      -7.658 -15.538  -6.649  1.00  0.00     0.000 C 
BRANCH   5   6
ATOM      6  C   UNL     1      -8.142 -16.854  -7.279  1.00  0.00     0.006 C 
BRANCH   6   7
ATOM      7  C   UNL     1      -8.935 -17.722  -6.295  1.00  0.00     0.053 C 
BRANCH   7   8
ATOM      8  C   UNL     1      -8.020 -18.334  -5.282  1.00  0.00     0.041 C 
ATOM      9  O   UNL     1      -6.879 -18.741  -5.623  1.00  0.00    -0.550 OA
ATOM     10  O   UNL     1      -8.447 -18.502  -3.971  1.00  0.00    -0.550 OA
ENDBRANCH   7   8
ENDBRANCH   6   7
ENDBRANCH   5   6
ENDBRANCH   4   5
ENDBRANCH   3   4
ENDBRANCH   2   3
ENDBRANCH   1   2
BRANCH   1  11
ATOM     11  C   UNL     1      -6.245 -14.073  -2.690  1.00  0.00     0.000 C 
BRANCH  11  12
ATOM     12  C   UNL     1      -6.525 -15.476  -3.260  1.00  0.00    -0.000 C 
BRANCH  12  13
ATOM     13  C   UNL     1      -5.828 -16.587  -2.445  1.00  0.00    -0.000 C 
BRANCH  13  14
ATOM     14  C   UNL     1      -4.496 -16.148  -1.817  1.00  0.00    -0.000 C 
BRANCH  14  15
ATOM     15  C   UNL     1      -4.061 -17.046  -0.650  1.00  0.00    -0.000 C 
BRANCH  15  16
ATOM     16  C   UNL     1      -2.538 -16.994  -0.452  1.00  0.00    -0.000 C 
BRANCH  16  17
ATOM     17  C   UNL     1      -1.783 -16.726  -1.764  1.00  0.00    -0.003 C 
ATOM     18  C   UNL     1      -1.083 -17.971  -2.309  1.00  0.00     0.004 C 
ENDBRANCH  16  17
ENDBRANCH  15  16
ENDBRANCH  14  15
ENDBRANCH  13  14
ENDBRANCH  12  13
ENDBRANCH  11  12
ENDBRANCH   1  11
TORSDOF 14
ENDMDL
MODEL 2
REMARK VINA RESULT:    -5.949      0.679      1.472
REMARK INTER + INTRA:         -12.115
REMARK INTER:                 -10.876
REMARK INTRA:                  -1.240
REMARK UNBOUND:                -1.297
REMARK SMILES CCCCCCCCCCCCCCCC(=O)[O-]
REMARK SMILES IDX 9 1 10 2 11 3 12 4 13 5 14 6 15 7 16 8 17 9 18 10 8 11 7 12
REMARK SMILES IDX 6 13 5 14 4 15 3 16 2 17 1 18
REMARK H PARENT
REMARK Flexibility Score: inf
ROOT
ATOM      1  C   UNL     1      -6.557 -13.789  -3.004  1.00  0.00     0.000 C 
ENDROOT
BRANCH   1   2
ATOM      2  C   UNL     1      -6.780 -12.814  -4.173  1.00  0.00     0.000 C 
BRANCH   2   3
ATOM      3  C   UNL     1      -7.140 -13.528  -5.486  1.00  0.00     0.000 C 
BRANCH   3   4
ATOM      4  C   UNL     1      -8.656 -13.583  -5.732  1.00  0.00     0.000 C 
BRANCH   4   5
ATOM      5  C   UNL     1      -9.215 -15.014  -5.643  1.00  0.00     0.000 C 
BRANCH   5   6
ATOM      6  C   UNL     1      -8.635 -15.943  -6.721  1.00  0.00     0.006 C 
BRANCH   6   7
ATOM      7  C   UNL     1      -8.881 -17.426  -6.416  1.00  0.00     0.053 C 
BRANCH   7   8
ATOM      8  C   UNL     1      -7.974 -17.892  -5.322  1.00  0.00     0.041 C 
ATOM      9  O   UNL     1      -8.424 -18.082  -4.162  1.00  0.00    -0.550 OA
ATOM     10  O   UNL     1      -6.618 -18.067  -5.571  1.00  0.00    -0.550 OA
ENDBRANCH   7   8
ENDBRANCH   6   7
ENDBRANCH   5   6
ENDBRANCH   4   5
ENDBRANCH   3   4
ENDBRANCH   2   3
ENDBRANCH   1   2
BRANCH   1  11
ATOM     11  C   UNL     1      -6.239 -15.230  -3.454  1.00  0.00     0.000 C 
BRANCH  11  12
ATOM     12  C   UNL     1      -5.982 -16.171  -2.262  1.00  0.00    -0.000 C 
BRANCH  12  13
ATOM     13  C   UNL     1      -4.479 -16.464  -2.063  1.00  0.00    -0.000 C 
BRANCH  13  14
ATOM     14  C   UNL     1      -4.135 -16.995  -0.662  1.00  0.00    -0.000 C 
BRANCH  14  15
ATOM     15  C   UNL     1      -2.627 -16.979  -0.372  1.00  0.00    -0.000 C 
BRANCH  15  16
ATOM     16  C   UNL     1      -1.917 -18.138  -1.089  1.00  0.00    -0.000 C 
BRANCH  16  17
ATOM     17  C   UNL     1      -0.897 -17.650  -2.130  1.00  0.00    -0.003 C 
ATOM     18  C   UNL     1      -0.657 -16.142  -2.061  1.00  0.00     0.004 C 
ENDBRANCH  16  17
ENDBRANCH  15  16
ENDBRANCH  14  15
ENDBRANCH  13  14
ENDBRANCH  12  13
ENDBRANCH  11  12
ENDBRANCH   1  11
TORSDOF 14
ENDMDL
MODEL 3
REMARK VINA RESULT:    -5.923      3.470      7.447
REMARK INTER + INTRA:         -12.067
REMARK INTER:                 -10.575
REMARK INTRA:                  -1.492
REMARK UNBOUND:                -1.297
REMARK SMILES CCCCCCCCCCCCCCCC(=O)[O-]
REMARK SMILES IDX 9 1 10 2 11 3 12 4 13 5 14 6 15 7 16 8 17 9 18 10 8 11 7 12
REMARK SMILES IDX 6 13 5 14 4 15 3 16 2 17 1 18
REMARK H PARENT
REMARK Flexibility Score: inf
ROOT
ATOM      1  C   UNL     1      -5.665 -16.487  -3.119  1.00  0.00     0.000 C 
ENDROOT
BRANCH   1   2
ATOM      2  C   UNL     1      -5.087 -15.788  -1.876  1.00  0.00     0.000 C 
BRANCH   2   3
ATOM      3  C   UNL     1      -3.926 -16.568  -1.239  1.00  0.00     0.000 C 
BRANCH   3   4
ATOM      4  C   UNL     1      -2.568 -16.230  -1.877  1.00  0.00     0.000 C 
BRANCH   4   5
ATOM      5  C   UNL     1      -1.548 -17.374  -1.730  1.00  0.00     0.000 C 
BRANCH   5   6
ATOM      6  C   UNL     1      -1.865 -18.300  -0.545  1.00  0.00     0.006 C 
BRANCH   6   7
ATOM      7  C   UNL     1      -0.731 -18.346   0.486  1.00  0.00     0.053 C 
BRANCH   7   8
ATOM      8  C   UNL     1      -0.864 -17.219   1.460  1.00  0.00     0.041 C 
ATOM      9  O   UNL     1      -2.003 -16.821   1.818  1.00  0.00    -0.550 OA
ATOM     10  O   UNL     1       0.270 -16.573   1.935  1.00  0.00    -0.550 OA
ENDBRANCH   7   8
ENDBRANCH   6   7
ENDBRANCH   5   6
ENDBRANCH   4   5
ENDBRANCH   3   4
ENDBRANCH   2   3
ENDBRANCH   1   2
BRANCH   1  11
ATOM     11  C   UNL     1      -7.199 -16.644  -3.082  1.00  0.00     0.000 C 
BRANCH  11  12
ATOM     12  C   UNL     1      -7.748 -17.314  -4.355  1.00  0.00    -0.000 C 
BRANCH  12  13
ATOM     13  C   UNL     1      -6.854 -17.051  -5.586  1.00  0.00    -0.000 C 
BRANCH  13  14
ATOM     14  C   UNL     1      -7.328 -15.872  -6.452  1.00  0.00    -0.000 C 
BRANCH  14  15
ATOM     15  C   UNL     1      -8.693 -15.322  -6.016  1.00  0.00    -0.000 C 
BRANCH  15  16
ATOM     16  C   UNL     1      -8.603 -13.824  -5.686  1.00  0.00    -0.000 C 
BRANCH  16  17
ATOM     17  C   UNL     1      -7.155 -13.350  -5.487  1.00  0.00    -0.003 C 
ATOM     18  C   UNL     1      -6.820 -13.068  -4.023  1.00  0.00     0.004 C 
ENDBRANCH  16  17
ENDBRANCH  15  16
ENDBRANCH  14  15
ENDBRANCH  13  14
ENDBRANCH  12  13
ENDBRANCH  11  12
ENDBRANCH   1  11
TORSDOF 14
ENDMDL
MODEL 4
REMARK VINA RESULT:    -5.921      2.488      6.267
REMARK INTER + INTRA:         -12.064
REMARK INTER:                 -10.393
REMARK INTRA:                  -1.671
REMARK UNBOUND:                -1.297
REMARK SMILES CCCCCCCCCCCCCCCC(=O)[O-]
REMARK SMILES IDX 9 1 10 2 11 3 12 4 13 5 14 6 15 7 16 8 17 9 18 10 8 11 7 12
REMARK SMILES IDX 6 13 5 14 4 15 3 16 2 17 1 18
REMARK H PARENT
REMARK Flexibility Score: inf
ROOT
ATOM      1  C   UNL     1      -6.931 -13.355  -5.070  1.00  0.00     0.000 C 
ENDROOT
BRANCH   1   2
ATOM      2  C   UNL     1      -6.933 -12.980  -3.579  1.00  0.00     0.000 C 
BRANCH   2   3
ATOM      3  C   UNL     1      -6.186 -14.001  -2.705  1.00  0.00     0.000 C 
BRANCH   3   4
ATOM      4  C   UNL     1      -6.828 -15.396  -2.749  1.00  0.00     0.000 C 
BRANCH   4   5
ATOM      5  C   UNL     1      -5.786 -16.526  -2.679  1.00  0.00     0.000 C 
BRANCH   5   6
ATOM      6  C   UNL     1      -4.509 -16.107  -1.934  1.00  0.00     0.006 C 
BRANCH   6   7
ATOM      7  C   UNL     1      -4.144 -17.074  -0.800  1.00  0.00     0.053 C 
BRANCH   7   8
ATOM      8  C   UNL     1      -2.676 -17.363  -0.811  1.00  0.00     0.041 C 
ATOM      9  O   UNL     1      -1.951 -16.921  -1.740  1.00  0.00    -0.550 OA
ATOM     10  O   UNL     1      -2.118 -18.163   0.177  1.00  0.00    -0.550 OA
ENDBRANCH   7   8
ENDBRANCH   6   7
ENDBRANCH   5   6
ENDBRANCH   4   5
ENDBRANCH   3   4
ENDBRANCH   2   3
ENDBRANCH   1   2
BRANCH   1  11
ATOM     11  C   UNL     1      -8.339 -13.628  -5.641  1.00  0.00     0.000 C 
BRANCH  11  12
ATOM     12  C   UNL     1      -8.550 -15.113  -5.991  1.00  0.00    -0.000 C 
BRANCH  12  13
ATOM     13  C   UNL     1      -7.274 -15.764  -6.566  1.00  0.00    -0.000 C 
BRANCH  13  14
ATOM     14  C   UNL     1      -7.306 -17.302  -6.551  1.00  0.00    -0.000 C 
BRANCH  14  15
ATOM     15  C   UNL     1      -8.085 -17.871  -5.358  1.00  0.00    -0.000 C 
BRANCH  15  16
ATOM     16  C   UNL     1      -9.040 -18.988  -5.806  1.00  0.00    -0.000 C 
BRANCH  16  17
ATOM     17  C   UNL     1      -9.699 -18.691  -7.163  1.00  0.00    -0.003 C 
ATOM     18  C   UNL     1     -11.068 -18.025  -7.023  1.00  0.00     0.004 C 
ENDBRANCH  16  17
ENDBRANCH  15  16
ENDBRANCH  14  15
ENDBRANCH  13  14
ENDBRANCH  12  13
ENDBRANCH  11  12
ENDBRANCH   1  11
TORSDOF 14
ENDMDL
MODEL 5
REMARK VINA RESULT:    -5.857      3.231      6.806
REMARK INTER + INTRA:         -11.947
REMARK INTER:                 -10.566
REMARK INTRA:                  -1.381
REMARK UNBOUND:                -1.297
REMARK SMILES CCCCCCCCCCCCCCCC(=O)[O-]
REMARK SMILES IDX 9 1 10 2 11 3 12 4 13 5 14 6 15 7 16 8 17 9 18 10 8 11 7 12
REMARK SMILES IDX 6 13 5 14 4 15 3 16 2 17 1 18
REMARK H PARENT
REMARK Flexibility Score: inf
ROOT
ATOM      1  C   UNL     1      -6.492 -14.019  -2.499  1.00  0.00     0.000 C 
ENDROOT
BRANCH   1   2
ATOM      2  C   UNL     1      -6.783 -15.478  -2.889  1.00  0.00     0.000 C 
BRANCH   2   3
ATOM      3  C   UNL     1      -5.538 -16.377  -2.805  1.00  0.00     0.000 C 
BRANCH   3   4
ATOM      4  C   UNL     1      -4.465 -15.812  -1.862  1.00  0.00     0.000 C 
BRANCH   4   5
ATOM      5  C   UNL     1      -3.808 -16.902  -0.997  1.00  0.00     0.000 C 
BRANCH   5   6
ATOM      6  C   UNL     1      -2.313 -17.080  -1.306  1.00  0.00     0.006 C 
BRANCH   6   7
ATOM      7  C   UNL     1      -1.672 -18.208  -0.487  1.00  0.00     0.053 C 
BRANCH   7   8
ATOM      8  C   UNL     1      -0.969 -17.650   0.710  1.00  0.00     0.041 C 
ATOM      9  O   UNL     1      -0.385 -16.537   0.640  1.00  0.00    -0.550 OA
ATOM     10  O   UNL     1      -0.914 -18.383   1.888  1.00  0.00    -0.550 OA
ENDBRANCH   7   8
ENDBRANCH   6   7
ENDBRANCH   5   6
ENDBRANCH   4   5
ENDBRANCH   3   4
ENDBRANCH   2   3
ENDBRANCH   1   2
BRANCH   1  11
ATOM     11  C   UNL     1      -6.844 -13.001  -3.604  1.00  0.00     0.000 C 
BRANCH  11  12
ATOM     12  C   UNL     1      -6.854 -13.642  -5.005  1.00  0.00    -0.000 C 
BRANCH  12  13
ATOM     13  C   UNL     1      -8.259 -13.627  -5.644  1.00  0.00    -0.000 C 
BRANCH  13  14
ATOM     14  C   UNL     1      -8.709 -14.997  -6.178  1.00  0.00    -0.000 C 
BRANCH  14  15
ATOM     15  C   UNL     1      -7.544 -15.838  -6.719  1.00  0.00    -0.000 C 
BRANCH  15  16
ATOM     16  C   UNL     1      -7.893 -17.334  -6.709  1.00  0.00    -0.000 C 
BRANCH  16  17
ATOM     17  C   UNL     1      -7.180 -18.098  -5.581  1.00  0.00    -0.003 C 
ATOM     18  C   UNL     1      -8.144 -18.604  -4.508  1.00  0.00     0.004 C 
ENDBRANCH  16  17
ENDBRANCH  15  16
ENDBRANCH  14  15
ENDBRANCH  13  14
ENDBRANCH  12  13
ENDBRANCH  11  12
ENDBRANCH   1  11
TORSDOF 14
ENDMDL
MODEL 6
REMARK VINA RESULT:    -5.852      1.665      2.232
REMARK INTER + INTRA:         -11.938
REMARK INTER:                 -10.502
REMARK INTRA:                  -1.436
REMARK UNBOUND:                -1.297
REMARK SMILES CCCCCCCCCCCCCCCC(=O)[O-]
REMARK SMILES IDX 9 1 10 2 11 3 12 4 13 5 14 6 15 7 16 8 17 9 18 10 8 11 7 12
REMARK SMILES IDX 6 13 5 14 4 15 3 16 2 17 1 18
REMARK H PARENT
REMARK Flexibility Score: inf
ROOT
ATOM      1  C   UNL     1      -6.952 -13.412  -5.052  1.00  0.00     0.000 C 
ENDROOT
BRANCH   1   2
ATOM      2  C   UNL     1      -8.374 -13.553  -5.620  1.00  0.00     0.000 C 
BRANCH   2   3
ATOM      3  C   UNL     1      -8.708 -14.992  -6.043  1.00  0.00     0.000 C 
BRANCH   3   4
ATOM      4  C   UNL     1      -7.523 -15.697  -6.723  1.00  0.00     0.000 C 
BRANCH   4   5
ATOM      5  C   UNL     1      -7.212 -17.066  -6.093  1.00  0.00     0.000 C 
BRANCH   5   6
ATOM      6  C   UNL     1      -8.459 -17.957  -5.971  1.00  0.00     0.006 C 
BRANCH   6   7
ATOM      7  C   UNL     1      -8.970 -18.445  -7.333  1.00  0.00     0.053 C 
BRANCH   7   8
ATOM      8  C   UNL     1     -10.388 -18.018  -7.542  1.00  0.00     0.041 C 
ATOM      9  O   UNL     1     -10.874 -17.979  -8.702  1.00  0.00    -0.550 OA
ATOM     10  O   UNL     1     -11.159 -17.614  -6.459  1.00  0.00    -0.550 OA
ENDBRANCH   7   8
ENDBRANCH   6   7
ENDBRANCH   5   6
ENDBRANCH   4   5
ENDBRANCH   3   4
ENDBRANCH   2   3
ENDBRANCH   1   2
BRANCH   1  11
ATOM     11  C   UNL     1      -6.916 -12.923  -3.589  1.00  0.00     0.000 C 
BRANCH  11  12
ATOM     12  C   UNL     1      -6.228 -13.933  -2.652  1.00  0.00    -0.000 C 
BRANCH  12  13
ATOM     13  C   UNL     1      -6.763 -15.368  -2.846  1.00  0.00    -0.000 C 
BRANCH  13  14
ATOM     14  C   UNL     1      -5.717 -16.460  -2.566  1.00  0.00    -0.000 C 
BRANCH  14  15
ATOM     15  C   UNL     1      -4.462 -15.919  -1.867  1.00  0.00    -0.000 C 
BRANCH  15  16
ATOM     16  C   UNL     1      -3.994 -16.874  -0.758  1.00  0.00    -0.000 C 
BRANCH  16  17
ATOM     17  C   UNL     1      -2.674 -17.580  -1.106  1.00  0.00    -0.003 C 
ATOM     18  C   UNL     1      -1.579 -16.606  -1.542  1.00  0.00     0.004 C 
ENDBRANCH  16  17
ENDBRANCH  15  16
ENDBRANCH  14  15
ENDBRANCH  13  14
ENDBRANCH  12  13
ENDBRANCH  11  12
ENDBRANCH   1  11
TORSDOF 14
ENDMDL
MODEL 7
REMARK VINA RESULT:    -5.821      1.465      2.636
REMARK INTER + INTRA:         -11.882
REMARK INTER:                 -10.670
REMARK INTRA:                  -1.213
REMARK UNBOUND:                -1.297
REMARK SMILES CCCCCCCCCCCCCCCC(=O)[O-]
REMARK SMILES IDX 9 1 10 2 11 3 12 4 13 5 14 6 15 7 16 8 17 9 18 10 8 11 7 12
REMARK SMILES IDX 6 13 5 14 4 15 3 16 2 17 1 18
REMARK H PARENT
REMARK Flexibility Score: inf
ROOT
ATOM      1  C   UNL     1      -6.655 -15.287  -2.581  1.00  0.00     0.000 C 
ENDROOT
BRANCH   1   2
ATOM      2  C   UNL     1      -6.162 -13.841  -2.757  1.00  0.00     0.000 C 
BRANCH   2   3
ATOM      3  C   UNL     1      -6.952 -13.068  -3.826  1.00  0.00     0.000 C 
BRANCH   3   4
ATOM      4  C   UNL     1      -6.979 -13.795  -5.180  1.00  0.00     0.000 C 
BRANCH   4   5
ATOM      5  C   UNL     1      -8.411 -14.101  -5.655  1.00  0.00     0.000 C 
BRANCH   5   6
ATOM      6  C   UNL     1      -8.655 -15.604  -5.863  1.00  0.00     0.006 C 
BRANCH   6   7
ATOM      7  C   UNL     1      -7.352 -16.397  -6.022  1.00  0.00     0.053 C 
BRANCH   7   8
ATOM      8  C   UNL     1      -7.493 -17.760  -5.421  1.00  0.00     0.041 C 
ATOM      9  O   UNL     1      -6.817 -18.722  -5.867  1.00  0.00    -0.550 OA
ATOM     10  O   UNL     1      -8.409 -17.978  -4.400  1.00  0.00    -0.550 OA
ENDBRANCH   7   8
ENDBRANCH   6   7
ENDBRANCH   5   6
ENDBRANCH   4   5
ENDBRANCH   3   4
ENDBRANCH   2   3
ENDBRANCH   1   2
BRANCH   1  11
ATOM     11  C   UNL     1      -5.535 -16.341  -2.710  1.00  0.00     0.000 C 
BRANCH  11  12
ATOM     12  C   UNL     1      -4.288 -15.972  -1.886  1.00  0.00    -0.000 C 
BRANCH  12  13
ATOM     13  C   UNL     1      -4.067 -16.933  -0.698  1.00  0.00    -0.000 C 
BRANCH  13  14
ATOM     14  C   UNL     1      -2.700 -17.637  -0.720  1.00  0.00    -0.000 C 
BRANCH  14  15
ATOM     15  C   UNL     1      -1.546 -16.713  -0.307  1.00  0.00    -0.000 C 
BRANCH  15  16
ATOM     16  C   UNL     1      -0.990 -17.109   1.070  1.00  0.00    -0.000 C 
BRANCH  16  17
ATOM     17  C   UNL     1      -1.499 -16.196   2.196  1.00  0.00    -0.003 C 
ATOM     18  C   UNL     1      -1.101 -16.691   3.586  1.00  0.00     0.004 C 
ENDBRANCH  16  17
ENDBRANCH  15  16
ENDBRANCH  14  15
ENDBRANCH  13  14
ENDBRANCH  12  13
ENDBRANCH  11  12
ENDBRANCH   1  11
TORSDOF 14
ENDMDL
MODEL 8
REMARK VINA RESULT:    -5.763      3.260      7.147
REMARK INTER + INTRA:         -11.776
REMARK INTER:                 -10.372
REMARK INTRA:                  -1.404
REMARK UNBOUND:                -1.297
REMARK SMILES CCCCCCCCCCCCCCCC(=O)[O-]
REMARK SMILES IDX 9 1 10 2 11 3 12 4 13 5 14 6 15 7 16 8 17 9 18 10 8 11 7 12
REMARK SMILES IDX 6 13 5 14 4 15 3 16 2 17 1 18
REMARK H PARENT
REMARK Flexibility Score: inf
ROOT
ATOM      1  C   UNL     1      -7.268 -16.835  -3.275  1.00  0.00     0.000 C 
ENDROOT
BRANCH   1   2
ATOM      2  C   UNL     1      -5.772 -16.479  -3.310  1.00  0.00     0.000 C 
BRANCH   2   3
ATOM      3  C   UNL     1      -5.281 -15.833  -2.004  1.00  0.00     0.000 C 
BRANCH   3   4
ATOM      4  C   UNL     1      -4.167 -16.647  -1.326  1.00  0.00     0.000 C 
BRANCH   4   5
ATOM      5  C   UNL     1      -2.771 -16.306  -1.877  1.00  0.00     0.000 C 
BRANCH   5   6
ATOM      6  C   UNL     1      -1.778 -17.469  -1.730  1.00  0.00     0.006 C 
BRANCH   6   7
ATOM      7  C   UNL     1      -1.962 -18.238  -0.415  1.00  0.00     0.053 C 
BRANCH   7   8
ATOM      8  C   UNL     1      -0.886 -17.873   0.558  1.00  0.00     0.041 C 
ATOM      9  O   UNL     1      -1.162 -17.706   1.775  1.00  0.00    -0.550 OA
ATOM     10  O   UNL     1       0.414 -17.668   0.113  1.00  0.00    -0.550 OA
ENDBRANCH   7   8
ENDBRANCH   6   7
ENDBRANCH   5   6
ENDBRANCH   4   5
ENDBRANCH   3   4
ENDBRANCH   2   3
ENDBRANCH   1   2
BRANCH   1  11
ATOM     11  C   UNL     1      -7.657 -17.965  -4.250  1.00  0.00     0.000 C 
BRANCH  11  12
ATOM     12  C   UNL     1      -7.296 -17.629  -5.709  1.00  0.00    -0.000 C 
BRANCH  12  13
ATOM     13  C   UNL     1      -8.537 -17.245  -6.544  1.00  0.00    -0.000 C 
BRANCH  13  14
ATOM     14  C   UNL     1      -8.612 -15.748  -6.886  1.00  0.00    -0.000 C 
BRANCH  14  15
ATOM     15  C   UNL     1      -9.158 -14.899  -5.730  1.00  0.00    -0.000 C 
BRANCH  15  16
ATOM     16  C   UNL     1      -8.538 -13.493  -5.738  1.00  0.00    -0.000 C 
BRANCH  16  17
ATOM     17  C   UNL     1      -7.038 -13.508  -5.406  1.00  0.00    -0.003 C 
ATOM     18  C   UNL     1      -6.737 -12.990  -4.000  1.00  0.00     0.004 C 
ENDBRANCH  16  17
ENDBRANCH  15  16
ENDBRANCH  14  15
ENDBRANCH  13  14
ENDBRANCH  12  13
ENDBRANCH  11  12
ENDBRANCH   1  11
TORSDOF 14
ENDMDL
MODEL 9
REMARK VINA RESULT:    -5.682      2.812      6.711
REMARK INTER + INTRA:         -11.629
REMARK INTER:                  -9.986
REMARK INTRA:                  -1.643
REMARK UNBOUND:                -1.297
REMARK SMILES CCCCCCCCCCCCCCCC(=O)[O-]
REMARK SMILES IDX 9 1 10 2 11 3 12 4 13 5 14 6 15 7 16 8 17 9 18 10 8 11 7 12
REMARK SMILES IDX 6 13 5 14 4 15 3 16 2 17 1 18
REMARK H PARENT
REMARK Flexibility Score: inf
ROOT
ATOM      1  C   UNL     1      -7.017 -18.030  -5.007  1.00  0.00     0.000 C 
ENDROOT
BRANCH   1   2
ATOM      2  C   UNL     1      -7.912 -17.572  -3.843  1.00  0.00     0.000 C 
BRANCH   2   3
ATOM      3  C   UNL     1      -7.268 -16.462  -2.996  1.00  0.00     0.000 C 
BRANCH   3   4
ATOM      4  C   UNL     1      -5.739 -16.420  -3.143  1.00  0.00     0.000 C 
BRANCH   4   5
ATOM      5  C   UNL     1      -5.044 -15.836  -1.901  1.00  0.00     0.000 C 
BRANCH   5   6
ATOM      6  C   UNL     1      -4.296 -16.904  -1.086  1.00  0.00     0.006 C 
BRANCH   6   7
ATOM      7  C   UNL     1      -2.788 -16.908  -1.364  1.00  0.00     0.053 C 
BRANCH   7   8
ATOM      8  C   UNL     1      -2.051 -17.560  -0.237  1.00  0.00     0.041 C 
ATOM      9  O   UNL     1      -1.288 -18.536  -0.459  1.00  0.00    -0.550 OA
ATOM     10  O   UNL     1      -2.245 -17.120   1.066  1.00  0.00    -0.550 OA
ENDBRANCH   7   8
ENDBRANCH   6   7
ENDBRANCH   5   6
ENDBRANCH   4   5
ENDBRANCH   3   4
ENDBRANCH   2   3
ENDBRANCH   1   2
BRANCH   1  11
ATOM     11  C   UNL     1      -7.780 -18.791  -6.111  1.00  0.00     0.000 C 
BRANCH  11  12
ATOM     12  C   UNL     1      -9.172 -18.190  -6.381  1.00  0.00    -0.000 C 
BRANCH  12  13
ATOM     13  C   UNL     1      -9.237 -17.454  -7.736  1.00  0.00    -0.000 C 
BRANCH  13  14
ATOM     14  C   UNL     1      -8.399 -16.165  -7.780  1.00  0.00    -0.000 C 
BRANCH  14  15
ATOM     15  C   UNL     1      -8.743 -15.191  -6.645  1.00  0.00    -0.000 C 
BRANCH  15  16
ATOM     16  C   UNL     1      -7.469 -14.579  -6.040  1.00  0.00    -0.000 C 
BRANCH  16  17
ATOM     17  C   UNL     1      -7.774 -13.446  -5.048  1.00  0.00    -0.003 C 
ATOM     18  C   UNL     1      -6.510 -12.790  -4.492  1.00  0.00     0.004 C 
ENDBRANCH  16  17
ENDBRANCH  15  16
ENDBRANCH  14  15
ENDBRANCH  13  14
ENDBRANCH  12  13
ENDBRANCH  11  12
ENDBRANCH   1  11
TORSDOF 14
ENDMDL
