MODEL 1
REMARK VINA RESULT:    -5.148      0.000      0.000
REMARK INTER + INTRA:          -7.105
REMARK INTER:                  -6.803
REMARK INTRA:                  -0.301
REMARK UNBOUND:                -0.301
REMARK SMILES CCCCC=CC=CCO
REMARK SMILES IDX 5 1 6 2 4 3 3 4 2 5 1 6 7 7 8 8 9 9 10 10
REMARK H PARENT 10 11
REMARK Flexibility Score: inf
ROOT
ATOM      1  C   UNL     1      27.471 135.713 354.362  1.00  0.00    -0.027 C 
ATOM      2  C   UNL     1      26.803 135.651 353.207  1.00  0.00    -0.005 C 
ENDROOT
BRANCH   1   3
ATOM      3  C   UNL     1      28.872 135.189 354.491  1.00  0.00     0.027 C 
BRANCH   3   4
ATOM      4  C   UNL     1      29.734 135.614 353.293  1.00  0.00     0.004 C 
BRANCH   4   5
ATOM      5  C   UNL     1      30.493 134.434 352.666  1.00  0.00    -0.003 C 
ATOM      6  C   UNL     1      30.937 133.399 353.698  1.00  0.00     0.004 C 
ENDBRANCH   4   5
ENDBRANCH   3   4
ENDBRANCH   1   3
BRANCH   2   7
ATOM      7  C   UNL     1      25.424 136.154 353.100  1.00  0.00    -0.002 C 
ATOM      8  C   UNL     1      25.160 137.459 353.203  1.00  0.00     0.001 C 
BRANCH   8   9
ATOM      9  C   UNL     1      23.757 137.981 353.107  1.00  0.00     0.183 C 
BRANCH   9  10
ATOM     10  O   UNL     1      22.978 137.142 352.299  1.00  0.00    -0.392 OA
ATOM     11  H   UNL     1      23.156 137.402 351.357  1.00  0.00     0.210 HD
ENDBRANCH   9  10
ENDBRANCH   8   9
ENDBRANCH   2   7
TORSDOF 6
ENDMDL
MODEL 2
REMARK VINA RESULT:    -5.036      6.527     11.181
REMARK INTER + INTRA:          -6.956
REMARK INTER:                  -6.670
REMARK INTRA:                  -0.286
REMARK UNBOUND:                -0.301
REMARK SMILES CCCCC=CC=CCO
REMARK SMILES IDX 5 1 6 2 4 3 3 4 2 5 1 6 7 7 8 8 9 9 10 10
REMARK H PARENT 10 11
REMARK Flexibility Score: inf
ROOT
ATOM      1  C   UNL     1      20.361 142.684 354.295  1.00  0.00    -0.027 C 
ATOM      2  C   UNL     1      21.137 143.122 353.299  1.00  0.00    -0.005 C 
ENDROOT
BRANCH   1   3
ATOM      3  C   UNL     1      19.044 143.331 354.610  1.00  0.00     0.027 C 
BRANCH   3   4
ATOM      4  C   UNL     1      18.038 143.126 353.468  1.00  0.00     0.004 C 
BRANCH   4   5
ATOM      5  C   UNL     1      17.644 144.446 352.787  1.00  0.00    -0.003 C 
ATOM      6  C   UNL     1      16.776 145.336 353.676  1.00  0.00     0.004 C 
ENDBRANCH   4   5
ENDBRANCH   3   4
ENDBRANCH   1   3
BRANCH   2   7
ATOM      7  C   UNL     1      22.432 142.486 353.011  1.00  0.00    -0.002 C 
ATOM      8  C   UNL     1      22.651 141.204 353.312  1.00  0.00     0.001 C 
BRANCH   8   9
ATOM      9  C   UNL     1      23.971 140.550 353.034  1.00  0.00     0.183 C 
BRANCH   9  10
ATOM     10  O   UNL     1      24.876 141.482 352.505  1.00  0.00    -0.392 OA
ATOM     11  H   UNL     1      24.631 142.367 352.884  1.00  0.00     0.210 HD
ENDBRANCH   9  10
ENDBRANCH   8   9
ENDBRANCH   2   7
TORSDOF 6
ENDMDL
MODEL 3
REMARK VINA RESULT:    -5.007      2.116      3.241
REMARK INTER + INTRA:          -6.919
REMARK INTER:                  -6.785
REMARK INTRA:                  -0.134
REMARK UNBOUND:                -0.301
REMARK SMILES CCCCC=CC=CCO
REMARK SMILES IDX 5 1 6 2 4 3 3 4 2 5 1 6 7 7 8 8 9 9 10 10
REMARK H PARENT 10 11
REMARK Flexibility Score: inf
ROOT
ATOM      1  C   UNL     1      30.009 134.572 352.967  1.00  0.00    -0.027 C 
ATOM      2  C   UNL     1      29.404 134.763 354.143  1.00  0.00    -0.005 C 
ENDROOT
BRANCH   1   3
ATOM      3  C   UNL     1      31.177 133.640 352.824  1.00  0.00     0.027 C 
BRANCH   3   4
ATOM      4  C   UNL     1      31.532 133.417 351.346  1.00  0.00     0.004 C 
BRANCH   4   5
ATOM      5  C   UNL     1      32.431 132.190 351.135  1.00  0.00    -0.003 C 
ATOM      6  C   UNL     1      33.246 132.266 349.844  1.00  0.00     0.004 C 
ENDBRANCH   4   5
ENDBRANCH   3   4
ENDBRANCH   1   3
BRANCH   2   7
ATOM      7  C   UNL     1      28.270 135.691 354.269  1.00  0.00    -0.002 C 
ATOM      8  C   UNL     1      27.192 135.570 353.490  1.00  0.00     0.001 C 
BRANCH   8   9
ATOM      9  C   UNL     1      26.035 136.517 353.603  1.00  0.00     0.183 C 
BRANCH   9  10
ATOM     10  O   UNL     1      24.825 135.809 353.633  1.00  0.00    -0.392 OA
ATOM     11  H   UNL     1      24.755 135.396 354.533  1.00  0.00     0.210 HD
ENDBRANCH   9  10
ENDBRANCH   8   9
ENDBRANCH   2   7
TORSDOF 6
ENDMDL
MODEL 4
REMARK VINA RESULT:    -4.982      3.051      6.073
REMARK INTER + INTRA:          -6.886
REMARK INTER:                  -6.657
REMARK INTRA:                  -0.229
REMARK UNBOUND:                -0.301
REMARK SMILES CCCCC=CC=CCO
REMARK SMILES IDX 5 1 6 2 4 3 3 4 2 5 1 6 7 7 8 8 9 9 10 10
REMARK H PARENT 10 11
REMARK Flexibility Score: inf
ROOT
ATOM      1  C   UNL     1      26.996 135.648 353.375  1.00  0.00    -0.027 C 
ATOM      2  C   UNL     1      27.786 135.654 354.453  1.00  0.00    -0.005 C 
ENDROOT
BRANCH   1   3
ATOM      3  C   UNL     1      25.604 136.209 353.416  1.00  0.00     0.027 C 
BRANCH   3   4
ATOM      4  C   UNL     1      25.319 137.074 352.179  1.00  0.00     0.004 C 
BRANCH   4   5
ATOM      5  C   UNL     1      24.617 138.394 352.533  1.00  0.00    -0.003 C 
ATOM      6  C   UNL     1      23.607 138.242 353.669  1.00  0.00     0.004 C 
ENDBRANCH   4   5
ENDBRANCH   3   4
ENDBRANCH   1   3
BRANCH   2   7
ATOM      7  C   UNL     1      29.143 135.087 354.402  1.00  0.00    -0.002 C 
ATOM      8  C   UNL     1      29.609 134.520 353.286  1.00  0.00     0.001 C 
BRANCH   8   9
ATOM      9  C   UNL     1      30.985 133.929 353.227  1.00  0.00     0.183 C 
BRANCH   9  10
ATOM     10  O   UNL     1      31.188 133.055 354.305  1.00  0.00    -0.392 OA
ATOM     11  H   UNL     1      30.431 133.192 354.932  1.00  0.00     0.210 HD
ENDBRANCH   9  10
ENDBRANCH   8   9
ENDBRANCH   2   7
TORSDOF 6
ENDMDL
MODEL 5
REMARK VINA RESULT:    -4.924      1.895      2.346
REMARK INTER + INTRA:          -6.808
REMARK INTER:                  -6.522
REMARK INTRA:                  -0.286
REMARK UNBOUND:                -0.301
REMARK SMILES CCCCC=CC=CCO
REMARK SMILES IDX 5 1 6 2 4 3 3 4 2 5 1 6 7 7 8 8 9 9 10 10
REMARK H PARENT 10 11
REMARK Flexibility Score: inf
ROOT
ATOM      1  C   UNL     1      26.937 135.650 353.490  1.00  0.00    -0.027 C 
ATOM      2  C   UNL     1      25.830 136.395 353.423  1.00  0.00    -0.005 C 
ENDROOT
BRANCH   1   3
ATOM      3  C   UNL     1      27.916 135.795 354.619  1.00  0.00     0.027 C 
BRANCH   3   4
ATOM      4  C   UNL     1      29.212 135.023 354.331  1.00  0.00     0.004 C 
BRANCH   4   5
ATOM      5  C   UNL     1      29.990 135.603 353.139  1.00  0.00    -0.003 C 
ATOM      6  C   UNL     1      30.199 134.587 352.017  1.00  0.00     0.004 C 
ENDBRANCH   4   5
ENDBRANCH   3   4
ENDBRANCH   1   3
BRANCH   2   7
ATOM      7  C   UNL     1      24.888 136.253 352.301  1.00  0.00    -0.002 C 
ATOM      8  C   UNL     1      25.240 135.610 351.185  1.00  0.00     0.001 C 
BRANCH   8   9
ATOM      9  C   UNL     1      24.291 135.470 350.032  1.00  0.00     0.183 C 
BRANCH   9  10
ATOM     10  O   UNL     1      24.314 134.157 349.539  1.00  0.00    -0.392 OA
ATOM     11  H   UNL     1      24.849 133.618 350.179  1.00  0.00     0.210 HD
ENDBRANCH   9  10
ENDBRANCH   8   9
ENDBRANCH   2   7
TORSDOF 6
ENDMDL
MODEL 6
REMARK VINA RESULT:    -4.865      4.456      7.169
REMARK INTER + INTRA:          -6.730
REMARK INTER:                  -6.477
REMARK INTRA:                  -0.253
REMARK UNBOUND:                -0.301
REMARK SMILES CCCCC=CC=CCO
REMARK SMILES IDX 5 1 6 2 4 3 3 4 2 5 1 6 7 7 8 8 9 9 10 10
REMARK H PARENT 10 11
REMARK Flexibility Score: inf
ROOT
ATOM      1  C   UNL     1      30.168 134.290 352.046  1.00  0.00    -0.027 C 
ATOM      2  C   UNL     1      31.129 133.655 352.723  1.00  0.00    -0.005 C 
ENDROOT
BRANCH   1   3
ATOM      3  C   UNL     1      29.298 135.325 352.698  1.00  0.00     0.027 C 
BRANCH   3   4
ATOM      4  C   UNL     1      28.916 134.908 354.127  1.00  0.00     0.004 C 
BRANCH   4   5
ATOM      5  C   UNL     1      27.771 135.758 354.702  1.00  0.00    -0.003 C 
ATOM      6  C   UNL     1      26.643 135.990 353.697  1.00  0.00     0.004 C 
ENDBRANCH   4   5
ENDBRANCH   3   4
ENDBRANCH   1   3
BRANCH   2   7
ATOM      7  C   UNL     1      31.963 132.632 352.075  1.00  0.00    -0.002 C 
ATOM      8  C   UNL     1      32.278 132.721 350.780  1.00  0.00     0.001 C 
BRANCH   8   9
ATOM      9  C   UNL     1      33.118 131.677 350.106  1.00  0.00     0.183 C 
BRANCH   9  10
ATOM     10  O   UNL     1      34.125 131.228 350.972  1.00  0.00    -0.392 OA
ATOM     11  H   UNL     1      34.282 131.953 351.632  1.00  0.00     0.210 HD
ENDBRANCH   9  10
ENDBRANCH   8   9
ENDBRANCH   2   7
TORSDOF 6
ENDMDL
MODEL 7
REMARK VINA RESULT:    -4.837      8.538     11.166
REMARK INTER + INTRA:          -6.694
REMARK INTER:                  -6.434
REMARK INTRA:                  -0.259
REMARK UNBOUND:                -0.301
REMARK SMILES CCCCC=CC=CCO
REMARK SMILES IDX 5 1 6 2 4 3 3 4 2 5 1 6 7 7 8 8 9 9 10 10
REMARK H PARENT 10 11
REMARK Flexibility Score: inf
ROOT
ATOM      1  C   UNL     1      20.804 142.891 353.450  1.00  0.00    -0.027 C 
ATOM      2  C   UNL     1      21.838 142.052 353.340  1.00  0.00    -0.005 C 
ENDROOT
BRANCH   1   3
ATOM      3  C   UNL     1      19.829 142.794 354.587  1.00  0.00     0.027 C 
BRANCH   3   4
ATOM      4  C   UNL     1      18.384 142.970 354.095  1.00  0.00     0.004 C 
BRANCH   4   5
ATOM      5  C   UNL     1      18.214 144.210 353.203  1.00  0.00    -0.003 C 
ATOM      6  C   UNL     1      16.944 144.999 353.520  1.00  0.00     0.004 C 
ENDBRANCH   4   5
ENDBRANCH   3   4
ENDBRANCH   1   3
BRANCH   2   7
ATOM      7  C   UNL     1      22.776 142.150 352.211  1.00  0.00    -0.002 C 
ATOM      8  C   UNL     1      22.683 143.143 351.324  1.00  0.00     0.001 C 
BRANCH   8   9
ATOM      9  C   UNL     1      23.627 143.246 350.163  1.00  0.00     0.183 C 
BRANCH   9  10
ATOM     10  O   UNL     1      23.532 144.512 349.567  1.00  0.00    -0.392 OA
ATOM     11  H   UNL     1      22.665 144.537 349.082  1.00  0.00     0.210 HD
ENDBRANCH   9  10
ENDBRANCH   8   9
ENDBRANCH   2   7
TORSDOF 6
ENDMDL
MODEL 8
REMARK VINA RESULT:    -4.831     11.546     12.080
REMARK INTER + INTRA:          -6.686
REMARK INTER:                  -6.419
REMARK INTRA:                  -0.267
REMARK UNBOUND:                -0.301
REMARK SMILES CCCCC=CC=CCO
REMARK SMILES IDX 5 1 6 2 4 3 3 4 2 5 1 6 7 7 8 8 9 9 10 10
REMARK H PARENT 10 11
REMARK Flexibility Score: inf
ROOT
ATOM      1  C   UNL     1      28.823 140.141 341.225  1.00  0.00    -0.027 C 
ATOM      2  C   UNL     1      28.407 140.843 342.283  1.00  0.00    -0.005 C 
ENDROOT
BRANCH   1   3
ATOM      3  C   UNL     1      30.273 139.809 341.021  1.00  0.00     0.027 C 
BRANCH   3   4
ATOM      4  C   UNL     1      30.765 138.805 342.074  1.00  0.00     0.004 C 
BRANCH   4   5
ATOM      5  C   UNL     1      32.110 139.213 342.694  1.00  0.00    -0.003 C 
ATOM      6  C   UNL     1      32.955 140.078 341.760  1.00  0.00     0.004 C 
ENDBRANCH   4   5
ENDBRANCH   3   4
ENDBRANCH   1   3
BRANCH   2   7
ATOM      7  C   UNL     1      26.984 141.173 342.462  1.00  0.00    -0.002 C 
ATOM      8  C   UNL     1      26.361 140.925 343.616  1.00  0.00     0.001 C 
BRANCH   8   9
ATOM      9  C   UNL     1      24.908 141.247 343.805  1.00  0.00     0.183 C 
BRANCH   9  10
ATOM     10  O   UNL     1      24.255 141.299 342.564  1.00  0.00    -0.392 OA
ATOM     11  H   UNL     1      24.872 140.899 341.897  1.00  0.00     0.210 HD
ENDBRANCH   9  10
ENDBRANCH   8   9
ENDBRANCH   2   7
TORSDOF 6
ENDMDL
MODEL 9
REMARK VINA RESULT:    -4.826      3.295      5.674
REMARK INTER + INTRA:          -6.680
REMARK INTER:                  -6.357
REMARK INTRA:                  -0.322
REMARK UNBOUND:                -0.301
REMARK SMILES CCCCC=CC=CCO
REMARK SMILES IDX 5 1 6 2 4 3 3 4 2 5 1 6 7 7 8 8 9 9 10 10
REMARK H PARENT 10 11
REMARK Flexibility Score: inf
ROOT
ATOM      1  C   UNL     1      27.070 135.613 353.406  1.00  0.00    -0.027 C 
ATOM      2  C   UNL     1      27.963 135.700 354.396  1.00  0.00    -0.005 C 
ENDROOT
BRANCH   1   3
ATOM      3  C   UNL     1      25.790 136.398 353.429  1.00  0.00     0.027 C 
BRANCH   3   4
ATOM      4  C   UNL     1      25.228 136.582 352.011  1.00  0.00     0.004 C 
BRANCH   4   5
ATOM      5  C   UNL     1      26.029 135.805 350.955  1.00  0.00    -0.003 C 
ATOM      6  C   UNL     1      25.157 135.290 349.811  1.00  0.00     0.004 C 
ENDBRANCH   4   5
ENDBRANCH   3   4
ENDBRANCH   1   3
BRANCH   2   7
ATOM      7  C   UNL     1      29.206 134.913 354.367  1.00  0.00    -0.002 C 
ATOM      8  C   UNL     1      29.774 134.567 353.208  1.00  0.00     0.001 C 
BRANCH   8   9
ATOM      9  C   UNL     1      31.033 133.755 353.168  1.00  0.00     0.183 C 
BRANCH   9  10
ATOM     10  O   UNL     1      31.163 132.997 354.340  1.00  0.00    -0.392 OA
ATOM     11  H   UNL     1      32.094 133.121 354.662  1.00  0.00     0.210 HD
ENDBRANCH   9  10
ENDBRANCH   8   9
ENDBRANCH   2   7
TORSDOF 6
ENDMDL
