MODEL 1
REMARK VINA RESULT:    -5.084      0.000      0.000
REMARK INTER + INTRA:          -5.617
REMARK INTER:                  -5.530
REMARK INTRA:                  -0.087
REMARK UNBOUND:                -0.087
REMARK SMILES C=C(C)[C@@H]1CC=C(C)[C@@H](O)C1
REMARK SMILES IDX 8 1 7 2 6 3 5 4 4 5 11 6 9 7 10 8 2 10 1 11 3 12
REMARK H PARENT 10 9
REMARK Flexibility Score: inf
ROOT
ATOM      1  C   UNL     1     113.797 121.985 125.759  1.00  0.00     0.042 C 
ATOM      2  C   UNL     1     114.047 121.754 127.225  1.00  0.00    -0.049 C 
ATOM      3  C   UNL     1     114.059 120.487 127.693  1.00  0.00    -0.025 C 
ATOM      4  C   UNL     1     114.366 120.141 129.128  1.00  0.00     0.035 C 
ATOM      5  C   UNL     1     114.116 121.323 130.080  1.00  0.00     0.021 C 
ATOM      6  C   UNL     1     114.771 122.594 129.514  1.00  0.00     0.044 C 
ATOM      7  C   UNL     1     114.157 122.955 128.149  1.00  0.00     0.140 C 
ENDROOT
BRANCH   7   8
ATOM      8  O   UNL     1     112.875 123.502 128.326  1.00  0.00    -0.389 OA
ATOM      9  H   UNL     1     112.843 123.867 129.249  1.00  0.00     0.211 HD
ENDBRANCH   7   8
BRANCH   5  10
ATOM     10  C   UNL     1     114.601 121.019 131.491  1.00  0.00    -0.077 C 
ATOM     11  C   UNL     1     113.952 120.147 132.282  1.00  0.00     0.008 C 
ATOM     12  C   UNL     1     115.837 121.696 132.028  1.00  0.00     0.039 C 
ENDBRANCH   5  10
TORSDOF 2
ENDMDL
MODEL 2
REMARK VINA RESULT:    -5.063      1.539      4.297
REMARK INTER + INTRA:          -5.594
REMARK INTER:                  -5.499
REMARK INTRA:                  -0.094
REMARK UNBOUND:                -0.087
REMARK SMILES C=C(C)[C@@H]1CC=C(C)[C@@H](O)C1
REMARK SMILES IDX 8 1 7 2 6 3 5 4 4 5 11 6 9 7 10 8 2 10 1 11 3 12
REMARK H PARENT 10 9
REMARK Flexibility Score: inf
ROOT
ATOM      1  C   UNL     1     114.739 120.395 132.695  1.00  0.00     0.042 C 
ATOM      2  C   UNL     1     114.416 120.906 131.316  1.00  0.00    -0.049 C 
ATOM      3  C   UNL     1     114.570 120.078 130.261  1.00  0.00    -0.025 C 
ATOM      4  C   UNL     1     114.211 120.466 128.849  1.00  0.00     0.035 C 
ATOM      5  C   UNL     1     114.194 121.992 128.650  1.00  0.00     0.021 C 
ATOM      6  C   UNL     1     113.392 122.655 129.781  1.00  0.00     0.044 C 
ATOM      7  C   UNL     1     114.045 122.369 131.146  1.00  0.00     0.140 C 
ENDROOT
BRANCH   7   8
ATOM      8  O   UNL     1     115.205 123.146 131.297  1.00  0.00    -0.389 OA
ATOM      9  H   UNL     1     115.934 122.527 131.564  1.00  0.00     0.211 HD
ENDBRANCH   7   8
BRANCH   5  10
ATOM     10  C   UNL     1     113.655 122.372 127.277  1.00  0.00    -0.077 C 
ATOM     11  C   UNL     1     112.927 123.488 127.095  1.00  0.00     0.008 C 
ATOM     12  C   UNL     1     113.938 121.494 126.085  1.00  0.00     0.039 C 
ENDBRANCH   5  10
TORSDOF 2
ENDMDL
MODEL 3
REMARK VINA RESULT:    -5.057      0.088      1.049
REMARK INTER + INTRA:          -5.587
REMARK INTER:                  -5.495
REMARK INTRA:                  -0.092
REMARK UNBOUND:                -0.087
REMARK SMILES C=C(C)[C@@H]1CC=C(C)[C@@H](O)C1
REMARK SMILES IDX 8 1 7 2 6 3 5 4 4 5 11 6 9 7 10 8 2 10 1 11 3 12
REMARK H PARENT 10 9
REMARK Flexibility Score: inf
ROOT
ATOM      1  C   UNL     1     113.738 122.005 125.759  1.00  0.00     0.042 C 
ATOM      2  C   UNL     1     114.016 121.798 127.223  1.00  0.00    -0.049 C 
ATOM      3  C   UNL     1     114.030 120.540 127.713  1.00  0.00    -0.025 C 
ATOM      4  C   UNL     1     114.363 120.218 129.148  1.00  0.00     0.035 C 
ATOM      5  C   UNL     1     114.139 121.419 130.083  1.00  0.00     0.021 C 
ATOM      6  C   UNL     1     114.789 122.675 129.482  1.00  0.00     0.044 C 
ATOM      7  C   UNL     1     114.150 123.015 128.123  1.00  0.00     0.140 C 
ENDROOT
BRANCH   7   8
ATOM      8  O   UNL     1     112.875 123.572 128.315  1.00  0.00    -0.389 OA
ATOM      9  H   UNL     1     112.927 124.136 129.131  1.00  0.00     0.211 HD
ENDBRANCH   7   8
BRANCH   5  10
ATOM     10  C   UNL     1     114.650 121.137 131.490  1.00  0.00    -0.077 C 
ATOM     11  C   UNL     1     115.741 121.756 131.976  1.00  0.00     0.008 C 
ATOM     12  C   UNL     1     113.929 120.151 132.373  1.00  0.00     0.039 C 
ENDBRANCH   5  10
TORSDOF 2
ENDMDL
MODEL 4
REMARK VINA RESULT:    -4.992      2.382      5.165
REMARK INTER + INTRA:          -5.517
REMARK INTER:                  -5.426
REMARK INTRA:                  -0.091
REMARK UNBOUND:                -0.087
REMARK SMILES C=C(C)[C@@H]1CC=C(C)[C@@H](O)C1
REMARK SMILES IDX 8 1 7 2 6 3 5 4 4 5 11 6 9 7 10 8 2 10 1 11 3 12
REMARK H PARENT 10 9
REMARK Flexibility Score: inf
ROOT
ATOM      1  C   UNL     1     116.982 120.070 134.715  1.00  0.00     0.042 C 
ATOM      2  C   UNL     1     116.275 120.318 133.410  1.00  0.00    -0.049 C 
ATOM      3  C   UNL     1     117.007 120.639 132.322  1.00  0.00    -0.025 C 
ATOM      4  C   UNL     1     116.406 120.841 130.954  1.00  0.00     0.035 C 
ATOM      5  C   UNL     1     114.909 121.191 131.021  1.00  0.00     0.021 C 
ATOM      6  C   UNL     1     114.188 120.213 131.962  1.00  0.00     0.044 C 
ATOM      7  C   UNL     1     114.756 120.319 133.389  1.00  0.00     0.140 C 
ENDROOT
BRANCH   7   8
ATOM      8  O   UNL     1     114.300 121.497 134.003  1.00  0.00    -0.389 OA
ATOM      9  H   UNL     1     113.313 121.421 134.074  1.00  0.00     0.211 HD
ENDBRANCH   7   8
BRANCH   5  10
ATOM     10  C   UNL     1     114.277 121.212 129.635  1.00  0.00    -0.077 C 
ATOM     11  C   UNL     1     114.276 120.121 128.849  1.00  0.00     0.008 C 
ATOM     12  C   UNL     1     113.627 122.472 129.120  1.00  0.00     0.039 C 
ENDBRANCH   5  10
TORSDOF 2
ENDMDL
MODEL 5
REMARK VINA RESULT:    -4.918     11.299     12.464
REMARK INTER + INTRA:          -5.437
REMARK INTER:                  -5.348
REMARK INTRA:                  -0.089
REMARK UNBOUND:                -0.087
REMARK SMILES C=C(C)[C@@H]1CC=C(C)[C@@H](O)C1
REMARK SMILES IDX 8 1 7 2 6 3 5 4 4 5 11 6 9 7 10 8 2 10 1 11 3 12
REMARK H PARENT 10 9
REMARK Flexibility Score: inf
ROOT
ATOM      1  C   UNL     1     122.617 134.747 127.532  1.00  0.00     0.042 C 
ATOM      2  C   UNL     1     121.909 133.475 127.914  1.00  0.00    -0.049 C 
ATOM      3  C   UNL     1     122.632 132.343 128.052  1.00  0.00    -0.025 C 
ATOM      4  C   UNL     1     122.033 131.032 128.496  1.00  0.00     0.035 C 
ATOM      5  C   UNL     1     120.518 130.966 128.240  1.00  0.00     0.021 C 
ATOM      6  C   UNL     1     119.847 132.249 128.756  1.00  0.00     0.044 C 
ATOM      7  C   UNL     1     120.394 133.481 128.011  1.00  0.00     0.140 C 
ENDROOT
BRANCH   7   8
ATOM      8  O   UNL     1     119.861 133.534 126.713  1.00  0.00    -0.389 OA
ATOM      9  H   UNL     1     120.572 133.902 126.125  1.00  0.00     0.211 HD
ENDBRANCH   7   8
BRANCH   5  10
ATOM     10  C   UNL     1     119.899 129.718 128.856  1.00  0.00    -0.077 C 
ATOM     11  C   UNL     1     120.277 128.486 128.472  1.00  0.00     0.008 C 
ATOM     12  C   UNL     1     118.844 129.847 129.925  1.00  0.00     0.039 C 
ENDBRANCH   5  10
TORSDOF 2
ENDMDL
MODEL 6
REMARK VINA RESULT:    -4.892     14.498     15.872
REMARK INTER + INTRA:          -5.408
REMARK INTER:                  -5.316
REMARK INTRA:                  -0.092
REMARK UNBOUND:                -0.087
REMARK SMILES C=C(C)[C@@H]1CC=C(C)[C@@H](O)C1
REMARK SMILES IDX 8 1 7 2 6 3 5 4 4 5 11 6 9 7 10 8 2 10 1 11 3 12
REMARK H PARENT 10 9
REMARK Flexibility Score: inf
ROOT
ATOM      1  C   UNL     1     123.336 118.559 120.506  1.00  0.00     0.042 C 
ATOM      2  C   UNL     1     124.632 119.277 120.245  1.00  0.00    -0.049 C 
ATOM      3  C   UNL     1     124.844 119.821 119.027  1.00  0.00    -0.025 C 
ATOM      4  C   UNL     1     126.076 120.618 118.683  1.00  0.00     0.035 C 
ATOM      5  C   UNL     1     127.260 120.291 119.610  1.00  0.00     0.021 C 
ATOM      6  C   UNL     1     126.798 120.320 121.075  1.00  0.00     0.044 C 
ATOM      7  C   UNL     1     125.707 119.260 121.318  1.00  0.00     0.140 C 
ENDROOT
BRANCH   7   8
ATOM      8  O   UNL     1     126.281 117.979 121.358  1.00  0.00    -0.389 OA
ATOM      9  H   UNL     1     127.137 118.062 121.854  1.00  0.00     0.211 HD
ENDBRANCH   7   8
BRANCH   5  10
ATOM     10  C   UNL     1     128.436 121.229 119.370  1.00  0.00    -0.077 C 
ATOM     11  C   UNL     1     128.265 122.561 119.297  1.00  0.00     0.008 C 
ATOM     12  C   UNL     1     129.828 120.672 119.215  1.00  0.00     0.039 C 
ENDBRANCH   5  10
TORSDOF 2
ENDMDL
MODEL 7
REMARK VINA RESULT:    -4.737      1.567      2.149
REMARK INTER + INTRA:          -5.239
REMARK INTER:                  -5.148
REMARK INTRA:                  -0.091
REMARK UNBOUND:                -0.087
REMARK SMILES C=C(C)[C@@H]1CC=C(C)[C@@H](O)C1
REMARK SMILES IDX 8 1 7 2 6 3 5 4 4 5 11 6 9 7 10 8 2 10 1 11 3 12
REMARK H PARENT 10 9
REMARK Flexibility Score: inf
ROOT
ATOM      1  C   UNL     1     113.870 121.904 126.076  1.00  0.00     0.042 C 
ATOM      2  C   UNL     1     114.066 121.517 127.517  1.00  0.00    -0.049 C 
ATOM      3  C   UNL     1     113.870 122.448 128.475  1.00  0.00    -0.025 C 
ATOM      4  C   UNL     1     113.974 122.149 129.949  1.00  0.00     0.035 C 
ATOM      5  C   UNL     1     114.831 120.903 130.233  1.00  0.00     0.021 C 
ATOM      6  C   UNL     1     114.392 119.750 129.316  1.00  0.00     0.044 C 
ATOM      7  C   UNL     1     114.594 120.129 127.837  1.00  0.00     0.140 C 
ENDROOT
BRANCH   7   8
ATOM      8  O   UNL     1     115.959 120.083 127.509  1.00  0.00    -0.389 OA
ATOM      9  H   UNL     1     116.285 119.180 127.763  1.00  0.00     0.211 HD
ENDBRANCH   7   8
BRANCH   5  10
ATOM     10  C   UNL     1     114.777 120.508 131.702  1.00  0.00    -0.077 C 
ATOM     11  C   UNL     1     113.625 120.125 132.282  1.00  0.00     0.008 C 
ATOM     12  C   UNL     1     116.031 120.534 132.539  1.00  0.00     0.039 C 
ENDBRANCH   5  10
TORSDOF 2
ENDMDL
MODEL 8
REMARK VINA RESULT:    -4.567      3.002      4.616
REMARK INTER + INTRA:          -5.054
REMARK INTER:                  -4.967
REMARK INTRA:                  -0.087
REMARK UNBOUND:                -0.087
REMARK SMILES C=C(C)[C@@H]1CC=C(C)[C@@H](O)C1
REMARK SMILES IDX 8 1 7 2 6 3 5 4 4 5 11 6 9 7 10 8 2 10 1 11 3 12
REMARK H PARENT 10 9
REMARK Flexibility Score: inf
ROOT
ATOM      1  C   UNL     1     113.696 122.236 130.615  1.00  0.00     0.042 C 
ATOM      2  C   UNL     1     114.702 121.662 131.576  1.00  0.00    -0.049 C 
ATOM      3  C   UNL     1     116.008 121.667 131.232  1.00  0.00    -0.025 C 
ATOM      4  C   UNL     1     117.103 121.180 132.147  1.00  0.00     0.035 C 
ATOM      5  C   UNL     1     116.580 120.206 133.216  1.00  0.00     0.021 C 
ATOM      6  C   UNL     1     115.324 120.791 133.882  1.00  0.00     0.044 C 
ATOM      7  C   UNL     1     114.205 120.989 132.843  1.00  0.00     0.140 C 
ENDROOT
BRANCH   7   8
ATOM      8  O   UNL     1     113.641 119.749 132.500  1.00  0.00    -0.389 OA
ATOM      9  H   UNL     1     112.693 119.773 132.795  1.00  0.00     0.211 HD
ENDBRANCH   7   8
BRANCH   5  10
ATOM     10  C   UNL     1     117.655 119.867 134.240  1.00  0.00    -0.077 C 
ATOM     11  C   UNL     1     118.122 118.613 134.376  1.00  0.00     0.008 C 
ATOM     12  C   UNL     1     118.224 120.947 135.125  1.00  0.00     0.039 C 
ENDBRANCH   5  10
TORSDOF 2
ENDMDL
MODEL 9
REMARK VINA RESULT:    -4.531      2.474      5.143
REMARK INTER + INTRA:          -5.015
REMARK INTER:                  -4.924
REMARK INTRA:                  -0.091
REMARK UNBOUND:                -0.087
REMARK SMILES C=C(C)[C@@H]1CC=C(C)[C@@H](O)C1
REMARK SMILES IDX 8 1 7 2 6 3 5 4 4 5 11 6 9 7 10 8 2 10 1 11 3 12
REMARK H PARENT 10 9
REMARK Flexibility Score: inf
ROOT
ATOM      1  C   UNL     1     116.953 120.115 134.672  1.00  0.00     0.042 C 
ATOM      2  C   UNL     1     116.212 120.572 133.444  1.00  0.00    -0.049 C 
ATOM      3  C   UNL     1     114.942 120.154 133.255  1.00  0.00    -0.025 C 
ATOM      4  C   UNL     1     114.089 120.606 132.096  1.00  0.00     0.035 C 
ATOM      5  C   UNL     1     114.933 121.103 130.910  1.00  0.00     0.021 C 
ATOM      6  C   UNL     1     116.006 122.084 131.410  1.00  0.00     0.044 C 
ATOM      7  C   UNL     1     116.957 121.386 132.399  1.00  0.00     0.140 C 
ENDROOT
BRANCH   7   8
ATOM      8  O   UNL     1     117.832 120.533 131.707  1.00  0.00    -0.389 OA
ATOM      9  H   UNL     1     118.650 121.059 131.508  1.00  0.00     0.211 HD
ENDBRANCH   7   8
BRANCH   5  10
ATOM     10  C   UNL     1     114.064 121.723 129.824  1.00  0.00    -0.077 C 
ATOM     11  C   UNL     1     113.308 122.808 130.067  1.00  0.00     0.008 C 
ATOM     12  C   UNL     1     114.041 121.125 128.441  1.00  0.00     0.039 C 
ENDBRANCH   5  10
TORSDOF 2
ENDMDL
