MODEL 1
REMARK VINA RESULT:    -7.169      0.000      0.000
REMARK INTER + INTRA:         -11.626
REMARK INTER:                 -10.731
REMARK INTRA:                  -0.895
REMARK UNBOUND:                -0.895
REMARK SMILES O=c1c(O[C@H]2O[C@@H](CO)[C@H](O)[C@H](O)[C@@H]2O)c(-c2cc(O)c(O)c(O)c2)oc2cc(O)cc(O)c12
REMARK SMILES IDX 4 1 3 2 16 3 26 4 2 5 27 6 1 7 34 8 28 9 32 10 29 11 31 12
REMARK SMILES IDX 17 13 18 14 19 15 25 16 21 17 23 18 20 19 22 21 24 23 33 25
REMARK SMILES IDX 30 27 5 29 14 30 6 31 12 32 7 33 10 34 15 35 13 37 8 39 9 40
REMARK SMILES IDX 11 42
REMARK H PARENT 20 20 22 22 24 24 33 26 30 28 15 36 13 38 9 41 11 43
REMARK Flexibility Score: inf
ROOT
ATOM      1  O   UNL     1     -38.533   6.207  80.971  1.00  0.00    -0.454 OA
ENDROOT
BRANCH   1   2
ATOM      2  C   UNL     1     -39.269   5.464  80.036  1.00  0.00     0.214 A 
ATOM      3  C   UNL     1     -38.697   5.208  78.786  1.00  0.00     0.181 A 
ATOM      4  O   UNL     1     -39.367   4.529  77.865  1.00  0.00    -0.452 OA
ATOM      5  C   UNL     1     -40.565   4.995  80.297  1.00  0.00     0.239 A 
ATOM      6  C   UNL     1     -40.583   4.038  78.073  1.00  0.00     0.146 A 
ATOM      7  O   UNL     1     -41.134   5.343  81.364  1.00  0.00    -0.285 OA
ATOM      8  C   UNL     1     -41.238   4.216  79.322  1.00  0.00     0.111 A 
ATOM      9  C   UNL     1     -41.212   3.350  77.033  1.00  0.00     0.094 A 
ATOM     10  C   UNL     1     -42.531   3.637  79.499  1.00  0.00     0.134 A 
ATOM     11  C   UNL     1     -42.493   2.833  77.200  1.00  0.00     0.123 A 
ATOM     12  C   UNL     1     -43.148   2.982  78.425  1.00  0.00     0.093 A 
BRANCH   3  13
ATOM     13  C   UNL     1     -37.341   5.685  78.486  1.00  0.00     0.029 A 
ATOM     14  C   UNL     1     -36.238   4.868  78.760  1.00  0.00     0.062 A 
ATOM     15  C   UNL     1     -34.937   5.334  78.550  1.00  0.00     0.162 A 
ATOM     16  C   UNL     1     -37.144   6.986  78.015  1.00  0.00     0.062 A 
ATOM     17  C   UNL     1     -34.734   6.645  78.053  1.00  0.00     0.200 A 
ATOM     18  C   UNL     1     -35.850   7.467  77.797  1.00  0.00     0.162 A 
BRANCH  15  19
ATOM     19  O   UNL     1     -33.882   4.470  78.855  1.00  0.00    -0.504 OA
ATOM     20  H   UNL     1     -33.183   4.174  78.191  1.00  0.00     0.293 HD
ENDBRANCH  15  19
BRANCH  17  21
ATOM     21  O   UNL     1     -33.459   7.159  77.800  1.00  0.00    -0.502 OA
ATOM     22  H   UNL     1     -32.778   6.715  77.202  1.00  0.00     0.293 HD
ENDBRANCH  17  21
BRANCH  18  23
ATOM     23  O   UNL     1     -35.690   8.773  77.336  1.00  0.00    -0.504 OA
ATOM     24  H   UNL     1     -34.898   9.346  77.602  1.00  0.00     0.293 HD
ENDBRANCH  18  23
ENDBRANCH   3  13
BRANCH  10  25
ATOM     25  O   UNL     1     -43.234   3.651  80.709  1.00  0.00    -0.507 OA
ATOM     26  H   UNL     1     -43.057   3.037  81.490  1.00  0.00     0.293 HD
ENDBRANCH  10  25
BRANCH  11  27
ATOM     27  O   UNL     1     -43.110   2.166  76.143  1.00  0.00    -0.508 OA
ATOM     28  H   UNL     1     -42.590   1.876  75.323  1.00  0.00     0.293 HD
ENDBRANCH  11  27
ENDBRANCH   1   2
BRANCH   1  29
ATOM     29  C   UNL     1     -37.964   5.656  82.158  1.00  0.00     0.339 C 
ATOM     30  C   UNL     1     -36.416   5.764  82.052  1.00  0.00     0.214 C 
ATOM     31  O   UNL     1     -38.410   4.313  82.291  1.00  0.00    -0.332 OA
ATOM     32  C   UNL     1     -35.772   4.369  81.897  1.00  0.00     0.180 C 
ATOM     33  C   UNL     1     -37.752   3.673  83.368  1.00  0.00     0.179 C 
ATOM     34  C   UNL     1     -36.271   3.387  82.985  1.00  0.00     0.177 C 
BRANCH  30  35
ATOM     35  O   UNL     1     -35.913   6.419  83.191  1.00  0.00    -0.384 OA
ATOM     36  H   UNL     1     -36.684   6.577  83.800  1.00  0.00     0.211 HD
ENDBRANCH  30  35
BRANCH  32  37
ATOM     37  O   UNL     1     -34.370   4.454  81.922  1.00  0.00    -0.387 OA
ATOM     38  H   UNL     1     -34.062   4.368  80.983  1.00  0.00     0.211 HD
ENDBRANCH  32  37
BRANCH  33  39
ATOM     39  C   UNL     1     -38.507   2.379  83.692  1.00  0.00     0.191 C 
BRANCH  39  40
ATOM     40  O   UNL     1     -38.616   1.580  82.545  1.00  0.00    -0.394 OA
ATOM     41  H   UNL     1     -39.323   1.998  81.985  1.00  0.00     0.210 HD
ENDBRANCH  39  40
ENDBRANCH  33  39
BRANCH  34  42
ATOM     42  O   UNL     1     -35.443   3.402  84.125  1.00  0.00    -0.387 OA
ATOM     43  H   UNL     1     -34.776   2.675  84.027  1.00  0.00     0.211 HD
ENDBRANCH  34  42
ENDBRANCH   1  29
TORSDOF 13
ENDMDL
MODEL 2
REMARK VINA RESULT:    -6.591      2.527      6.793
REMARK INTER + INTRA:         -10.760
REMARK INTER:                  -9.675
REMARK INTRA:                  -1.085
REMARK UNBOUND:                -0.895
REMARK SMILES O=c1c(O[C@H]2O[C@@H](CO)[C@H](O)[C@H](O)[C@@H]2O)c(-c2cc(O)c(O)c(O)c2)oc2cc(O)cc(O)c12
REMARK SMILES IDX 4 1 3 2 16 3 26 4 2 5 27 6 1 7 34 8 28 9 32 10 29 11 31 12
REMARK SMILES IDX 17 13 18 14 19 15 25 16 21 17 23 18 20 19 22 21 24 23 33 25
REMARK SMILES IDX 30 27 5 29 14 30 6 31 12 32 7 33 10 34 15 35 13 37 8 39 9 40
REMARK SMILES IDX 11 42
REMARK H PARENT 20 20 22 22 24 24 33 26 30 28 15 36 13 38 9 41 11 43
REMARK Flexibility Score: inf
ROOT
ATOM      1  O   UNL     1     -38.555   5.044  78.526  1.00  0.00    -0.454 OA
ENDROOT
BRANCH   1   2
ATOM      2  C   UNL     1     -37.625   5.718  79.331  1.00  0.00     0.214 A 
ATOM      3  C   UNL     1     -37.588   7.115  79.284  1.00  0.00     0.181 A 
ATOM      4  O   UNL     1     -36.710   7.791  80.012  1.00  0.00    -0.452 OA
ATOM      5  C   UNL     1     -36.715   5.044  80.159  1.00  0.00     0.239 A 
ATOM      6  C   UNL     1     -35.849   7.202  80.834  1.00  0.00     0.146 A 
ATOM      7  O   UNL     1     -36.653   3.789  80.099  1.00  0.00    -0.285 OA
ATOM      8  C   UNL     1     -35.829   5.789  80.979  1.00  0.00     0.111 A 
ATOM      9  C   UNL     1     -34.954   8.002  81.548  1.00  0.00     0.094 A 
ATOM     10  C   UNL     1     -34.904   5.214  81.902  1.00  0.00     0.134 A 
ATOM     11  C   UNL     1     -34.022   7.427  82.407  1.00  0.00     0.123 A 
ATOM     12  C   UNL     1     -33.996   6.041  82.577  1.00  0.00     0.093 A 
BRANCH   3  13
ATOM     13  C   UNL     1     -38.531   7.847  78.428  1.00  0.00     0.029 A 
ATOM     14  C   UNL     1     -39.852   8.038  78.849  1.00  0.00     0.062 A 
ATOM     15  C   UNL     1     -40.781   8.667  78.016  1.00  0.00     0.162 A 
ATOM     16  C   UNL     1     -38.137   8.272  77.155  1.00  0.00     0.062 A 
ATOM     17  C   UNL     1     -40.380   9.117  76.734  1.00  0.00     0.200 A 
ATOM     18  C   UNL     1     -39.053   8.904  76.311  1.00  0.00     0.162 A 
BRANCH  15  19
ATOM     19  O   UNL     1     -42.085   8.815  78.495  1.00  0.00    -0.504 OA
ATOM     20  H   UNL     1     -42.680   9.601  78.283  1.00  0.00     0.293 HD
ENDBRANCH  15  19
BRANCH  17  21
ATOM     21  O   UNL     1     -41.257   9.774  75.865  1.00  0.00    -0.502 OA
ATOM     22  H   UNL     1     -41.972   9.309  75.325  1.00  0.00     0.293 HD
ENDBRANCH  17  21
BRANCH  18  23
ATOM     23  O   UNL     1     -38.629   9.306  75.044  1.00  0.00    -0.504 OA
ATOM     24  H   UNL     1     -39.179   9.135  74.212  1.00  0.00     0.293 HD
ENDBRANCH  18  23
ENDBRANCH   3  13
BRANCH  10  25
ATOM     25  O   UNL     1     -34.855   3.851  82.212  1.00  0.00    -0.507 OA
ATOM     26  H   UNL     1     -34.286   3.440  82.937  1.00  0.00     0.293 HD
ENDBRANCH  10  25
BRANCH  11  27
ATOM     27  O   UNL     1     -33.126   8.243  83.095  1.00  0.00    -0.508 OA
ATOM     28  H   UNL     1     -32.332   7.858  83.593  1.00  0.00     0.293 HD
ENDBRANCH  11  27
ENDBRANCH   1   2
BRANCH   1  29
ATOM     29  C   UNL     1     -39.391   3.984  78.987  1.00  0.00     0.339 C 
ATOM     30  C   UNL     1     -40.005   3.273  77.747  1.00  0.00     0.214 C 
ATOM     31  O   UNL     1     -40.380   4.532  79.849  1.00  0.00    -0.332 OA
ATOM     32  C   UNL     1     -41.524   3.533  77.654  1.00  0.00     0.180 C 
ATOM     33  C   UNL     1     -41.327   3.546  80.210  1.00  0.00     0.179 C 
ATOM     34  C   UNL     1     -42.239   3.219  78.991  1.00  0.00     0.177 C 
BRANCH  30  35
ATOM     35  O   UNL     1     -39.742   1.893  77.821  1.00  0.00    -0.384 OA
ATOM     36  H   UNL     1     -39.322   1.629  76.958  1.00  0.00     0.211 HD
ENDBRANCH  30  35
BRANCH  32  37
ATOM     37  O   UNL     1     -42.100   2.796  76.607  1.00  0.00    -0.387 OA
ATOM     38  H   UNL     1     -41.681   1.897  76.627  1.00  0.00     0.211 HD
ENDBRANCH  32  37
BRANCH  33  39
ATOM     39  C   UNL     1     -42.145   4.075  81.394  1.00  0.00     0.191 C 
BRANCH  39  40
ATOM     40  O   UNL     1     -43.509   4.100  81.070  1.00  0.00    -0.394 OA
ATOM     41  H   UNL     1     -43.680   4.992  80.668  1.00  0.00     0.210 HD
ENDBRANCH  39  40
ENDBRANCH  33  39
BRANCH  34  42
ATOM     42  O   UNL     1     -42.692   1.885  79.043  1.00  0.00    -0.387 OA
ATOM     43  H   UNL     1     -43.617   1.892  79.398  1.00  0.00     0.211 HD
ENDBRANCH  34  42
ENDBRANCH   1  29
TORSDOF 13
ENDMDL
MODEL 3
REMARK VINA RESULT:    -6.586      2.586      6.833
REMARK INTER + INTRA:         -10.754
REMARK INTER:                  -9.685
REMARK INTRA:                  -1.069
REMARK UNBOUND:                -0.895
REMARK SMILES O=c1c(O[C@H]2O[C@@H](CO)[C@H](O)[C@H](O)[C@@H]2O)c(-c2cc(O)c(O)c(O)c2)oc2cc(O)cc(O)c12
REMARK SMILES IDX 4 1 3 2 16 3 26 4 2 5 27 6 1 7 34 8 28 9 32 10 29 11 31 12
REMARK SMILES IDX 17 13 18 14 19 15 25 16 21 17 23 18 20 19 22 21 24 23 33 25
REMARK SMILES IDX 30 27 5 29 14 30 6 31 12 32 7 33 10 34 15 35 13 37 8 39 9 40
REMARK SMILES IDX 11 42
REMARK H PARENT 20 20 22 22 24 24 33 26 30 28 15 36 13 38 9 41 11 43
REMARK Flexibility Score: inf
ROOT
ATOM      1  O   UNL     1     -38.678   5.080  78.448  1.00  0.00    -0.454 OA
ENDROOT
BRANCH   1   2
ATOM      2  C   UNL     1     -37.732   5.765  79.228  1.00  0.00     0.214 A 
ATOM      3  C   UNL     1     -37.706   7.161  79.174  1.00  0.00     0.181 A 
ATOM      4  O   UNL     1     -36.815   7.846  79.877  1.00  0.00    -0.452 OA
ATOM      5  C   UNL     1     -36.798   5.100  80.036  1.00  0.00     0.239 A 
ATOM      6  C   UNL     1     -35.930   7.266  80.680  1.00  0.00     0.146 A 
ATOM      7  O   UNL     1     -36.729   3.845  79.979  1.00  0.00    -0.285 OA
ATOM      8  C   UNL     1     -35.897   5.853  80.830  1.00  0.00     0.111 A 
ATOM      9  C   UNL     1     -35.022   8.075  81.368  1.00  0.00     0.094 A 
ATOM     10  C   UNL     1     -34.945   5.288  81.733  1.00  0.00     0.134 A 
ATOM     11  C   UNL     1     -34.066   7.510  82.206  1.00  0.00     0.123 A 
ATOM     12  C   UNL     1     -34.027   6.124  82.381  1.00  0.00     0.093 A 
BRANCH   3  13
ATOM     13  C   UNL     1     -38.674   7.884  78.338  1.00  0.00     0.029 A 
ATOM     14  C   UNL     1     -38.258   8.465  77.135  1.00  0.00     0.062 A 
ATOM     15  C   UNL     1     -39.148   9.218  76.363  1.00  0.00     0.162 A 
ATOM     16  C   UNL     1     -39.985   8.070  78.785  1.00  0.00     0.062 A 
ATOM     17  C   UNL     1     -40.483   9.392  76.803  1.00  0.00     0.200 A 
ATOM     18  C   UNL     1     -40.887   8.818  78.026  1.00  0.00     0.162 A 
BRANCH  15  19
ATOM     19  O   UNL     1     -38.663   9.779  75.179  1.00  0.00    -0.504 OA
ATOM     20  H   UNL     1     -39.206  10.375  74.571  1.00  0.00     0.293 HD
ENDBRANCH  15  19
BRANCH  17  21
ATOM     21  O   UNL     1     -41.425  10.114  76.065  1.00  0.00    -0.502 OA
ATOM     22  H   UNL     1     -41.704   9.882  75.122  1.00  0.00     0.293 HD
ENDBRANCH  17  21
BRANCH  18  23
ATOM     23  O   UNL     1     -42.185   8.993  78.507  1.00  0.00    -0.504 OA
ATOM     24  H   UNL     1     -42.884   9.516  77.995  1.00  0.00     0.293 HD
ENDBRANCH  18  23
ENDBRANCH   3  13
BRANCH  10  25
ATOM     25  O   UNL     1     -34.881   3.927  82.048  1.00  0.00    -0.507 OA
ATOM     26  H   UNL     1     -35.508   3.446  82.674  1.00  0.00     0.293 HD
ENDBRANCH  10  25
BRANCH  11  27
ATOM     27  O   UNL     1     -33.158   8.334  82.869  1.00  0.00    -0.508 OA
ATOM     28  H   UNL     1     -33.077   8.332  83.879  1.00  0.00     0.293 HD
ENDBRANCH  11  27
ENDBRANCH   1   2
BRANCH   1  29
ATOM     29  C   UNL     1     -39.491   4.014  78.934  1.00  0.00     0.339 C 
ATOM     30  C   UNL     1     -40.112   3.280  77.710  1.00  0.00     0.214 C 
ATOM     31  O   UNL     1     -40.476   4.556  79.804  1.00  0.00    -0.332 OA
ATOM     32  C   UNL     1     -41.636   3.517  77.637  1.00  0.00     0.180 C 
ATOM     33  C   UNL     1     -41.403   3.560  80.189  1.00  0.00     0.179 C 
ATOM     34  C   UNL     1     -42.327   3.207  78.987  1.00  0.00     0.177 C 
BRANCH  30  35
ATOM     35  O   UNL     1     -39.827   1.905  77.795  1.00  0.00    -0.384 OA
ATOM     36  H   UNL     1     -39.927   1.645  78.751  1.00  0.00     0.211 HD
ENDBRANCH  30  35
BRANCH  32  37
ATOM     37  O   UNL     1     -42.217   2.760  76.606  1.00  0.00    -0.387 OA
ATOM     38  H   UNL     1     -41.500   2.583  75.943  1.00  0.00     0.211 HD
ENDBRANCH  32  37
BRANCH  33  39
ATOM     39  C   UNL     1     -42.211   4.090  81.379  1.00  0.00     0.191 C 
BRANCH  39  40
ATOM     40  O   UNL     1     -43.576   4.129  81.061  1.00  0.00    -0.394 OA
ATOM     41  H   UNL     1     -43.833   3.195  80.837  1.00  0.00     0.210 HD
ENDBRANCH  39  40
ENDBRANCH  33  39
BRANCH  34  42
ATOM     42  O   UNL     1     -42.759   1.868  79.059  1.00  0.00    -0.387 OA
ATOM     43  H   UNL     1     -43.512   1.825  79.703  1.00  0.00     0.211 HD
ENDBRANCH  34  42
ENDBRANCH   1  29
TORSDOF 13
ENDMDL
MODEL 4
REMARK VINA RESULT:    -6.468      1.629      4.975
REMARK INTER + INTRA:         -10.577
REMARK INTER:                  -9.719
REMARK INTRA:                  -0.858
REMARK UNBOUND:                -0.895
REMARK SMILES O=c1c(O[C@H]2O[C@@H](CO)[C@H](O)[C@H](O)[C@@H]2O)c(-c2cc(O)c(O)c(O)c2)oc2cc(O)cc(O)c12
REMARK SMILES IDX 4 1 3 2 16 3 26 4 2 5 27 6 1 7 34 8 28 9 32 10 29 11 31 12
REMARK SMILES IDX 17 13 18 14 19 15 25 16 21 17 23 18 20 19 22 21 24 23 33 25
REMARK SMILES IDX 30 27 5 29 14 30 6 31 12 32 7 33 10 34 15 35 13 37 8 39 9 40
REMARK SMILES IDX 11 42
REMARK H PARENT 20 20 22 22 24 24 33 26 30 28 15 36 13 38 9 41 11 43
REMARK Flexibility Score: inf
ROOT
ATOM      1  O   UNL     1     -36.533   3.746  79.276  1.00  0.00    -0.454 OA
ENDROOT
BRANCH   1   2
ATOM      2  C   UNL     1     -37.860   3.884  79.711  1.00  0.00     0.214 A 
ATOM      3  C   UNL     1     -38.095   4.381  80.996  1.00  0.00     0.181 A 
ATOM      4  O   UNL     1     -39.332   4.507  81.454  1.00  0.00    -0.452 OA
ATOM      5  C   UNL     1     -38.956   3.516  78.916  1.00  0.00     0.239 A 
ATOM      6  C   UNL     1     -40.404   4.202  80.731  1.00  0.00     0.146 A 
ATOM      7  O   UNL     1     -38.744   2.940  77.817  1.00  0.00    -0.285 OA
ATOM      8  C   UNL     1     -40.272   3.720  79.401  1.00  0.00     0.111 A 
ATOM      9  C   UNL     1     -41.666   4.356  81.310  1.00  0.00     0.094 A 
ATOM     10  C   UNL     1     -41.461   3.439  78.660  1.00  0.00     0.134 A 
ATOM     11  C   UNL     1     -42.815   4.032  80.596  1.00  0.00     0.123 A 
ATOM     12  C   UNL     1     -42.710   3.572  79.281  1.00  0.00     0.093 A 
BRANCH   3  13
ATOM     13  C   UNL     1     -36.966   4.776  81.849  1.00  0.00     0.029 A 
ATOM     14  C   UNL     1     -36.903   6.076  82.364  1.00  0.00     0.062 A 
ATOM     15  C   UNL     1     -35.801   6.492  83.117  1.00  0.00     0.162 A 
ATOM     16  C   UNL     1     -35.911   3.887  82.071  1.00  0.00     0.062 A 
ATOM     17  C   UNL     1     -34.739   5.586  83.361  1.00  0.00     0.200 A 
ATOM     18  C   UNL     1     -34.802   4.285  82.823  1.00  0.00     0.162 A 
BRANCH  15  19
ATOM     19  O   UNL     1     -35.798   7.806  83.590  1.00  0.00    -0.504 OA
ATOM     20  H   UNL     1     -34.968   8.371  83.686  1.00  0.00     0.293 HD
ENDBRANCH  15  19
BRANCH  17  21
ATOM     21  O   UNL     1     -33.621   5.935  84.125  1.00  0.00    -0.502 OA
ATOM     22  H   UNL     1     -32.682   6.000  83.758  1.00  0.00     0.293 HD
ENDBRANCH  17  21
BRANCH  18  23
ATOM     23  O   UNL     1     -33.762   3.376  83.017  1.00  0.00    -0.504 OA
ATOM     24  H   UNL     1     -32.938   3.366  82.429  1.00  0.00     0.293 HD
ENDBRANCH  18  23
ENDBRANCH   3  13
BRANCH  10  25
ATOM     25  O   UNL     1     -41.470   3.061  77.313  1.00  0.00    -0.507 OA
ATOM     26  H   UNL     1     -42.287   3.040  76.722  1.00  0.00     0.293 HD
ENDBRANCH  10  25
BRANCH  11  27
ATOM     27  O   UNL     1     -44.063   4.175  81.199  1.00  0.00    -0.508 OA
ATOM     28  H   UNL     1     -44.382   5.069  81.555  1.00  0.00     0.293 HD
ENDBRANCH  11  27
ENDBRANCH   1   2
BRANCH   1  29
ATOM     29  C   UNL     1     -35.850   4.710  78.477  1.00  0.00     0.339 C 
ATOM     30  C   UNL     1     -34.582   5.173  79.251  1.00  0.00     0.214 C 
ATOM     31  O   UNL     1     -36.743   5.781  78.200  1.00  0.00    -0.332 OA
ATOM     32  C   UNL     1     -34.720   6.640  79.713  1.00  0.00     0.180 C 
ATOM     33  C   UNL     1     -36.068   6.835  77.542  1.00  0.00     0.179 C 
ATOM     34  C   UNL     1     -35.132   7.569  78.546  1.00  0.00     0.177 C 
BRANCH  30  35
ATOM     35  O   UNL     1     -33.450   5.016  78.431  1.00  0.00    -0.384 OA
ATOM     36  H   UNL     1     -33.707   4.398  77.695  1.00  0.00     0.211 HD
ENDBRANCH  30  35
BRANCH  32  37
ATOM     37  O   UNL     1     -33.531   7.098  80.305  1.00  0.00    -0.387 OA
ATOM     38  H   UNL     1     -33.216   6.375  80.908  1.00  0.00     0.211 HD
ENDBRANCH  32  37
BRANCH  33  39
ATOM     39  C   UNL     1     -37.117   7.787  76.956  1.00  0.00     0.191 C 
BRANCH  39  40
ATOM     40  O   UNL     1     -38.156   7.057  76.361  1.00  0.00    -0.394 OA
ATOM     41  H   UNL     1     -38.193   6.188  76.842  1.00  0.00     0.210 HD
ENDBRANCH  39  40
ENDBRANCH  33  39
BRANCH  34  42
ATOM     42  O   UNL     1     -34.011   8.112  77.887  1.00  0.00    -0.387 OA
ATOM     43  H   UNL     1     -33.303   7.418  77.869  1.00  0.00     0.211 HD
ENDBRANCH  34  42
ENDBRANCH   1  29
TORSDOF 13
ENDMDL
MODEL 5
REMARK VINA RESULT:    -6.295      2.705      5.796
REMARK INTER + INTRA:         -10.318
REMARK INTER:                  -9.193
REMARK INTRA:                  -1.124
REMARK UNBOUND:                -0.895
REMARK SMILES O=c1c(O[C@H]2O[C@@H](CO)[C@H](O)[C@H](O)[C@@H]2O)c(-c2cc(O)c(O)c(O)c2)oc2cc(O)cc(O)c12
REMARK SMILES IDX 4 1 3 2 16 3 26 4 2 5 27 6 1 7 34 8 28 9 32 10 29 11 31 12
REMARK SMILES IDX 17 13 18 14 19 15 25 16 21 17 23 18 20 19 22 21 24 23 33 25
REMARK SMILES IDX 30 27 5 29 14 30 6 31 12 32 7 33 10 34 15 35 13 37 8 39 9 40
REMARK SMILES IDX 11 42
REMARK H PARENT 20 20 22 22 24 24 33 26 30 28 15 36 13 38 9 41 11 43
REMARK Flexibility Score: inf
ROOT
ATOM      1  O   UNL     1     -37.223   8.220  80.149  1.00  0.00    -0.454 OA
ENDROOT
BRANCH   1   2
ATOM      2  C   UNL     1     -37.913   7.066  80.551  1.00  0.00     0.214 A 
ATOM      3  C   UNL     1     -39.099   6.732  79.889  1.00  0.00     0.181 A 
ATOM      4  O   UNL     1     -39.794   5.662  80.251  1.00  0.00    -0.452 OA
ATOM      5  C   UNL     1     -37.474   6.253  81.606  1.00  0.00     0.239 A 
ATOM      6  C   UNL     1     -39.405   4.844  81.222  1.00  0.00     0.146 A 
ATOM      7  O   UNL     1     -36.487   6.627  82.291  1.00  0.00    -0.285 OA
ATOM      8  C   UNL     1     -38.198   5.078  81.933  1.00  0.00     0.111 A 
ATOM      9  C   UNL     1     -40.216   3.751  81.538  1.00  0.00     0.094 A 
ATOM     10  C   UNL     1     -37.814   4.146  82.945  1.00  0.00     0.134 A 
ATOM     11  C   UNL     1     -39.858   2.878  82.560  1.00  0.00     0.123 A 
ATOM     12  C   UNL     1     -38.666   3.080  83.261  1.00  0.00     0.093 A 
BRANCH   3  13
ATOM     13  C   UNL     1     -39.581   7.564  78.779  1.00  0.00     0.029 A 
ATOM     14  C   UNL     1     -40.613   8.484  78.995  1.00  0.00     0.062 A 
ATOM     15  C   UNL     1     -41.134   9.232  77.935  1.00  0.00     0.162 A 
ATOM     16  C   UNL     1     -39.077   7.373  77.489  1.00  0.00     0.062 A 
ATOM     17  C   UNL     1     -40.611   9.056  76.630  1.00  0.00     0.200 A 
ATOM     18  C   UNL     1     -39.585   8.113  76.419  1.00  0.00     0.162 A 
BRANCH  15  19
ATOM     19  O   UNL     1     -42.171  10.124  78.219  1.00  0.00    -0.504 OA
ATOM     20  H   UNL     1     -42.581  10.242  79.134  1.00  0.00     0.293 HD
ENDBRANCH  15  19
BRANCH  17  21
ATOM     21  O   UNL     1     -41.074   9.790  75.534  1.00  0.00    -0.502 OA
ATOM     22  H   UNL     1     -41.095   9.440  74.587  1.00  0.00     0.293 HD
ENDBRANCH  17  21
BRANCH  18  23
ATOM     23  O   UNL     1     -39.066   7.890  75.144  1.00  0.00    -0.504 OA
ATOM     24  H   UNL     1     -38.487   7.088  74.929  1.00  0.00     0.293 HD
ENDBRANCH  18  23
ENDBRANCH   3  13
BRANCH  10  25
ATOM     25  O   UNL     1     -36.603   4.205  83.642  1.00  0.00    -0.507 OA
ATOM     26  H   UNL     1     -35.844   4.836  83.435  1.00  0.00     0.293 HD
ENDBRANCH  10  25
BRANCH  11  27
ATOM     27  O   UNL     1     -40.691   1.804  82.872  1.00  0.00    -0.508 OA
ATOM     28  H   UNL     1     -40.622   1.319  83.759  1.00  0.00     0.293 HD
ENDBRANCH  11  27
ENDBRANCH   1   2
BRANCH   1  29
ATOM     29  C   UNL     1     -36.059   8.207  79.324  1.00  0.00     0.339 C 
ATOM     30  C   UNL     1     -35.794   6.740  78.879  1.00  0.00     0.214 C 
ATOM     31  O   UNL     1     -34.977   8.759  80.061  1.00  0.00    -0.332 OA
ATOM     32  C   UNL     1     -34.514   6.184  79.540  1.00  0.00     0.180 C 
ATOM     33  C   UNL     1     -33.766   8.628  79.343  1.00  0.00     0.179 C 
ATOM     34  C   UNL     1     -33.311   7.139  79.346  1.00  0.00     0.177 C 
BRANCH  30  35
ATOM     35  O   UNL     1     -35.691   6.688  77.477  1.00  0.00    -0.384 OA
ATOM     36  H   UNL     1     -35.472   7.607  77.166  1.00  0.00     0.211 HD
ENDBRANCH  30  35
BRANCH  32  37
ATOM     37  O   UNL     1     -34.206   4.905  79.048  1.00  0.00    -0.387 OA
ATOM     38  H   UNL     1     -35.059   4.507  78.734  1.00  0.00     0.211 HD
ENDBRANCH  32  37
BRANCH  33  39
ATOM     39  C   UNL     1     -32.717   9.534  79.997  1.00  0.00     0.191 C 
BRANCH  39  40
ATOM     40  O   UNL     1     -31.611   8.778  80.410  1.00  0.00    -0.394 OA
ATOM     41  H   UNL     1     -31.399   9.080  81.333  1.00  0.00     0.210 HD
ENDBRANCH  39  40
ENDBRANCH  33  39
BRANCH  34  42
ATOM     42  O   UNL     1     -32.580   6.832  78.181  1.00  0.00    -0.387 OA
ATOM     43  H   UNL     1     -31.880   7.525  78.069  1.00  0.00     0.211 HD
ENDBRANCH  34  42
ENDBRANCH   1  29
TORSDOF 13
ENDMDL
MODEL 6
REMARK VINA RESULT:    -6.155      2.342      6.676
REMARK INTER + INTRA:         -10.108
REMARK INTER:                  -9.120
REMARK INTRA:                  -0.988
REMARK UNBOUND:                -0.895
REMARK SMILES O=c1c(O[C@H]2O[C@@H](CO)[C@H](O)[C@H](O)[C@@H]2O)c(-c2cc(O)c(O)c(O)c2)oc2cc(O)cc(O)c12
REMARK SMILES IDX 4 1 3 2 16 3 26 4 2 5 27 6 1 7 34 8 28 9 32 10 29 11 31 12
REMARK SMILES IDX 17 13 18 14 19 15 25 16 21 17 23 18 20 19 22 21 24 23 33 25
REMARK SMILES IDX 30 27 5 29 14 30 6 31 12 32 7 33 10 34 15 35 13 37 8 39 9 40
REMARK SMILES IDX 11 42
REMARK H PARENT 20 20 22 22 24 24 33 26 30 28 15 36 13 38 9 41 11 43
REMARK Flexibility Score: inf
ROOT
ATOM      1  O   UNL     1     -39.092   4.678  78.205  1.00  0.00    -0.454 OA
ENDROOT
BRANCH   1   2
ATOM      2  C   UNL     1     -38.336   5.239  79.247  1.00  0.00     0.214 A 
ATOM      3  C   UNL     1     -38.228   6.631  79.320  1.00  0.00     0.181 A 
ATOM      4  O   UNL     1     -37.506   7.201  80.275  1.00  0.00    -0.452 OA
ATOM      5  C   UNL     1     -37.664   4.456  80.197  1.00  0.00     0.239 A 
ATOM      6  C   UNL     1     -36.877   6.506  81.216  1.00  0.00     0.146 A 
ATOM      7  O   UNL     1     -37.645   3.206  80.051  1.00  0.00    -0.285 OA
ATOM      8  C   UNL     1     -36.951   5.087  81.248  1.00  0.00     0.111 A 
ATOM      9  C   UNL     1     -36.128   7.200  82.170  1.00  0.00     0.094 A 
ATOM     10  C   UNL     1     -36.281   4.396  82.302  1.00  0.00     0.134 A 
ATOM     11  C   UNL     1     -35.438   6.513  83.163  1.00  0.00     0.123 A 
ATOM     12  C   UNL     1     -35.511   5.118  83.223  1.00  0.00     0.093 A 
BRANCH   3  13
ATOM     13  C   UNL     1     -38.923   7.475  78.340  1.00  0.00     0.029 A 
ATOM     14  C   UNL     1     -40.078   8.172  78.714  1.00  0.00     0.062 A 
ATOM     15  C   UNL     1     -40.793   8.921  77.775  1.00  0.00     0.162 A 
ATOM     16  C   UNL     1     -38.487   7.512  77.012  1.00  0.00     0.062 A 
ATOM     17  C   UNL     1     -40.342   8.976  76.433  1.00  0.00     0.200 A 
ATOM     18  C   UNL     1     -39.189   8.257  76.061  1.00  0.00     0.162 A 
BRANCH  15  19
ATOM     19  O   UNL     1     -41.943   9.581  78.214  1.00  0.00    -0.504 OA
ATOM     20  H   UNL     1     -42.053  10.585  78.218  1.00  0.00     0.293 HD
ENDBRANCH  15  19
BRANCH  17  21
ATOM     21  O   UNL     1     -41.001   9.726  75.454  1.00  0.00    -0.502 OA
ATOM     22  H   UNL     1     -41.145  10.725  75.508  1.00  0.00     0.293 HD
ENDBRANCH  17  21
BRANCH  18  23
ATOM     23  O   UNL     1     -38.731   8.263  74.744  1.00  0.00    -0.504 OA
ATOM     24  H   UNL     1     -39.339   8.473  73.963  1.00  0.00     0.293 HD
ENDBRANCH  18  23
ENDBRANCH   3  13
BRANCH  10  25
ATOM     25  O   UNL     1     -36.363   3.014  82.505  1.00  0.00    -0.507 OA
ATOM     26  H   UNL     1     -37.074   2.549  83.049  1.00  0.00     0.293 HD
ENDBRANCH  10  25
BRANCH  11  27
ATOM     27  O   UNL     1     -34.682   7.224  84.094  1.00  0.00    -0.508 OA
ATOM     28  H   UNL     1     -34.248   8.109  83.860  1.00  0.00     0.293 HD
ENDBRANCH  11  27
ENDBRANCH   1   2
BRANCH   1  29
ATOM     29  C   UNL     1     -40.514   4.579  78.216  1.00  0.00     0.339 C 
ATOM     30  C   UNL     1     -40.983   4.457  79.694  1.00  0.00     0.214 C 
ATOM     31  O   UNL     1     -40.895   3.459  77.428  1.00  0.00    -0.332 OA
ATOM     32  C   UNL     1     -41.551   3.051  79.982  1.00  0.00     0.180 C 
ATOM     33  C   UNL     1     -42.286   3.226  77.532  1.00  0.00     0.179 C 
ATOM     34  C   UNL     1     -42.618   2.642  78.936  1.00  0.00     0.177 C 
BRANCH  30  35
ATOM     35  O   UNL     1     -41.948   5.446  79.963  1.00  0.00    -0.384 OA
ATOM     36  H   UNL     1     -41.456   6.294  80.132  1.00  0.00     0.211 HD
ENDBRANCH  30  35
BRANCH  32  37
ATOM     37  O   UNL     1     -42.085   2.976  81.279  1.00  0.00    -0.387 OA
ATOM     38  H   UNL     1     -42.887   2.394  81.224  1.00  0.00     0.211 HD
ENDBRANCH  32  37
BRANCH  33  39
ATOM     39  C   UNL     1     -42.697   2.261  76.414  1.00  0.00     0.191 C 
BRANCH  39  40
ATOM     40  O   UNL     1     -43.969   2.595  75.927  1.00  0.00    -0.394 OA
ATOM     41  H   UNL     1     -44.545   2.723  76.726  1.00  0.00     0.210 HD
ENDBRANCH  39  40
ENDBRANCH  33  39
BRANCH  34  42
ATOM     42  O   UNL     1     -43.917   3.011  79.342  1.00  0.00    -0.387 OA
ATOM     43  H   UNL     1     -44.564   2.486  78.804  1.00  0.00     0.211 HD
ENDBRANCH  34  42
ENDBRANCH   1  29
TORSDOF 13
ENDMDL
MODEL 7
REMARK VINA RESULT:    -5.957      2.557      5.333
REMARK INTER + INTRA:          -9.812
REMARK INTER:                  -8.556
REMARK INTRA:                  -1.256
REMARK UNBOUND:                -0.895
REMARK SMILES O=c1c(O[C@H]2O[C@@H](CO)[C@H](O)[C@H](O)[C@@H]2O)c(-c2cc(O)c(O)c(O)c2)oc2cc(O)cc(O)c12
REMARK SMILES IDX 4 1 3 2 16 3 26 4 2 5 27 6 1 7 34 8 28 9 32 10 29 11 31 12
REMARK SMILES IDX 17 13 18 14 19 15 25 16 21 17 23 18 20 19 22 21 24 23 33 25
REMARK SMILES IDX 30 27 5 29 14 30 6 31 12 32 7 33 10 34 15 35 13 37 8 39 9 40
REMARK SMILES IDX 11 42
REMARK H PARENT 20 20 22 22 24 24 33 26 30 28 15 36 13 38 9 41 11 43
REMARK Flexibility Score: inf
ROOT
ATOM      1  O   UNL     1     -37.838   7.866  80.464  1.00  0.00    -0.454 OA
ENDROOT
BRANCH   1   2
ATOM      2  C   UNL     1     -38.639   6.766  80.806  1.00  0.00     0.214 A 
ATOM      3  C   UNL     1     -39.747   6.471  80.006  1.00  0.00     0.181 A 
ATOM      4  O   UNL     1     -40.543   5.454  80.306  1.00  0.00    -0.452 OA
ATOM      5  C   UNL     1     -38.386   5.970  81.933  1.00  0.00     0.239 A 
ATOM      6  C   UNL     1     -40.329   4.652  81.343  1.00  0.00     0.146 A 
ATOM      7  O   UNL     1     -37.475   6.316  82.729  1.00  0.00    -0.285 OA
ATOM      8  C   UNL     1     -39.211   4.848  82.198  1.00  0.00     0.111 A 
ATOM      9  C   UNL     1     -41.235   3.616  81.583  1.00  0.00     0.094 A 
ATOM     10  C   UNL     1     -39.015   3.935  83.278  1.00  0.00     0.134 A 
ATOM     11  C   UNL     1     -41.061   2.763  82.669  1.00  0.00     0.123 A 
ATOM     12  C   UNL     1     -39.959   2.928  83.512  1.00  0.00     0.093 A 
BRANCH   3  13
ATOM     13  C   UNL     1     -40.035   7.286  78.818  1.00  0.00     0.029 A 
ATOM     14  C   UNL     1     -39.258   7.134  77.664  1.00  0.00     0.062 A 
ATOM     15  C   UNL     1     -39.470   7.953  76.550  1.00  0.00     0.162 A 
ATOM     16  C   UNL     1     -41.020   8.276  78.870  1.00  0.00     0.062 A 
ATOM     17  C   UNL     1     -40.482   8.943  76.592  1.00  0.00     0.200 A 
ATOM     18  C   UNL     1     -41.246   9.102  77.765  1.00  0.00     0.162 A 
BRANCH  15  19
ATOM     19  O   UNL     1     -38.651   7.754  75.436  1.00  0.00    -0.504 OA
ATOM     20  H   UNL     1     -38.875   7.132  74.673  1.00  0.00     0.293 HD
ENDBRANCH  15  19
BRANCH  17  21
ATOM     21  O   UNL     1     -40.757   9.776  75.503  1.00  0.00    -0.502 OA
ATOM     22  H   UNL     1     -40.762   9.467  74.541  1.00  0.00     0.293 HD
ENDBRANCH  17  21
BRANCH  18  23
ATOM     23  O   UNL     1     -42.230  10.086  77.854  1.00  0.00    -0.504 OA
ATOM     24  H   UNL     1     -42.726  10.428  77.041  1.00  0.00     0.293 HD
ENDBRANCH  18  23
ENDBRANCH   3  13
BRANCH  10  25
ATOM     25  O   UNL     1     -37.901   3.956  84.125  1.00  0.00    -0.507 OA
ATOM     26  H   UNL     1     -37.920   4.202  85.103  1.00  0.00     0.293 HD
ENDBRANCH  10  25
BRANCH  11  27
ATOM     27  O   UNL     1     -41.987   1.748  82.901  1.00  0.00    -0.508 OA
ATOM     28  H   UNL     1     -42.164   1.394  83.834  1.00  0.00     0.293 HD
ENDBRANCH  11  27
ENDBRANCH   1   2
BRANCH   1  29
ATOM     29  C   UNL     1     -36.450   7.776  80.148  1.00  0.00     0.339 C 
ATOM     30  C   UNL     1     -36.095   8.937  79.176  1.00  0.00     0.214 C 
ATOM     31  O   UNL     1     -36.197   6.495  79.584  1.00  0.00    -0.332 OA
ATOM     32  C   UNL     1     -35.766   8.400  77.766  1.00  0.00     0.180 C 
ATOM     33  C   UNL     1     -34.867   6.412  79.112  1.00  0.00     0.179 C 
ATOM     34  C   UNL     1     -34.713   7.266  77.820  1.00  0.00     0.177 C 
BRANCH  30  35
ATOM     35  O   UNL     1     -35.010   9.667  79.694  1.00  0.00    -0.384 OA
ATOM     36  H   UNL     1     -34.484   9.042  80.263  1.00  0.00     0.211 HD
ENDBRANCH  30  35
BRANCH  32  37
ATOM     37  O   UNL     1     -35.329   9.433  76.920  1.00  0.00    -0.387 OA
ATOM     38  H   UNL     1     -34.555   9.861  77.369  1.00  0.00     0.211 HD
ENDBRANCH  32  37
BRANCH  33  39
ATOM     39  C   UNL     1     -34.541   4.937  78.849  1.00  0.00     0.191 C 
BRANCH  39  40
ATOM     40  O   UNL     1     -33.154   4.733  78.883  1.00  0.00    -0.394 OA
ATOM     41  H   UNL     1     -32.742   5.638  78.883  1.00  0.00     0.210 HD
ENDBRANCH  39  40
ENDBRANCH  33  39
BRANCH  34  42
ATOM     42  O   UNL     1     -33.400   7.765  77.698  1.00  0.00    -0.387 OA
ATOM     43  H   UNL     1     -33.077   7.999  78.606  1.00  0.00     0.211 HD
ENDBRANCH  34  42
ENDBRANCH   1  29
TORSDOF 13
ENDMDL
MODEL 8
REMARK VINA RESULT:    -5.953      2.154      7.415
REMARK INTER + INTRA:          -9.806
REMARK INTER:                  -8.994
REMARK INTRA:                  -0.812
REMARK UNBOUND:                -0.895
REMARK SMILES O=c1c(O[C@H]2O[C@@H](CO)[C@H](O)[C@H](O)[C@@H]2O)c(-c2cc(O)c(O)c(O)c2)oc2cc(O)cc(O)c12
REMARK SMILES IDX 4 1 3 2 16 3 26 4 2 5 27 6 1 7 34 8 28 9 32 10 29 11 31 12
REMARK SMILES IDX 17 13 18 14 19 15 25 16 21 17 23 18 20 19 22 21 24 23 33 25
REMARK SMILES IDX 30 27 5 29 14 30 6 31 12 32 7 33 10 34 15 35 13 37 8 39 9 40
REMARK SMILES IDX 11 42
REMARK H PARENT 20 20 22 22 24 24 33 26 30 28 15 36 13 38 9 41 11 43
REMARK Flexibility Score: inf
ROOT
ATOM      1  O   UNL     1     -37.187   4.239  79.355  1.00  0.00    -0.454 OA
ENDROOT
BRANCH   1   2
ATOM      2  C   UNL     1     -36.277   5.095  79.995  1.00  0.00     0.214 A 
ATOM      3  C   UNL     1     -36.409   5.303  81.371  1.00  0.00     0.181 A 
ATOM      4  O   UNL     1     -35.585   6.121  82.011  1.00  0.00    -0.452 OA
ATOM      5  C   UNL     1     -35.261   5.769  79.302  1.00  0.00     0.239 A 
ATOM      6  C   UNL     1     -34.589   6.758  81.407  1.00  0.00     0.146 A 
ATOM      7  O   UNL     1     -35.228   5.692  78.046  1.00  0.00    -0.285 OA
ATOM      8  C   UNL     1     -34.350   6.588  80.016  1.00  0.00     0.111 A 
ATOM      9  C   UNL     1     -33.784   7.611  82.167  1.00  0.00     0.094 A 
ATOM     10  C   UNL     1     -33.244   7.274  79.428  1.00  0.00     0.134 A 
ATOM     11  C   UNL     1     -32.740   8.313  81.572  1.00  0.00     0.123 A 
ATOM     12  C   UNL     1     -32.478   8.147  80.210  1.00  0.00     0.093 A 
BRANCH   3  13
ATOM     13  C   UNL     1     -37.463   4.608  82.123  1.00  0.00     0.029 A 
ATOM     14  C   UNL     1     -37.546   3.212  82.077  1.00  0.00     0.062 A 
ATOM     15  C   UNL     1     -38.586   2.539  82.726  1.00  0.00     0.162 A 
ATOM     16  C   UNL     1     -38.437   5.342  82.806  1.00  0.00     0.062 A 
ATOM     17  C   UNL     1     -39.563   3.279  83.437  1.00  0.00     0.200 A 
ATOM     18  C   UNL     1     -39.482   4.685  83.461  1.00  0.00     0.162 A 
BRANCH  15  19
ATOM     19  O   UNL     1     -38.614   1.145  82.630  1.00  0.00    -0.504 OA
ATOM     20  H   UNL     1     -39.350   0.567  83.008  1.00  0.00     0.293 HD
ENDBRANCH  15  19
BRANCH  17  21
ATOM     21  O   UNL     1     -40.612   2.662  84.124  1.00  0.00    -0.502 OA
ATOM     22  H   UNL     1     -41.311   3.161  84.656  1.00  0.00     0.293 HD
ENDBRANCH  17  21
BRANCH  18  23
ATOM     23  O   UNL     1     -40.441   5.449  84.125  1.00  0.00    -0.504 OA
ATOM     24  H   UNL     1     -41.243   5.032  84.580  1.00  0.00     0.293 HD
ENDBRANCH  18  23
ENDBRANCH   3  13
BRANCH  10  25
ATOM     25  O   UNL     1     -32.842   7.109  78.099  1.00  0.00    -0.507 OA
ATOM     26  H   UNL     1     -33.304   7.513  77.298  1.00  0.00     0.293 HD
ENDBRANCH  10  25
BRANCH  11  27
ATOM     27  O   UNL     1     -31.961   9.173  82.345  1.00  0.00    -0.508 OA
ATOM     28  H   UNL     1     -32.191  10.155  82.442  1.00  0.00     0.293 HD
ENDBRANCH  11  27
ENDBRANCH   1   2
BRANCH   1  29
ATOM     29  C   UNL     1     -38.395   4.676  78.737  1.00  0.00     0.339 C 
ATOM     30  C   UNL     1     -38.411   6.232  78.746  1.00  0.00     0.214 C 
ATOM     31  O   UNL     1     -39.494   4.114  79.442  1.00  0.00    -0.332 OA
ATOM     32  C   UNL     1     -39.495   6.769  79.705  1.00  0.00     0.180 C 
ATOM     33  C   UNL     1     -40.716   4.641  78.964  1.00  0.00     0.179 C 
ATOM     34  C   UNL     1     -40.872   6.117  79.432  1.00  0.00     0.177 C 
BRANCH  30  35
ATOM     35  O   UNL     1     -38.627   6.706  77.439  1.00  0.00    -0.384 OA
ATOM     36  H   UNL     1     -39.128   5.998  76.951  1.00  0.00     0.211 HD
ENDBRANCH  30  35
BRANCH  32  37
ATOM     37  O   UNL     1     -39.593   8.168  79.625  1.00  0.00    -0.387 OA
ATOM     38  H   UNL     1     -39.844   8.489  80.529  1.00  0.00     0.211 HD
ENDBRANCH  32  37
BRANCH  33  39
ATOM     39  C   UNL     1     -41.857   3.763  79.490  1.00  0.00     0.191 C 
BRANCH  39  40
ATOM     40  O   UNL     1     -41.415   2.989  80.572  1.00  0.00    -0.394 OA
ATOM     41  H   UNL     1     -40.746   3.545  81.053  1.00  0.00     0.210 HD
ENDBRANCH  39  40
ENDBRANCH  33  39
BRANCH  34  42
ATOM     42  O   UNL     1     -41.631   6.863  78.508  1.00  0.00    -0.387 OA
ATOM     43  H   UNL     1     -42.387   6.296  78.207  1.00  0.00     0.211 HD
ENDBRANCH  34  42
ENDBRANCH   1  29
TORSDOF 13
ENDMDL
MODEL 9
REMARK VINA RESULT:    -5.898      1.964      3.437
REMARK INTER + INTRA:          -9.724
REMARK INTER:                  -8.675
REMARK INTRA:                  -1.048
REMARK UNBOUND:                -0.895
REMARK SMILES O=c1c(O[C@H]2O[C@@H](CO)[C@H](O)[C@H](O)[C@@H]2O)c(-c2cc(O)c(O)c(O)c2)oc2cc(O)cc(O)c12
REMARK SMILES IDX 4 1 3 2 16 3 26 4 2 5 27 6 1 7 34 8 28 9 32 10 29 11 31 12
REMARK SMILES IDX 17 13 18 14 19 15 25 16 21 17 23 18 20 19 22 21 24 23 33 25
REMARK SMILES IDX 30 27 5 29 14 30 6 31 12 32 7 33 10 34 15 35 13 37 8 39 9 40
REMARK SMILES IDX 11 42
REMARK H PARENT 20 20 22 22 24 24 33 26 30 28 15 36 13 38 9 41 11 43
REMARK Flexibility Score: inf
ROOT
ATOM      1  O   UNL     1     -37.053   5.027  82.102  1.00  0.00    -0.454 OA
ENDROOT
BRANCH   1   2
ATOM      2  C   UNL     1     -38.120   4.777  81.226  1.00  0.00     0.214 A 
ATOM      3  C   UNL     1     -37.942   5.037  79.863  1.00  0.00     0.181 A 
ATOM      4  O   UNL     1     -38.931   4.837  79.004  1.00  0.00    -0.452 OA
ATOM      5  C   UNL     1     -39.365   4.305  81.668  1.00  0.00     0.239 A 
ATOM      6  C   UNL     1     -40.117   4.362  79.367  1.00  0.00     0.146 A 
ATOM      7  O   UNL     1     -39.572   4.203  82.905  1.00  0.00    -0.285 OA
ATOM      8  C   UNL     1     -40.388   4.035  80.724  1.00  0.00     0.111 A 
ATOM      9  C   UNL     1     -41.099   4.199  78.388  1.00  0.00     0.094 A 
ATOM     10  C   UNL     1     -41.670   3.497  81.050  1.00  0.00     0.134 A 
ATOM     11  C   UNL     1     -42.362   3.722  78.725  1.00  0.00     0.123 A 
ATOM     12  C   UNL     1     -42.644   3.378  80.050  1.00  0.00     0.093 A 
BRANCH   3  13
ATOM     13  C   UNL     1     -36.649   5.531  79.372  1.00  0.00     0.029 A 
ATOM     14  C   UNL     1     -35.547   4.669  79.322  1.00  0.00     0.062 A 
ATOM     15  C   UNL     1     -34.291   5.141  78.928  1.00  0.00     0.162 A 
ATOM     16  C   UNL     1     -36.493   6.881  79.043  1.00  0.00     0.062 A 
ATOM     17  C   UNL     1     -34.135   6.503  78.573  1.00  0.00     0.200 A 
ATOM     18  C   UNL     1     -35.246   7.368  78.644  1.00  0.00     0.162 A 
BRANCH  15  19
ATOM     19  O   UNL     1     -33.233   4.229  78.912  1.00  0.00    -0.504 OA
ATOM     20  H   UNL     1     -32.533   4.161  79.636  1.00  0.00     0.293 HD
ENDBRANCH  15  19
BRANCH  17  21
ATOM     21  O   UNL     1     -32.911   7.028  78.148  1.00  0.00    -0.502 OA
ATOM     22  H   UNL     1     -32.012   6.633  78.385  1.00  0.00     0.293 HD
ENDBRANCH  17  21
BRANCH  18  23
ATOM     23  O   UNL     1     -35.124   8.721  78.332  1.00  0.00    -0.504 OA
ATOM     24  H   UNL     1     -35.834   9.398  78.579  1.00  0.00     0.293 HD
ENDBRANCH  18  23
ENDBRANCH   3  13
BRANCH  10  25
ATOM     25  O   UNL     1     -42.023   3.039  82.323  1.00  0.00    -0.507 OA
ATOM     26  H   UNL     1     -42.798   2.426  82.525  1.00  0.00     0.293 HD
ENDBRANCH  10  25
BRANCH  11  27
ATOM     27  O   UNL     1     -43.333   3.585  77.735  1.00  0.00    -0.508 OA
ATOM     28  H   UNL     1     -43.214   2.944  76.959  1.00  0.00     0.293 HD
ENDBRANCH  11  27
ENDBRANCH   1   2
BRANCH   1  29
ATOM     29  C   UNL     1     -36.886   6.242  82.831  1.00  0.00     0.339 C 
ATOM     30  C   UNL     1     -38.230   7.024  82.788  1.00  0.00     0.214 C 
ATOM     31  O   UNL     1     -35.811   6.971  82.254  1.00  0.00    -0.332 OA
ATOM     32  C   UNL     1     -38.100   8.303  81.932  1.00  0.00     0.180 C 
ATOM     33  C   UNL     1     -35.705   8.252  82.843  1.00  0.00     0.179 C 
ATOM     34  C   UNL     1     -36.879   9.153  82.359  1.00  0.00     0.177 C 
BRANCH  30  35
ATOM     35  O   UNL     1     -38.629   7.343  84.099  1.00  0.00    -0.384 OA
ATOM     36  H   UNL     1     -38.841   6.485  84.555  1.00  0.00     0.211 HD
ENDBRANCH  30  35
BRANCH  32  37
ATOM     37  O   UNL     1     -39.274   9.072  81.989  1.00  0.00    -0.387 OA
ATOM     38  H   UNL     1     -39.120   9.870  81.421  1.00  0.00     0.211 HD
ENDBRANCH  32  37
BRANCH  33  39
ATOM     39  C   UNL     1     -34.346   8.849  82.456  1.00  0.00     0.191 C 
BRANCH  39  40
ATOM     40  O   UNL     1     -34.415   9.427  81.181  1.00  0.00    -0.394 OA
ATOM     41  H   UNL     1     -34.696   8.700  80.564  1.00  0.00     0.210 HD
ENDBRANCH  39  40
ENDBRANCH  33  39
BRANCH  34  42
ATOM     42  O   UNL     1     -37.221  10.106  83.339  1.00  0.00    -0.387 OA
ATOM     43  H   UNL     1     -37.773   9.652  84.026  1.00  0.00     0.211 HD
ENDBRANCH  34  42
ENDBRANCH   1  29
TORSDOF 13
ENDMDL
