MODEL 1
REMARK VINA RESULT:     0.000      0.000      0.000
REMARK INTER + INTRA:          -0.596
REMARK INTER:                   0.000
REMARK INTRA:                  -0.596
REMARK UNBOUND:                -0.596
REMARK SMILES C=C[C@@]1(C)CC[C@@H](C(=C)C)C[C@H]1C(=C)C
REMARK SMILES IDX 7 1 6 2 5 3 3 4 12 5 11 6 4 7 8 8 10 9 9 10 13 11 14 12
REMARK SMILES IDX 15 13 2 14 1 15
REMARK H PARENT
REMARK Flexibility Score: inf
ROOT
ATOM      1  C   UNL     1      17.138  17.101  46.073  1.00  0.00     0.015 C 
ATOM      2  C   UNL     1      17.707  15.734  46.512  1.00  0.00     0.009 C 
ATOM      3  C   UNL     1      17.326  14.580  45.566  1.00  0.00     0.012 C 
ATOM      4  C   UNL     1      15.799  14.475  45.258  1.00  0.00    -0.008 C 
ATOM      5  C   UNL     1      15.169  15.883  44.908  1.00  0.00     0.024 C 
ATOM      6  C   UNL     1      15.608  16.986  45.900  1.00  0.00     0.017 C 
ATOM      7  C   UNL     1      15.098  13.883  46.512  1.00  0.00     0.016 C 
ENDROOT
BRANCH   1   8
ATOM      8  C   UNL     1      17.822  17.788  44.882  1.00  0.00    -0.077 C 
ATOM      9  C   UNL     1      17.328  19.143  44.436  1.00  0.00     0.039 C 
ATOM     10  C   UNL     1      18.926  17.310  44.276  1.00  0.00     0.008 C 
ENDBRANCH   1   8
BRANCH   5  11
ATOM     11  C   UNL     1      15.241  16.394  43.455  1.00  0.00    -0.077 C 
ATOM     12  C   UNL     1      14.386  17.362  43.075  1.00  0.00     0.008 C 
ATOM     13  C   UNL     1      16.202  15.893  42.404  1.00  0.00     0.039 C 
ENDBRANCH   5  11
BRANCH   4  14
ATOM     14  C   UNL     1      15.591  13.473  44.124  1.00  0.00    -0.028 C 
ATOM     15  C   UNL     1      14.469  12.757  43.977  1.00  0.00     0.004 C 
ENDBRANCH   4  14
TORSDOF 3
ENDMDL
MODEL 2
REMARK VINA RESULT:     0.000      6.376      8.744
REMARK INTER + INTRA:          -0.596
REMARK INTER:                   0.000
REMARK INTRA:                  -0.596
REMARK UNBOUND:                -0.596
REMARK SMILES C=C[C@@]1(C)CC[C@@H](C(=C)C)C[C@H]1C(=C)C
REMARK SMILES IDX 7 1 6 2 5 3 3 4 12 5 11 6 4 7 8 8 10 9 9 10 13 11 14 12
REMARK SMILES IDX 15 13 2 14 1 15
REMARK H PARENT
REMARK Flexibility Score: inf
ROOT
ATOM      1  C   UNL     1      10.240  13.807  44.138  1.00  0.00     0.015 C 
ATOM      2  C   UNL     1       9.228  13.991  42.985  1.00  0.00     0.009 C 
ATOM      3  C   UNL     1       7.783  13.631  43.377  1.00  0.00     0.012 C 
ATOM      4  C   UNL     1       7.624  12.226  44.040  1.00  0.00    -0.008 C 
ATOM      5  C   UNL     1       8.718  11.971  45.153  1.00  0.00     0.024 C 
ATOM      6  C   UNL     1      10.138  12.366  44.683  1.00  0.00     0.017 C 
ATOM      7  C   UNL     1       7.752  11.154  42.923  1.00  0.00     0.016 C 
ENDROOT
BRANCH   1   8
ATOM      8  C   UNL     1      10.227  14.867  45.250  1.00  0.00    -0.077 C 
ATOM      9  C   UNL     1      11.221  14.755  46.380  1.00  0.00     0.039 C 
ATOM     10  C   UNL     1       9.457  15.972  45.220  1.00  0.00     0.008 C 
ENDBRANCH   1   8
BRANCH   5  11
ATOM     11  C   UNL     1       8.457  12.475  46.586  1.00  0.00    -0.077 C 
ATOM     12  C   UNL     1       9.164  11.931  47.594  1.00  0.00     0.008 C 
ATOM     13  C   UNL     1       7.458  13.543  46.965  1.00  0.00     0.039 C 
ENDBRANCH   5  11
BRANCH   4  14
ATOM     14  C   UNL     1       6.211  12.104  44.607  1.00  0.00    -0.028 C 
ATOM     15  C   UNL     1       5.575  10.933  44.740  1.00  0.00     0.004 C 
ENDBRANCH   4  14
TORSDOF 3
ENDMDL
MODEL 3
REMARK VINA RESULT:     0.000      8.870     11.164
REMARK INTER + INTRA:          -0.595
REMARK INTER:                   0.000
REMARK INTRA:                  -0.595
REMARK UNBOUND:                -0.596
REMARK SMILES C=C[C@@]1(C)CC[C@@H](C(=C)C)C[C@H]1C(=C)C
REMARK SMILES IDX 7 1 6 2 5 3 3 4 12 5 11 6 4 7 8 8 10 9 9 10 13 11 14 12
REMARK SMILES IDX 15 13 2 14 1 15
REMARK H PARENT
REMARK Flexibility Score: inf
ROOT
ATOM      1  C   UNL     1       8.155  13.664  53.928  1.00  0.00     0.015 C 
ATOM      2  C   UNL     1       9.248  14.233  54.860  1.00  0.00     0.009 C 
ATOM      3  C   UNL     1      10.646  14.266  54.214  1.00  0.00     0.012 C 
ATOM      4  C   UNL     1      11.099  12.910  53.586  1.00  0.00    -0.008 C 
ATOM      5  C   UNL     1       9.957  12.254  52.710  1.00  0.00     0.024 C 
ATOM      6  C   UNL     1       8.586  12.269  53.427  1.00  0.00     0.017 C 
ATOM      7  C   UNL     1      11.487  11.952  54.745  1.00  0.00     0.016 C 
ENDROOT
BRANCH   1   8
ATOM      8  C   UNL     1       7.663  14.579  52.795  1.00  0.00    -0.077 C 
ATOM      9  C   UNL     1       6.570  14.085  51.879  1.00  0.00     0.039 C 
ATOM     10  C   UNL     1       8.064  15.855  52.638  1.00  0.00     0.008 C 
ENDBRANCH   1   8
BRANCH   5  11
ATOM     11  C   UNL     1       9.808  12.679  51.236  1.00  0.00    -0.077 C 
ATOM     12  C   UNL     1       9.134  11.866  50.402  1.00  0.00     0.008 C 
ATOM     13  C   UNL     1      10.364  13.948  50.636  1.00  0.00     0.039 C 
ENDBRANCH   5  11
BRANCH   4  14
ATOM     14  C   UNL     1      12.366  13.145  52.766  1.00  0.00    -0.028 C 
ATOM     15  C   UNL     1      13.288  12.196  52.558  1.00  0.00     0.004 C 
ENDBRANCH   4  14
TORSDOF 3
ENDMDL
MODEL 4
REMARK VINA RESULT:     0.000      7.043      9.388
REMARK INTER + INTRA:          -0.595
REMARK INTER:                   0.000
REMARK INTRA:                  -0.595
REMARK UNBOUND:                -0.596
REMARK SMILES C=C[C@@]1(C)CC[C@@H](C(=C)C)C[C@H]1C(=C)C
REMARK SMILES IDX 7 1 6 2 5 3 3 4 12 5 11 6 4 7 8 8 10 9 9 10 13 11 14 12
REMARK SMILES IDX 15 13 2 14 1 15
REMARK H PARENT
REMARK Flexibility Score: inf
ROOT
ATOM      1  C   UNL     1      14.345  20.099  50.060  1.00  0.00     0.015 C 
ATOM      2  C   UNL     1      13.249  20.872  49.295  1.00  0.00     0.009 C 
ATOM      3  C   UNL     1      13.497  22.391  49.239  1.00  0.00     0.012 C 
ATOM      4  C   UNL     1      13.781  23.050  50.626  1.00  0.00    -0.008 C 
ATOM      5  C   UNL     1      14.824  22.217  51.474  1.00  0.00     0.024 C 
ATOM      6  C   UNL     1      14.507  20.703  51.471  1.00  0.00     0.017 C 
ATOM      7  C   UNL     1      12.434  23.143  51.395  1.00  0.00     0.016 C 
ENDROOT
BRANCH   1   8
ATOM      8  C   UNL     1      15.687  19.901  49.338  1.00  0.00    -0.077 C 
ATOM      9  C   UNL     1      16.780  19.119  50.027  1.00  0.00     0.039 C 
ATOM     10  C   UNL     1      15.915  20.280  48.066  1.00  0.00     0.008 C 
ENDBRANCH   1   8
BRANCH   5  11
ATOM     11  C   UNL     1      16.330  22.461  51.254  1.00  0.00    -0.077 C 
ATOM     12  C   UNL     1      17.187  22.072  52.217  1.00  0.00     0.008 C 
ATOM     13  C   UNL     1      16.937  23.111  50.034  1.00  0.00     0.039 C 
ENDBRANCH   5  11
BRANCH   4  14
ATOM     14  C   UNL     1      14.260  24.483  50.403  1.00  0.00    -0.028 C 
ATOM     15  C   UNL     1      14.076  25.463  51.298  1.00  0.00     0.004 C 
ENDBRANCH   4  14
TORSDOF 3
ENDMDL
MODEL 5
REMARK VINA RESULT:     0.000      6.422      8.481
REMARK INTER + INTRA:          -0.595
REMARK INTER:                   0.000
REMARK INTRA:                  -0.595
REMARK UNBOUND:                -0.596
REMARK SMILES C=C[C@@]1(C)CC[C@@H](C(=C)C)C[C@H]1C(=C)C
REMARK SMILES IDX 7 1 6 2 5 3 3 4 12 5 11 6 4 7 8 8 10 9 9 10 13 11 14 12
REMARK SMILES IDX 15 13 2 14 1 15
REMARK H PARENT
REMARK Flexibility Score: inf
ROOT
ATOM      1  C   UNL     1      14.815  21.863  47.161  1.00  0.00     0.015 C 
ATOM      2  C   UNL     1      15.362  22.455  48.478  1.00  0.00     0.009 C 
ATOM      3  C   UNL     1      14.302  22.554  49.591  1.00  0.00     0.012 C 
ATOM      4  C   UNL     1      12.982  23.270  49.164  1.00  0.00    -0.008 C 
ATOM      5  C   UNL     1      12.457  22.755  47.764  1.00  0.00     0.024 C 
ATOM      6  C   UNL     1      13.584  22.677  46.707  1.00  0.00     0.017 C 
ATOM      7  C   UNL     1      13.268  24.795  49.088  1.00  0.00     0.016 C 
ENDROOT
BRANCH   1   8
ATOM      8  C   UNL     1      14.570  20.346  47.130  1.00  0.00    -0.077 C 
ATOM      9  C   UNL     1      14.071  19.712  45.854  1.00  0.00     0.039 C 
ATOM     10  C   UNL     1      14.891  19.516  48.141  1.00  0.00     0.008 C 
ENDBRANCH   1   8
BRANCH   5  11
ATOM     11  C   UNL     1      11.573  21.493  47.716  1.00  0.00    -0.077 C 
ATOM     12  C   UNL     1      10.814  21.286  46.623  1.00  0.00     0.008 C 
ATOM     13  C   UNL     1      11.483  20.452  48.806  1.00  0.00     0.039 C 
ENDBRANCH   5  11
BRANCH   4  14
ATOM     14  C   UNL     1      11.936  23.073  50.259  1.00  0.00    -0.028 C 
ATOM     15  C   UNL     1      10.944  23.943  50.489  1.00  0.00     0.004 C 
ENDBRANCH   4  14
TORSDOF 3
ENDMDL
MODEL 6
REMARK VINA RESULT:     0.000     10.158     12.153
REMARK INTER + INTRA:          -0.595
REMARK INTER:                   0.000
REMARK INTRA:                  -0.595
REMARK UNBOUND:                -0.596
REMARK SMILES C=C[C@@]1(C)CC[C@@H](C(=C)C)C[C@H]1C(=C)C
REMARK SMILES IDX 7 1 6 2 5 3 3 4 12 5 11 6 4 7 8 8 10 9 9 10 13 11 14 12
REMARK SMILES IDX 15 13 2 14 1 15
REMARK H PARENT
REMARK Flexibility Score: inf
ROOT
ATOM      1  C   UNL     1       3.695  15.659  46.697  1.00  0.00     0.015 C 
ATOM      2  C   UNL     1       4.704  15.113  45.663  1.00  0.00     0.009 C 
ATOM      3  C   UNL     1       6.045  15.868  45.659  1.00  0.00     0.012 C 
ATOM      4  C   UNL     1       5.913  17.420  45.543  1.00  0.00    -0.008 C 
ATOM      5  C   UNL     1       4.808  17.993  46.519  1.00  0.00     0.024 C 
ATOM      6  C   UNL     1       3.497  17.173  46.468  1.00  0.00     0.017 C 
ATOM      7  C   UNL     1       5.541  17.759  44.073  1.00  0.00     0.016 C 
ENDROOT
BRANCH   1   8
ATOM      8  C   UNL     1       3.952  15.307  48.171  1.00  0.00    -0.077 C 
ATOM      9  C   UNL     1       2.975  15.786  49.218  1.00  0.00     0.039 C 
ATOM     10  C   UNL     1       4.939  14.488  48.582  1.00  0.00     0.008 C 
ENDBRANCH   1   8
BRANCH   5  11
ATOM     11  C   UNL     1       5.195  18.317  47.976  1.00  0.00    -0.077 C 
ATOM     12  C   UNL     1       4.405  19.154  48.675  1.00  0.00     0.008 C 
ATOM     13  C   UNL     1       6.403  17.771  48.698  1.00  0.00     0.039 C 
ENDBRANCH   5  11
BRANCH   4  14
ATOM     14  C   UNL     1       7.277  18.053  45.809  1.00  0.00    -0.028 C 
ATOM     15  C   UNL     1       7.652  19.229  45.288  1.00  0.00     0.004 C 
ENDBRANCH   4  14
TORSDOF 3
ENDMDL
MODEL 7
REMARK VINA RESULT:     0.000      6.850      9.803
REMARK INTER + INTRA:          -0.595
REMARK INTER:                   0.000
REMARK INTRA:                  -0.595
REMARK UNBOUND:                -0.596
REMARK SMILES C=C[C@@]1(C)CC[C@@H](C(=C)C)C[C@H]1C(=C)C
REMARK SMILES IDX 7 1 6 2 5 3 3 4 12 5 11 6 4 7 8 8 10 9 9 10 13 11 14 12
REMARK SMILES IDX 15 13 2 14 1 15
REMARK H PARENT
REMARK Flexibility Score: inf
ROOT
ATOM      1  C   UNL     1      13.374   9.234  52.116  1.00  0.00     0.015 C 
ATOM      2  C   UNL     1      13.418   9.318  50.575  1.00  0.00     0.009 C 
ATOM      3  C   UNL     1      13.848  10.701  50.050  1.00  0.00     0.012 C 
ATOM      4  C   UNL     1      13.046  11.898  50.651  1.00  0.00    -0.008 C 
ATOM      5  C   UNL     1      12.896  11.779  52.221  1.00  0.00     0.024 C 
ATOM      6  C   UNL     1      12.470  10.359  52.664  1.00  0.00     0.017 C 
ATOM      7  C   UNL     1      11.641  11.912  49.989  1.00  0.00     0.016 C 
ENDROOT
BRANCH   1   8
ATOM      8  C   UNL     1      14.723   9.144  52.846  1.00  0.00    -0.077 C 
ATOM      9  C   UNL     1      14.735   9.023  54.351  1.00  0.00     0.039 C 
ATOM     10  C   UNL     1      15.909   9.045  52.215  1.00  0.00     0.008 C 
ENDBRANCH   1   8
BRANCH   5  11
ATOM     11  C   UNL     1      14.024  12.319  53.123  1.00  0.00    -0.077 C 
ATOM     12  C   UNL     1      13.739  12.584  54.411  1.00  0.00     0.008 C 
ATOM     13  C   UNL     1      15.443  12.581  52.678  1.00  0.00     0.039 C 
ENDBRANCH   5  11
BRANCH   4  14
ATOM     14  C   UNL     1      13.733  13.203  50.253  1.00  0.00    -0.028 C 
ATOM     15  C   UNL     1      13.078  14.363  50.119  1.00  0.00     0.004 C 
ENDBRANCH   4  14
TORSDOF 3
ENDMDL
MODEL 8
REMARK VINA RESULT:     0.000      8.768     10.216
REMARK INTER + INTRA:          -0.595
REMARK INTER:                   0.000
REMARK INTRA:                  -0.595
REMARK UNBOUND:                -0.596
REMARK SMILES C=C[C@@]1(C)CC[C@@H](C(=C)C)C[C@H]1C(=C)C
REMARK SMILES IDX 7 1 6 2 5 3 3 4 12 5 11 6 4 7 8 8 10 9 9 10 13 11 14 12
REMARK SMILES IDX 15 13 2 14 1 15
REMARK H PARENT
REMARK Flexibility Score: inf
ROOT
ATOM      1  C   UNL     1       7.363  17.316  48.301  1.00  0.00     0.015 C 
ATOM      2  C   UNL     1       6.014  17.136  49.031  1.00  0.00     0.009 C 
ATOM      3  C   UNL     1       5.384  15.747  48.820  1.00  0.00     0.012 C 
ATOM      4  C   UNL     1       5.272  15.309  47.325  1.00  0.00    -0.008 C 
ATOM      5  C   UNL     1       6.610  15.582  46.527  1.00  0.00     0.024 C 
ATOM      6  C   UNL     1       7.180  16.994  46.802  1.00  0.00     0.017 C 
ATOM      7  C   UNL     1       4.105  16.107  46.680  1.00  0.00     0.016 C 
ENDROOT
BRANCH   1   8
ATOM      8  C   UNL     1       8.585  16.616  48.915  1.00  0.00    -0.077 C 
ATOM      9  C   UNL     1       9.934  16.790  48.261  1.00  0.00     0.039 C 
ATOM     10  C   UNL     1       8.553  15.946  50.084  1.00  0.00     0.008 C 
ENDBRANCH   1   8
BRANCH   5  11
ATOM     11  C   UNL     1       7.730  14.523  46.563  1.00  0.00    -0.077 C 
ATOM     12  C   UNL     1       8.669  14.555  45.600  1.00  0.00     0.008 C 
ATOM     13  C   UNL     1       7.866  13.436  47.602  1.00  0.00     0.039 C 
ENDBRANCH   5  11
BRANCH   4  14
ATOM     14  C   UNL     1       4.879  13.834  47.270  1.00  0.00    -0.028 C 
ATOM     15  C   UNL     1       4.196  13.297  46.251  1.00  0.00     0.004 C 
ENDBRANCH   4  14
TORSDOF 3
ENDMDL
MODEL 9
REMARK VINA RESULT:     0.000      4.784      7.578
REMARK INTER + INTRA:          -0.595
REMARK INTER:                   0.000
REMARK INTRA:                  -0.595
REMARK UNBOUND:                -0.596
REMARK SMILES C=C[C@@]1(C)CC[C@@H](C(=C)C)C[C@H]1C(=C)C
REMARK SMILES IDX 7 1 6 2 5 3 3 4 12 5 11 6 4 7 8 8 10 9 9 10 13 11 14 12
REMARK SMILES IDX 15 13 2 14 1 15
REMARK H PARENT
REMARK Flexibility Score: inf
ROOT
ATOM      1  C   UNL     1      17.010  21.650  49.753  1.00  0.00     0.015 C 
ATOM      2  C   UNL     1      17.526  22.875  48.967  1.00  0.00     0.009 C 
ATOM      3  C   UNL     1      18.382  22.501  47.743  1.00  0.00     0.012 C 
ATOM      4  C   UNL     1      19.545  21.504  48.049  1.00  0.00    -0.008 C 
ATOM      5  C   UNL     1      19.064  20.292  48.943  1.00  0.00     0.024 C 
ATOM      6  C   UNL     1      18.204  20.753  50.144  1.00  0.00     0.017 C 
ATOM      7  C   UNL     1      20.665  22.289  48.786  1.00  0.00     0.016 C 
ENDROOT
BRANCH   1   8
ATOM      8  C   UNL     1      15.852  20.859  49.124  1.00  0.00    -0.077 C 
ATOM      9  C   UNL     1      15.285  19.674  49.869  1.00  0.00     0.039 C 
ATOM     10  C   UNL     1      15.220  21.230  47.994  1.00  0.00     0.008 C 
ENDBRANCH   1   8
BRANCH   5  11
ATOM     11  C   UNL     1      18.433  19.063  48.259  1.00  0.00    -0.077 C 
ATOM     12  C   UNL     1      18.396  17.902  48.940  1.00  0.00     0.008 C 
ATOM     13  C   UNL     1      17.847  19.047  46.868  1.00  0.00     0.039 C 
ENDBRANCH   5  11
BRANCH   4  14
ATOM     14  C   UNL     1      20.142  21.022  46.728  1.00  0.00    -0.028 C 
ATOM     15  C   UNL     1      21.416  20.629  46.602  1.00  0.00     0.004 C 
ENDBRANCH   4  14
TORSDOF 3
ENDMDL
