MODEL 1
REMARK VINA RESULT:    -3.627      0.000      0.000
REMARK INTER + INTRA:          -4.314
REMARK INTER:                  -4.263
REMARK INTRA:                  -0.051
REMARK UNBOUND:                -0.051
REMARK SMILES O=c1c(O)c(-c2ccc(O)c(O)c2)oc2cc(O)ccc12
REMARK SMILES IDX 5 1 3 2 2 3 1 4 21 5 15 6 14 7 16 8 17 9 19 10 20 11 6 12
REMARK SMILES IDX 7 13 8 14 9 15 13 16 11 17 10 18 12 20 4 22 18 24
REMARK H PARENT 10 19 12 21 4 23 18 25
REMARK Flexibility Score: inf
ROOT
ATOM      1  C   UNL     1      -0.406  32.088   8.480  1.00  0.00     0.180 A 
ATOM      2  C   UNL     1      -1.130  33.280   8.265  1.00  0.00     0.208 A 
ATOM      3  C   UNL     1      -2.518  33.202   8.069  1.00  0.00     0.235 A 
ATOM      4  O   UNL     1      -3.189  34.255   7.886  1.00  0.00    -0.285 OA
ATOM      5  C   UNL     1      -3.146  31.948   8.071  1.00  0.00     0.069 A 
ATOM      6  C   UNL     1      -2.348  30.800   8.269  1.00  0.00     0.142 A 
ATOM      7  O   UNL     1      -1.039  30.917   8.459  1.00  0.00    -0.452 OA
ATOM      8  C   UNL     1      -2.935  29.529   8.267  1.00  0.00     0.094 A 
ATOM      9  C   UNL     1      -4.317  29.391   8.071  1.00  0.00     0.119 A 
ATOM     10  C   UNL     1      -5.109  30.527   7.877  1.00  0.00     0.047 A 
ATOM     11  C   UNL     1      -4.532  31.801   7.875  1.00  0.00     0.020 A 
ENDROOT
BRANCH   1  12
ATOM     12  C   UNL     1       1.056  32.088   8.713  1.00  0.00     0.025 A 
ATOM     13  C   UNL     1       1.930  31.373   7.876  1.00  0.00     0.016 A 
ATOM     14  C   UNL     1       3.308  31.406   8.101  1.00  0.00     0.051 A 
ATOM     15  C   UNL     1       3.836  32.164   9.154  1.00  0.00     0.157 A 
ATOM     16  C   UNL     1       1.590  32.863   9.755  1.00  0.00     0.062 A 
ATOM     17  C   UNL     1       2.971  32.899   9.983  1.00  0.00     0.158 A 
BRANCH  15  18
ATOM     18  O   UNL     1       5.211  32.195   9.378  1.00  0.00    -0.504 OA
ATOM     19  H   UNL     1       5.721  33.070   9.422  1.00  0.00     0.293 HD
ENDBRANCH  15  18
BRANCH  17  20
ATOM     20  O   UNL     1       3.463  33.669  11.037  1.00  0.00    -0.504 OA
ATOM     21  H   UNL     1       4.445  33.672  11.288  1.00  0.00     0.293 HD
ENDBRANCH  17  20
ENDBRANCH   1  12
BRANCH   2  22
ATOM     22  O   UNL     1      -0.470  34.510   8.220  1.00  0.00    -0.502 OA
ATOM     23  H   UNL     1       0.335  34.672   7.627  1.00  0.00     0.293 HD
ENDBRANCH   2  22
BRANCH   9  24
ATOM     24  O   UNL     1      -4.910  28.131   8.069  1.00  0.00    -0.508 OA
ATOM     25  H   UNL     1      -5.173  27.668   8.931  1.00  0.00     0.293 HD
ENDBRANCH   9  24
TORSDOF 5
ENDMDL
MODEL 2
REMARK VINA RESULT:    -2.375      0.735      1.487
REMARK INTER + INTRA:          -2.843
REMARK INTER:                  -3.142
REMARK INTRA:                   0.300
REMARK UNBOUND:                -0.051
REMARK SMILES O=c1c(O)c(-c2ccc(O)c(O)c2)oc2cc(O)ccc12
REMARK SMILES IDX 5 1 3 2 2 3 1 4 21 5 15 6 14 7 16 8 17 9 19 10 20 11 6 12
REMARK SMILES IDX 7 13 8 14 9 15 13 16 11 17 10 18 12 20 4 22 18 24
REMARK H PARENT 10 19 12 21 4 23 18 25
REMARK Flexibility Score: inf
ROOT
ATOM      1  C   UNL     1      -0.476  32.146   8.343  1.00  0.00     0.180 A 
ATOM      2  C   UNL     1      -1.268  33.308   8.235  1.00  0.00     0.208 A 
ATOM      3  C   UNL     1      -2.658  33.170   8.102  1.00  0.00     0.235 A 
ATOM      4  O   UNL     1      -3.389  34.194   8.014  1.00  0.00    -0.285 OA
ATOM      5  C   UNL     1      -3.223  31.886   8.059  1.00  0.00     0.069 A 
ATOM      6  C   UNL     1      -2.361  30.772   8.150  1.00  0.00     0.142 A 
ATOM      7  O   UNL     1      -1.051  30.946   8.283  1.00  0.00    -0.452 OA
ATOM      8  C   UNL     1      -2.884  29.475   8.100  1.00  0.00     0.094 A 
ATOM      9  C   UNL     1      -4.265  29.276   7.963  1.00  0.00     0.119 A 
ATOM     10  C   UNL     1      -5.122  30.378   7.875  1.00  0.00     0.047 A 
ATOM     11  C   UNL     1      -4.609  31.679   7.922  1.00  0.00     0.020 A 
ENDROOT
BRANCH   1  12
ATOM     12  C   UNL     1       0.994  32.208   8.505  1.00  0.00     0.025 A 
ATOM     13  C   UNL     1       1.620  33.328   9.078  1.00  0.00     0.016 A 
ATOM     14  C   UNL     1       3.008  33.354   9.242  1.00  0.00     0.051 A 
ATOM     15  C   UNL     1       3.788  32.259   8.850  1.00  0.00     0.157 A 
ATOM     16  C   UNL     1       1.778  31.103   8.132  1.00  0.00     0.062 A 
ATOM     17  C   UNL     1       3.168  31.126   8.296  1.00  0.00     0.158 A 
BRANCH  15  18
ATOM     18  O   UNL     1       5.172  32.288   9.014  1.00  0.00    -0.504 OA
ATOM     19  H   UNL     1       5.597  32.276   9.934  1.00  0.00     0.293 HD
ENDBRANCH  15  18
BRANCH  17  20
ATOM     20  O   UNL     1       3.914  30.016   7.902  1.00  0.00    -0.504 OA
ATOM     21  H   UNL     1       3.481  29.125   7.690  1.00  0.00     0.293 HD
ENDBRANCH  17  20
ENDBRANCH   1  12
BRANCH   2  22
ATOM     22  O   UNL     1      -0.673  34.572   8.231  1.00  0.00    -0.502 OA
ATOM     23  H   UNL     1      -0.883  35.272   8.932  1.00  0.00     0.293 HD
ENDBRANCH   2  22
BRANCH   9  24
ATOM     24  O   UNL     1      -4.795  27.989   7.915  1.00  0.00    -0.508 OA
ATOM     25  H   UNL     1      -5.768  27.825   7.683  1.00  0.00     0.293 HD
ENDBRANCH   9  24
TORSDOF 5
ENDMDL
MODEL 3
REMARK VINA RESULT:    -2.260      5.123      6.626
REMARK INTER + INTRA:          -2.707
REMARK INTER:                  -2.759
REMARK INTRA:                   0.052
REMARK UNBOUND:                -0.051
REMARK SMILES O=c1c(O)c(-c2ccc(O)c(O)c2)oc2cc(O)ccc12
REMARK SMILES IDX 5 1 3 2 2 3 1 4 21 5 15 6 14 7 16 8 17 9 19 10 20 11 6 12
REMARK SMILES IDX 7 13 8 14 9 15 13 16 11 17 10 18 12 20 4 22 18 24
REMARK H PARENT 10 19 12 21 4 23 18 25
REMARK Flexibility Score: inf
ROOT
ATOM      1  C   UNL     1      -3.764  31.323  12.233  1.00  0.00     0.180 A 
ATOM      2  C   UNL     1      -2.827  32.044  11.464  1.00  0.00     0.208 A 
ATOM      3  C   UNL     1      -2.540  31.606  10.162  1.00  0.00     0.235 A 
ATOM      4  O   UNL     1      -1.714  32.240   9.451  1.00  0.00    -0.285 OA
ATOM      5  C   UNL     1      -3.171  30.455   9.667  1.00  0.00     0.069 A 
ATOM      6  C   UNL     1      -4.079  29.774  10.507  1.00  0.00     0.142 A 
ATOM      7  O   UNL     1      -4.329  30.227  11.730  1.00  0.00    -0.452 OA
ATOM      8  C   UNL     1      -4.721  28.616  10.054  1.00  0.00     0.094 A 
ATOM      9  C   UNL     1      -4.468  28.129   8.764  1.00  0.00     0.119 A 
ATOM     10  C   UNL     1      -3.571  28.803   7.928  1.00  0.00     0.047 A 
ATOM     11  C   UNL     1      -2.923  29.959   8.373  1.00  0.00     0.020 A 
ENDROOT
BRANCH   1  12
ATOM     12  C   UNL     1      -4.135  31.731  13.607  1.00  0.00     0.025 A 
ATOM     13  C   UNL     1      -4.112  30.817  14.674  1.00  0.00     0.016 A 
ATOM     14  C   UNL     1      -4.443  31.232  15.967  1.00  0.00     0.051 A 
ATOM     15  C   UNL     1      -4.788  32.566  16.215  1.00  0.00     0.157 A 
ATOM     16  C   UNL     1      -4.461  33.073  13.865  1.00  0.00     0.062 A 
ATOM     17  C   UNL     1      -4.793  33.492  15.158  1.00  0.00     0.158 A 
BRANCH  15  18
ATOM     18  O   UNL     1      -5.119  32.977  17.506  1.00  0.00    -0.504 OA
ATOM     19  H   UNL     1      -4.937  32.390  18.312  1.00  0.00     0.293 HD
ENDBRANCH  15  18
BRANCH  17  20
ATOM     20  O   UNL     1      -5.125  34.829  15.373  1.00  0.00    -0.504 OA
ATOM     21  H   UNL     1      -6.083  35.132  15.501  1.00  0.00     0.293 HD
ENDBRANCH  17  20
ENDBRANCH   1  12
BRANCH   2  22
ATOM     22  O   UNL     1      -2.178  33.158  12.002  1.00  0.00    -0.502 OA
ATOM     23  H   UNL     1      -2.599  33.737  12.718  1.00  0.00     0.293 HD
ENDBRANCH   2  22
BRANCH   9  24
ATOM     24  O   UNL     1      -5.104  26.978   8.303  1.00  0.00    -0.508 OA
ATOM     25  H   UNL     1      -6.096  26.829   8.445  1.00  0.00     0.293 HD
ENDBRANCH   9  24
TORSDOF 5
ENDMDL
MODEL 4
REMARK VINA RESULT:    -2.186      5.124      7.192
REMARK INTER + INTRA:          -2.620
REMARK INTER:                  -2.541
REMARK INTRA:                  -0.079
REMARK UNBOUND:                -0.051
REMARK SMILES O=c1c(O)c(-c2ccc(O)c(O)c2)oc2cc(O)ccc12
REMARK SMILES IDX 5 1 3 2 2 3 1 4 21 5 15 6 14 7 16 8 17 9 19 10 20 11 6 12
REMARK SMILES IDX 7 13 8 14 9 15 13 16 11 17 10 18 12 20 4 22 18 24
REMARK H PARENT 10 19 12 21 4 23 18 25
REMARK Flexibility Score: inf
ROOT
ATOM      1  C   UNL     1      -3.504  31.727  12.215  1.00  0.00     0.180 A 
ATOM      2  C   UNL     1      -4.074  30.703  11.430  1.00  0.00     0.208 A 
ATOM      3  C   UNL     1      -3.592  30.501  10.127  1.00  0.00     0.235 A 
ATOM      4  O   UNL     1      -4.078  29.584   9.410  1.00  0.00    -0.285 OA
ATOM      5  C   UNL     1      -2.576  31.332   9.631  1.00  0.00     0.069 A 
ATOM      6  C   UNL     1      -2.074  32.350  10.470  1.00  0.00     0.142 A 
ATOM      7  O   UNL     1      -2.552  32.502  11.700  1.00  0.00    -0.452 OA
ATOM      8  C   UNL     1      -1.068  33.206  10.008  1.00  0.00     0.094 A 
ATOM      9  C   UNL     1      -0.553  33.055   8.714  1.00  0.00     0.119 A 
ATOM     10  C   UNL     1      -1.047  32.045   7.881  1.00  0.00     0.047 A 
ATOM     11  C   UNL     1      -2.054  31.186   8.332  1.00  0.00     0.020 A 
ENDROOT
BRANCH   1  12
ATOM     12  C   UNL     1      -3.944  31.990  13.604  1.00  0.00     0.025 A 
ATOM     13  C   UNL     1      -3.941  30.976  14.577  1.00  0.00     0.016 A 
ATOM     14  C   UNL     1      -4.338  31.254  15.887  1.00  0.00     0.051 A 
ATOM     15  C   UNL     1      -4.728  32.549  16.249  1.00  0.00     0.157 A 
ATOM     16  C   UNL     1      -4.316  33.292  13.976  1.00  0.00     0.062 A 
ATOM     17  C   UNL     1      -4.714  33.574  15.288  1.00  0.00     0.158 A 
BRANCH  15  18
ATOM     18  O   UNL     1      -5.125  32.824  17.557  1.00  0.00    -0.504 OA
ATOM     19  H   UNL     1      -4.449  32.929  18.305  1.00  0.00     0.293 HD
ENDBRANCH  15  18
BRANCH  17  20
ATOM     20  O   UNL     1      -5.090  34.876  15.616  1.00  0.00    -0.504 OA
ATOM     21  H   UNL     1      -5.961  35.282  15.296  1.00  0.00     0.293 HD
ENDBRANCH  17  20
ENDBRANCH   1  12
BRANCH   2  22
ATOM     22  O   UNL     1      -5.118  29.923  11.934  1.00  0.00    -0.502 OA
ATOM     23  H   UNL     1      -5.989  30.328  12.258  1.00  0.00     0.293 HD
ENDBRANCH   2  22
BRANCH   9  24
ATOM     24  O   UNL     1       0.450  33.901   8.246  1.00  0.00    -0.508 OA
ATOM     25  H   UNL     1       0.697  34.752   8.738  1.00  0.00     0.293 HD
ENDBRANCH   9  24
TORSDOF 5
ENDMDL
MODEL 5
REMARK VINA RESULT:    -1.987      2.417      3.667
REMARK INTER + INTRA:          -2.387
REMARK INTER:                  -2.073
REMARK INTRA:                  -0.313
REMARK UNBOUND:                -0.051
REMARK SMILES O=c1c(O)c(-c2ccc(O)c(O)c2)oc2cc(O)ccc12
REMARK SMILES IDX 5 1 3 2 2 3 1 4 21 5 15 6 14 7 16 8 17 9 19 10 20 11 6 12
REMARK SMILES IDX 7 13 8 14 9 15 13 16 11 17 10 18 12 20 4 22 18 24
REMARK H PARENT 10 19 12 21 4 23 18 25
REMARK Flexibility Score: inf
ROOT
ATOM      1  C   UNL     1      -2.415  31.447   9.717  1.00  0.00     0.180 A 
ATOM      2  C   UNL     1      -3.073  31.549  10.961  1.00  0.00     0.208 A 
ATOM      3  C   UNL     1      -3.924  30.508  11.363  1.00  0.00     0.235 A 
ATOM      4  O   UNL     1      -4.515  30.571  12.476  1.00  0.00    -0.285 OA
ATOM      5  C   UNL     1      -4.116  29.407  10.515  1.00  0.00     0.069 A 
ATOM      6  C   UNL     1      -3.440  29.390   9.276  1.00  0.00     0.142 A 
ATOM      7  O   UNL     1      -2.636  30.392   8.936  1.00  0.00    -0.452 OA
ATOM      8  C   UNL     1      -3.614  28.315   8.397  1.00  0.00     0.094 A 
ATOM      9  C   UNL     1      -4.455  27.249   8.744  1.00  0.00     0.119 A 
ATOM     10  C   UNL     1      -5.125  27.262   9.972  1.00  0.00     0.047 A 
ATOM     11  C   UNL     1      -4.960  28.333  10.856  1.00  0.00     0.020 A 
ENDROOT
BRANCH   1  12
ATOM     12  C   UNL     1      -1.487  32.493   9.231  1.00  0.00     0.025 A 
ATOM     13  C   UNL     1      -1.937  33.550   8.420  1.00  0.00     0.016 A 
ATOM     14  C   UNL     1      -1.047  34.539   7.992  1.00  0.00     0.051 A 
ATOM     15  C   UNL     1       0.298  34.496   8.378  1.00  0.00     0.157 A 
ATOM     16  C   UNL     1      -0.142  32.465   9.632  1.00  0.00     0.062 A 
ATOM     17  C   UNL     1       0.752  33.455   9.206  1.00  0.00     0.158 A 
BRANCH  15  18
ATOM     18  O   UNL     1       1.184  35.483   7.949  1.00  0.00    -0.504 OA
ATOM     19  H   UNL     1       1.712  36.045   8.607  1.00  0.00     0.293 HD
ENDBRANCH  15  18
BRANCH  17  20
ATOM     20  O   UNL     1       2.083  33.386   9.615  1.00  0.00    -0.504 OA
ATOM     21  H   UNL     1       2.628  32.536   9.532  1.00  0.00     0.293 HD
ENDBRANCH  17  20
ENDBRANCH   1  12
BRANCH   2  22
ATOM     22  O   UNL     1      -2.901  32.680  11.762  1.00  0.00    -0.502 OA
ATOM     23  H   UNL     1      -2.408  32.648  12.647  1.00  0.00     0.293 HD
ENDBRANCH   2  22
BRANCH   9  24
ATOM     24  O   UNL     1      -4.633  26.174   7.877  1.00  0.00    -0.508 OA
ATOM     25  H   UNL     1      -5.017  25.293   8.197  1.00  0.00     0.293 HD
ENDBRANCH   9  24
TORSDOF 5
ENDMDL
MODEL 6
REMARK VINA RESULT:    -1.152      1.864      6.517
REMARK INTER + INTRA:          -1.406
REMARK INTER:                  -1.830
REMARK INTRA:                   0.425
REMARK UNBOUND:                -0.051
REMARK SMILES O=c1c(O)c(-c2ccc(O)c(O)c2)oc2cc(O)ccc12
REMARK SMILES IDX 5 1 3 2 2 3 1 4 21 5 15 6 14 7 16 8 17 9 19 10 20 11 6 12
REMARK SMILES IDX 7 13 8 14 9 15 13 16 11 17 10 18 12 20 4 22 18 24
REMARK H PARENT 10 19 12 21 4 23 18 25
REMARK Flexibility Score: inf
ROOT
ATOM      1  C   UNL     1      -2.638  30.624   8.368  1.00  0.00     0.180 A 
ATOM      2  C   UNL     1      -3.432  31.762   8.624  1.00  0.00     0.208 A 
ATOM      3  C   UNL     1      -2.816  33.023   8.659  1.00  0.00     0.235 A 
ATOM      4  O   UNL     1      -3.505  34.056   8.875  1.00  0.00    -0.285 OA
ATOM      5  C   UNL     1      -1.430  33.119   8.459  1.00  0.00     0.069 A 
ATOM      6  C   UNL     1      -0.702  31.931   8.232  1.00  0.00     0.142 A 
ATOM      7  O   UNL     1      -1.324  30.759   8.198  1.00  0.00    -0.452 OA
ATOM      8  C   UNL     1       0.683  31.985   8.039  1.00  0.00     0.094 A 
ATOM      9  C   UNL     1       1.352  33.216   8.068  1.00  0.00     0.119 A 
ATOM     10  C   UNL     1       0.633  34.394   8.291  1.00  0.00     0.047 A 
ATOM     11  C   UNL     1      -0.751  34.352   8.487  1.00  0.00     0.020 A 
ENDROOT
BRANCH   1  12
ATOM     12  C   UNL     1      -3.215  29.263   8.297  1.00  0.00     0.025 A 
ATOM     13  C   UNL     1      -4.604  29.060   8.220  1.00  0.00     0.016 A 
ATOM     14  C   UNL     1      -5.125  27.766   8.130  1.00  0.00     0.051 A 
ATOM     15  C   UNL     1      -4.268  26.659   8.100  1.00  0.00     0.157 A 
ATOM     16  C   UNL     1      -2.359  28.151   8.246  1.00  0.00     0.062 A 
ATOM     17  C   UNL     1      -2.878  26.854   8.155  1.00  0.00     0.158 A 
BRANCH  15  18
ATOM     18  O   UNL     1      -4.790  25.370   8.011  1.00  0.00    -0.504 OA
ATOM     19  H   UNL     1      -4.478  24.628   8.628  1.00  0.00     0.293 HD
ENDBRANCH  15  18
BRANCH  17  20
ATOM     20  O   UNL     1      -1.996  25.773   8.120  1.00  0.00    -0.504 OA
ATOM     21  H   UNL     1      -1.530  25.487   7.268  1.00  0.00     0.293 HD
ENDBRANCH  17  20
ENDBRANCH   1  12
BRANCH   2  22
ATOM     22  O   UNL     1      -4.801  31.630   8.868  1.00  0.00    -0.502 OA
ATOM     23  H   UNL     1      -5.502  32.010   8.243  1.00  0.00     0.293 HD
ENDBRANCH   2  22
BRANCH   9  24
ATOM     24  O   UNL     1       2.731  33.279   7.875  1.00  0.00    -0.508 OA
ATOM     25  H   UNL     1       3.242  32.511   7.457  1.00  0.00     0.293 HD
ENDBRANCH   9  24
TORSDOF 5
ENDMDL
