MODEL 1
REMARK VINA RESULT:    -4.682      0.000      0.000
REMARK INTER + INTRA:          -5.935
REMARK INTER:                  -5.640
REMARK INTRA:                  -0.295
REMARK UNBOUND:                -0.295
REMARK SMILES NC(=O)C[C@H]([NH3+])C(=O)[O-]
REMARK SMILES IDX 4 1 5 2 6 3 7 7 8 8 9 9 2 10 3 11 1 12
REMARK H PARENT 6 4 6 5 6 6 1 13 1 14
REMARK Flexibility Score: inf
ROOT
ATOM      1  C   UNL     1      28.961  17.317  20.525  1.00  0.00     0.171 C 
ENDROOT
BRANCH   1   2
ATOM      2  C   UNL     1      29.435  18.003  21.823  1.00  0.00     0.237 C 
BRANCH   2   3
ATOM      3  N   UNL     1      30.819  17.630  22.152  1.00  0.00    -0.350 N 
ATOM      4  H   UNL     1      30.818  16.821  22.815  1.00  0.00     0.345 HD
ATOM      5  H   UNL     1      31.302  18.429  22.622  1.00  0.00     0.345 HD
ATOM      6  H   UNL     1      31.347  17.367  21.289  1.00  0.00     0.345 HD
ENDBRANCH   2   3
BRANCH   2   7
ATOM      7  C   UNL     1      28.514  17.644  22.958  1.00  0.00     0.100 C 
ATOM      8  O   UNL     1      27.386  17.133  22.728  1.00  0.00    -0.544 OA
ATOM      9  O   UNL     1      28.899  17.892  24.269  1.00  0.00    -0.544 OA
ENDBRANCH   2   7
ENDBRANCH   1   2
BRANCH   1  10
ATOM     10  C   UNL     1      30.091  17.113  19.560  1.00  0.00     0.223 C 
ATOM     11  O   UNL     1      30.750  16.040  19.585  1.00  0.00    -0.275 OA
ATOM     12  N   UNL     1      30.442  18.138  18.633  1.00  0.00    -0.369 N 
ATOM     13  H   UNL     1      29.912  19.038  18.608  1.00  0.00     0.159 HD
ATOM     14  H   UNL     1      31.237  18.001  17.970  1.00  0.00     0.159 HD
ENDBRANCH   1  10
TORSDOF 4
ENDMDL
MODEL 2
REMARK VINA RESULT:    -4.665      1.796      4.026
REMARK INTER + INTRA:          -5.915
REMARK INTER:                  -5.674
REMARK INTRA:                  -0.240
REMARK UNBOUND:                -0.295
REMARK SMILES NC(=O)C[C@H]([NH3+])C(=O)[O-]
REMARK SMILES IDX 4 1 5 2 6 3 7 7 8 8 9 9 2 10 3 11 1 12
REMARK H PARENT 6 4 6 5 6 6 1 13 1 14
REMARK Flexibility Score: inf
ROOT
ATOM      1  C   UNL     1      28.300  16.875  21.000  1.00  0.00     0.171 C 
ENDROOT
BRANCH   1   2
ATOM      2  C   UNL     1      29.800  17.038  20.681  1.00  0.00     0.237 C 
BRANCH   2   3
ATOM      3  N   UNL     1      30.085  18.353  20.090  1.00  0.00    -0.350 N 
ATOM      4  H   UNL     1      31.114  18.456  19.935  1.00  0.00     0.345 HD
ATOM      5  H   UNL     1      29.781  19.112  20.742  1.00  0.00     0.345 HD
ATOM      6  H   UNL     1      29.587  18.465  19.176  1.00  0.00     0.345 HD
ENDBRANCH   2   3
BRANCH   2   7
ATOM      7  C   UNL     1      30.247  15.941  19.751  1.00  0.00     0.100 C 
ATOM      8  O   UNL     1      29.708  15.802  18.621  1.00  0.00    -0.544 OA
ATOM      9  O   UNL     1      31.248  15.063  20.145  1.00  0.00    -0.544 OA
ENDBRANCH   2   7
ENDBRANCH   1   2
BRANCH   1  10
ATOM     10  C   UNL     1      27.971  17.355  22.383  1.00  0.00     0.223 C 
ATOM     11  O   UNL     1      28.765  18.126  22.984  1.00  0.00    -0.275 OA
ATOM     12  N   UNL     1      26.778  16.920  23.033  1.00  0.00    -0.369 N 
ATOM     13  H   UNL     1      26.115  16.272  22.551  1.00  0.00     0.159 HD
ATOM     14  H   UNL     1      26.556  17.244  24.000  1.00  0.00     0.159 HD
ENDBRANCH   1  10
TORSDOF 4
ENDMDL
MODEL 3
REMARK VINA RESULT:    -4.579      1.952      2.402
REMARK INTER + INTRA:          -5.810
REMARK INTER:                  -5.548
REMARK INTRA:                  -0.262
REMARK UNBOUND:                -0.295
REMARK SMILES NC(=O)C[C@H]([NH3+])C(=O)[O-]
REMARK SMILES IDX 4 1 5 2 6 3 7 7 8 8 9 9 2 10 3 11 1 12
REMARK H PARENT 6 4 6 5 6 6 1 13 1 14
REMARK Flexibility Score: inf
ROOT
ATOM      1  C   UNL     1      28.966  18.058  22.147  1.00  0.00     0.171 C 
ENDROOT
BRANCH   1   2
ATOM      2  C   UNL     1      28.299  16.946  22.983  1.00  0.00     0.237 C 
BRANCH   2   3
ATOM      3  N   UNL     1      26.836  16.977  22.848  1.00  0.00    -0.350 N 
ATOM      4  H   UNL     1      26.575  17.077  21.840  1.00  0.00     0.345 HD
ATOM      5  H   UNL     1      26.446  17.799  23.363  1.00  0.00     0.345 HD
ATOM      6  H   UNL     1      26.410  16.100  23.228  1.00  0.00     0.345 HD
ENDBRANCH   2   3
BRANCH   2   7
ATOM      7  C   UNL     1      28.693  17.088  24.429  1.00  0.00     0.100 C 
ATOM      8  O   UNL     1      29.311  18.112  24.825  1.00  0.00    -0.544 OA
ATOM      9  O   UNL     1      28.392  16.077  25.332  1.00  0.00    -0.544 OA
ENDBRANCH   2   7
ENDBRANCH   1   2
BRANCH   1  10
ATOM     10  C   UNL     1      29.042  17.689  20.694  1.00  0.00     0.223 C 
ATOM     11  O   UNL     1      28.204  16.886  20.206  1.00  0.00    -0.275 OA
ATOM     12  N   UNL     1      30.077  18.221  19.869  1.00  0.00    -0.369 N 
ATOM     13  H   UNL     1      30.787  18.880  20.262  1.00  0.00     0.159 HD
ATOM     14  H   UNL     1      30.138  17.955  18.861  1.00  0.00     0.159 HD
ENDBRANCH   1  10
TORSDOF 4
ENDMDL
MODEL 4
REMARK VINA RESULT:    -4.562      2.476      4.265
REMARK INTER + INTRA:          -5.791
REMARK INTER:                  -5.506
REMARK INTRA:                  -0.284
REMARK UNBOUND:                -0.295
REMARK SMILES NC(=O)C[C@H]([NH3+])C(=O)[O-]
REMARK SMILES IDX 4 1 5 2 6 3 7 7 8 8 9 9 2 10 3 11 1 12
REMARK H PARENT 6 4 6 5 6 6 1 13 1 14
REMARK Flexibility Score: inf
ROOT
ATOM      1  C   UNL     1      28.831  16.919  21.634  1.00  0.00     0.171 C 
ENDROOT
BRANCH   1   2
ATOM      2  C   UNL     1      28.525  16.769  20.129  1.00  0.00     0.237 C 
BRANCH   2   3
ATOM      3  N   UNL     1      27.832  15.504  19.845  1.00  0.00    -0.350 N 
ATOM      4  H   UNL     1      26.966  15.692  19.289  1.00  0.00     0.345 HD
ATOM      5  H   UNL     1      27.546  15.044  20.739  1.00  0.00     0.345 HD
ATOM      6  H   UNL     1      28.452  14.855  19.307  1.00  0.00     0.345 HD
ENDBRANCH   2   3
BRANCH   2   7
ATOM      7  C   UNL     1      29.802  16.854  19.337  1.00  0.00     0.100 C 
ATOM      8  O   UNL     1      29.962  17.762  18.478  1.00  0.00    -0.544 OA
ATOM      9  O   UNL     1      30.806  15.915  19.536  1.00  0.00    -0.544 OA
ENDBRANCH   2   7
ENDBRANCH   1   2
BRANCH   1  10
ATOM     10  C   UNL     1      27.820  16.203  22.479  1.00  0.00     0.223 C 
ATOM     11  O   UNL     1      27.951  14.971  22.705  1.00  0.00    -0.275 OA
ATOM     12  N   UNL     1      26.694  16.903  23.007  1.00  0.00    -0.369 N 
ATOM     13  H   UNL     1      26.566  17.924  22.819  1.00  0.00     0.159 HD
ATOM     14  H   UNL     1      25.984  16.402  23.585  1.00  0.00     0.159 HD
ENDBRANCH   1  10
TORSDOF 4
ENDMDL
MODEL 5
REMARK VINA RESULT:    -4.547      1.637      3.737
REMARK INTER + INTRA:          -5.772
REMARK INTER:                  -5.402
REMARK INTRA:                  -0.370
REMARK UNBOUND:                -0.295
REMARK SMILES NC(=O)C[C@H]([NH3+])C(=O)[O-]
REMARK SMILES IDX 4 1 5 2 6 3 7 7 8 8 9 9 2 10 3 11 1 12
REMARK H PARENT 6 4 6 5 6 6 1 13 1 14
REMARK Flexibility Score: inf
ROOT
ATOM      1  C   UNL     1      29.734  18.038  20.220  1.00  0.00     0.171 C 
ENDROOT
BRANCH   1   2
ATOM      2  C   UNL     1      29.209  16.761  19.533  1.00  0.00     0.237 C 
BRANCH   2   3
ATOM      3  N   UNL     1      27.775  16.564  19.788  1.00  0.00    -0.350 N 
ATOM      4  H   UNL     1      27.630  16.279  20.784  1.00  0.00     0.345 HD
ATOM      5  H   UNL     1      27.406  15.799  19.179  1.00  0.00     0.345 HD
ATOM      6  H   UNL     1      27.241  17.443  19.600  1.00  0.00     0.345 HD
ENDBRANCH   2   3
BRANCH   2   7
ATOM      7  C   UNL     1      29.993  15.566  20.007  1.00  0.00     0.100 C 
ATOM      8  O   UNL     1      31.206  15.433  19.694  1.00  0.00    -0.544 OA
ATOM      9  O   UNL     1      29.373  14.592  20.779  1.00  0.00    -0.544 OA
ENDBRANCH   2   7
ENDBRANCH   1   2
BRANCH   1  10
ATOM     10  C   UNL     1      29.673  17.929  21.715  1.00  0.00     0.223 C 
ATOM     11  O   UNL     1      28.560  17.968  22.302  1.00  0.00    -0.275 OA
ATOM     12  N   UNL     1      30.872  17.809  22.479  1.00  0.00    -0.369 N 
ATOM     13  H   UNL     1      31.804  17.785  22.007  1.00  0.00     0.159 HD
ATOM     14  H   UNL     1      30.830  17.745  23.520  1.00  0.00     0.159 HD
ENDBRANCH   1  10
TORSDOF 4
ENDMDL
MODEL 6
REMARK VINA RESULT:    -4.503      2.376      2.827
REMARK INTER + INTRA:          -5.720
REMARK INTER:                  -5.604
REMARK INTRA:                  -0.116
REMARK UNBOUND:                -0.295
REMARK SMILES NC(=O)C[C@H]([NH3+])C(=O)[O-]
REMARK SMILES IDX 4 1 5 2 6 3 7 7 8 8 9 9 2 10 3 11 1 12
REMARK H PARENT 6 4 6 5 6 6 1 13 1 14
REMARK Flexibility Score: inf
ROOT
ATOM      1  C   UNL     1      28.508  16.470  19.626  1.00  0.00     0.171 C 
ENDROOT
BRANCH   1   2
ATOM      2  C   UNL     1      28.329  15.069  20.246  1.00  0.00     0.237 C 
BRANCH   2   3
ATOM      3  N   UNL     1      27.269  14.311  19.565  1.00  0.00    -0.350 N 
ATOM      4  H   UNL     1      26.737  13.743  20.263  1.00  0.00     0.345 HD
ATOM      5  H   UNL     1      27.690  13.653  18.871  1.00  0.00     0.345 HD
ATOM      6  H   UNL     1      26.610  14.956  19.072  1.00  0.00     0.345 HD
ENDBRANCH   2   3
BRANCH   2   7
ATOM      7  C   UNL     1      28.017  15.196  21.714  1.00  0.00     0.100 C 
ATOM      8  O   UNL     1      27.778  16.324  22.221  1.00  0.00    -0.544 OA
ATOM      9  O   UNL     1      28.011  14.066  22.522  1.00  0.00    -0.544 OA
ENDBRANCH   2   7
ENDBRANCH   1   2
BRANCH   1  10
ATOM     10  C   UNL     1      29.949  16.765  19.331  1.00  0.00     0.223 C 
ATOM     11  O   UNL     1      30.836  15.923  19.630  1.00  0.00    -0.275 OA
ATOM     12  N   UNL     1      30.324  18.008  18.740  1.00  0.00    -0.369 N 
ATOM     13  H   UNL     1      29.601  18.722  18.496  1.00  0.00     0.159 HD
ATOM     14  H   UNL     1      31.328  18.219  18.547  1.00  0.00     0.159 HD
ENDBRANCH   1  10
TORSDOF 4
ENDMDL
MODEL 7
REMARK VINA RESULT:    -4.473      2.353      3.491
REMARK INTER + INTRA:          -5.683
REMARK INTER:                  -5.335
REMARK INTRA:                  -0.348
REMARK UNBOUND:                -0.295
REMARK SMILES NC(=O)C[C@H]([NH3+])C(=O)[O-]
REMARK SMILES IDX 4 1 5 2 6 3 7 7 8 8 9 9 2 10 3 11 1 12
REMARK H PARENT 6 4 6 5 6 6 1 13 1 14
REMARK Flexibility Score: inf
ROOT
ATOM      1  C   UNL     1      29.823  16.613  21.288  1.00  0.00     0.171 C 
ENDROOT
BRANCH   1   2
ATOM      2  C   UNL     1      28.807  15.944  20.340  1.00  0.00     0.237 C 
BRANCH   2   3
ATOM      3  N   UNL     1      27.802  16.906  19.864  1.00  0.00    -0.350 N 
ATOM      4  H   UNL     1      28.172  17.880  19.960  1.00  0.00     0.345 HD
ATOM      5  H   UNL     1      26.935  16.833  20.443  1.00  0.00     0.345 HD
ATOM      6  H   UNL     1      27.563  16.727  18.862  1.00  0.00     0.345 HD
ENDBRANCH   2   3
BRANCH   2   7
ATOM      7  C   UNL     1      28.135  14.793  21.040  1.00  0.00     0.100 C 
ATOM      8  O   UNL     1      28.232  14.660  22.289  1.00  0.00    -0.544 OA
ATOM      9  O   UNL     1      27.419  13.856  20.305  1.00  0.00    -0.544 OA
ENDBRANCH   2   7
ENDBRANCH   1   2
BRANCH   1  10
ATOM     10  C   UNL     1      29.342  17.953  21.761  1.00  0.00     0.223 C 
ATOM     11  O   UNL     1      28.329  18.029  22.505  1.00  0.00    -0.275 OA
ATOM     12  N   UNL     1      30.010  19.145  21.349  1.00  0.00    -0.369 N 
ATOM     13  H   UNL     1      30.846  19.099  20.724  1.00  0.00     0.159 HD
ATOM     14  H   UNL     1      29.668  20.078  21.668  1.00  0.00     0.159 HD
ENDBRANCH   1  10
TORSDOF 4
ENDMDL
MODEL 8
REMARK VINA RESULT:    -4.458      1.470      1.807
REMARK INTER + INTRA:          -5.665
REMARK INTER:                  -5.405
REMARK INTRA:                  -0.260
REMARK UNBOUND:                -0.295
REMARK SMILES NC(=O)C[C@H]([NH3+])C(=O)[O-]
REMARK SMILES IDX 4 1 5 2 6 3 7 7 8 8 9 9 2 10 3 11 1 12
REMARK H PARENT 6 4 6 5 6 6 1 13 1 14
REMARK Flexibility Score: inf
ROOT
ATOM      1  C   UNL     1      30.003  17.069  20.895  1.00  0.00     0.171 C 
ENDROOT
BRANCH   1   2
ATOM      2  C   UNL     1      29.321  18.298  21.529  1.00  0.00     0.237 C 
BRANCH   2   3
ATOM      3  N   UNL     1      30.262  19.418  21.675  1.00  0.00    -0.350 N 
ATOM      4  H   UNL     1      29.733  20.303  21.850  1.00  0.00     0.345 HD
ATOM      5  H   UNL     1      30.811  19.541  20.794  1.00  0.00     0.345 HD
ATOM      6  H   UNL     1      30.920  19.249  22.470  1.00  0.00     0.345 HD
ENDBRANCH   2   3
BRANCH   2   7
ATOM      7  C   UNL     1      28.741  17.928  22.868  1.00  0.00     0.100 C 
ATOM      8  O   UNL     1      29.267  18.350  23.932  1.00  0.00    -0.544 OA
ATOM      9  O   UNL     1      27.628  17.099  22.936  1.00  0.00    -0.544 OA
ENDBRANCH   2   7
ENDBRANCH   1   2
BRANCH   1  10
ATOM     10  C   UNL     1      29.193  16.508  19.763  1.00  0.00     0.223 C 
ATOM     11  O   UNL     1      29.773  15.958  18.789  1.00  0.00    -0.275 OA
ATOM     12  N   UNL     1      27.771  16.620  19.768  1.00  0.00    -0.369 N 
ATOM     13  H   UNL     1      27.276  17.083  20.563  1.00  0.00     0.159 HD
ATOM     14  H   UNL     1      27.208  16.241  18.974  1.00  0.00     0.159 HD
ENDBRANCH   1  10
TORSDOF 4
ENDMDL
MODEL 9
REMARK VINA RESULT:    -4.432      1.844      4.165
REMARK INTER + INTRA:          -5.633
REMARK INTER:                  -5.373
REMARK INTRA:                  -0.260
REMARK UNBOUND:                -0.295
REMARK SMILES NC(=O)C[C@H]([NH3+])C(=O)[O-]
REMARK SMILES IDX 4 1 5 2 6 3 7 7 8 8 9 9 2 10 3 11 1 12
REMARK H PARENT 6 4 6 5 6 6 1 13 1 14
REMARK Flexibility Score: inf
ROOT
ATOM      1  C   UNL     1      28.654  17.925  22.842  1.00  0.00     0.171 C 
ENDROOT
BRANCH   1   2
ATOM      2  C   UNL     1      29.768  18.092  21.789  1.00  0.00     0.237 C 
BRANCH   2   3
ATOM      3  N   UNL     1      30.214  19.489  21.695  1.00  0.00    -0.350 N 
ATOM      4  H   UNL     1      30.330  19.757  20.690  1.00  0.00     0.345 HD
ATOM      5  H   UNL     1      31.140  19.601  22.165  1.00  0.00     0.345 HD
ATOM      6  H   UNL     1      29.520  20.131  22.143  1.00  0.00     0.345 HD
ENDBRANCH   2   3
BRANCH   2   7
ATOM      7  C   UNL     1      29.281  17.609  20.448  1.00  0.00     0.100 C 
ATOM      8  O   UNL     1      29.949  17.839  19.406  1.00  0.00    -0.544 OA
ATOM      9  O   UNL     1      28.079  16.921  20.354  1.00  0.00    -0.544 OA
ENDBRANCH   2   7
ENDBRANCH   1   2
BRANCH   1  10
ATOM     10  C   UNL     1      29.199  17.974  24.239  1.00  0.00     0.223 C 
ATOM     11  O   UNL     1      29.683  19.047  24.686  1.00  0.00    -0.275 OA
ATOM     12  N   UNL     1      29.199  16.804  25.055  1.00  0.00    -0.369 N 
ATOM     13  H   UNL     1      28.811  15.903  24.694  1.00  0.00     0.159 HD
ATOM     14  H   UNL     1      29.590  16.835  26.023  1.00  0.00     0.159 HD
ENDBRANCH   1  10
TORSDOF 4
ENDMDL
