MODEL 1
REMARK VINA RESULT:    -6.470      0.000      0.000
REMARK INTER + INTRA:          -8.222
REMARK INTER:                  -7.983
REMARK INTRA:                  -0.239
REMARK UNBOUND:                -0.239
REMARK SMILES Oc1cc(O)c2cc(O)c(-c3cc(O)c(O)c(O)c3)[o+]c2c1
REMARK SMILES IDX 10 1 20 2 21 3 22 4 2 5 3 6 4 7 6 8 7 9 8 10 11 11 12 12
REMARK SMILES IDX 13 13 19 14 15 15 17 16 14 17 16 19 18 21 9 23 1 25 5 27
REMARK H PARENT 14 18 16 20 18 22 9 24 1 26 5 28
REMARK Flexibility Score: inf
ROOT
ATOM      1  C   UNL     1     179.083 181.992 174.917  1.00  0.00     0.402 A 
ATOM      2  O   UNL     1     180.322 181.524 174.793  1.00  0.00    -0.202 OA
ATOM      3  C   UNL     1     180.882 180.700 175.672  1.00  0.00     0.368 A 
ATOM      4  C   UNL     1     182.191 180.259 175.452  1.00  0.00     0.162 A 
ATOM      5  C   UNL     1     182.803 179.390 176.359  1.00  0.00     0.128 A 
ATOM      6  C   UNL     1     182.105 178.958 177.488  1.00  0.00     0.093 A 
ATOM      7  C   UNL     1     180.793 179.385 177.732  1.00  0.00     0.136 A 
ATOM      8  C   UNL     1     180.168 180.270 176.815  1.00  0.00     0.125 A 
ATOM      9  C   UNL     1     178.862 180.759 176.983  1.00  0.00     0.078 A 
ATOM     10  C   UNL     1     178.314 181.633 176.039  1.00  0.00     0.223 A 
ENDROOT
BRANCH   1  11
ATOM     11  C   UNL     1     178.567 182.897 173.864  1.00  0.00     0.091 A 
ATOM     12  C   UNL     1     179.229 184.106 173.608  1.00  0.00     0.068 A 
ATOM     13  C   UNL     1     178.781 184.976 172.607  1.00  0.00     0.162 A 
ATOM     14  C   UNL     1     177.460 182.545 173.075  1.00  0.00     0.068 A 
ATOM     15  C   UNL     1     177.650 184.625 171.832  1.00  0.00     0.200 A 
ATOM     16  C   UNL     1     177.001 183.404 172.071  1.00  0.00     0.162 A 
BRANCH  13  17
ATOM     17  O   UNL     1     179.483 186.168 172.419  1.00  0.00    -0.504 OA
ATOM     18  H   UNL     1     180.062 186.601 173.124  1.00  0.00     0.293 HD
ENDBRANCH  13  17
BRANCH  15  19
ATOM     19  O   UNL     1     177.147 185.449 170.823  1.00  0.00    -0.502 OA
ATOM     20  H   UNL     1     176.165 185.550 170.611  1.00  0.00     0.293 HD
ENDBRANCH  15  19
BRANCH  16  21
ATOM     21  O   UNL     1     175.897 183.051 171.296  1.00  0.00    -0.504 OA
ATOM     22  H   UNL     1     174.952 183.264 171.591  1.00  0.00     0.293 HD
ENDBRANCH  16  21
ENDBRANCH   1  11
BRANCH  10  23
ATOM     23  O   UNL     1     177.036 182.159 176.232  1.00  0.00    -0.500 OA
ATOM     24  H   UNL     1     176.883 183.151 176.366  1.00  0.00     0.294 HD
ENDBRANCH  10  23
BRANCH   5  25
ATOM     25  O   UNL     1     184.107 178.947 176.147  1.00  0.00    -0.507 OA
ATOM     26  H   UNL     1     184.346 177.962 176.193  1.00  0.00     0.293 HD
ENDBRANCH   5  25
BRANCH   7  27
ATOM     27  O   UNL     1     180.162 178.905 178.883  1.00  0.00    -0.507 OA
ATOM     28  H   UNL     1     180.275 179.304 179.804  1.00  0.00     0.293 HD
ENDBRANCH   7  27
TORSDOF 7
ENDMDL
MODEL 2
REMARK VINA RESULT:    -6.433      3.517      7.075
REMARK INTER + INTRA:          -8.176
REMARK INTER:                  -7.914
REMARK INTRA:                  -0.262
REMARK UNBOUND:                -0.239
REMARK SMILES Oc1cc(O)c2cc(O)c(-c3cc(O)c(O)c(O)c3)[o+]c2c1
REMARK SMILES IDX 10 1 20 2 21 3 22 4 2 5 3 6 4 7 6 8 7 9 8 10 11 11 12 12
REMARK SMILES IDX 13 13 19 14 15 15 17 16 14 17 16 19 18 21 9 23 1 25 5 27
REMARK H PARENT 14 18 16 20 18 22 9 24 1 26 5 28
REMARK Flexibility Score: inf
ROOT
ATOM      1  C   UNL     1     181.688 178.604 174.752  1.00  0.00     0.402 A 
ATOM      2  O   UNL     1     180.447 179.067 174.630  1.00  0.00    -0.202 OA
ATOM      3  C   UNL     1     179.888 179.899 175.503  1.00  0.00     0.368 A 
ATOM      4  C   UNL     1     178.577 180.332 175.286  1.00  0.00     0.162 A 
ATOM      5  C   UNL     1     177.966 181.209 176.186  1.00  0.00     0.128 A 
ATOM      6  C   UNL     1     178.670 181.656 177.306  1.00  0.00     0.093 A 
ATOM      7  C   UNL     1     179.985 181.238 177.547  1.00  0.00     0.136 A 
ATOM      8  C   UNL     1     180.608 180.344 176.637  1.00  0.00     0.125 A 
ATOM      9  C   UNL     1     181.917 179.862 176.803  1.00  0.00     0.078 A 
ATOM     10  C   UNL     1     182.463 178.979 175.866  1.00  0.00     0.223 A 
ENDROOT
BRANCH   1  11
ATOM     11  C   UNL     1     182.202 177.690 173.707  1.00  0.00     0.091 A 
ATOM     12  C   UNL     1     181.574 176.453 173.504  1.00  0.00     0.068 A 
ATOM     13  C   UNL     1     182.020 175.572 172.512  1.00  0.00     0.162 A 
ATOM     14  C   UNL     1     183.270 178.058 172.874  1.00  0.00     0.068 A 
ATOM     15  C   UNL     1     183.113 175.939 171.692  1.00  0.00     0.200 A 
ATOM     16  C   UNL     1     183.726 177.187 171.877  1.00  0.00     0.162 A 
BRANCH  13  17
ATOM     17  O   UNL     1     181.353 174.352 172.378  1.00  0.00    -0.504 OA
ATOM     18  H   UNL     1     181.658 173.604 171.772  1.00  0.00     0.293 HD
ENDBRANCH  13  17
BRANCH  15  19
ATOM     19  O   UNL     1     183.612 175.106 170.688  1.00  0.00    -0.502 OA
ATOM     20  H   UNL     1     183.309 175.134 169.725  1.00  0.00     0.293 HD
ENDBRANCH  15  19
BRANCH  16  21
ATOM     21  O   UNL     1     184.792 177.557 171.059  1.00  0.00    -0.504 OA
ATOM     22  H   UNL     1     185.500 176.890 170.775  1.00  0.00     0.293 HD
ENDBRANCH  16  21
ENDBRANCH   1  11
BRANCH  10  23
ATOM     23  O   UNL     1     183.744 178.461 176.057  1.00  0.00    -0.500 OA
ATOM     24  H   UNL     1     183.912 177.669 176.666  1.00  0.00     0.294 HD
ENDBRANCH  10  23
BRANCH   5  25
ATOM     25  O   UNL     1     176.660 181.645 175.977  1.00  0.00    -0.507 OA
ATOM     26  H   UNL     1     175.899 181.341 176.573  1.00  0.00     0.293 HD
ENDBRANCH   5  25
BRANCH   7  27
ATOM     27  O   UNL     1     180.620 181.733 178.689  1.00  0.00    -0.507 OA
ATOM     28  H   UNL     1     180.506 181.352 179.616  1.00  0.00     0.293 HD
ENDBRANCH   7  27
TORSDOF 7
ENDMDL
MODEL 3
REMARK VINA RESULT:    -6.391      3.634      6.508
REMARK INTER + INTRA:          -8.124
REMARK INTER:                  -7.806
REMARK INTRA:                  -0.318
REMARK UNBOUND:                -0.239
REMARK SMILES Oc1cc(O)c2cc(O)c(-c3cc(O)c(O)c(O)c3)[o+]c2c1
REMARK SMILES IDX 10 1 20 2 21 3 22 4 2 5 3 6 4 7 6 8 7 9 8 10 11 11 12 12
REMARK SMILES IDX 13 13 19 14 15 15 17 16 14 17 16 19 18 21 9 23 1 25 5 27
REMARK H PARENT 14 18 16 20 18 22 9 24 1 26 5 28
REMARK Flexibility Score: inf
ROOT
ATOM      1  C   UNL     1     180.711 178.519 174.514  1.00  0.00     0.402 A 
ATOM      2  O   UNL     1     181.133 178.648 175.768  1.00  0.00    -0.202 OA
ATOM      3  C   UNL     1     180.563 179.463 176.650  1.00  0.00     0.368 A 
ATOM      4  C   UNL     1     181.079 179.527 177.948  1.00  0.00     0.162 A 
ATOM      5  C   UNL     1     180.497 180.374 178.896  1.00  0.00     0.128 A 
ATOM      6  C   UNL     1     179.396 181.157 178.546  1.00  0.00     0.093 A 
ATOM      7  C   UNL     1     178.861 181.112 177.252  1.00  0.00     0.136 A 
ATOM      8  C   UNL     1     179.449 180.255 176.285  1.00  0.00     0.125 A 
ATOM      9  C   UNL     1     178.989 180.153 174.962  1.00  0.00     0.078 A 
ATOM     10  C   UNL     1     179.624 179.291 174.064  1.00  0.00     0.223 A 
ENDROOT
BRANCH   1  11
ATOM     11  C   UNL     1     181.423 177.569 173.629  1.00  0.00     0.091 A 
ATOM     12  C   UNL     1     182.735 177.854 173.225  1.00  0.00     0.068 A 
ATOM     13  C   UNL     1     183.445 176.969 172.405  1.00  0.00     0.162 A 
ATOM     14  C   UNL     1     180.834 176.359 173.230  1.00  0.00     0.068 A 
ATOM     15  C   UNL     1     182.836 175.762 171.987  1.00  0.00     0.200 A 
ATOM     16  C   UNL     1     181.532 175.464 172.410  1.00  0.00     0.162 A 
BRANCH  13  17
ATOM     17  O   UNL     1     184.743 177.327 172.033  1.00  0.00    -0.504 OA
ATOM     18  H   UNL     1     184.965 177.897 171.229  1.00  0.00     0.293 HD
ENDBRANCH  13  17
BRANCH  15  19
ATOM     19  O   UNL     1     183.486 174.839 171.164  1.00  0.00    -0.502 OA
ATOM     20  H   UNL     1     183.354 173.839 171.220  1.00  0.00     0.293 HD
ENDBRANCH  15  19
BRANCH  16  21
ATOM     21  O   UNL     1     180.938 174.268 172.012  1.00  0.00    -0.504 OA
ATOM     22  H   UNL     1     180.959 173.444 172.600  1.00  0.00     0.293 HD
ENDBRANCH  16  21
ENDBRANCH   1  11
BRANCH  10  23
ATOM     23  O   UNL     1     179.198 179.227 172.736  1.00  0.00    -0.500 OA
ATOM     24  H   UNL     1     178.575 179.921 172.343  1.00  0.00     0.294 HD
ENDBRANCH  10  23
BRANCH   5  25
ATOM     25  O   UNL     1     181.005 180.443 180.191  1.00  0.00    -0.507 OA
ATOM     26  H   UNL     1     181.950 180.146 180.406  1.00  0.00     0.293 HD
ENDBRANCH   5  25
BRANCH   7  27
ATOM     27  O   UNL     1     177.756 181.925 176.983  1.00  0.00    -0.507 OA
ATOM     28  H   UNL     1     177.256 182.458 177.679  1.00  0.00     0.293 HD
ENDBRANCH   7  27
TORSDOF 7
ENDMDL
MODEL 4
REMARK VINA RESULT:    -6.391      1.179      3.144
REMARK INTER + INTRA:          -8.124
REMARK INTER:                  -7.806
REMARK INTRA:                  -0.318
REMARK UNBOUND:                -0.239
REMARK SMILES Oc1cc(O)c2cc(O)c(-c3cc(O)c(O)c(O)c3)[o+]c2c1
REMARK SMILES IDX 10 1 20 2 21 3 22 4 2 5 3 6 4 7 6 8 7 9 8 10 11 11 12 12
REMARK SMILES IDX 13 13 19 14 15 15 17 16 14 17 16 19 18 21 9 23 1 25 5 27
REMARK H PARENT 14 18 16 20 18 22 9 24 1 26 5 28
REMARK Flexibility Score: inf
ROOT
ATOM      1  C   UNL     1     180.027 182.248 174.517  1.00  0.00     0.402 A 
ATOM      2  O   UNL     1     179.593 182.104 175.766  1.00  0.00    -0.202 OA
ATOM      3  C   UNL     1     180.164 181.290 176.648  1.00  0.00     0.368 A 
ATOM      4  C   UNL     1     179.636 181.210 177.940  1.00  0.00     0.162 A 
ATOM      5  C   UNL     1     180.217 180.364 178.888  1.00  0.00     0.128 A 
ATOM      6  C   UNL     1     181.332 179.597 178.544  1.00  0.00     0.093 A 
ATOM      7  C   UNL     1     181.881 179.658 177.257  1.00  0.00     0.136 A 
ATOM      8  C   UNL     1     181.291 180.514 176.290  1.00  0.00     0.125 A 
ATOM      9  C   UNL     1     181.765 180.631 174.972  1.00  0.00     0.078 A 
ATOM     10  C   UNL     1     181.129 181.492 174.073  1.00  0.00     0.223 A 
ENDROOT
BRANCH   1  11
ATOM     11  C   UNL     1     179.313 183.195 173.631  1.00  0.00     0.091 A 
ATOM     12  C   UNL     1     178.008 182.898 173.213  1.00  0.00     0.068 A 
ATOM     13  C   UNL     1     177.296 183.780 172.392  1.00  0.00     0.162 A 
ATOM     14  C   UNL     1     179.892 184.414 173.245  1.00  0.00     0.068 A 
ATOM     15  C   UNL     1     177.895 184.996 171.987  1.00  0.00     0.200 A 
ATOM     16  C   UNL     1     179.192 185.305 172.424  1.00  0.00     0.162 A 
BRANCH  13  17
ATOM     17  O   UNL     1     176.006 183.410 172.006  1.00  0.00    -0.504 OA
ATOM     18  H   UNL     1     175.460 183.899 171.311  1.00  0.00     0.293 HD
ENDBRANCH  13  17
BRANCH  15  19
ATOM     19  O   UNL     1     177.243 185.917 171.164  1.00  0.00    -0.502 OA
ATOM     20  H   UNL     1     176.918 185.711 170.230  1.00  0.00     0.293 HD
ENDBRANCH  15  19
BRANCH  16  21
ATOM     21  O   UNL     1     179.777 186.511 172.039  1.00  0.00    -0.504 OA
ATOM     22  H   UNL     1     179.521 187.388 172.475  1.00  0.00     0.293 HD
ENDBRANCH  16  21
ENDBRANCH   1  11
BRANCH  10  23
ATOM     23  O   UNL     1     181.568 181.571 172.751  1.00  0.00    -0.500 OA
ATOM     24  H   UNL     1     181.731 180.741 172.194  1.00  0.00     0.294 HD
ENDBRANCH  10  23
BRANCH   5  25
ATOM     25  O   UNL     1     179.697 180.279 180.177  1.00  0.00    -0.507 OA
ATOM     26  H   UNL     1     180.260 179.956 180.956  1.00  0.00     0.293 HD
ENDBRANCH   5  25
BRANCH   7  27
ATOM     27  O   UNL     1     182.998 178.861 176.993  1.00  0.00    -0.507 OA
ATOM     28  H   UNL     1     183.942 179.093 177.266  1.00  0.00     0.293 HD
ENDBRANCH   7  27
TORSDOF 7
ENDMDL
MODEL 5
REMARK VINA RESULT:    -6.369      3.086      6.523
REMARK INTER + INTRA:          -8.098
REMARK INTER:                  -7.722
REMARK INTRA:                  -0.375
REMARK UNBOUND:                -0.239
REMARK SMILES Oc1cc(O)c2cc(O)c(-c3cc(O)c(O)c(O)c3)[o+]c2c1
REMARK SMILES IDX 10 1 20 2 21 3 22 4 2 5 3 6 4 7 6 8 7 9 8 10 11 11 12 12
REMARK SMILES IDX 13 13 19 14 15 15 17 16 14 17 16 19 18 21 9 23 1 25 5 27
REMARK H PARENT 14 18 16 20 18 22 9 24 1 26 5 28
REMARK Flexibility Score: inf
ROOT
ATOM      1  C   UNL     1     182.221 179.303 174.854  1.00  0.00     0.402 A 
ATOM      2  O   UNL     1     181.038 179.864 174.619  1.00  0.00    -0.202 OA
ATOM      3  C   UNL     1     180.259 180.352 175.579  1.00  0.00     0.368 A 
ATOM      4  C   UNL     1     179.032 180.926 175.233  1.00  0.00     0.162 A 
ATOM      5  C   UNL     1     178.194 181.449 176.221  1.00  0.00     0.128 A 
ATOM      6  C   UNL     1     178.585 181.400 177.561  1.00  0.00     0.093 A 
ATOM      7  C   UNL     1     179.809 180.830 177.935  1.00  0.00     0.136 A 
ATOM      8  C   UNL     1     180.662 180.295 176.934  1.00  0.00     0.125 A 
ATOM      9  C   UNL     1     181.900 179.695 177.216  1.00  0.00     0.078 A 
ATOM     10  C   UNL     1     182.684 179.185 176.177  1.00  0.00     0.223 A 
ENDROOT
BRANCH   1  11
ATOM     11  C   UNL     1     183.002 178.806 173.698  1.00  0.00     0.091 A 
ATOM     12  C   UNL     1     183.994 179.621 173.134  1.00  0.00     0.068 A 
ATOM     13  C   UNL     1     184.765 179.176 172.053  1.00  0.00     0.162 A 
ATOM     14  C   UNL     1     182.811 177.512 173.188  1.00  0.00     0.068 A 
ATOM     15  C   UNL     1     184.550 177.879 171.530  1.00  0.00     0.200 A 
ATOM     16  C   UNL     1     183.574 177.054 172.109  1.00  0.00     0.162 A 
BRANCH  13  17
ATOM     17  O   UNL     1     185.724 180.049 171.536  1.00  0.00    -0.504 OA
ATOM     18  H   UNL     1     186.197 180.757 172.079  1.00  0.00     0.293 HD
ENDBRANCH  13  17
BRANCH  15  19
ATOM     19  O   UNL     1     185.279 177.376 170.450  1.00  0.00    -0.502 OA
ATOM     20  H   UNL     1     186.276 177.488 170.338  1.00  0.00     0.293 HD
ENDBRANCH  15  19
BRANCH  16  21
ATOM     21  O   UNL     1     183.373 175.770 171.603  1.00  0.00    -0.504 OA
ATOM     22  H   UNL     1     182.534 175.243 171.812  1.00  0.00     0.293 HD
ENDBRANCH  16  21
ENDBRANCH   1  11
BRANCH  10  23
ATOM     23  O   UNL     1     183.890 178.544 176.462  1.00  0.00    -0.500 OA
ATOM     24  H   UNL     1     184.779 179.022 176.379  1.00  0.00     0.294 HD
ENDBRANCH  10  23
BRANCH   5  25
ATOM     25  O   UNL     1     176.970 182.022 175.884  1.00  0.00    -0.507 OA
ATOM     26  H   UNL     1     176.100 181.512 175.987  1.00  0.00     0.293 HD
ENDBRANCH   5  25
BRANCH   7  27
ATOM     27  O   UNL     1     180.127 180.823 179.296  1.00  0.00    -0.507 OA
ATOM     28  H   UNL     1     181.065 180.887 179.663  1.00  0.00     0.293 HD
ENDBRANCH   7  27
TORSDOF 7
ENDMDL
MODEL 6
REMARK VINA RESULT:    -6.345      0.989      2.214
REMARK INTER + INTRA:          -8.068
REMARK INTER:                  -7.694
REMARK INTRA:                  -0.374
REMARK UNBOUND:                -0.239
REMARK SMILES Oc1cc(O)c2cc(O)c(-c3cc(O)c(O)c(O)c3)[o+]c2c1
REMARK SMILES IDX 10 1 20 2 21 3 22 4 2 5 3 6 4 7 6 8 7 9 8 10 11 11 12 12
REMARK SMILES IDX 13 13 19 14 15 15 17 16 14 17 16 19 18 21 9 23 1 25 5 27
REMARK H PARENT 14 18 16 20 18 22 9 24 1 26 5 28
REMARK Flexibility Score: inf
ROOT
ATOM      1  C   UNL     1     178.543 181.443 174.907  1.00  0.00     0.402 A 
ATOM      2  O   UNL     1     179.732 180.891 174.680  1.00  0.00    -0.202 OA
ATOM      3  C   UNL     1     180.497 180.384 175.642  1.00  0.00     0.368 A 
ATOM      4  C   UNL     1     181.732 179.822 175.303  1.00  0.00     0.162 A 
ATOM      5  C   UNL     1     182.555 179.279 176.293  1.00  0.00     0.128 A 
ATOM      6  C   UNL     1     182.141 179.295 177.626  1.00  0.00     0.093 A 
ATOM      7  C   UNL     1     180.909 179.852 177.993  1.00  0.00     0.136 A 
ATOM      8  C   UNL     1     180.071 180.407 176.991  1.00  0.00     0.125 A 
ATOM      9  C   UNL     1     178.826 180.997 177.265  1.00  0.00     0.078 A 
ATOM     10  C   UNL     1     178.057 181.528 176.225  1.00  0.00     0.223 A 
ENDROOT
BRANCH   1  11
ATOM     11  C   UNL     1     177.780 181.964 173.750  1.00  0.00     0.091 A 
ATOM     12  C   UNL     1     176.792 181.165 173.158  1.00  0.00     0.068 A 
ATOM     13  C   UNL     1     176.038 181.632 172.076  1.00  0.00     0.162 A 
ATOM     14  C   UNL     1     177.984 183.266 173.266  1.00  0.00     0.068 A 
ATOM     15  C   UNL     1     176.266 182.937 171.579  1.00  0.00     0.200 A 
ATOM     16  C   UNL     1     177.238 183.747 172.185  1.00  0.00     0.162 A 
BRANCH  13  17
ATOM     17  O   UNL     1     175.081 180.774 171.531  1.00  0.00    -0.504 OA
ATOM     18  H   UNL     1     175.081 180.464 170.570  1.00  0.00     0.293 HD
ENDBRANCH  13  17
BRANCH  15  19
ATOM     19  O   UNL     1     175.554 183.464 170.498  1.00  0.00    -0.502 OA
ATOM     20  H   UNL     1     175.096 182.903 169.794  1.00  0.00     0.293 HD
ENDBRANCH  15  19
BRANCH  16  21
ATOM     21  O   UNL     1     177.451 185.039 171.706  1.00  0.00    -0.504 OA
ATOM     22  H   UNL     1     176.735 185.541 171.196  1.00  0.00     0.293 HD
ENDBRANCH  16  21
ENDBRANCH   1  11
BRANCH  10  23
ATOM     23  O   UNL     1     176.844 182.159 176.504  1.00  0.00    -0.500 OA
ATOM     24  H   UNL     1     176.319 182.643 175.786  1.00  0.00     0.294 HD
ENDBRANCH  10  23
BRANCH   5  25
ATOM     25  O   UNL     1     183.786 178.718 175.963  1.00  0.00    -0.507 OA
ATOM     26  H   UNL     1     184.351 179.087 175.207  1.00  0.00     0.293 HD
ENDBRANCH   5  25
BRANCH   7  27
ATOM     27  O   UNL     1     180.567 179.826 179.348  1.00  0.00    -0.507 OA
ATOM     28  H   UNL     1     179.676 179.516 179.706  1.00  0.00     0.293 HD
ENDBRANCH   7  27
TORSDOF 7
ENDMDL
MODEL 7
REMARK VINA RESULT:    -6.240      3.930      6.795
REMARK INTER + INTRA:          -7.938
REMARK INTER:                  -7.567
REMARK INTRA:                  -0.371
REMARK UNBOUND:                -0.239
REMARK SMILES Oc1cc(O)c2cc(O)c(-c3cc(O)c(O)c(O)c3)[o+]c2c1
REMARK SMILES IDX 10 1 20 2 21 3 22 4 2 5 3 6 4 7 6 8 7 9 8 10 11 11 12 12
REMARK SMILES IDX 13 13 19 14 15 15 17 16 14 17 16 19 18 21 9 23 1 25 5 27
REMARK H PARENT 14 18 16 20 18 22 9 24 1 26 5 28
REMARK Flexibility Score: inf
ROOT
ATOM      1  C   UNL     1     181.670 178.815 175.122  1.00  0.00     0.402 A 
ATOM      2  O   UNL     1     181.096 177.714 174.645  1.00  0.00    -0.202 OA
ATOM      3  C   UNL     1     181.569 177.037 173.603  1.00  0.00     0.368 A 
ATOM      4  C   UNL     1     180.895 175.889 173.177  1.00  0.00     0.162 A 
ATOM      5  C   UNL     1     181.372 175.157 172.085  1.00  0.00     0.128 A 
ATOM      6  C   UNL     1     182.526 175.574 171.420  1.00  0.00     0.093 A 
ATOM      7  C   UNL     1     183.219 176.721 171.826  1.00  0.00     0.136 A 
ATOM      8  C   UNL     1     182.737 177.469 172.933  1.00  0.00     0.125 A 
ATOM      9  C   UNL     1     183.359 178.637 173.403  1.00  0.00     0.078 A 
ATOM     10  C   UNL     1     182.823 179.325 174.496  1.00  0.00     0.223 A 
ENDROOT
BRANCH   1  11
ATOM     11  C   UNL     1     181.054 179.474 176.296  1.00  0.00     0.091 A 
ATOM     12  C   UNL     1     179.906 180.259 176.123  1.00  0.00     0.068 A 
ATOM     13  C   UNL     1     179.285 180.881 177.212  1.00  0.00     0.162 A 
ATOM     14  C   UNL     1     181.561 179.285 177.592  1.00  0.00     0.068 A 
ATOM     15  C   UNL     1     179.816 180.704 178.512  1.00  0.00     0.200 A 
ATOM     16  C   UNL     1     180.951 179.899 178.691  1.00  0.00     0.162 A 
BRANCH  13  17
ATOM     17  O   UNL     1     178.153 181.658 176.960  1.00  0.00    -0.504 OA
ATOM     18  H   UNL     1     178.178 182.646 176.753  1.00  0.00     0.293 HD
ENDBRANCH  13  17
BRANCH  15  19
ATOM     19  O   UNL     1     179.250 181.301 179.641  1.00  0.00    -0.502 OA
ATOM     20  H   UNL     1     178.858 180.786 180.417  1.00  0.00     0.293 HD
ENDBRANCH  15  19
BRANCH  16  21
ATOM     21  O   UNL     1     181.465 179.712 179.973  1.00  0.00    -0.504 OA
ATOM     22  H   UNL     1     181.473 178.801 180.414  1.00  0.00     0.293 HD
ENDBRANCH  16  21
ENDBRANCH   1  11
BRANCH  10  23
ATOM     23  O   UNL     1     183.411 180.513 174.932  1.00  0.00    -0.500 OA
ATOM     24  H   UNL     1     182.901 181.387 174.941  1.00  0.00     0.294 HD
ENDBRANCH  10  23
BRANCH   5  25
ATOM     25  O   UNL     1     180.706 174.012 171.655  1.00  0.00    -0.507 OA
ATOM     26  H   UNL     1     181.066 173.084 171.851  1.00  0.00     0.293 HD
ENDBRANCH   5  25
BRANCH   7  27
ATOM     27  O   UNL     1     184.367 177.069 171.109  1.00  0.00    -0.507 OA
ATOM     28  H   UNL     1     185.296 176.736 171.322  1.00  0.00     0.293 HD
ENDBRANCH   7  27
TORSDOF 7
ENDMDL
MODEL 8
REMARK VINA RESULT:    -6.219      1.293      6.991
REMARK INTER + INTRA:          -7.912
REMARK INTER:                  -7.540
REMARK INTRA:                  -0.372
REMARK UNBOUND:                -0.239
REMARK SMILES Oc1cc(O)c2cc(O)c(-c3cc(O)c(O)c(O)c3)[o+]c2c1
REMARK SMILES IDX 10 1 20 2 21 3 22 4 2 5 3 6 4 7 6 8 7 9 8 10 11 11 12 12
REMARK SMILES IDX 13 13 19 14 15 15 17 16 14 17 16 19 18 21 9 23 1 25 5 27
REMARK H PARENT 14 18 16 20 18 22 9 24 1 26 5 28
REMARK Flexibility Score: inf
ROOT
ATOM      1  C   UNL     1     179.063 181.920 175.119  1.00  0.00     0.402 A 
ATOM      2  O   UNL     1     179.645 183.012 174.632  1.00  0.00    -0.202 OA
ATOM      3  C   UNL     1     179.167 183.694 173.596  1.00  0.00     0.368 A 
ATOM      4  C   UNL     1     179.850 184.833 173.158  1.00  0.00     0.162 A 
ATOM      5  C   UNL     1     179.368 185.570 172.073  1.00  0.00     0.128 A 
ATOM      6  C   UNL     1     178.199 185.167 171.424  1.00  0.00     0.093 A 
ATOM      7  C   UNL     1     177.497 184.030 171.842  1.00  0.00     0.136 A 
ATOM      8  C   UNL     1     177.984 183.277 172.942  1.00  0.00     0.125 A 
ATOM      9  C   UNL     1     177.353 182.117 173.423  1.00  0.00     0.078 A 
ATOM     10  C   UNL     1     177.895 181.425 174.510  1.00  0.00     0.223 A 
ENDROOT
BRANCH   1  11
ATOM     11  C   UNL     1     179.687 181.254 176.286  1.00  0.00     0.091 A 
ATOM     12  C   UNL     1     180.815 180.444 176.096  1.00  0.00     0.068 A 
ATOM     13  C   UNL     1     181.442 179.816 177.178  1.00  0.00     0.162 A 
ATOM     14  C   UNL     1     179.207 181.461 177.589  1.00  0.00     0.068 A 
ATOM     15  C   UNL     1     180.939 180.010 178.486  1.00  0.00     0.200 A 
ATOM     16  C   UNL     1     179.824 180.840 178.680  1.00  0.00     0.162 A 
BRANCH  13  17
ATOM     17  O   UNL     1     182.553 179.014 176.909  1.00  0.00    -0.504 OA
ATOM     18  H   UNL     1     183.098 179.066 176.061  1.00  0.00     0.293 HD
ENDBRANCH  13  17
BRANCH  15  19
ATOM     19  O   UNL     1     181.513 179.408 179.608  1.00  0.00    -0.502 OA
ATOM     20  H   UNL     1     182.310 178.789 179.574  1.00  0.00     0.293 HD
ENDBRANCH  15  19
BRANCH  16  21
ATOM     21  O   UNL     1     179.338 181.044 179.970  1.00  0.00    -0.504 OA
ATOM     22  H   UNL     1     178.523 180.552 180.315  1.00  0.00     0.293 HD
ENDBRANCH  16  21
ENDBRANCH   1  11
BRANCH  10  23
ATOM     23  O   UNL     1     177.297 180.245 174.956  1.00  0.00    -0.500 OA
ATOM     24  H   UNL     1     176.403 179.934 174.598  1.00  0.00     0.294 HD
ENDBRANCH  10  23
BRANCH   5  25
ATOM     25  O   UNL     1     180.043 186.705 171.631  1.00  0.00    -0.507 OA
ATOM     26  H   UNL     1     179.628 187.340 170.958  1.00  0.00     0.293 HD
ENDBRANCH   5  25
BRANCH   7  27
ATOM     27  O   UNL     1     176.335 183.696 171.141  1.00  0.00    -0.507 OA
ATOM     28  H   UNL     1     175.404 183.976 171.414  1.00  0.00     0.293 HD
ENDBRANCH   7  27
TORSDOF 7
ENDMDL
MODEL 9
REMARK VINA RESULT:    -6.099      2.048      7.185
REMARK INTER + INTRA:          -7.763
REMARK INTER:                  -7.415
REMARK INTRA:                  -0.349
REMARK UNBOUND:                -0.239
REMARK SMILES Oc1cc(O)c2cc(O)c(-c3cc(O)c(O)c(O)c3)[o+]c2c1
REMARK SMILES IDX 10 1 20 2 21 3 22 4 2 5 3 6 4 7 6 8 7 9 8 10 11 11 12 12
REMARK SMILES IDX 13 13 19 14 15 15 17 16 14 17 16 19 18 21 9 23 1 25 5 27
REMARK H PARENT 14 18 16 20 18 22 9 24 1 26 5 28
REMARK Flexibility Score: inf
ROOT
ATOM      1  C   UNL     1     177.730 180.860 174.411  1.00  0.00     0.402 A 
ATOM      2  O   UNL     1     177.857 181.978 173.701  1.00  0.00    -0.202 OA
ATOM      3  C   UNL     1     177.097 182.264 172.648  1.00  0.00     0.368 A 
ATOM      4  C   UNL     1     177.306 183.467 171.967  1.00  0.00     0.162 A 
ATOM      5  C   UNL     1     176.520 183.795 170.859  1.00  0.00     0.128 A 
ATOM      6  C   UNL     1     175.521 182.918 170.432  1.00  0.00     0.093 A 
ATOM      7  C   UNL     1     175.292 181.706 171.096  1.00  0.00     0.136 A 
ATOM      8  C   UNL     1     176.090 181.368 172.221  1.00  0.00     0.125 A 
ATOM      9  C   UNL     1     175.941 180.171 172.941  1.00  0.00     0.078 A 
ATOM     10  C   UNL     1     176.768 179.904 174.036  1.00  0.00     0.223 A 
ENDROOT
BRANCH   1  11
ATOM     11  C   UNL     1     178.630 180.660 175.570  1.00  0.00     0.091 A 
ATOM     12  C   UNL     1     179.770 179.857 175.428  1.00  0.00     0.068 A 
ATOM     13  C   UNL     1     180.653 179.662 176.496  1.00  0.00     0.162 A 
ATOM     14  C   UNL     1     178.397 181.304 176.796  1.00  0.00     0.068 A 
ATOM     15  C   UNL     1     180.400 180.295 177.736  1.00  0.00     0.200 A 
ATOM     16  C   UNL     1     179.272 181.118 177.873  1.00  0.00     0.162 A 
BRANCH  13  17
ATOM     17  O   UNL     1     181.760 178.838 176.282  1.00  0.00    -0.504 OA
ATOM     18  H   UNL     1     182.717 179.130 176.414  1.00  0.00     0.293 HD
ENDBRANCH  13  17
BRANCH  15  19
ATOM     19  O   UNL     1     181.236 180.138 178.843  1.00  0.00    -0.502 OA
ATOM     20  H   UNL     1     181.185 180.706 179.677  1.00  0.00     0.293 HD
ENDBRANCH  15  19
BRANCH  16  21
ATOM     21  O   UNL     1     179.031 181.755 179.089  1.00  0.00    -0.504 OA
ATOM     22  H   UNL     1     178.128 182.159 179.307  1.00  0.00     0.293 HD
ENDBRANCH  16  21
ENDBRANCH   1  11
BRANCH  10  23
ATOM     23  O   UNL     1     176.654 178.693 174.720  1.00  0.00    -0.500 OA
ATOM     24  H   UNL     1     177.089 177.846 174.377  1.00  0.00     0.294 HD
ENDBRANCH  10  23
BRANCH   5  25
ATOM     25  O   UNL     1     176.721 184.991 170.175  1.00  0.00    -0.507 OA
ATOM     26  H   UNL     1     177.628 185.443 170.154  1.00  0.00     0.293 HD
ENDBRANCH   5  25
BRANCH   7  27
ATOM     27  O   UNL     1     174.272 180.885 170.607  1.00  0.00    -0.507 OA
ATOM     28  H   UNL     1     174.106 179.938 170.913  1.00  0.00     0.293 HD
ENDBRANCH   7  27
TORSDOF 7
ENDMDL
