MODEL 1
REMARK VINA RESULT:    -4.614      0.000      0.000
REMARK INTER + INTRA:          -5.962
REMARK INTER:                  -5.694
REMARK INTRA:                  -0.269
REMARK UNBOUND:                -0.269
REMARK SMILES CCCCC=CC(C)=O
REMARK SMILES IDX 4 1 3 2 2 3 1 4 5 5 6 6 7 7 9 8 8 9
REMARK H PARENT
REMARK Flexibility Score: inf
ROOT
ATOM      1  C   UNL     1       1.834  14.312  -7.003  1.00  0.00     0.027 C 
ENDROOT
BRANCH   1   2
ATOM      2  C   UNL     1       2.286  14.578  -8.444  1.00  0.00     0.004 C 
BRANCH   2   3
ATOM      3  C   UNL     1       2.741  13.281  -9.125  1.00  0.00    -0.003 C 
ATOM      4  C   UNL     1       3.036  12.194  -8.095  1.00  0.00     0.004 C 
ENDBRANCH   2   3
ENDBRANCH   1   2
BRANCH   1   5
ATOM      5  C   UNL     1       2.318  15.387  -6.075  1.00  0.00    -0.023 C 
ATOM      6  C   UNL     1       3.553  15.893  -6.177  1.00  0.00     0.042 C 
BRANCH   6   7
ATOM      7  C   UNL     1       4.069  16.960  -5.295  1.00  0.00     0.152 C 
ATOM      8  O   UNL     1       4.758  16.634  -4.292  1.00  0.00    -0.295 OA
ATOM      9  C   UNL     1       3.803  18.413  -5.549  1.00  0.00     0.093 C 
ENDBRANCH   6   7
ENDBRANCH   1   5
TORSDOF 4
ENDMDL
MODEL 2
REMARK VINA RESULT:    -4.335      0.958      1.283
REMARK INTER + INTRA:          -5.617
REMARK INTER:                  -5.408
REMARK INTRA:                  -0.209
REMARK UNBOUND:                -0.269
REMARK SMILES CCCCC=CC(C)=O
REMARK SMILES IDX 4 1 3 2 2 3 1 4 5 5 6 6 7 7 9 8 8 9
REMARK H PARENT
REMARK Flexibility Score: inf
ROOT
ATOM      1  C   UNL     1       2.324  14.400  -8.211  1.00  0.00     0.027 C 
ENDROOT
BRANCH   1   2
ATOM      2  C   UNL     1       3.533  13.547  -8.618  1.00  0.00     0.004 C 
BRANCH   2   3
ATOM      3  C   UNL     1       3.688  12.337  -7.689  1.00  0.00    -0.003 C 
ATOM      4  C   UNL     1       5.116  11.798  -7.720  1.00  0.00     0.004 C 
ENDBRANCH   2   3
ENDBRANCH   1   2
BRANCH   1   5
ATOM      5  C   UNL     1       2.600  15.164  -6.949  1.00  0.00    -0.023 C 
ATOM      6  C   UNL     1       3.656  15.980  -6.843  1.00  0.00     0.042 C 
BRANCH   6   7
ATOM      7  C   UNL     1       3.959  16.760  -5.626  1.00  0.00     0.152 C 
ATOM      8  O   UNL     1       4.477  16.168  -4.642  1.00  0.00    -0.295 OA
ATOM      9  C   UNL     1       3.675  18.228  -5.520  1.00  0.00     0.093 C 
ENDBRANCH   6   7
ENDBRANCH   1   5
TORSDOF 4
ENDMDL
MODEL 3
REMARK VINA RESULT:    -4.226      1.876      2.774
REMARK INTER + INTRA:          -5.482
REMARK INTER:                  -5.187
REMARK INTRA:                  -0.296
REMARK UNBOUND:                -0.269
REMARK SMILES CCCCC=CC(C)=O
REMARK SMILES IDX 4 1 3 2 2 3 1 4 5 5 6 6 7 7 9 8 8 9
REMARK H PARENT
REMARK Flexibility Score: inf
ROOT
ATOM      1  C   UNL     1       5.840  13.405  -8.570  1.00  0.00     0.027 C 
ENDROOT
BRANCH   1   2
ATOM      2  C   UNL     1       5.448  12.029  -8.018  1.00  0.00     0.004 C 
BRANCH   2   3
ATOM      3  C   UNL     1       4.209  11.482  -8.739  1.00  0.00    -0.003 C 
ATOM      4  C   UNL     1       3.030  11.344  -7.779  1.00  0.00     0.004 C 
ENDBRANCH   2   3
ENDBRANCH   1   2
BRANCH   1   5
ATOM      5  C   UNL     1       5.149  14.507  -7.820  1.00  0.00    -0.023 C 
ATOM      6  C   UNL     1       4.869  14.395  -6.516  1.00  0.00     0.042 C 
BRANCH   6   7
ATOM      7  C   UNL     1       4.203  15.457  -5.735  1.00  0.00     0.152 C 
ATOM      8  O   UNL     1       4.866  16.061  -4.850  1.00  0.00    -0.295 OA
ATOM      9  C   UNL     1       2.771  15.841  -5.955  1.00  0.00     0.093 C 
ENDBRANCH   6   7
ENDBRANCH   1   5
TORSDOF 4
ENDMDL
MODEL 4
REMARK VINA RESULT:    -4.213      2.360      4.794
REMARK INTER + INTRA:          -5.466
REMARK INTER:                  -5.303
REMARK INTRA:                  -0.163
REMARK UNBOUND:                -0.269
REMARK SMILES CCCCC=CC(C)=O
REMARK SMILES IDX 4 1 3 2 2 3 1 4 5 5 6 6 7 7 9 8 8 9
REMARK H PARENT
REMARK Flexibility Score: inf
ROOT
ATOM      1  C   UNL     1       3.596  15.905  -7.133  1.00  0.00     0.027 C 
ENDROOT
BRANCH   1   2
ATOM      2  C   UNL     1       3.009  16.646  -5.925  1.00  0.00     0.004 C 
BRANCH   2   3
ATOM      3  C   UNL     1       4.057  17.563  -5.282  1.00  0.00    -0.003 C 
ATOM      4  C   UNL     1       3.719  19.033  -5.515  1.00  0.00     0.004 C 
ENDBRANCH   2   3
ENDBRANCH   1   2
BRANCH   1   5
ATOM      5  C   UNL     1       4.067  14.532  -6.750  1.00  0.00    -0.023 C 
ATOM      6  C   UNL     1       5.371  14.235  -6.681  1.00  0.00     0.042 C 
BRANCH   6   7
ATOM      7  C   UNL     1       5.880  12.903  -6.297  1.00  0.00     0.152 C 
ATOM      8  O   UNL     1       6.457  12.775  -5.184  1.00  0.00    -0.295 OA
ATOM      9  C   UNL     1       5.737  11.701  -7.181  1.00  0.00     0.093 C 
ENDBRANCH   6   7
ENDBRANCH   1   5
TORSDOF 4
ENDMDL
MODEL 5
REMARK VINA RESULT:    -4.171      2.463      3.704
REMARK INTER + INTRA:          -5.415
REMARK INTER:                  -5.158
REMARK INTRA:                  -0.257
REMARK UNBOUND:                -0.269
REMARK SMILES CCCCC=CC(C)=O
REMARK SMILES IDX 4 1 3 2 2 3 1 4 5 5 6 6 7 7 9 8 8 9
REMARK H PARENT
REMARK Flexibility Score: inf
ROOT
ATOM      1  C   UNL     1       2.963  15.170  -5.466  1.00  0.00     0.027 C 
ENDROOT
BRANCH   1   2
ATOM      2  C   UNL     1       2.266  15.516  -6.787  1.00  0.00     0.004 C 
BRANCH   2   3
ATOM      3  C   UNL     1       1.787  14.248  -7.503  1.00  0.00    -0.003 C 
ATOM      4  C   UNL     1       2.168  14.273  -8.981  1.00  0.00     0.004 C 
ENDBRANCH   2   3
ENDBRANCH   1   2
BRANCH   1   5
ATOM      5  C   UNL     1       3.780  13.917  -5.596  1.00  0.00    -0.023 C 
ATOM      6  C   UNL     1       5.037  13.948  -6.057  1.00  0.00     0.042 C 
BRANCH   6   7
ATOM      7  C   UNL     1       5.882  12.744  -6.191  1.00  0.00     0.152 C 
ATOM      8  O   UNL     1       6.715  12.487  -5.281  1.00  0.00    -0.295 OA
ATOM      9  C   UNL     1       5.786  11.820  -7.367  1.00  0.00     0.093 C 
ENDBRANCH   6   7
ENDBRANCH   1   5
TORSDOF 4
ENDMDL
MODEL 6
REMARK VINA RESULT:    -4.107      2.712      4.912
REMARK INTER + INTRA:          -5.336
REMARK INTER:                  -5.136
REMARK INTRA:                  -0.200
REMARK UNBOUND:                -0.269
REMARK SMILES CCCCC=CC(C)=O
REMARK SMILES IDX 4 1 3 2 2 3 1 4 5 5 6 6 7 7 9 8 8 9
REMARK H PARENT
REMARK Flexibility Score: inf
ROOT
ATOM      1  C   UNL     1       1.906  14.651  -6.993  1.00  0.00     0.027 C 
ENDROOT
BRANCH   1   2
ATOM      2  C   UNL     1       2.344  15.474  -5.775  1.00  0.00     0.004 C 
BRANCH   2   3
ATOM      3  C   UNL     1       3.714  16.121  -6.014  1.00  0.00    -0.003 C 
ATOM      4  C   UNL     1       3.688  17.607  -5.666  1.00  0.00     0.004 C 
ENDBRANCH   2   3
ENDBRANCH   1   2
BRANCH   1   5
ATOM      5  C   UNL     1       3.058  13.881  -7.570  1.00  0.00    -0.023 C 
ATOM      6  C   UNL     1       3.211  12.572  -7.335  1.00  0.00     0.042 C 
BRANCH   6   7
ATOM      7  C   UNL     1       4.320  11.771  -7.890  1.00  0.00     0.152 C 
ATOM      8  O   UNL     1       4.099  11.053  -8.902  1.00  0.00    -0.295 OA
ATOM      9  C   UNL     1       5.696  11.780  -7.296  1.00  0.00     0.093 C 
ENDBRANCH   6   7
ENDBRANCH   1   5
TORSDOF 4
ENDMDL
MODEL 7
REMARK VINA RESULT:    -3.905      2.330      5.058
REMARK INTER + INTRA:          -5.087
REMARK INTER:                  -4.885
REMARK INTRA:                  -0.202
REMARK UNBOUND:                -0.269
REMARK SMILES CCCCC=CC(C)=O
REMARK SMILES IDX 4 1 3 2 2 3 1 4 5 5 6 6 7 7 9 8 8 9
REMARK H PARENT
REMARK Flexibility Score: inf
ROOT
ATOM      1  C   UNL     1       2.063  14.781  -6.841  1.00  0.00     0.027 C 
ENDROOT
BRANCH   1   2
ATOM      2  C   UNL     1       2.795  14.994  -5.510  1.00  0.00     0.004 C 
BRANCH   2   3
ATOM      3  C   UNL     1       4.019  15.898  -5.697  1.00  0.00    -0.003 C 
ATOM      4  C   UNL     1       3.617  17.370  -5.728  1.00  0.00     0.004 C 
ENDBRANCH   2   3
ENDBRANCH   1   2
BRANCH   1   5
ATOM      5  C   UNL     1       2.803  13.814  -7.719  1.00  0.00    -0.023 C 
ATOM      6  C   UNL     1       3.095  12.576  -7.303  1.00  0.00     0.042 C 
BRANCH   6   7
ATOM      7  C   UNL     1       3.810  11.587  -8.136  1.00  0.00     0.152 C 
ATOM      8  O   UNL     1       5.059  11.481  -8.008  1.00  0.00    -0.295 OA
ATOM      9  C   UNL     1       3.106  10.708  -9.125  1.00  0.00     0.093 C 
ENDBRANCH   6   7
ENDBRANCH   1   5
TORSDOF 4
ENDMDL
MODEL 8
REMARK VINA RESULT:    -3.732      2.546      4.920
REMARK INTER + INTRA:          -4.873
REMARK INTER:                  -4.607
REMARK INTRA:                  -0.266
REMARK UNBOUND:                -0.269
REMARK SMILES CCCCC=CC(C)=O
REMARK SMILES IDX 4 1 3 2 2 3 1 4 5 5 6 6 7 7 9 8 8 9
REMARK H PARENT
REMARK Flexibility Score: inf
ROOT
ATOM      1  C   UNL     1       3.383  15.544  -8.301  1.00  0.00     0.027 C 
ENDROOT
BRANCH   1   2
ATOM      2  C   UNL     1       4.148  15.923  -7.027  1.00  0.00     0.004 C 
BRANCH   2   3
ATOM      3  C   UNL     1       3.221  16.605  -6.013  1.00  0.00    -0.003 C 
ATOM      4  C   UNL     1       2.132  15.650  -5.533  1.00  0.00     0.004 C 
ENDBRANCH   2   3
ENDBRANCH   1   2
BRANCH   1   5
ATOM      5  C   UNL     1       3.616  14.107  -8.667  1.00  0.00    -0.023 C 
ATOM      6  C   UNL     1       3.756  13.162  -7.729  1.00  0.00     0.042 C 
BRANCH   6   7
ATOM      7  C   UNL     1       3.973  11.735  -8.041  1.00  0.00     0.152 C 
ATOM      8  O   UNL     1       5.156  11.311  -8.138  1.00  0.00    -0.295 OA
ATOM      9  C   UNL     1       2.841  10.774  -8.247  1.00  0.00     0.093 C 
ENDBRANCH   6   7
ENDBRANCH   1   5
TORSDOF 4
ENDMDL
