MODEL 1
REMARK VINA RESULT:    -4.228      0.000      0.000
REMARK INTER + INTRA:          -4.825
REMARK INTER:                  -4.599
REMARK INTRA:                  -0.226
REMARK UNBOUND:                -0.226
REMARK SMILES CC(C)(C)[C@H]1C=C[C@@H](O)CC1
REMARK SMILES IDX 5 1 11 2 10 3 8 4 7 5 6 6 2 7 1 8 3 9 4 10 9 11
REMARK H PARENT 9 12
REMARK Flexibility Score: inf
ROOT
ATOM      1  C   UNL     1       9.406 -10.292  34.091  1.00  0.00     0.017 C 
ATOM      2  C   UNL     1      10.516  -9.224  34.335  1.00  0.00     0.011 C 
ATOM      3  C   UNL     1      10.416  -8.016  33.396  1.00  0.00     0.037 C 
ATOM      4  C   UNL     1      10.466  -8.471  31.934  1.00  0.00     0.137 C 
ATOM      5  C   UNL     1       9.473  -9.571  31.660  1.00  0.00     0.000 C 
ATOM      6  C   UNL     1       9.048 -10.417  32.612  1.00  0.00    -0.025 C 
ENDROOT
BRANCH   1   7
ATOM      7  C   UNL     1       8.134 -10.160  35.023  1.00  0.00    -0.032 C 
ATOM      8  C   UNL     1       8.376  -9.097  36.125  1.00  0.00     0.011 C 
ATOM      9  C   UNL     1       6.872  -9.769  34.226  1.00  0.00     0.011 C 
ATOM     10  C   UNL     1       7.851 -11.501  35.749  1.00  0.00     0.011 C 
ENDBRANCH   1   7
BRANCH   4  11
ATOM     11  O   UNL     1      10.251  -7.384  31.070  1.00  0.00    -0.389 OA
ATOM     12  H   UNL     1       9.367  -7.515  30.636  1.00  0.00     0.211 HD
ENDBRANCH   4  11
TORSDOF 2
ENDMDL
MODEL 2
REMARK VINA RESULT:    -4.216     11.297     13.446
REMARK INTER + INTRA:          -4.812
REMARK INTER:                  -4.682
REMARK INTRA:                  -0.131
REMARK UNBOUND:                -0.226
REMARK SMILES CC(C)(C)[C@H]1C=C[C@@H](O)CC1
REMARK SMILES IDX 5 1 11 2 10 3 8 4 7 5 6 6 2 7 1 8 3 9 4 10 9 11
REMARK H PARENT 9 12
REMARK Flexibility Score: inf
ROOT
ATOM      1  C   UNL     1      12.696   0.437  26.107  1.00  0.00     0.017 C 
ATOM      2  C   UNL     1      13.843  -0.602  26.305  1.00  0.00     0.011 C 
ATOM      3  C   UNL     1      13.708  -1.837  25.406  1.00  0.00     0.037 C 
ATOM      4  C   UNL     1      12.359  -2.524  25.642  1.00  0.00     0.137 C 
ATOM      5  C   UNL     1      11.215  -1.547  25.554  1.00  0.00     0.000 C 
ATOM      6  C   UNL     1      11.358  -0.238  25.819  1.00  0.00    -0.025 C 
ENDROOT
BRANCH   1   7
ATOM      7  C   UNL     1      13.023   1.611  25.099  1.00  0.00    -0.032 C 
ATOM      8  C   UNL     1      14.102   2.553  25.693  1.00  0.00     0.011 C 
ATOM      9  C   UNL     1      13.522   1.082  23.738  1.00  0.00     0.011 C 
ATOM     10  C   UNL     1      11.762   2.478  24.848  1.00  0.00     0.011 C 
ENDBRANCH   1   7
BRANCH   4  11
ATOM     11  O   UNL     1      12.177  -3.582  24.736  1.00  0.00    -0.389 OA
ATOM     12  H   UNL     1      11.199  -3.698  24.601  1.00  0.00     0.211 HD
ENDBRANCH   4  11
TORSDOF 2
ENDMDL
MODEL 3
REMARK VINA RESULT:    -4.111      7.162      9.431
REMARK INTER + INTRA:          -4.698
REMARK INTER:                  -4.541
REMARK INTRA:                  -0.157
REMARK UNBOUND:                -0.226
REMARK SMILES CC(C)(C)[C@H]1C=C[C@@H](O)CC1
REMARK SMILES IDX 5 1 11 2 10 3 8 4 7 5 6 6 2 7 1 8 3 9 4 10 9 11
REMARK H PARENT 9 12
REMARK Flexibility Score: inf
ROOT
ATOM      1  C   UNL     1      12.672 -10.689  25.017  1.00  0.00     0.017 C 
ATOM      2  C   UNL     1      12.760 -10.679  26.574  1.00  0.00     0.011 C 
ATOM      3  C   UNL     1      11.439 -10.311  27.258  1.00  0.00     0.037 C 
ATOM      4  C   UNL     1      10.949  -8.943  26.771  1.00  0.00     0.137 C 
ATOM      5  C   UNL     1      10.930  -8.861  25.266  1.00  0.00     0.000 C 
ATOM      6  C   UNL     1      11.740  -9.600  24.491  1.00  0.00    -0.025 C 
ENDROOT
BRANCH   1   7
ATOM      7  C   UNL     1      12.388 -12.105  24.371  1.00  0.00    -0.032 C 
ATOM      8  C   UNL     1      13.625 -12.596  23.574  1.00  0.00     0.011 C 
ATOM      9  C   UNL     1      12.032 -13.164  25.435  1.00  0.00     0.011 C 
ATOM     10  C   UNL     1      11.213 -12.017  23.363  1.00  0.00     0.011 C 
ENDBRANCH   1   7
BRANCH   4  11
ATOM     11  O   UNL     1       9.680  -8.655  27.299  1.00  0.00    -0.389 OA
ATOM     12  H   UNL     1       9.675  -7.698  27.566  1.00  0.00     0.211 HD
ENDBRANCH   4  11
TORSDOF 2
ENDMDL
MODEL 4
REMARK VINA RESULT:    -4.094      8.617     10.225
REMARK INTER + INTRA:          -4.680
REMARK INTER:                  -4.397
REMARK INTRA:                  -0.282
REMARK UNBOUND:                -0.226
REMARK SMILES CC(C)(C)[C@H]1C=C[C@@H](O)CC1
REMARK SMILES IDX 5 1 11 2 10 3 8 4 7 5 6 6 2 7 1 8 3 9 4 10 9 11
REMARK H PARENT 9 12
REMARK Flexibility Score: inf
ROOT
ATOM      1  C   UNL     1      12.088 -13.026  25.375  1.00  0.00     0.017 C 
ATOM      2  C   UNL     1      11.369 -12.626  24.049  1.00  0.00     0.011 C 
ATOM      3  C   UNL     1      11.749 -11.228  23.547  1.00  0.00     0.037 C 
ATOM      4  C   UNL     1      11.451 -10.177  24.621  1.00  0.00     0.137 C 
ATOM      5  C   UNL     1      12.045 -10.557  25.953  1.00  0.00     0.000 C 
ATOM      6  C   UNL     1      12.274 -11.832  26.307  1.00  0.00    -0.025 C 
ENDROOT
BRANCH   1   7
ATOM      7  C   UNL     1      13.411 -13.874  25.190  1.00  0.00    -0.032 C 
ATOM      8  C   UNL     1      13.406 -14.595  23.817  1.00  0.00     0.011 C 
ATOM      9  C   UNL     1      14.677 -12.997  25.284  1.00  0.00     0.011 C 
ATOM     10  C   UNL     1      13.505 -14.978  26.274  1.00  0.00     0.011 C 
ENDBRANCH   1   7
BRANCH   4  11
ATOM     11  O   UNL     1      11.910  -8.912  24.216  1.00  0.00    -0.389 OA
ATOM     12  H   UNL     1      11.496  -8.236  24.815  1.00  0.00     0.211 HD
ENDBRANCH   4  11
TORSDOF 2
ENDMDL
MODEL 5
REMARK VINA RESULT:    -4.059     11.326     12.913
REMARK INTER + INTRA:          -4.641
REMARK INTER:                  -4.414
REMARK INTRA:                  -0.228
REMARK UNBOUND:                -0.226
REMARK SMILES CC(C)(C)[C@H]1C=C[C@@H](O)CC1
REMARK SMILES IDX 5 1 11 2 10 3 8 4 7 5 6 6 2 7 1 8 3 9 4 10 9 11
REMARK H PARENT 9 12
REMARK Flexibility Score: inf
ROOT
ATOM      1  C   UNL     1       4.843  -5.176  22.211  1.00  0.00     0.017 C 
ATOM      2  C   UNL     1       3.816  -4.022  22.431  1.00  0.00     0.011 C 
ATOM      3  C   UNL     1       3.547  -3.719  23.910  1.00  0.00     0.037 C 
ATOM      4  C   UNL     1       3.054  -4.978  24.631  1.00  0.00     0.137 C 
ATOM      5  C   UNL     1       3.961  -6.155  24.378  1.00  0.00     0.000 C 
ATOM      6  C   UNL     1       4.713  -6.266  23.271  1.00  0.00    -0.025 C 
ENDROOT
BRANCH   1   7
ATOM      7  C   UNL     1       6.338  -4.708  21.990  1.00  0.00    -0.032 C 
ATOM      8  C   UNL     1       6.931  -5.369  20.718  1.00  0.00     0.011 C 
ATOM      9  C   UNL     1       6.450  -3.176  21.850  1.00  0.00     0.011 C 
ATOM     10  C   UNL     1       7.227  -5.152  23.180  1.00  0.00     0.011 C 
ENDBRANCH   1   7
BRANCH   4  11
ATOM     11  O   UNL     1       2.923  -4.740  26.009  1.00  0.00    -0.389 OA
ATOM     12  H   UNL     1       3.693  -5.174  26.463  1.00  0.00     0.211 HD
ENDBRANCH   4  11
TORSDOF 2
ENDMDL
MODEL 6
REMARK VINA RESULT:    -4.005     11.543     12.802
REMARK INTER + INTRA:          -4.583
REMARK INTER:                  -4.457
REMARK INTRA:                  -0.126
REMARK UNBOUND:                -0.226
REMARK SMILES CC(C)(C)[C@H]1C=C[C@@H](O)CC1
REMARK SMILES IDX 5 1 11 2 10 3 8 4 7 5 6 6 2 7 1 8 3 9 4 10 9 11
REMARK H PARENT 9 12
REMARK Flexibility Score: inf
ROOT
ATOM      1  C   UNL     1       5.799  -4.463  22.864  1.00  0.00     0.017 C 
ATOM      2  C   UNL     1       6.314  -4.083  21.442  1.00  0.00     0.011 C 
ATOM      3  C   UNL     1       6.832  -5.283  20.640  1.00  0.00     0.037 C 
ATOM      4  C   UNL     1       7.951  -5.994  21.408  1.00  0.00     0.137 C 
ATOM      5  C   UNL     1       7.542  -6.306  22.825  1.00  0.00     0.000 C 
ATOM      6  C   UNL     1       6.624  -5.585  23.489  1.00  0.00    -0.025 C 
ENDROOT
BRANCH   1   7
ATOM      7  C   UNL     1       4.240  -4.716  22.968  1.00  0.00    -0.032 C 
ATOM      8  C   UNL     1       3.956  -6.082  23.642  1.00  0.00     0.011 C 
ATOM      9  C   UNL     1       3.528  -3.608  23.771  1.00  0.00     0.011 C 
ATOM     10  C   UNL     1       3.605  -4.774  21.555  1.00  0.00     0.011 C 
ENDBRANCH   1   7
BRANCH   4  11
ATOM     11  O   UNL     1       8.345  -7.163  20.737  1.00  0.00    -0.389 OA
ATOM     12  H   UNL     1       7.692  -7.876  20.966  1.00  0.00     0.211 HD
ENDBRANCH   4  11
TORSDOF 2
ENDMDL
MODEL 7
REMARK VINA RESULT:    -4.000     11.840     13.950
REMARK INTER + INTRA:          -4.578
REMARK INTER:                  -4.294
REMARK INTRA:                  -0.284
REMARK UNBOUND:                -0.226
REMARK SMILES CC(C)(C)[C@H]1C=C[C@@H](O)CC1
REMARK SMILES IDX 5 1 11 2 10 3 8 4 7 5 6 6 2 7 1 8 3 9 4 10 9 11
REMARK H PARENT 9 12
REMARK Flexibility Score: inf
ROOT
ATOM      1  C   UNL     1      13.517   1.178  26.148  1.00  0.00     0.017 C 
ATOM      2  C   UNL     1      13.076  -0.032  27.029  1.00  0.00     0.011 C 
ATOM      3  C   UNL     1      12.223  -1.057  26.273  1.00  0.00     0.037 C 
ATOM      4  C   UNL     1      10.979  -0.384  25.683  1.00  0.00     0.137 C 
ATOM      5  C   UNL     1      11.336   0.849  24.894  1.00  0.00     0.000 C 
ATOM      6  C   UNL     1      12.439   1.575  25.143  1.00  0.00    -0.025 C 
ENDROOT
BRANCH   1   7
ATOM      7  C   UNL     1      14.950   1.042  25.491  1.00  0.00    -0.032 C 
ATOM      8  C   UNL     1      15.904   0.258  26.428  1.00  0.00     0.011 C 
ATOM      9  C   UNL     1      14.894   0.324  24.127  1.00  0.00     0.011 C 
ATOM     10  C   UNL     1      15.583   2.441  25.276  1.00  0.00     0.011 C 
ENDBRANCH   1   7
BRANCH   4  11
ATOM     11  O   UNL     1      10.258  -1.289  24.887  1.00  0.00    -0.389 OA
ATOM     12  H   UNL     1      10.385  -2.196  25.272  1.00  0.00     0.211 HD
ENDBRANCH   4  11
TORSDOF 2
ENDMDL
MODEL 8
REMARK VINA RESULT:    -3.950      1.591      2.265
REMARK INTER + INTRA:          -4.523
REMARK INTER:                  -4.366
REMARK INTRA:                  -0.157
REMARK UNBOUND:                -0.226
REMARK SMILES CC(C)(C)[C@H]1C=C[C@@H](O)CC1
REMARK SMILES IDX 5 1 11 2 10 3 8 4 7 5 6 6 2 7 1 8 3 9 4 10 9 11
REMARK H PARENT 9 12
REMARK Flexibility Score: inf
ROOT
ATOM      1  C   UNL     1       8.668 -10.352  32.052  1.00  0.00     0.017 C 
ATOM      2  C   UNL     1       9.515  -9.908  33.284  1.00  0.00     0.011 C 
ATOM      3  C   UNL     1       9.821  -8.406  33.305  1.00  0.00     0.037 C 
ATOM      4  C   UNL     1      10.543  -7.990  32.019  1.00  0.00     0.137 C 
ATOM      5  C   UNL     1       9.816  -8.474  30.791  1.00  0.00     0.000 C 
ATOM      6  C   UNL     1       9.026  -9.560  30.797  1.00  0.00    -0.025 C 
ENDROOT
BRANCH   1   7
ATOM      7  C   UNL     1       7.108 -10.430  32.305  1.00  0.00    -0.032 C 
ATOM      8  C   UNL     1       6.761  -9.905  33.721  1.00  0.00     0.011 C 
ATOM      9  C   UNL     1       6.312  -9.613  31.265  1.00  0.00     0.011 C 
ATOM     10  C   UNL     1       6.621 -11.900  32.241  1.00  0.00     0.011 C 
ENDBRANCH   1   7
BRANCH   4  11
ATOM     11  O   UNL     1      10.716  -6.597  31.976  1.00  0.00    -0.389 OA
ATOM     12  H   UNL     1      11.216  -6.331  32.792  1.00  0.00     0.211 HD
ENDBRANCH   4  11
TORSDOF 2
ENDMDL
MODEL 9
REMARK VINA RESULT:    -3.893      8.448     10.419
REMARK INTER + INTRA:          -4.461
REMARK INTER:                  -4.203
REMARK INTRA:                  -0.258
REMARK UNBOUND:                -0.226
REMARK SMILES CC(C)(C)[C@H]1C=C[C@@H](O)CC1
REMARK SMILES IDX 5 1 11 2 10 3 8 4 7 5 6 6 2 7 1 8 3 9 4 10 9 11
REMARK H PARENT 9 12
REMARK Flexibility Score: inf
ROOT
ATOM      1  C   UNL     1      12.058 -12.457  25.097  1.00  0.00     0.017 C 
ATOM      2  C   UNL     1      12.214 -13.634  26.109  1.00  0.00     0.011 C 
ATOM      3  C   UNL     1      13.545 -14.383  25.974  1.00  0.00     0.037 C 
ATOM      4  C   UNL     1      13.714 -14.917  24.547  1.00  0.00     0.137 C 
ATOM      5  C   UNL     1      13.483 -13.840  23.519  1.00  0.00     0.000 C 
ATOM      6  C   UNL     1      12.699 -12.775  23.749  1.00  0.00    -0.025 C 
ENDROOT
BRANCH   1   7
ATOM      7  C   UNL     1      12.473 -11.036  25.655  1.00  0.00    -0.032 C 
ATOM      8  C   UNL     1      11.928 -10.837  27.093  1.00  0.00     0.011 C 
ATOM      9  C   UNL     1      14.004 -10.847  25.675  1.00  0.00     0.011 C 
ATOM     10  C   UNL     1      11.857  -9.910  24.785  1.00  0.00     0.011 C 
ENDBRANCH   1   7
BRANCH   4  11
ATOM     11  O   UNL     1      14.983 -15.496  24.383  1.00  0.00    -0.389 OA
ATOM     12  H   UNL     1      14.858 -16.480  24.315  1.00  0.00     0.211 HD
ENDBRANCH   4  11
TORSDOF 2
ENDMDL
