MODEL 1
REMARK VINA RESULT:    -3.760      0.000      0.000
REMARK INTER + INTRA:          -5.833
REMARK INTER:                  -5.518
REMARK INTRA:                  -0.315
REMARK UNBOUND:                -0.315
REMARK SMILES O=C([O-])CCCCCCCC(=O)[O-]
REMARK SMILES IDX 7 1 6 2 5 3 4 4 2 5 1 6 3 7 8 8 9 9 10 10 11 11 12 12 13 13
REMARK H PARENT
REMARK Flexibility Score: inf
ROOT
ATOM      1  C   UNL     1     176.292 161.458 179.233  1.00  0.00     0.000 C 
ENDROOT
BRANCH   1   2
ATOM      2  C   UNL     1     175.673 160.778 180.459  1.00  0.00     0.000 C 
BRANCH   2   3
ATOM      3  C   UNL     1     176.388 161.210 181.749  1.00  0.00     0.006 C 
BRANCH   3   4
ATOM      4  C   UNL     1     177.897 160.932 181.697  1.00  0.00     0.053 C 
BRANCH   4   5
ATOM      5  C   UNL     1     178.567 161.255 182.998  1.00  0.00     0.041 C 
ATOM      6  O   UNL     1     177.925 161.830 183.915  1.00  0.00    -0.550 OA
ATOM      7  O   UNL     1     179.909 160.952 183.183  1.00  0.00    -0.550 OA
ENDBRANCH   4   5
ENDBRANCH   3   4
ENDBRANCH   2   3
ENDBRANCH   1   2
BRANCH   1   8
ATOM      8  C   UNL     1     176.696 160.420 178.174  1.00  0.00     0.000 C 
BRANCH   8   9
ATOM      9  C   UNL     1     177.868 160.891 177.299  1.00  0.00     0.006 C 
BRANCH   9  10
ATOM     10  C   UNL     1     177.532 162.149 176.489  1.00  0.00     0.053 C 
BRANCH  10  11
ATOM     11  C   UNL     1     178.672 162.512 175.590  1.00  0.00     0.041 C 
ATOM     12  O   UNL     1     179.792 162.813 176.080  1.00  0.00    -0.550 OA
ATOM     13  O   UNL     1     178.484 162.566 174.216  1.00  0.00    -0.550 OA
ENDBRANCH  10  11
ENDBRANCH   9  10
ENDBRANCH   8   9
ENDBRANCH   1   8
TORSDOF 8
ENDMDL
MODEL 2
REMARK VINA RESULT:    -3.720      1.002      6.598
REMARK INTER + INTRA:          -5.775
REMARK INTER:                  -5.505
REMARK INTRA:                  -0.270
REMARK UNBOUND:                -0.315
REMARK SMILES O=C([O-])CCCCCCCC(=O)[O-]
REMARK SMILES IDX 7 1 6 2 5 3 4 4 2 5 1 6 3 7 8 8 9 9 10 10 11 11 12 12 13 13
REMARK H PARENT
REMARK Flexibility Score: inf
ROOT
ATOM      1  C   UNL     1     177.009 161.084 178.351  1.00  0.00     0.000 C 
ENDROOT
BRANCH   1   2
ATOM      2  C   UNL     1     177.894 159.975 177.771  1.00  0.00     0.000 C 
BRANCH   2   3
ATOM      3  C   UNL     1     177.899 160.022 176.235  1.00  0.00     0.006 C 
BRANCH   3   4
ATOM      4  C   UNL     1     179.252 160.476 175.672  1.00  0.00     0.053 C 
BRANCH   4   5
ATOM      5  C   UNL     1     179.238 161.925 175.290  1.00  0.00     0.041 C 
ATOM      6  O   UNL     1     179.782 162.782 176.034  1.00  0.00    -0.550 OA
ATOM      7  O   UNL     1     178.595 162.332 174.128  1.00  0.00    -0.550 OA
ENDBRANCH   4   5
ENDBRANCH   3   4
ENDBRANCH   2   3
ENDBRANCH   1   2
BRANCH   1   8
ATOM      8  C   UNL     1     176.460 160.684 179.730  1.00  0.00     0.000 C 
BRANCH   8   9
ATOM      9  C   UNL     1     177.501 160.838 180.850  1.00  0.00     0.006 C 
BRANCH   9  10
ATOM     10  C   UNL     1     176.955 161.604 182.062  1.00  0.00     0.053 C 
BRANCH  10  11
ATOM     11  C   UNL     1     177.888 161.473 183.225  1.00  0.00     0.041 C 
ATOM     12  O   UNL     1     179.013 160.927 183.075  1.00  0.00    -0.550 OA
ATOM     13  O   UNL     1     177.496 161.910 184.483  1.00  0.00    -0.550 OA
ENDBRANCH  10  11
ENDBRANCH   9  10
ENDBRANCH   8   9
ENDBRANCH   1   8
TORSDOF 8
ENDMDL
MODEL 3
REMARK VINA RESULT:    -3.677      6.658      9.433
REMARK INTER + INTRA:          -5.712
REMARK INTER:                  -5.088
REMARK INTRA:                  -0.624
REMARK UNBOUND:                -0.315
REMARK SMILES O=C([O-])CCCCCCCC(=O)[O-]
REMARK SMILES IDX 7 1 6 2 5 3 4 4 2 5 1 6 3 7 8 8 9 9 10 10 11 11 12 12 13 13
REMARK H PARENT
REMARK Flexibility Score: inf
ROOT
ATOM      1  C   UNL     1     176.810 161.880 188.885  1.00  0.00     0.000 C 
ENDROOT
BRANCH   1   2
ATOM      2  C   UNL     1     175.572 161.134 188.375  1.00  0.00     0.000 C 
BRANCH   2   3
ATOM      3  C   UNL     1     175.679 160.856 186.868  1.00  0.00     0.006 C 
BRANCH   3   4
ATOM      4  C   UNL     1     175.837 162.144 186.049  1.00  0.00     0.053 C 
BRANCH   4   5
ATOM      5  C   UNL     1     177.130 162.167 185.291  1.00  0.00     0.041 C 
ATOM      6  O   UNL     1     178.135 162.754 185.769  1.00  0.00    -0.550 OA
ATOM      7  O   UNL     1     177.213 161.568 184.040  1.00  0.00    -0.550 OA
ENDBRANCH   4   5
ENDBRANCH   3   4
ENDBRANCH   2   3
ENDBRANCH   1   2
BRANCH   1   8
ATOM      8  C   UNL     1     176.413 163.189 189.586  1.00  0.00     0.000 C 
BRANCH   8   9
ATOM      9  C   UNL     1     177.367 164.349 189.258  1.00  0.00     0.006 C 
BRANCH   9  10
ATOM     10  C   UNL     1     176.886 165.191 188.070  1.00  0.00     0.053 C 
BRANCH  10  11
ATOM     11  C   UNL     1     177.978 166.099 187.597  1.00  0.00     0.041 C 
ATOM     12  O   UNL     1     177.772 167.337 187.497  1.00  0.00    -0.550 OA
ATOM     13  O   UNL     1     179.206 165.571 187.222  1.00  0.00    -0.550 OA
ENDBRANCH  10  11
ENDBRANCH   9  10
ENDBRANCH   8   9
ENDBRANCH   1   8
TORSDOF 8
ENDMDL
MODEL 4
REMARK VINA RESULT:    -3.635     15.297     16.477
REMARK INTER + INTRA:          -5.650
REMARK INTER:                  -5.016
REMARK INTRA:                  -0.634
REMARK UNBOUND:                -0.315
REMARK SMILES O=C([O-])CCCCCCCC(=O)[O-]
REMARK SMILES IDX 7 1 6 2 5 3 4 4 2 5 1 6 3 7 8 8 9 9 10 10 11 11 12 12 13 13
REMARK H PARENT
REMARK Flexibility Score: inf
ROOT
ATOM      1  C   UNL     1     164.023 160.168 188.681  1.00  0.00     0.000 C 
ENDROOT
BRANCH   1   2
ATOM      2  C   UNL     1     165.349 160.831 188.293  1.00  0.00     0.000 C 
BRANCH   2   3
ATOM      3  C   UNL     1     166.453 160.490 189.305  1.00  0.00     0.006 C 
BRANCH   3   4
ATOM      4  C   UNL     1     166.535 161.515 190.444  1.00  0.00     0.053 C 
BRANCH   4   5
ATOM      5  C   UNL     1     166.532 162.922 189.927  1.00  0.00     0.041 C 
ATOM      6  O   UNL     1     167.553 163.391 189.361  1.00  0.00    -0.550 OA
ATOM      7  O   UNL     1     165.412 163.725 190.101  1.00  0.00    -0.550 OA
ENDBRANCH   4   5
ENDBRANCH   3   4
ENDBRANCH   2   3
ENDBRANCH   1   2
BRANCH   1   8
ATOM      8  C   UNL     1     162.846 161.138 188.491  1.00  0.00     0.000 C 
BRANCH   8   9
ATOM      9  C   UNL     1     163.175 162.286 187.524  1.00  0.00     0.006 C 
BRANCH   9  10
ATOM     10  C   UNL     1     162.119 162.455 186.425  1.00  0.00     0.053 C 
BRANCH  10  11
ATOM     11  C   UNL     1     161.948 161.177 185.666  1.00  0.00     0.041 C 
ATOM     12  O   UNL     1     160.806 160.657 185.551  1.00  0.00    -0.550 OA
ATOM     13  O   UNL     1     163.055 160.534 185.127  1.00  0.00    -0.550 OA
ENDBRANCH  10  11
ENDBRANCH   9  10
ENDBRANCH   8   9
ENDBRANCH   1   8
TORSDOF 8
ENDMDL
MODEL 5
REMARK VINA RESULT:    -3.632     16.787     18.576
REMARK INTER + INTRA:          -5.646
REMARK INTER:                  -4.940
REMARK INTRA:                  -0.706
REMARK UNBOUND:                -0.315
REMARK SMILES O=C([O-])CCCCCCCC(=O)[O-]
REMARK SMILES IDX 7 1 6 2 5 3 4 4 2 5 1 6 3 7 8 8 9 9 10 10 11 11 12 12 13 13
REMARK H PARENT
REMARK Flexibility Score: inf
ROOT
ATOM      1  C   UNL     1     162.213 162.745 188.579  1.00  0.00     0.000 C 
ENDROOT
BRANCH   1   2
ATOM      2  C   UNL     1     160.739 162.753 188.998  1.00  0.00     0.000 C 
BRANCH   2   3
ATOM      3  C   UNL     1     159.879 163.509 187.974  1.00  0.00     0.006 C 
BRANCH   3   4
ATOM      4  C   UNL     1     160.481 164.871 187.603  1.00  0.00     0.053 C 
BRANCH   4   5
ATOM      5  C   UNL     1     160.339 165.163 186.140  1.00  0.00     0.041 C 
ATOM      6  O   UNL     1     159.910 164.276 185.356  1.00  0.00    -0.550 OA
ATOM      7  O   UNL     1     160.711 166.403 185.638  1.00  0.00    -0.550 OA
ENDBRANCH   4   5
ENDBRANCH   3   4
ENDBRANCH   2   3
ENDBRANCH   1   2
BRANCH   1   8
ATOM      8  C   UNL     1     162.776 161.315 188.574  1.00  0.00     0.000 C 
BRANCH   8   9
ATOM      9  C   UNL     1     163.366 160.915 187.213  1.00  0.00     0.006 C 
BRANCH   9  10
ATOM     10  C   UNL     1     162.769 161.719 186.051  1.00  0.00     0.053 C 
BRANCH  10  11
ATOM     11  C   UNL     1     161.846 160.862 185.243  1.00  0.00     0.041 C 
ATOM     12  O   UNL     1     162.308 160.095 184.358  1.00  0.00    -0.550 OA
ATOM     13  O   UNL     1     160.473 160.947 185.434  1.00  0.00    -0.550 OA
ENDBRANCH  10  11
ENDBRANCH   9  10
ENDBRANCH   8   9
ENDBRANCH   1   8
TORSDOF 8
ENDMDL
MODEL 6
REMARK VINA RESULT:    -3.611     13.617     16.253
REMARK INTER + INTRA:          -5.614
REMARK INTER:                  -5.033
REMARK INTRA:                  -0.581
REMARK UNBOUND:                -0.315
REMARK SMILES O=C([O-])CCCCCCCC(=O)[O-]
REMARK SMILES IDX 7 1 6 2 5 3 4 4 2 5 1 6 3 7 8 8 9 9 10 10 11 11 12 12 13 13
REMARK H PARENT
REMARK Flexibility Score: inf
ROOT
ATOM      1  C   UNL     1     165.372 160.523 188.561  1.00  0.00     0.000 C 
ENDROOT
BRANCH   1   2
ATOM      2  C   UNL     1     163.961 160.000 188.852  1.00  0.00     0.000 C 
BRANCH   2   3
ATOM      3  C   UNL     1     162.902 161.068 188.536  1.00  0.00     0.006 C 
BRANCH   3   4
ATOM      4  C   UNL     1     163.110 161.702 187.154  1.00  0.00     0.053 C 
BRANCH   4   5
ATOM      5  C   UNL     1     162.243 161.062 186.112  1.00  0.00     0.041 C 
ATOM      6  O   UNL     1     162.764 160.488 185.120  1.00  0.00    -0.550 OA
ATOM      7  O   UNL     1     160.861 161.130 186.221  1.00  0.00    -0.550 OA
ENDBRANCH   4   5
ENDBRANCH   3   4
ENDBRANCH   2   3
ENDBRANCH   1   2
BRANCH   1   8
ATOM      8  C   UNL     1     166.221 160.555 189.841  1.00  0.00     0.000 C 
BRANCH   8   9
ATOM      9  C   UNL     1     166.630 161.980 190.246  1.00  0.00     0.006 C 
BRANCH   9  10
ATOM     10  C   UNL     1     166.718 162.932 189.047  1.00  0.00     0.053 C 
BRANCH  10  11
ATOM     11  C   UNL     1     168.128 163.028 188.558  1.00  0.00     0.041 C 
ATOM     12  O   UNL     1     168.828 164.036 188.838  1.00  0.00    -0.550 OA
ATOM     13  O   UNL     1     168.654 162.027 187.751  1.00  0.00    -0.550 OA
ENDBRANCH  10  11
ENDBRANCH   9  10
ENDBRANCH   8   9
ENDBRANCH   1   8
TORSDOF 8
ENDMDL
MODEL 7
REMARK VINA RESULT:    -3.598     11.044     13.773
REMARK INTER + INTRA:          -5.596
REMARK INTER:                  -5.364
REMARK INTRA:                  -0.233
REMARK UNBOUND:                -0.315
REMARK SMILES O=C([O-])CCCCCCCC(=O)[O-]
REMARK SMILES IDX 7 1 6 2 5 3 4 4 2 5 1 6 3 7 8 8 9 9 10 10 11 11 12 12 13 13
REMARK H PARENT
REMARK Flexibility Score: inf
ROOT
ATOM      1  C   UNL     1     179.375 171.025 188.013  1.00  0.00     0.000 C 
ENDROOT
BRANCH   1   2
ATOM      2  C   UNL     1     180.111 172.286 188.481  1.00  0.00     0.000 C 
BRANCH   2   3
ATOM      3  C   UNL     1     179.172 173.503 188.483  1.00  0.00     0.006 C 
BRANCH   3   4
ATOM      4  C   UNL     1     178.240 173.520 187.264  1.00  0.00     0.053 C 
BRANCH   4   5
ATOM      5  C   UNL     1     178.094 174.898 186.695  1.00  0.00     0.041 C 
ATOM      6  O   UNL     1     178.932 175.330 185.861  1.00  0.00    -0.550 OA
ATOM      7  O   UNL     1     177.052 175.716 187.110  1.00  0.00    -0.550 OA
ENDBRANCH   4   5
ENDBRANCH   3   4
ENDBRANCH   2   3
ENDBRANCH   1   2
BRANCH   1   8
ATOM      8  C   UNL     1     179.729 169.821 188.899  1.00  0.00     0.000 C 
BRANCH   8   9
ATOM      9  C   UNL     1     179.949 168.534 188.089  1.00  0.00     0.006 C 
BRANCH   9  10
ATOM     10  C   UNL     1     178.659 168.012 187.445  1.00  0.00     0.053 C 
BRANCH  10  11
ATOM     11  C   UNL     1     178.537 166.534 187.643  1.00  0.00     0.041 C 
ATOM     12  O   UNL     1     179.559 165.801 187.580  1.00  0.00    -0.550 OA
ATOM     13  O   UNL     1     177.289 165.961 187.847  1.00  0.00    -0.550 OA
ENDBRANCH  10  11
ENDBRANCH   9  10
ENDBRANCH   8   9
ENDBRANCH   1   8
TORSDOF 8
ENDMDL
MODEL 8
REMARK VINA RESULT:    -3.587     14.730     16.326
REMARK INTER + INTRA:          -5.579
REMARK INTER:                  -5.088
REMARK INTRA:                  -0.491
REMARK UNBOUND:                -0.315
REMARK SMILES O=C([O-])CCCCCCCC(=O)[O-]
REMARK SMILES IDX 7 1 6 2 5 3 4 4 2 5 1 6 3 7 8 8 9 9 10 10 11 11 12 12 13 13
REMARK H PARENT
REMARK Flexibility Score: inf
ROOT
ATOM      1  C   UNL     1     166.165 160.910 188.167  1.00  0.00     0.000 C 
ENDROOT
BRANCH   1   2
ATOM      2  C   UNL     1     166.536 160.504 189.598  1.00  0.00     0.000 C 
BRANCH   2   3
ATOM      3  C   UNL     1     166.659 161.736 190.506  1.00  0.00     0.006 C 
BRANCH   3   4
ATOM      4  C   UNL     1     166.268 163.033 189.783  1.00  0.00     0.053 C 
BRANCH   4   5
ATOM      5  C   UNL     1     167.291 164.110 189.979  1.00  0.00     0.041 C 
ATOM      6  O   UNL     1     167.088 165.032 190.812  1.00  0.00    -0.550 OA
ATOM      7  O   UNL     1     168.453 164.113 189.219  1.00  0.00    -0.550 OA
ENDBRANCH   4   5
ENDBRANCH   3   4
ENDBRANCH   2   3
ENDBRANCH   1   2
BRANCH   1   8
ATOM      8  C   UNL     1     164.902 160.174 187.696  1.00  0.00     0.000 C 
BRANCH   8   9
ATOM      9  C   UNL     1     163.657 160.549 188.516  1.00  0.00     0.006 C 
BRANCH   9  10
ATOM     10  C   UNL     1     162.907 161.753 187.934  1.00  0.00     0.053 C 
BRANCH  10  11
ATOM     11  C   UNL     1     161.900 161.303 186.922  1.00  0.00     0.041 C 
ATOM     12  O   UNL     1     160.669 161.432 187.153  1.00  0.00    -0.550 OA
ATOM     13  O   UNL     1     162.321 160.696 185.746  1.00  0.00    -0.550 OA
ENDBRANCH  10  11
ENDBRANCH   9  10
ENDBRANCH   8   9
ENDBRANCH   1   8
TORSDOF 8
ENDMDL
MODEL 9
REMARK VINA RESULT:    -3.575     14.740     17.007
REMARK INTER + INTRA:          -5.561
REMARK INTER:                  -4.960
REMARK INTRA:                  -0.601
REMARK UNBOUND:                -0.315
REMARK SMILES O=C([O-])CCCCCCCC(=O)[O-]
REMARK SMILES IDX 7 1 6 2 5 3 4 4 2 5 1 6 3 7 8 8 9 9 10 10 11 11 12 12 13 13
REMARK H PARENT
REMARK Flexibility Score: inf
ROOT
ATOM      1  C   UNL     1     163.226 162.297 188.243  1.00  0.00     0.000 C 
ENDROOT
BRANCH   1   2
ATOM      2  C   UNL     1     163.431 160.815 188.574  1.00  0.00     0.000 C 
BRANCH   2   3
ATOM      3  C   UNL     1     164.585 160.221 187.751  1.00  0.00     0.006 C 
BRANCH   3   4
ATOM      4  C   UNL     1     165.860 161.072 187.840  1.00  0.00     0.053 C 
BRANCH   4   5
ATOM      5  C   UNL     1     166.828 160.521 188.841  1.00  0.00     0.041 C 
ATOM      6  O   UNL     1     167.887 159.960 188.456  1.00  0.00    -0.550 OA
ATOM      7  O   UNL     1     166.545 160.597 190.199  1.00  0.00    -0.550 OA
ENDBRANCH   4   5
ENDBRANCH   3   4
ENDBRANCH   2   3
ENDBRANCH   1   2
BRANCH   1   8
ATOM      8  C   UNL     1     161.731 162.649 188.198  1.00  0.00     0.000 C 
BRANCH   8   9
ATOM      9  C   UNL     1     160.837 161.413 188.013  1.00  0.00     0.006 C 
BRANCH   9  10
ATOM     10  C   UNL     1     159.979 161.489 186.744  1.00  0.00     0.053 C 
BRANCH  10  11
ATOM     11  C   UNL     1     160.841 161.388 185.525  1.00  0.00     0.041 C 
ATOM     12  O   UNL     1     161.695 160.467 185.428  1.00  0.00    -0.550 OA
ATOM     13  O   UNL     1     160.735 162.338 184.518  1.00  0.00    -0.550 OA
ENDBRANCH  10  11
ENDBRANCH   9  10
ENDBRANCH   8   9
ENDBRANCH   1   8
TORSDOF 8
ENDMDL
