MODEL 1
REMARK VINA RESULT:    -2.945      0.000      0.000
REMARK INTER + INTRA:          -4.581
REMARK INTER:                  -4.495
REMARK INTRA:                  -0.087
REMARK UNBOUND:                -0.087
REMARK SMILES CC1=CCC[C@H](C)C(=O)C[C@@H](C(C)C)C(=O)C1
REMARK SMILES IDX 8 1 9 2 6 3 7 4 5 5 4 6 3 7 2 8 1 9 10 11 11 12 15 13 16 14
REMARK SMILES IDX 17 15 12 17 13 18 14 19
REMARK H PARENT
REMARK Flexibility Score: 70.00
ROOT
ATOM      1  C   UNL     1     100.429   4.148  78.005  1.00  0.00     0.136 C 
ATOM      2  O   UNL     1      99.977   3.837  79.098  1.00  0.00    -0.299 OA
ENDROOT
BRANCH   1   3
ATOM      3  C   UNL     1     100.369   3.166  76.852  1.00  0.00     0.053 C 
ATOM      4  C   UNL     1     101.127   1.892  77.237  1.00  0.00     0.016 C 
BRANCH   3   5
ATOM      5  C   UNL     1      98.920   2.820  76.431  1.00  0.00     0.015 C 
BRANCH   5   6
ATOM      6  C   UNL     1      97.978   4.036  76.385  1.00  0.00     0.028 C 
BRANCH   6   7
ATOM      7  C   UNL     1      97.931   4.645  75.004  1.00  0.00    -0.028 C 
ATOM      8  C   UNL     1      98.112   5.954  74.717  1.00  0.00    -0.070 CG0
ATOM      9  C   UNL     1      98.003   6.386  73.276  1.00  0.00     0.039 C 
ATOM     10  G   UNL     1      98.426   6.995  75.774  1.00  0.00     0.000 G0
ENDBRANCH   6   7
ENDBRANCH   5   6
ENDBRANCH   3   5
ENDBRANCH   1   3
BRANCH   1  11
ATOM     11  C   UNL     1     101.120   5.481  77.846  1.00  0.00     0.087 C 
BRANCH  11  12
ATOM     12  C   UNL     1     100.121   6.661  77.758  1.00  0.00     0.066 C 
BRANCH  12  13
ATOM     13  C   UNL     1      99.832   6.972  76.298  1.00  0.00     0.140 C 
ATOM     14  O   UNL     1     100.759   7.242  75.546  1.00  0.00    -0.299 OA
BRANCH  13  15
ATOM     15  C   UNL     1      98.420   7.029  75.768  1.00  0.00     0.106 CG0
ATOM     16  G   UNL     1      98.153   5.962  74.725  1.00  0.00     0.000 G0
ENDBRANCH  13  15
ENDBRANCH  12  13
BRANCH  12  17
ATOM     17  C   UNL     1     100.648   7.935  78.492  1.00  0.00    -0.006 C 
ATOM     18  C   UNL     1      99.510   8.939  78.758  1.00  0.00     0.008 C 
ATOM     19  C   UNL     1     101.331   7.597  79.830  1.00  0.00     0.008 C 
ENDBRANCH  12  17
ENDBRANCH  11  12
ENDBRANCH   1  11
TORSDOF 1
ENDMDL
MODEL 2
REMARK VINA RESULT:    -2.839      2.348      5.158
REMARK INTER + INTRA:          -4.419
REMARK INTER:                  -4.483
REMARK INTRA:                   0.064
REMARK UNBOUND:                -0.087
REMARK SMILES CC1=CCC[C@H](C)C(=O)C[C@@H](C(C)C)C(=O)C1
REMARK SMILES IDX 8 1 9 2 6 3 7 4 5 5 4 6 3 7 2 8 1 9 10 11 11 12 15 13 16 14
REMARK SMILES IDX 17 15 12 17 13 18 14 19
REMARK H PARENT
REMARK Flexibility Score: 70.00
ROOT
ATOM      1  C   UNL     1      98.719   8.304  77.622  1.00  0.00     0.136 C 
ATOM      2  O   UNL     1      97.761   8.716  78.261  1.00  0.00    -0.299 OA
ENDROOT
BRANCH   1   3
ATOM      3  C   UNL     1     100.111   8.823  77.922  1.00  0.00     0.053 C 
ATOM      4  C   UNL     1     100.100  10.354  77.863  1.00  0.00     0.016 C 
BRANCH   3   5
ATOM      5  C   UNL     1     100.649   8.345  79.292  1.00  0.00     0.015 C 
BRANCH   5   6
ATOM      6  C   UNL     1     101.574   7.118  79.203  1.00  0.00     0.028 C 
BRANCH   6   7
ATOM      7  C   UNL     1     102.660   7.320  78.172  1.00  0.00    -0.028 C 
ATOM      8  C   UNL     1     102.793   6.618  77.024  1.00  0.00    -0.070 CG0
ATOM      9  C   UNL     1     103.959   6.944  76.125  1.00  0.00     0.039 C 
ATOM     10  G   UNL     1     101.822   5.532  76.603  1.00  0.00     0.000 G0
ENDBRANCH   6   7
ENDBRANCH   5   6
ENDBRANCH   3   5
ENDBRANCH   1   3
BRANCH   1  11
ATOM     11  C   UNL     1      98.485   7.344  76.480  1.00  0.00     0.087 C 
BRANCH  11  12
ATOM     12  C   UNL     1      99.222   5.997  76.678  1.00  0.00     0.066 C 
BRANCH  12  13
ATOM     13  C   UNL     1     100.559   6.040  75.955  1.00  0.00     0.140 C 
ATOM     14  O   UNL     1     100.609   6.458  74.807  1.00  0.00    -0.299 OA
BRANCH  13  15
ATOM     15  C   UNL     1     101.819   5.509  76.595  1.00  0.00     0.106 CG0
ATOM     16  G   UNL     1     102.775   6.617  76.991  1.00  0.00     0.000 G0
ENDBRANCH  13  15
ENDBRANCH  12  13
BRANCH  12  17
ATOM     17  C   UNL     1      98.374   4.783  76.181  1.00  0.00    -0.006 C 
ATOM     18  C   UNL     1      97.280   4.410  77.199  1.00  0.00     0.008 C 
ATOM     19  C   UNL     1      97.708   5.055  74.819  1.00  0.00     0.008 C 
ENDBRANCH  12  17
ENDBRANCH  11  12
ENDBRANCH   1  11
TORSDOF 1
ENDMDL
MODEL 3
REMARK VINA RESULT:    -2.722      4.011      6.965
REMARK INTER + INTRA:          -4.241
REMARK INTER:                  -4.140
REMARK INTRA:                  -0.100
REMARK UNBOUND:                -0.087
REMARK SMILES CC1=CCC[C@H](C)C(=O)C[C@@H](C(C)C)C(=O)C1
REMARK SMILES IDX 8 1 9 2 6 3 7 4 5 5 4 6 3 7 2 8 1 9 10 11 11 12 15 13 16 14
REMARK SMILES IDX 17 15 12 17 13 18 14 19
REMARK H PARENT
REMARK Flexibility Score: 70.00
ROOT
ATOM      1  C   UNL     1      98.210   6.937  70.892  1.00  0.00     0.136 C 
ATOM      2  O   UNL     1      99.382   7.205  70.669  1.00  0.00    -0.299 OA
ENDROOT
BRANCH   1   3
ATOM      3  C   UNL     1      97.153   7.230  69.848  1.00  0.00     0.053 C 
ATOM      4  C   UNL     1      97.128   8.735  69.565  1.00  0.00     0.016 C 
BRANCH   3   5
ATOM      5  C   UNL     1      97.371   6.443  68.532  1.00  0.00     0.015 C 
BRANCH   5   6
ATOM      6  C   UNL     1      96.600   5.112  68.469  1.00  0.00     0.028 C 
BRANCH   6   7
ATOM      7  C   UNL     1      97.499   3.939  68.780  1.00  0.00    -0.028 C 
ATOM      8  C   UNL     1      97.601   3.325  69.981  1.00  0.00    -0.070 CG0
ATOM      9  C   UNL     1      98.575   2.181  70.112  1.00  0.00     0.039 C 
ATOM     10  G   UNL     1      96.778   3.730  71.188  1.00  0.00     0.000 G0
ENDBRANCH   6   7
ENDBRANCH   5   6
ENDBRANCH   3   5
ENDBRANCH   1   3
BRANCH   1  11
ATOM     11  C   UNL     1      97.825   6.394  72.247  1.00  0.00     0.087 C 
BRANCH  11  12
ATOM     12  C   UNL     1      98.576   5.086  72.598  1.00  0.00     0.066 C 
BRANCH  12  13
ATOM     13  C   UNL     1      97.633   3.903  72.439  1.00  0.00     0.140 C 
ATOM     14  O   UNL     1      97.602   3.038  73.304  1.00  0.00    -0.299 OA
BRANCH  13  15
ATOM     15  C   UNL     1      96.787   3.729  71.202  1.00  0.00     0.106 CG0
ATOM     16  G   UNL     1      97.609   3.325  69.994  1.00  0.00     0.000 G0
ENDBRANCH  13  15
ENDBRANCH  12  13
BRANCH  12  17
ATOM     17  C   UNL     1      99.171   5.117  74.041  1.00  0.00    -0.006 C 
ATOM     18  C   UNL     1     100.704   4.965  74.018  1.00  0.00     0.008 C 
ATOM     19  C   UNL     1      98.815   6.414  74.792  1.00  0.00     0.008 C 
ENDBRANCH  12  17
ENDBRANCH  11  12
ENDBRANCH   1  11
TORSDOF 1
ENDMDL
MODEL 4
REMARK VINA RESULT:    -2.711      2.180      5.031
REMARK INTER + INTRA:          -4.224
REMARK INTER:                  -4.153
REMARK INTRA:                  -0.071
REMARK UNBOUND:                -0.087
REMARK SMILES CC1=CCC[C@H](C)C(=O)C[C@@H](C(C)C)C(=O)C1
REMARK SMILES IDX 8 1 9 2 6 3 7 4 5 5 4 6 3 7 2 8 1 9 10 11 11 12 15 13 16 14
REMARK SMILES IDX 17 15 12 17 13 18 14 19
REMARK H PARENT
REMARK Flexibility Score: 70.00
ROOT
ATOM      1  C   UNL     1      97.561   7.180  76.114  1.00  0.00     0.136 C 
ATOM      2  O   UNL     1      96.447   6.677  76.136  1.00  0.00    -0.299 OA
ENDROOT
BRANCH   1   3
ATOM      3  C   UNL     1      97.795   8.532  76.756  1.00  0.00     0.053 C 
ATOM      4  C   UNL     1      96.593   9.439  76.472  1.00  0.00     0.016 C 
BRANCH   3   5
ATOM      5  C   UNL     1      98.047   8.440  78.281  1.00  0.00     0.015 C 
BRANCH   5   6
ATOM      6  C   UNL     1      99.524   8.229  78.655  1.00  0.00     0.028 C 
BRANCH   6   7
ATOM      7  C   UNL     1     100.445   8.936  77.689  1.00  0.00    -0.028 C 
ATOM      8  C   UNL     1     101.453   8.357  76.998  1.00  0.00    -0.070 CG0
ATOM      9  C   UNL     1     102.287   9.231  76.094  1.00  0.00     0.039 C 
ATOM     10  G   UNL     1     101.772   6.877  77.087  1.00  0.00     0.000 G0
ENDBRANCH   6   7
ENDBRANCH   5   6
ENDBRANCH   3   5
ENDBRANCH   1   3
BRANCH   1  11
ATOM     11  C   UNL     1      98.671   6.479  75.368  1.00  0.00     0.087 C 
BRANCH  11  12
ATOM     12  C   UNL     1      99.578   5.643  76.303  1.00  0.00     0.066 C 
BRANCH  12  13
ATOM     13  C   UNL     1     101.031   6.034  76.082  1.00  0.00     0.140 C 
ATOM     14  O   UNL     1     101.622   5.620  75.094  1.00  0.00    -0.299 OA
BRANCH  13  15
ATOM     15  C   UNL     1     101.787   6.862  77.091  1.00  0.00     0.106 CG0
ATOM     16  G   UNL     1     101.451   8.337  76.995  1.00  0.00     0.000 G0
ENDBRANCH  13  15
ENDBRANCH  12  13
BRANCH  12  17
ATOM     17  C   UNL     1      99.390   4.107  76.088  1.00  0.00    -0.006 C 
ATOM     18  C   UNL     1     100.178   3.294  77.133  1.00  0.00     0.008 C 
ATOM     19  C   UNL     1      97.909   3.687  76.149  1.00  0.00     0.008 C 
ENDBRANCH  12  17
ENDBRANCH  11  12
ENDBRANCH   1  11
TORSDOF 1
ENDMDL
MODEL 5
REMARK VINA RESULT:    -2.678      1.991      4.537
REMARK INTER + INTRA:          -4.173
REMARK INTER:                  -4.343
REMARK INTRA:                   0.170
REMARK UNBOUND:                -0.087
REMARK SMILES CC1=CCC[C@H](C)C(=O)C[C@@H](C(C)C)C(=O)C1
REMARK SMILES IDX 8 1 9 2 6 3 7 4 5 5 4 6 3 7 2 8 1 9 10 11 11 12 15 13 16 14
REMARK SMILES IDX 17 15 12 17 13 18 14 19
REMARK H PARENT
REMARK Flexibility Score: 70.00
ROOT
ATOM      1  C   UNL     1      98.358   4.399  74.644  1.00  0.00     0.136 C 
ATOM      2  O   UNL     1      97.975   3.707  73.711  1.00  0.00    -0.299 OA
ENDROOT
BRANCH   1   3
ATOM      3  C   UNL     1      97.358   5.194  75.458  1.00  0.00     0.053 C 
ATOM      4  C   UNL     1      97.091   4.466  76.780  1.00  0.00     0.016 C 
BRANCH   3   5
ATOM      5  C   UNL     1      97.822   6.646  75.732  1.00  0.00     0.015 C 
BRANCH   5   6
ATOM      6  C   UNL     1      97.948   6.987  77.227  1.00  0.00     0.028 C 
BRANCH   6   7
ATOM      7  C   UNL     1      99.116   7.909  77.486  1.00  0.00    -0.028 C 
ATOM      8  C   UNL     1     100.336   7.526  77.926  1.00  0.00    -0.070 CG0
ATOM      9  C   UNL     1     101.376   8.596  78.152  1.00  0.00     0.039 C 
ATOM     10  G   UNL     1     100.702   6.079  78.190  1.00  0.00     0.000 G0
ENDBRANCH   6   7
ENDBRANCH   5   6
ENDBRANCH   3   5
ENDBRANCH   1   3
BRANCH   1  11
ATOM     11  C   UNL     1      99.838   4.515  74.916  1.00  0.00     0.087 C 
BRANCH  11  12
ATOM     12  C   UNL     1     100.195   4.218  76.394  1.00  0.00     0.066 C 
BRANCH  12  13
ATOM     13  C   UNL     1     101.071   5.337  76.938  1.00  0.00     0.140 C 
ATOM     14  O   UNL     1     102.123   5.605  76.374  1.00  0.00    -0.299 OA
BRANCH  13  15
ATOM     15  C   UNL     1     100.710   6.076  78.202  1.00  0.00     0.106 CG0
ATOM     16  G   UNL     1     100.339   7.522  77.938  1.00  0.00     0.000 G0
ENDBRANCH  13  15
ENDBRANCH  12  13
BRANCH  12  17
ATOM     17  C   UNL     1     100.907   2.839  76.562  1.00  0.00    -0.006 C 
ATOM     18  C   UNL     1     100.180   1.954  77.592  1.00  0.00     0.008 C 
ATOM     19  C   UNL     1     101.008   2.068  75.232  1.00  0.00     0.008 C 
ENDBRANCH  12  17
ENDBRANCH  11  12
ENDBRANCH   1  11
TORSDOF 1
ENDMDL
MODEL 6
REMARK VINA RESULT:    -2.670      1.905      3.576
REMARK INTER + INTRA:          -4.162
REMARK INTER:                  -3.883
REMARK INTRA:                  -0.278
REMARK UNBOUND:                -0.087
REMARK SMILES CC1=CCC[C@H](C)C(=O)C[C@@H](C(C)C)C(=O)C1
REMARK SMILES IDX 8 1 9 2 6 3 7 4 5 5 4 6 3 7 2 8 1 9 10 11 11 12 15 13 16 14
REMARK SMILES IDX 17 15 12 17 13 18 14 19
REMARK H PARENT
REMARK Flexibility Score: 70.00
ROOT
ATOM      1  C   UNL     1      98.027   7.521  77.095  1.00  0.00     0.136 C 
ATOM      2  O   UNL     1      97.738   8.667  77.410  1.00  0.00    -0.299 OA
ENDROOT
BRANCH   1   3
ATOM      3  C   UNL     1      97.145   6.755  76.129  1.00  0.00     0.053 C 
ATOM      4  C   UNL     1      97.614   7.026  74.696  1.00  0.00     0.016 C 
BRANCH   3   5
ATOM      5  C   UNL     1      97.129   5.232  76.408  1.00  0.00     0.015 C 
BRANCH   5   6
ATOM      6  C   UNL     1      97.712   4.385  75.263  1.00  0.00     0.028 C 
BRANCH   6   7
ATOM      7  C   UNL     1      98.643   3.317  75.788  1.00  0.00    -0.028 C 
ATOM      8  C   UNL     1      99.987   3.429  75.893  1.00  0.00    -0.070 CG0
ATOM      9  C   UNL     1     100.758   2.244  76.418  1.00  0.00     0.039 C 
ATOM     10  G   UNL     1     100.742   4.689  75.517  1.00  0.00     0.000 G0
ENDBRANCH   6   7
ENDBRANCH   5   6
ENDBRANCH   3   5
ENDBRANCH   1   3
BRANCH   1  11
ATOM     11  C   UNL     1      99.217   6.857  77.744  1.00  0.00     0.087 C 
BRANCH  11  12
ATOM     12  C   UNL     1     100.492   6.938  76.869  1.00  0.00     0.066 C 
BRANCH  12  13
ATOM     13  C   UNL     1     101.089   5.547  76.714  1.00  0.00     0.140 C 
ATOM     14  O   UNL     1     101.897   5.144  77.539  1.00  0.00    -0.299 OA
BRANCH  13  15
ATOM     15  C   UNL     1     100.765   4.679  75.523  1.00  0.00     0.106 CG0
ATOM     16  G   UNL     1      99.983   3.439  75.910  1.00  0.00     0.000 G0
ENDBRANCH  13  15
ENDBRANCH  12  13
BRANCH  12  17
ATOM     17  C   UNL     1     101.551   7.921  77.460  1.00  0.00    -0.006 C 
ATOM     18  C   UNL     1     101.674   9.195  76.602  1.00  0.00     0.008 C 
ATOM     19  C   UNL     1     101.222   8.331  78.908  1.00  0.00     0.008 C 
ENDBRANCH  12  17
ENDBRANCH  11  12
ENDBRANCH   1  11
TORSDOF 1
ENDMDL
MODEL 7
REMARK VINA RESULT:    -2.643      2.470      4.239
REMARK INTER + INTRA:          -4.119
REMARK INTER:                  -4.173
REMARK INTRA:                   0.053
REMARK UNBOUND:                -0.087
REMARK SMILES CC1=CCC[C@H](C)C(=O)C[C@@H](C(C)C)C(=O)C1
REMARK SMILES IDX 8 1 9 2 6 3 7 4 5 5 4 6 3 7 2 8 1 9 10 11 11 12 15 13 16 14
REMARK SMILES IDX 17 15 12 17 13 18 14 19
REMARK H PARENT
REMARK Flexibility Score: 70.00
ROOT
ATOM      1  C   UNL     1     102.469   9.036  76.866  1.00  0.00     0.136 C 
ATOM      2  O   UNL     1     103.164   9.732  77.592  1.00  0.00    -0.299 OA
ENDROOT
BRANCH   1   3
ATOM      3  C   UNL     1     103.093   8.297  75.700  1.00  0.00     0.053 C 
ATOM      4  C   UNL     1     104.529   7.904  76.063  1.00  0.00     0.016 C 
BRANCH   3   5
ATOM      5  C   UNL     1     102.286   7.045  75.278  1.00  0.00     0.015 C 
BRANCH   5   6
ATOM      6  C   UNL     1     102.440   5.854  76.240  1.00  0.00     0.028 C 
BRANCH   6   7
ATOM      7  C   UNL     1     101.278   4.896  76.120  1.00  0.00    -0.028 C 
ATOM      8  C   UNL     1     100.276   4.760  77.018  1.00  0.00    -0.070 CG0
ATOM      9  C   UNL     1      99.210   3.730  76.742  1.00  0.00     0.039 C 
ATOM     10  G   UNL     1     100.175   5.602  78.276  1.00  0.00     0.000 G0
ENDBRANCH   6   7
ENDBRANCH   5   6
ENDBRANCH   3   5
ENDBRANCH   1   3
BRANCH   1  11
ATOM     11  C   UNL     1     100.977   8.993  77.096  1.00  0.00     0.087 C 
BRANCH  11  12
ATOM     12  C   UNL     1     100.597   8.211  78.378  1.00  0.00     0.066 C 
BRANCH  12  13
ATOM     13  C   UNL     1      99.722   7.024  78.007  1.00  0.00     0.140 C 
ATOM     14  O   UNL     1      98.610   7.221  77.536  1.00  0.00    -0.299 OA
BRANCH  13  15
ATOM     15  C   UNL     1     100.162   5.606  78.275  1.00  0.00     0.106 CG0
ATOM     16  G   UNL     1     100.276   4.788  77.004  1.00  0.00     0.000 G0
ENDBRANCH  13  15
ENDBRANCH  12  13
BRANCH  12  17
ATOM     17  C   UNL     1      99.872   9.116  79.425  1.00  0.00    -0.006 C 
ATOM     18  C   UNL     1     100.866   9.688  80.454  1.00  0.00     0.008 C 
ATOM     19  C   UNL     1      99.117  10.284  78.763  1.00  0.00     0.008 C 
ENDBRANCH  12  17
ENDBRANCH  11  12
ENDBRANCH   1  11
TORSDOF 1
ENDMDL
MODEL 8
REMARK VINA RESULT:    -2.588      2.495      4.665
REMARK INTER + INTRA:          -4.036
REMARK INTER:                  -4.196
REMARK INTRA:                   0.160
REMARK UNBOUND:                -0.087
REMARK SMILES CC1=CCC[C@H](C)C(=O)C[C@@H](C(C)C)C(=O)C1
REMARK SMILES IDX 8 1 9 2 6 3 7 4 5 5 4 6 3 7 2 8 1 9 10 11 11 12 15 13 16 14
REMARK SMILES IDX 17 15 12 17 13 18 14 19
REMARK H PARENT
REMARK Flexibility Score: 70.00
ROOT
ATOM      1  C   UNL     1      97.708   4.505  75.478  1.00  0.00     0.136 C 
ATOM      2  O   UNL     1      97.101   5.549  75.286  1.00  0.00    -0.299 OA
ENDROOT
BRANCH   1   3
ATOM      3  C   UNL     1      97.805   3.470  74.375  1.00  0.00     0.053 C 
ATOM      4  C   UNL     1      98.809   3.951  73.322  1.00  0.00     0.016 C 
BRANCH   3   5
ATOM      5  C   UNL     1      98.207   2.070  74.897  1.00  0.00     0.015 C 
BRANCH   5   6
ATOM      6  C   UNL     1      99.592   1.600  74.416  1.00  0.00     0.028 C 
BRANCH   6   7
ATOM      7  C   UNL     1     100.218   0.637  75.395  1.00  0.00    -0.028 C 
ATOM      8  C   UNL     1     101.078   0.971  76.384  1.00  0.00    -0.070 CG0
ATOM      9  C   UNL     1     101.624  -0.135  77.253  1.00  0.00     0.039 C 
ATOM     10  G   UNL     1     101.505   2.399  76.659  1.00  0.00     0.000 G0
ENDBRANCH   6   7
ENDBRANCH   5   6
ENDBRANCH   3   5
ENDBRANCH   1   3
BRANCH   1  11
ATOM     11  C   UNL     1      98.279   4.226  76.848  1.00  0.00     0.087 C 
BRANCH  11  12
ATOM     12  C   UNL     1      99.814   4.424  76.901  1.00  0.00     0.066 C 
BRANCH  12  13
ATOM     13  C   UNL     1     100.468   3.162  77.443  1.00  0.00     0.140 C 
ATOM     14  O   UNL     1     100.208   2.790  78.578  1.00  0.00    -0.299 OA
BRANCH  13  15
ATOM     15  C   UNL     1     101.491   2.398  76.639  1.00  0.00     0.106 CG0
ATOM     16  G   UNL     1     101.071   0.962  76.389  1.00  0.00     0.000 G0
ENDBRANCH  13  15
ENDBRANCH  12  13
BRANCH  12  17
ATOM     17  C   UNL     1     100.219   5.661  77.765  1.00  0.00    -0.006 C 
ATOM     18  C   UNL     1     101.598   6.207  77.350  1.00  0.00     0.008 C 
ATOM     19  C   UNL     1      99.187   6.801  77.672  1.00  0.00     0.008 C 
ENDBRANCH  12  17
ENDBRANCH  11  12
ENDBRANCH   1  11
TORSDOF 1
ENDMDL
MODEL 9
REMARK VINA RESULT:    -2.509      2.053      2.482
REMARK INTER + INTRA:          -3.916
REMARK INTER:                  -3.577
REMARK INTRA:                  -0.339
REMARK UNBOUND:                -0.087
REMARK SMILES CC1=CCC[C@H](C)C(=O)C[C@@H](C(C)C)C(=O)C1
REMARK SMILES IDX 8 1 9 2 6 3 7 4 5 5 4 6 3 7 2 8 1 9 10 11 11 12 15 13 16 14
REMARK SMILES IDX 17 15 12 17 13 18 14 19
REMARK H PARENT
REMARK Flexibility Score: 70.00
ROOT
ATOM      1  C   UNL     1     100.867   2.815  77.062  1.00  0.00     0.136 C 
ATOM      2  O   UNL     1     100.348   2.612  78.151  1.00  0.00    -0.299 OA
ENDROOT
BRANCH   1   3
ATOM      3  C   UNL     1     101.152   1.654  76.131  1.00  0.00     0.053 C 
ATOM      4  C   UNL     1     102.041   0.636  76.852  1.00  0.00     0.016 C 
BRANCH   3   5
ATOM      5  C   UNL     1      99.865   0.966  75.614  1.00  0.00     0.015 C 
BRANCH   5   6
ATOM      6  C   UNL     1      99.022   1.849  74.675  1.00  0.00     0.028 C 
BRANCH   6   7
ATOM      7  C   UNL     1      99.853   2.392  73.537  1.00  0.00    -0.028 C 
ATOM      8  C   UNL     1      99.946   3.694  73.184  1.00  0.00    -0.070 CG0
ATOM      9  C   UNL     1     100.809   4.048  71.999  1.00  0.00     0.039 C 
ATOM     10  G   UNL     1      99.234   4.804  73.932  1.00  0.00     0.000 G0
ENDBRANCH   6   7
ENDBRANCH   5   6
ENDBRANCH   3   5
ENDBRANCH   1   3
BRANCH   1  11
ATOM     11  C   UNL     1     101.295   4.216  76.699  1.00  0.00     0.087 C 
BRANCH  11  12
ATOM     12  C   UNL     1     100.092   5.144  76.399  1.00  0.00     0.066 C 
BRANCH  12  13
ATOM     13  C   UNL     1     100.101   5.525  74.926  1.00  0.00     0.140 C 
ATOM     14  O   UNL     1     100.791   6.463  74.552  1.00  0.00    -0.299 OA
BRANCH  13  15
ATOM     15  C   UNL     1      99.221   4.819  73.924  1.00  0.00     0.106 CG0
ATOM     16  G   UNL     1      99.950   3.703  73.203  1.00  0.00     0.000 G0
ENDBRANCH  13  15
ENDBRANCH  12  13
BRANCH  12  17
ATOM     17  C   UNL     1     100.099   6.425  77.292  1.00  0.00    -0.006 C 
ATOM     18  C   UNL     1      98.698   7.061  77.371  1.00  0.00     0.008 C 
ATOM     19  C   UNL     1     100.592   6.137  78.722  1.00  0.00     0.008 C 
ENDBRANCH  12  17
ENDBRANCH  11  12
ENDBRANCH   1  11
TORSDOF 1
ENDMDL
