MODEL 1
REMARK VINA RESULT:    -3.963      0.000      0.000
REMARK INTER + INTRA:          -8.150
REMARK INTER:                  -7.206
REMARK INTRA:                  -0.944
REMARK UNBOUND:                -0.944
REMARK SMILES CCCCCCCCCCCCCC[C@H](C)C(=O)[O-]
REMARK SMILES IDX 9 1 10 2 11 3 12 4 13 5 14 6 15 7 16 8 17 9 18 10 19 11 8 12
REMARK SMILES IDX 7 13 6 14 5 15 4 16 3 17 2 18 1 19
REMARK H PARENT
REMARK Flexibility Score: inf
ROOT
ATOM      1  C   UNL     1      -0.901   9.037   7.981  1.00  0.00     0.000 C 
ENDROOT
BRANCH   1   2
ATOM      2  C   UNL     1       0.148   9.770   8.837  1.00  0.00     0.000 C 
BRANCH   2   3
ATOM      3  C   UNL     1       1.455   8.976   8.990  1.00  0.00     0.000 C 
BRANCH   3   4
ATOM      4  C   UNL     1       2.501   9.699   9.859  1.00  0.00     0.000 C 
BRANCH   4   5
ATOM      5  C   UNL     1       3.945   9.178   9.729  1.00  0.00     0.001 C 
BRANCH   5   6
ATOM      6  C   UNL     1       4.169   8.335   8.461  1.00  0.00     0.009 C 
BRANCH   6   7
ATOM      7  C   UNL     1       5.661   8.224   8.076  1.00  0.00     0.032 C 
ATOM      8  C   UNL     1       6.545   9.192   8.876  1.00  0.00     0.014 C 
BRANCH   7   9
ATOM      9  C   UNL     1       5.833   8.487   6.604  1.00  0.00     0.044 C 
ATOM     10  O   UNL     1       5.079   7.930   5.762  1.00  0.00    -0.550 OA
ATOM     11  O   UNL     1       6.829   9.349   6.165  1.00  0.00    -0.550 OA
ENDBRANCH   7   9
ENDBRANCH   6   7
ENDBRANCH   5   6
ENDBRANCH   4   5
ENDBRANCH   3   4
ENDBRANCH   2   3
ENDBRANCH   1   2
BRANCH   1  12
ATOM     12  C   UNL     1      -2.358   9.183   8.463  1.00  0.00     0.000 C 
BRANCH  12  13
ATOM     13  C   UNL     1      -3.430   9.074   7.359  1.00  0.00    -0.000 C 
BRANCH  13  14
ATOM     14  C   UNL     1      -2.988   9.569   5.971  1.00  0.00    -0.000 C 
BRANCH  14  15
ATOM     15  C   UNL     1      -3.134   8.493   4.880  1.00  0.00    -0.000 C 
BRANCH  15  16
ATOM     16  C   UNL     1      -2.013   7.442   4.934  1.00  0.00    -0.000 C 
BRANCH  16  17
ATOM     17  C   UNL     1      -2.537   6.009   4.746  1.00  0.00    -0.000 C 
BRANCH  17  18
ATOM     18  C   UNL     1      -3.352   5.517   5.953  1.00  0.00    -0.003 C 
ATOM     19  C   UNL     1      -3.386   3.993   6.066  1.00  0.00     0.004 C 
ENDBRANCH  17  18
ENDBRANCH  16  17
ENDBRANCH  15  16
ENDBRANCH  14  15
ENDBRANCH  13  14
ENDBRANCH  12  13
ENDBRANCH   1  12
TORSDOF 14
ENDMDL
MODEL 2
REMARK VINA RESULT:    -3.715      3.366      8.075
REMARK INTER + INTRA:          -7.699
REMARK INTER:                  -7.174
REMARK INTRA:                  -0.525
REMARK UNBOUND:                -0.944
REMARK SMILES CCCCCCCCCCCCCC[C@H](C)C(=O)[O-]
REMARK SMILES IDX 9 1 10 2 11 3 12 4 13 5 14 6 15 7 16 8 17 9 18 10 19 11 8 12
REMARK SMILES IDX 7 13 6 14 5 15 4 16 3 17 2 18 1 19
REMARK H PARENT
REMARK Flexibility Score: inf
ROOT
ATOM      1  C   UNL     1      -0.044   8.881   9.135  1.00  0.00     0.000 C 
ENDROOT
BRANCH   1   2
ATOM      2  C   UNL     1      -1.534   8.912   9.524  1.00  0.00     0.000 C 
BRANCH   2   3
ATOM      3  C   UNL     1      -2.278  10.125   8.944  1.00  0.00     0.000 C 
BRANCH   3   4
ATOM      4  C   UNL     1      -3.381   9.733   7.944  1.00  0.00     0.000 C 
BRANCH   4   5
ATOM      5  C   UNL     1      -2.897   9.396   6.521  1.00  0.00     0.001 C 
BRANCH   5   6
ATOM      6  C   UNL     1      -2.057   8.107   6.460  1.00  0.00     0.009 C 
BRANCH   6   7
ATOM      7  C   UNL     1      -2.288   7.307   5.159  1.00  0.00     0.032 C 
ATOM      8  C   UNL     1      -3.077   8.107   4.113  1.00  0.00     0.014 C 
BRANCH   7   9
ATOM      9  C   UNL     1      -3.015   6.026   5.466  1.00  0.00     0.044 C 
ATOM     10  O   UNL     1      -3.300   5.215   4.545  1.00  0.00    -0.550 OA
ATOM     11  O   UNL     1      -3.377   5.730   6.774  1.00  0.00    -0.550 OA
ENDBRANCH   7   9
ENDBRANCH   6   7
ENDBRANCH   5   6
ENDBRANCH   4   5
ENDBRANCH   3   4
ENDBRANCH   2   3
ENDBRANCH   1   2
BRANCH   1  12
ATOM     12  C   UNL     1       0.876   9.778   9.987  1.00  0.00     0.000 C 
BRANCH  12  13
ATOM     13  C   UNL     1       2.381   9.460   9.888  1.00  0.00    -0.000 C 
BRANCH  13  14
ATOM     14  C   UNL     1       2.825   8.819   8.561  1.00  0.00    -0.000 C 
BRANCH  14  15
ATOM     15  C   UNL     1       4.338   8.541   8.511  1.00  0.00    -0.000 C 
BRANCH  15  16
ATOM     16  C   UNL     1       5.165   9.657   9.170  1.00  0.00    -0.000 C 
BRANCH  16  17
ATOM     17  C   UNL     1       6.459   9.968   8.397  1.00  0.00    -0.000 C 
BRANCH  17  18
ATOM     18  C   UNL     1       6.546   9.209   7.065  1.00  0.00    -0.003 C 
ATOM     19  C   UNL     1       7.121  10.059   5.933  1.00  0.00     0.004 C 
ENDBRANCH  17  18
ENDBRANCH  16  17
ENDBRANCH  15  16
ENDBRANCH  14  15
ENDBRANCH  13  14
ENDBRANCH  12  13
ENDBRANCH   1  12
TORSDOF 14
ENDMDL
MODEL 3
REMARK VINA RESULT:    -3.499      3.163      8.123
REMARK INTER + INTRA:          -7.306
REMARK INTER:                  -6.458
REMARK INTRA:                  -0.848
REMARK UNBOUND:                -0.944
REMARK SMILES CCCCCCCCCCCCCC[C@H](C)C(=O)[O-]
REMARK SMILES IDX 9 1 10 2 11 3 12 4 13 5 14 6 15 7 16 8 17 9 18 10 19 11 8 12
REMARK SMILES IDX 7 13 6 14 5 15 4 16 3 17 2 18 1 19
REMARK H PARENT
REMARK Flexibility Score: inf
ROOT
ATOM      1  C   UNL     1       2.520   8.793   8.266  1.00  0.00     0.000 C 
ENDROOT
BRANCH   1   2
ATOM      2  C   UNL     1       1.110   9.317   7.937  1.00  0.00     0.000 C 
BRANCH   2   3
ATOM      3  C   UNL     1       0.105   9.087   9.077  1.00  0.00     0.000 C 
BRANCH   3   4
ATOM      4  C   UNL     1      -1.350   9.378   8.666  1.00  0.00     0.000 C 
BRANCH   4   5
ATOM      5  C   UNL     1      -1.642   9.291   7.157  1.00  0.00     0.001 C 
BRANCH   5   6
ATOM      6  C   UNL     1      -2.622   8.160   6.798  1.00  0.00     0.009 C 
BRANCH   6   7
ATOM      7  C   UNL     1      -2.310   7.513   5.429  1.00  0.00     0.032 C 
ATOM      8  C   UNL     1      -3.019   8.228   4.270  1.00  0.00     0.014 C 
BRANCH   7   9
ATOM      9  C   UNL     1      -2.708   6.062   5.443  1.00  0.00     0.044 C 
ATOM     10  O   UNL     1      -3.414   5.601   6.380  1.00  0.00    -0.550 OA
ATOM     11  O   UNL     1      -2.295   5.220   4.419  1.00  0.00    -0.550 OA
ENDBRANCH   7   9
ENDBRANCH   6   7
ENDBRANCH   5   6
ENDBRANCH   4   5
ENDBRANCH   3   4
ENDBRANCH   2   3
ENDBRANCH   1   2
BRANCH   1  12
ATOM     12  C   UNL     1       2.863   8.729   9.768  1.00  0.00     0.000 C 
BRANCH  12  13
ATOM     13  C   UNL     1       4.368   8.759  10.101  1.00  0.00    -0.000 C 
BRANCH  13  14
ATOM     14  C   UNL     1       5.051  10.125   9.908  1.00  0.00    -0.000 C 
BRANCH  14  15
ATOM     15  C   UNL     1       6.583  10.047  10.029  1.00  0.00    -0.000 C 
BRANCH  15  16
ATOM     16  C   UNL     1       7.258   9.602   8.721  1.00  0.00    -0.000 C 
BRANCH  16  17
ATOM     17  C   UNL     1       6.288   9.598   7.528  1.00  0.00    -0.000 C 
BRANCH  17  18
ATOM     18  C   UNL     1       6.247   8.243   6.806  1.00  0.00    -0.003 C 
ATOM     19  C   UNL     1       4.877   7.931   6.204  1.00  0.00     0.004 C 
ENDBRANCH  17  18
ENDBRANCH  16  17
ENDBRANCH  15  16
ENDBRANCH  14  15
ENDBRANCH  13  14
ENDBRANCH  12  13
ENDBRANCH   1  12
TORSDOF 14
ENDMDL
MODEL 4
REMARK VINA RESULT:    -3.477     12.651     16.204
REMARK INTER + INTRA:          -7.266
REMARK INTER:                  -6.013
REMARK INTRA:                  -1.254
REMARK UNBOUND:                -0.944
REMARK SMILES CCCCCCCCCCCCCC[C@H](C)C(=O)[O-]
REMARK SMILES IDX 9 1 10 2 11 3 12 4 13 5 14 6 15 7 16 8 17 9 18 10 19 11 8 12
REMARK SMILES IDX 7 13 6 14 5 15 4 16 3 17 2 18 1 19
REMARK H PARENT
REMARK Flexibility Score: inf
ROOT
ATOM      1  C   UNL     1       6.025  -5.973   6.788  1.00  0.00     0.000 C 
ENDROOT
BRANCH   1   2
ATOM      2  C   UNL     1       5.766  -6.307   8.269  1.00  0.00     0.000 C 
BRANCH   2   3
ATOM      3  C   UNL     1       5.474  -7.798   8.504  1.00  0.00     0.000 C 
BRANCH   3   4
ATOM      4  C   UNL     1       4.073  -8.220   8.026  1.00  0.00     0.000 C 
BRANCH   4   5
ATOM      5  C   UNL     1       2.895  -7.617   8.814  1.00  0.00     0.001 C 
BRANCH   5   6
ATOM      6  C   UNL     1       1.707  -7.227   7.917  1.00  0.00     0.009 C 
BRANCH   6   7
ATOM      7  C   UNL     1       1.702  -5.725   7.554  1.00  0.00     0.032 C 
ATOM      8  C   UNL     1       2.258  -4.849   8.687  1.00  0.00     0.014 C 
BRANCH   7   9
ATOM      9  C   UNL     1       0.305  -5.282   7.215  1.00  0.00     0.044 C 
ATOM     10  O   UNL     1       0.066  -4.076   6.937  1.00  0.00    -0.550 OA
ATOM     11  O   UNL     1      -0.732  -6.205   7.207  1.00  0.00    -0.550 OA
ENDBRANCH   7   9
ENDBRANCH   6   7
ENDBRANCH   5   6
ENDBRANCH   4   5
ENDBRANCH   3   4
ENDBRANCH   2   3
ENDBRANCH   1   2
BRANCH   1  12
ATOM     12  C   UNL     1       7.490  -5.649   6.435  1.00  0.00     0.000 C 
BRANCH  12  13
ATOM     13  C   UNL     1       8.109  -4.468   7.210  1.00  0.00    -0.000 C 
BRANCH  13  14
ATOM     14  C   UNL     1       9.176  -4.858   8.249  1.00  0.00    -0.000 C 
BRANCH  14  15
ATOM     15  C   UNL     1       8.772  -4.485   9.686  1.00  0.00    -0.000 C 
BRANCH  15  16
ATOM     16  C   UNL     1       9.280  -3.095  10.100  1.00  0.00    -0.000 C 
BRANCH  16  17
ATOM     17  C   UNL     1       8.172  -2.029  10.075  1.00  0.00    -0.000 C 
BRANCH  17  18
ATOM     18  C   UNL     1       8.706  -0.633   9.720  1.00  0.00    -0.003 C 
ATOM     19  C   UNL     1       7.607   0.427   9.663  1.00  0.00     0.004 C 
ENDBRANCH  17  18
ENDBRANCH  16  17
ENDBRANCH  15  16
ENDBRANCH  14  15
ENDBRANCH  13  14
ENDBRANCH  12  13
ENDBRANCH   1  12
TORSDOF 14
ENDMDL
MODEL 5
REMARK VINA RESULT:    -3.287      1.421      2.204
REMARK INTER + INTRA:          -6.920
REMARK INTER:                  -6.234
REMARK INTRA:                  -0.687
REMARK UNBOUND:                -0.944
REMARK SMILES CCCCCCCCCCCCCC[C@H](C)C(=O)[O-]
REMARK SMILES IDX 9 1 10 2 11 3 12 4 13 5 14 6 15 7 16 8 17 9 18 10 19 11 8 12
REMARK SMILES IDX 7 13 6 14 5 15 4 16 3 17 2 18 1 19
REMARK H PARENT
REMARK Flexibility Score: inf
ROOT
ATOM      1  C   UNL     1      -0.483   8.975   8.865  1.00  0.00     0.000 C 
ENDROOT
BRANCH   1   2
ATOM      2  C   UNL     1       0.834   9.581   8.345  1.00  0.00     0.000 C 
BRANCH   2   3
ATOM      3  C   UNL     1       2.044   9.224   9.222  1.00  0.00     0.000 C 
BRANCH   3   4
ATOM      4  C   UNL     1       3.284  10.085   8.919  1.00  0.00     0.000 C 
BRANCH   4   5
ATOM      5  C   UNL     1       4.640   9.431   9.240  1.00  0.00     0.001 C 
BRANCH   5   6
ATOM      6  C   UNL     1       4.936   8.199   8.366  1.00  0.00     0.009 C 
BRANCH   6   7
ATOM      7  C   UNL     1       6.060   8.453   7.337  1.00  0.00     0.032 C 
ATOM      8  C   UNL     1       6.729   9.822   7.530  1.00  0.00     0.014 C 
BRANCH   7   9
ATOM      9  C   UNL     1       5.511   8.354   5.940  1.00  0.00     0.044 C 
ATOM     10  O   UNL     1       4.340   7.934   5.741  1.00  0.00    -0.550 OA
ATOM     11  O   UNL     1       6.297   8.728   4.858  1.00  0.00    -0.550 OA
ENDBRANCH   7   9
ENDBRANCH   6   7
ENDBRANCH   5   6
ENDBRANCH   4   5
ENDBRANCH   3   4
ENDBRANCH   2   3
ENDBRANCH   1   2
BRANCH   1  12
ATOM     12  C   UNL     1      -1.073   9.660  10.113  1.00  0.00     0.000 C 
BRANCH  12  13
ATOM     13  C   UNL     1      -2.565  10.038  10.013  1.00  0.00    -0.000 C 
BRANCH  13  14
ATOM     14  C   UNL     1      -3.275   9.555   8.736  1.00  0.00    -0.000 C 
BRANCH  14  15
ATOM     15  C   UNL     1      -3.651   8.064   8.792  1.00  0.00    -0.000 C 
BRANCH  15  16
ATOM     16  C   UNL     1      -3.398   7.340   7.459  1.00  0.00    -0.000 C 
BRANCH  16  17
ATOM     17  C   UNL     1      -2.620   8.207   6.455  1.00  0.00    -0.000 C 
BRANCH  17  18
ATOM     18  C   UNL     1      -2.383   7.489   5.117  1.00  0.00    -0.003 C 
ATOM     19  C   UNL     1      -3.069   8.183   3.941  1.00  0.00     0.004 C 
ENDBRANCH  17  18
ENDBRANCH  16  17
ENDBRANCH  15  16
ENDBRANCH  14  15
ENDBRANCH  13  14
ENDBRANCH  12  13
ENDBRANCH   1  12
TORSDOF 14
ENDMDL
MODEL 6
REMARK VINA RESULT:    -2.726      3.332      7.930
REMARK INTER + INTRA:          -5.901
REMARK INTER:                  -4.939
REMARK INTRA:                  -0.962
REMARK UNBOUND:                -0.944
REMARK SMILES CCCCCCCCCCCCCC[C@H](C)C(=O)[O-]
REMARK SMILES IDX 9 1 10 2 11 3 12 4 13 5 14 6 15 7 16 8 17 9 18 10 19 11 8 12
REMARK SMILES IDX 7 13 6 14 5 15 4 16 3 17 2 18 1 19
REMARK H PARENT
REMARK Flexibility Score: inf
ROOT
ATOM      1  C   UNL     1      -1.100   9.106   7.472  1.00  0.00     0.000 C 
ENDROOT
BRANCH   1   2
ATOM      2  C   UNL     1      -2.532   9.671   7.458  1.00  0.00     0.000 C 
BRANCH   2   3
ATOM      3  C   UNL     1      -2.982  10.125   6.060  1.00  0.00     0.000 C 
BRANCH   3   4
ATOM      4  C   UNL     1      -3.807   9.058   5.316  1.00  0.00     0.000 C 
BRANCH   4   5
ATOM      5  C   UNL     1      -3.016   8.177   4.331  1.00  0.00     0.001 C 
BRANCH   5   6
ATOM      6  C   UNL     1      -2.135   7.130   5.035  1.00  0.00     0.009 C 
BRANCH   6   7
ATOM      7  C   UNL     1      -2.714   5.701   4.936  1.00  0.00     0.032 C 
ATOM      8  C   UNL     1      -3.758   5.569   3.817  1.00  0.00     0.014 C 
BRANCH   7   9
ATOM      9  C   UNL     1      -3.332   5.304   6.249  1.00  0.00     0.044 C 
ATOM     10  O   UNL     1      -3.368   6.118   7.211  1.00  0.00    -0.550 OA
ATOM     11  O   UNL     1      -3.868   4.033   6.408  1.00  0.00    -0.550 OA
ENDBRANCH   7   9
ENDBRANCH   6   7
ENDBRANCH   5   6
ENDBRANCH   4   5
ENDBRANCH   3   4
ENDBRANCH   2   3
ENDBRANCH   1   2
BRANCH   1  12
ATOM     12  C   UNL     1      -0.508   8.850   8.872  1.00  0.00     0.000 C 
BRANCH  12  13
ATOM     13  C   UNL     1       0.421   9.958   9.407  1.00  0.00    -0.000 C 
BRANCH  13  14
ATOM     14  C   UNL     1       1.776  10.076   8.686  1.00  0.00    -0.000 C 
BRANCH  14  15
ATOM     15  C   UNL     1       2.563   8.754   8.679  1.00  0.00    -0.000 C 
BRANCH  15  16
ATOM     16  C   UNL     1       3.210   8.459   7.315  1.00  0.00    -0.000 C 
BRANCH  16  17
ATOM     17  C   UNL     1       4.581   7.774   7.447  1.00  0.00    -0.000 C 
BRANCH  17  18
ATOM     18  C   UNL     1       5.537   8.544   8.370  1.00  0.00    -0.003 C 
ATOM     19  C   UNL     1       6.348   9.609   7.631  1.00  0.00     0.004 C 
ENDBRANCH  17  18
ENDBRANCH  16  17
ENDBRANCH  15  16
ENDBRANCH  14  15
ENDBRANCH  13  14
ENDBRANCH  12  13
ENDBRANCH   1  12
TORSDOF 14
ENDMDL
MODEL 7
REMARK VINA RESULT:    -2.557     13.620     16.804
REMARK INTER + INTRA:          -5.594
REMARK INTER:                  -4.506
REMARK INTRA:                  -1.088
REMARK UNBOUND:                -0.944
REMARK SMILES CCCCCCCCCCCCCC[C@H](C)C(=O)[O-]
REMARK SMILES IDX 9 1 10 2 11 3 12 4 13 5 14 6 15 7 16 8 17 9 18 10 19 11 8 12
REMARK SMILES IDX 7 13 6 14 5 15 4 16 3 17 2 18 1 19
REMARK H PARENT
REMARK Flexibility Score: inf
ROOT
ATOM      1  C   UNL     1       6.003  -7.026   6.428  1.00  0.00     0.000 C 
ENDROOT
BRANCH   1   2
ATOM      2  C   UNL     1       6.355  -8.465   6.008  1.00  0.00     0.000 C 
BRANCH   2   3
ATOM      3  C   UNL     1       5.573  -9.526   6.798  1.00  0.00     0.000 C 
BRANCH   3   4
ATOM      4  C   UNL     1       4.196  -9.028   7.277  1.00  0.00     0.000 C 
BRANCH   4   5
ATOM      5  C   UNL     1       3.770  -9.503   8.679  1.00  0.00     0.001 C 
BRANCH   5   6
ATOM      6  C   UNL     1       3.825  -8.385   9.735  1.00  0.00     0.009 C 
BRANCH   6   7
ATOM      7  C   UNL     1       4.175  -7.008   9.128  1.00  0.00     0.032 C 
ATOM      8  C   UNL     1       5.233  -6.259   9.950  1.00  0.00     0.014 C 
BRANCH   7   9
ATOM      9  C   UNL     1       2.934  -6.164   9.017  1.00  0.00     0.044 C 
ATOM     10  O   UNL     1       2.772  -5.164   9.765  1.00  0.00    -0.550 OA
ATOM     11  O   UNL     1       1.956  -6.488   8.085  1.00  0.00    -0.550 OA
ENDBRANCH   7   9
ENDBRANCH   6   7
ENDBRANCH   5   6
ENDBRANCH   4   5
ENDBRANCH   3   4
ENDBRANCH   2   3
ENDBRANCH   1   2
BRANCH   1  12
ATOM     12  C   UNL     1       7.158  -6.010   6.322  1.00  0.00     0.000 C 
BRANCH  12  13
ATOM     13  C   UNL     1       7.246  -4.992   7.476  1.00  0.00    -0.000 C 
BRANCH  13  14
ATOM     14  C   UNL     1       8.676  -4.606   7.897  1.00  0.00    -0.000 C 
BRANCH  14  15
ATOM     15  C   UNL     1       8.853  -4.553   9.424  1.00  0.00    -0.000 C 
BRANCH  15  16
ATOM     16  C   UNL     1       9.405  -3.202   9.908  1.00  0.00    -0.000 C 
BRANCH  16  17
ATOM     17  C   UNL     1       8.299  -2.155  10.125  1.00  0.00    -0.000 C 
BRANCH  17  18
ATOM     18  C   UNL     1       8.794  -0.719   9.894  1.00  0.00    -0.003 C 
ATOM     19  C   UNL     1       7.653   0.281   9.714  1.00  0.00     0.004 C 
ENDBRANCH  17  18
ENDBRANCH  16  17
ENDBRANCH  15  16
ENDBRANCH  14  15
ENDBRANCH  13  14
ENDBRANCH  12  13
ENDBRANCH   1  12
TORSDOF 14
ENDMDL
MODEL 8
REMARK VINA RESULT:    -1.221     13.819     15.877
REMARK INTER + INTRA:          -3.164
REMARK INTER:                  -2.372
REMARK INTRA:                  -0.792
REMARK UNBOUND:                -0.944
REMARK SMILES CCCCCCCCCCCCCC[C@H](C)C(=O)[O-]
REMARK SMILES IDX 9 1 10 2 11 3 12 4 13 5 14 6 15 7 16 8 17 9 18 10 19 11 8 12
REMARK SMILES IDX 7 13 6 14 5 15 4 16 3 17 2 18 1 19
REMARK H PARENT
REMARK Flexibility Score: inf
ROOT
ATOM      1  C   UNL     1       2.585  -5.021   7.973  1.00  0.00     0.000 C 
ENDROOT
BRANCH   1   2
ATOM      2  C   UNL     1       2.611  -4.846   9.503  1.00  0.00     0.000 C 
BRANCH   2   3
ATOM      3  C   UNL     1       3.965  -5.223  10.125  1.00  0.00     0.000 C 
BRANCH   3   4
ATOM      4  C   UNL     1       4.961  -5.795   9.099  1.00  0.00     0.000 C 
BRANCH   4   5
ATOM      5  C   UNL     1       6.322  -6.234   9.671  1.00  0.00     0.001 C 
BRANCH   5   6
ATOM      6  C   UNL     1       7.258  -5.051   9.975  1.00  0.00     0.009 C 
BRANCH   6   7
ATOM      7  C   UNL     1       8.602  -5.146   9.219  1.00  0.00     0.032 C 
ATOM      8  C   UNL     1       9.795  -4.732  10.093  1.00  0.00     0.014 C 
BRANCH   7   9
ATOM      9  C   UNL     1       8.560  -4.285   7.985  1.00  0.00     0.044 C 
ATOM     10  O   UNL     1       8.606  -4.806   6.839  1.00  0.00    -0.550 OA
ATOM     11  O   UNL     1       8.470  -2.904   8.107  1.00  0.00    -0.550 OA
ENDBRANCH   7   9
ENDBRANCH   6   7
ENDBRANCH   5   6
ENDBRANCH   4   5
ENDBRANCH   3   4
ENDBRANCH   2   3
ENDBRANCH   1   2
BRANCH   1  12
ATOM     12  C   UNL     1       2.101  -6.398   7.477  1.00  0.00     0.000 C 
BRANCH  12  13
ATOM     13  C   UNL     1       3.022  -7.584   7.825  1.00  0.00    -0.000 C 
BRANCH  13  14
ATOM     14  C   UNL     1       2.584  -8.941   7.246  1.00  0.00    -0.000 C 
BRANCH  14  15
ATOM     15  C   UNL     1       3.524 -10.091   7.646  1.00  0.00    -0.000 C 
BRANCH  15  16
ATOM     16  C   UNL     1       4.966  -9.616   7.893  1.00  0.00    -0.000 C 
BRANCH  16  17
ATOM     17  C   UNL     1       5.945 -10.114   6.817  1.00  0.00    -0.000 C 
BRANCH  17  18
ATOM     18  C   UNL     1       6.087  -9.126   5.649  1.00  0.00    -0.003 C 
ATOM     19  C   UNL     1       6.120  -7.668   6.104  1.00  0.00     0.004 C 
ENDBRANCH  17  18
ENDBRANCH  16  17
ENDBRANCH  15  16
ENDBRANCH  14  15
ENDBRANCH  13  14
ENDBRANCH  12  13
ENDBRANCH   1  12
TORSDOF 14
ENDMDL
