MODEL 1
REMARK VINA RESULT:    -3.105      0.000      0.000
REMARK INTER + INTRA:          -3.687
REMARK INTER:                  -3.649
REMARK INTRA:                  -0.037
REMARK UNBOUND:                -0.037
REMARK SMILES CCCCC(=O)[O-]
REMARK SMILES IDX 4 1 5 2 6 3 7 4 3 5 2 6 1 7
REMARK H PARENT
REMARK Flexibility Score: inf
ROOT
ATOM      1  C   UNL     1       3.176  -6.736  11.751  1.00  0.00     0.053 C 
ENDROOT
BRANCH   1   2
ATOM      2  C   UNL     1       4.396  -7.438  12.259  1.00  0.00     0.041 C 
ATOM      3  O   UNL     1       4.287  -8.517  12.897  1.00  0.00    -0.550 OA
ATOM      4  O   UNL     1       5.657  -6.926  11.984  1.00  0.00    -0.550 OA
ENDBRANCH   1   2
BRANCH   1   5
ATOM      5  C   UNL     1       2.166  -7.750  11.200  1.00  0.00     0.006 C 
BRANCH   5   6
ATOM      6  C   UNL     1       0.725  -7.448  11.643  1.00  0.00    -0.003 C 
ATOM      7  C   UNL     1      -0.316  -7.935  10.635  1.00  0.00     0.004 C 
ENDBRANCH   5   6
ENDBRANCH   1   5
TORSDOF 3
ENDMDL
MODEL 2
REMARK VINA RESULT:    -2.597      2.784      4.100
REMARK INTER + INTRA:          -3.090
REMARK INTER:                  -3.066
REMARK INTRA:                  -0.024
REMARK UNBOUND:                -0.037
REMARK SMILES CCCCC(=O)[O-]
REMARK SMILES IDX 4 1 5 2 6 3 7 4 3 5 2 6 1 7
REMARK H PARENT
REMARK Flexibility Score: inf
ROOT
ATOM      1  C   UNL     1       2.207  -7.099  11.259  1.00  0.00     0.053 C 
ENDROOT
BRANCH   1   2
ATOM      2  C   UNL     1       0.878  -7.769  11.413  1.00  0.00     0.041 C 
ATOM      3  O   UNL     1       0.116  -7.453  12.364  1.00  0.00    -0.550 OA
ATOM      4  O   UNL     1       0.459  -8.706  10.478  1.00  0.00    -0.550 OA
ENDBRANCH   1   2
BRANCH   1   5
ATOM      5  C   UNL     1       3.333  -8.139  11.256  1.00  0.00     0.006 C 
BRANCH   5   6
ATOM      6  C   UNL     1       4.310  -7.957  12.429  1.00  0.00    -0.003 C 
ATOM      7  C   UNL     1       5.496  -7.060  12.076  1.00  0.00     0.004 C 
ENDBRANCH   5   6
ENDBRANCH   1   5
TORSDOF 3
ENDMDL
MODEL 3
REMARK VINA RESULT:    -2.264      2.260      4.149
REMARK INTER + INTRA:          -2.698
REMARK INTER:                  -2.697
REMARK INTRA:                  -0.001
REMARK UNBOUND:                -0.037
REMARK SMILES CCCCC(=O)[O-]
REMARK SMILES IDX 4 1 5 2 6 3 7 4 3 5 2 6 1 7
REMARK H PARENT
REMARK Flexibility Score: inf
ROOT
ATOM      1  C   UNL     1       3.396  -8.139  11.382  1.00  0.00     0.053 C 
ENDROOT
BRANCH   1   2
ATOM      2  C   UNL     1       2.246  -7.182  11.417  1.00  0.00     0.041 C 
ATOM      3  O   UNL     1       1.067  -7.603  11.284  1.00  0.00    -0.550 OA
ATOM      4  O   UNL     1       2.473  -5.832  11.647  1.00  0.00    -0.550 OA
ENDBRANCH   1   2
BRANCH   1   5
ATOM      5  C   UNL     1       4.424  -7.780  12.461  1.00  0.00     0.006 C 
BRANCH   5   6
ATOM      6  C   UNL     1       5.631  -7.014  11.896  1.00  0.00    -0.003 C 
ATOM      7  C   UNL     1       6.813  -6.976  12.865  1.00  0.00     0.004 C 
ENDBRANCH   5   6
ENDBRANCH   1   5
TORSDOF 3
ENDMDL
MODEL 4
REMARK VINA RESULT:    -2.181      2.691      4.178
REMARK INTER + INTRA:          -2.601
REMARK INTER:                  -2.569
REMARK INTRA:                  -0.032
REMARK UNBOUND:                -0.037
REMARK SMILES CCCCC(=O)[O-]
REMARK SMILES IDX 4 1 5 2 6 3 7 4 3 5 2 6 1 7
REMARK H PARENT
REMARK Flexibility Score: inf
ROOT
ATOM      1  C   UNL     1       2.132  -7.570  10.849  1.00  0.00     0.053 C 
ENDROOT
BRANCH   1   2
ATOM      2  C   UNL     1       0.719  -7.867  11.240  1.00  0.00     0.041 C 
ATOM      3  O   UNL     1       0.002  -8.605  10.514  1.00  0.00    -0.550 OA
ATOM      4  O   UNL     1       0.208  -7.371  12.432  1.00  0.00    -0.550 OA
ENDBRANCH   1   2
BRANCH   1   5
ATOM      5  C   UNL     1       2.922  -7.046  12.054  1.00  0.00     0.006 C 
BRANCH   5   6
ATOM      6  C   UNL     1       4.181  -7.878  12.342  1.00  0.00    -0.003 C 
ATOM      7  C   UNL     1       5.473  -7.106  12.075  1.00  0.00     0.004 C 
ENDBRANCH   5   6
ENDBRANCH   1   5
TORSDOF 3
ENDMDL
MODEL 5
REMARK VINA RESULT:    -0.206      1.277      1.663
REMARK INTER + INTRA:          -0.280
REMARK INTER:                  -0.345
REMARK INTRA:                   0.066
REMARK UNBOUND:                -0.037
REMARK SMILES CCCCC(=O)[O-]
REMARK SMILES IDX 4 1 5 2 6 3 7 4 3 5 2 6 1 7
REMARK H PARENT
REMARK Flexibility Score: inf
ROOT
ATOM      1  C   UNL     1       3.202  -7.006  12.417  1.00  0.00     0.053 C 
ENDROOT
BRANCH   1   2
ATOM      2  C   UNL     1       4.389  -7.608  11.734  1.00  0.00     0.041 C 
ATOM      3  O   UNL     1       4.239  -8.557  10.920  1.00  0.00    -0.550 OA
ATOM      4  O   UNL     1       5.657  -7.089  11.957  1.00  0.00    -0.550 OA
ENDBRANCH   1   2
BRANCH   1   5
ATOM      5  C   UNL     1       1.903  -7.576  11.834  1.00  0.00     0.006 C 
BRANCH   5   6
ATOM      6  C   UNL     1       1.307  -6.682  10.735  1.00  0.00    -0.003 C 
ATOM      7  C   UNL     1       2.142  -5.428  10.477  1.00  0.00     0.004 C 
ENDBRANCH   5   6
ENDBRANCH   1   5
TORSDOF 3
ENDMDL
