MODEL 1
REMARK VINA RESULT:    -6.689      0.000      0.000
REMARK INTER + INTRA:          -7.939
REMARK INTER:                  -7.667
REMARK INTRA:                  -0.272
REMARK UNBOUND:                -0.272
REMARK SMILES C=C(C)[C@@H]1CC[C@@]2(C(=O)[O-])CC[C@@]3(C)[C@@H](CC[C@H]4[C@@]5(C)CC[C@H](O)C(C)(C)[C@H]5CC[C@]43C)[C@H]12
REMARK SMILES IDX 7 1 6 2 33 3 11 4 5 5 15 6 4 7 12 8 16 9 13 10 17 11 31 12
REMARK SMILES IDX 14 13 18 14 30 15 32 16 19 17 29 18 21 19 20 20 28 21 22 22
REMARK SMILES IDX 25 23 23 24 26 25 27 26 8 27 9 28 10 29 2 30 3 31 1 32 24 33
REMARK H PARENT 24 34
REMARK Flexibility Score: inf
ROOT
ATOM      1  C   UNL     1      24.526   0.830 -12.085  1.00  0.00     0.014 C 
ATOM      2  C   UNL     1      23.742  -0.348 -11.475  1.00  0.00     0.014 C 
ATOM      3  C   UNL     1      25.116   0.125 -13.324  1.00  0.00     0.012 C 
ATOM      4  C   UNL     1      25.700   1.341 -11.223  1.00  0.00     0.014 C 
ATOM      5  C   UNL     1      23.046  -0.994 -12.688  1.00  0.00     0.009 C 
ATOM      6  C   UNL     1      25.999   1.034 -14.217  1.00  0.00     0.000 C 
ATOM      7  C   UNL     1      24.018  -0.821 -13.871  1.00  0.00     0.018 C 
ATOM      8  C   UNL     1      26.651   2.275 -12.031  1.00  0.00     0.008 C 
ATOM      9  C   UNL     1      26.446   0.326 -15.511  1.00  0.00     0.005 C 
ATOM     10  C   UNL     1      27.202   1.663 -13.390  1.00  0.00    -0.024 C 
ATOM     11  C   UNL     1      27.821   0.707 -16.075  1.00  0.00     0.005 C 
ATOM     12  C   UNL     1      27.905   2.770 -14.331  1.00  0.00    -0.024 C 
ATOM     13  C   UNL     1      28.258   0.584 -12.933  1.00  0.00     0.012 C 
ATOM     14  C   UNL     1      28.437   2.121 -15.704  1.00  0.00     0.002 C 
ATOM     15  C   UNL     1      26.920   3.976 -14.597  1.00  0.00     0.008 C 
ATOM     16  C   UNL     1      29.137   3.379 -13.574  1.00  0.00     0.012 C 
ATOM     17  C   UNL     1      28.743   3.136 -16.952  1.00  0.00    -0.026 C 
ATOM     18  C   UNL     1      26.749   4.377 -16.053  1.00  0.00     0.005 C 
ATOM     19  C   UNL     1      28.179   2.587 -18.308  1.00  0.00     0.010 C 
ATOM     20  C   UNL     1      30.297   3.227 -17.088  1.00  0.00     0.012 C 
ATOM     21  C   UNL     1      28.134   4.578 -16.706  1.00  0.00     0.003 C 
ATOM     22  C   UNL     1      28.248   3.548 -19.498  1.00  0.00     0.033 C 
ATOM     23  C   UNL     1      28.116   5.581 -17.951  1.00  0.00    -0.006 C 
ATOM     24  C   UNL     1      27.539   4.871 -19.208  1.00  0.00     0.120 C 
ATOM     25  C   UNL     1      27.233   6.832 -17.655  1.00  0.00     0.014 C 
ATOM     26  C   UNL     1      29.547   6.148 -18.236  1.00  0.00     0.014 C 
ENDROOT
BRANCH   1  27
ATOM     27  C   UNL     1      23.545   1.988 -12.351  1.00  0.00     0.048 C 
ATOM     28  O   UNL     1      22.535   2.167 -11.611  1.00  0.00    -0.550 OA
ATOM     29  O   UNL     1      23.761   2.909 -13.368  1.00  0.00    -0.550 OA
ENDBRANCH   1  27
BRANCH   7  30
ATOM     30  C   UNL     1      23.338  -0.455 -15.194  1.00  0.00    -0.077 C 
ATOM     31  C   UNL     1      23.592  -1.308 -16.414  1.00  0.00     0.039 C 
ATOM     32  C   UNL     1      22.509   0.593 -15.327  1.00  0.00     0.008 C 
ENDBRANCH   7  30
BRANCH  24  33
ATOM     33  O   UNL     1      27.656   5.695 -20.343  1.00  0.00    -0.393 OA
ATOM     34  H   UNL     1      27.233   5.215 -21.102  1.00  0.00     0.210 HD
ENDBRANCH  24  33
TORSDOF 3
ENDMDL
MODEL 2
REMARK VINA RESULT:    -6.195      1.766      7.472
REMARK INTER + INTRA:          -7.373
REMARK INTER:                  -7.097
REMARK INTRA:                  -0.276
REMARK UNBOUND:                -0.272
REMARK SMILES C=C(C)[C@@H]1CC[C@@]2(C(=O)[O-])CC[C@@]3(C)[C@@H](CC[C@H]4[C@@]5(C)CC[C@H](O)C(C)(C)[C@H]5CC[C@]43C)[C@H]12
REMARK SMILES IDX 7 1 6 2 33 3 11 4 5 5 15 6 4 7 12 8 16 9 13 10 17 11 31 12
REMARK SMILES IDX 14 13 18 14 30 15 32 16 19 17 29 18 21 19 20 20 28 21 22 22
REMARK SMILES IDX 25 23 23 24 26 25 27 26 8 27 9 28 10 29 2 30 3 31 1 32 24 33
REMARK H PARENT 24 34
REMARK Flexibility Score: inf
ROOT
ATOM      1  C   UNL     1      28.036   4.873 -17.565  1.00  0.00     0.014 C 
ATOM      2  C   UNL     1      29.148   5.761 -18.157  1.00  0.00     0.014 C 
ATOM      3  C   UNL     1      28.840   4.168 -16.454  1.00  0.00     0.012 C 
ATOM      4  C   UNL     1      27.496   3.789 -18.523  1.00  0.00     0.014 C 
ATOM      5  C   UNL     1      29.860   6.334 -16.916  1.00  0.00     0.009 C 
ATOM      6  C   UNL     1      28.019   3.158 -15.612  1.00  0.00     0.000 C 
ATOM      7  C   UNL     1      29.795   5.227 -15.846  1.00  0.00     0.018 C 
ATOM      8  C   UNL     1      26.645   2.721 -17.772  1.00  0.00     0.008 C 
ATOM      9  C   UNL     1      28.827   2.589 -14.429  1.00  0.00     0.005 C 
ATOM     10  C   UNL     1      27.364   2.038 -16.530  1.00  0.00    -0.024 C 
ATOM     11  C   UNL     1      28.520   1.147 -14.006  1.00  0.00     0.005 C 
ATOM     12  C   UNL     1      26.344   1.196 -15.607  1.00  0.00    -0.024 C 
ATOM     13  C   UNL     1      28.435   1.079 -17.178  1.00  0.00     0.012 C 
ATOM     14  C   UNL     1      27.101   0.531 -14.351  1.00  0.00     0.002 C 
ATOM     15  C   UNL     1      25.135   2.102 -15.148  1.00  0.00     0.008 C 
ATOM     16  C   UNL     1      25.715   0.039 -16.460  1.00  0.00     0.012 C 
ATOM     17  C   UNL     1      26.183   0.050 -13.082  1.00  0.00    -0.026 C 
ATOM     18  C   UNL     1      24.832   2.091 -13.658  1.00  0.00     0.005 C 
ATOM     19  C   UNL     1      26.811   0.472 -11.710  1.00  0.00     0.010 C 
ATOM     20  C   UNL     1      26.142  -1.512 -13.124  1.00  0.00     0.012 C 
ATOM     21  C   UNL     1      24.712   0.635 -13.160  1.00  0.00     0.003 C 
ATOM     22  C   UNL     1      25.937   0.235 -10.475  1.00  0.00     0.033 C 
ATOM     23  C   UNL     1      23.799   0.476 -11.857  1.00  0.00    -0.006 C 
ATOM     24  C   UNL     1      24.580   0.928 -10.591  1.00  0.00     0.120 C 
ATOM     25  C   UNL     1      22.509   1.345 -11.965  1.00  0.00     0.014 C 
ATOM     26  C   UNL     1      23.289  -0.996 -11.705  1.00  0.00     0.014 C 
ENDROOT
BRANCH   1  27
ATOM     27  C   UNL     1      26.875   5.777 -17.110  1.00  0.00     0.048 C 
ATOM     28  O   UNL     1      26.623   6.862 -17.710  1.00  0.00    -0.550 OA
ATOM     29  O   UNL     1      26.029   5.413 -16.071  1.00  0.00    -0.550 OA
ENDBRANCH   1  27
BRANCH   7  30
ATOM     30  C   UNL     1      29.505   5.738 -14.432  1.00  0.00    -0.077 C 
ATOM     31  C   UNL     1      30.450   5.380 -13.310  1.00  0.00     0.039 C 
ATOM     32  C   UNL     1      28.444   6.505 -14.132  1.00  0.00     0.008 C 
ENDBRANCH   7  30
BRANCH  24  33
ATOM     33  O   UNL     1      23.841   0.654  -9.426  1.00  0.00    -0.393 OA
ATOM     34  H   UNL     1      23.603  -0.309  -9.445  1.00  0.00     0.210 HD
ENDBRANCH  24  33
TORSDOF 3
ENDMDL
MODEL 3
REMARK VINA RESULT:    -6.030      1.610      2.447
REMARK INTER + INTRA:          -7.184
REMARK INTER:                  -6.932
REMARK INTRA:                  -0.252
REMARK UNBOUND:                -0.272
REMARK SMILES C=C(C)[C@@H]1CC[C@@]2(C(=O)[O-])CC[C@@]3(C)[C@@H](CC[C@H]4[C@@]5(C)CC[C@H](O)C(C)(C)[C@H]5CC[C@]43C)[C@H]12
REMARK SMILES IDX 7 1 6 2 33 3 11 4 5 5 15 6 4 7 12 8 16 9 13 10 17 11 31 12
REMARK SMILES IDX 14 13 18 14 30 15 32 16 19 17 29 18 21 19 20 20 28 21 22 22
REMARK SMILES IDX 25 23 23 24 26 25 27 26 8 27 9 28 10 29 2 30 3 31 1 32 24 33
REMARK H PARENT 24 34
REMARK Flexibility Score: inf
ROOT
ATOM      1  C   UNL     1      23.558   0.853 -13.561  1.00  0.00     0.014 C 
ATOM      2  C   UNL     1      23.082  -0.453 -12.896  1.00  0.00     0.014 C 
ATOM      3  C   UNL     1      25.080   0.599 -13.553  1.00  0.00     0.012 C 
ATOM      4  C   UNL     1      23.284   2.132 -12.742  1.00  0.00     0.014 C 
ATOM      5  C   UNL     1      23.920  -1.545 -13.589  1.00  0.00     0.009 C 
ATOM      6  C   UNL     1      25.923   1.746 -14.169  1.00  0.00     0.000 C 
ATOM      7  C   UNL     1      25.289  -0.901 -13.881  1.00  0.00     0.018 C 
ATOM      8  C   UNL     1      24.085   3.354 -13.286  1.00  0.00     0.008 C 
ATOM      9  C   UNL     1      27.417   1.385 -14.267  1.00  0.00     0.005 C 
ATOM     10  C   UNL     1      25.650   3.125 -13.427  1.00  0.00    -0.024 C 
ATOM     11  C   UNL     1      28.424   2.532 -14.107  1.00  0.00     0.005 C 
ATOM     12  C   UNL     1      26.374   4.284 -14.287  1.00  0.00    -0.024 C 
ATOM     13  C   UNL     1      26.182   3.134 -11.942  1.00  0.00     0.012 C 
ATOM     14  C   UNL     1      27.955   4.013 -14.423  1.00  0.00     0.002 C 
ATOM     15  C   UNL     1      25.683   4.438 -15.699  1.00  0.00     0.008 C 
ATOM     16  C   UNL     1      26.180   5.660 -13.559  1.00  0.00     0.012 C 
ATOM     17  C   UNL     1      28.756   4.796 -15.619  1.00  0.00    -0.026 C 
ATOM     18  C   UNL     1      26.620   4.427 -16.895  1.00  0.00     0.005 C 
ATOM     19  C   UNL     1      29.741   3.847 -16.384  1.00  0.00     0.010 C 
ATOM     20  C   UNL     1      29.609   5.911 -14.933  1.00  0.00     0.012 C 
ATOM     21  C   UNL     1      27.763   5.441 -16.672  1.00  0.00     0.003 C 
ATOM     22  C   UNL     1      30.395   4.434 -17.638  1.00  0.00     0.033 C 
ATOM     23  C   UNL     1      28.405   5.992 -18.029  1.00  0.00    -0.006 C 
ATOM     24  C   UNL     1      29.360   4.931 -18.646  1.00  0.00     0.120 C 
ATOM     25  C   UNL     1      27.301   6.319 -19.082  1.00  0.00     0.014 C 
ATOM     26  C   UNL     1      29.153   7.346 -17.788  1.00  0.00     0.014 C 
ENDROOT
BRANCH   1  27
ATOM     27  C   UNL     1      22.886   0.976 -14.941  1.00  0.00     0.048 C 
ATOM     28  O   UNL     1      21.799   0.378 -15.190  1.00  0.00    -0.550 OA
ATOM     29  O   UNL     1      23.408   1.789 -15.939  1.00  0.00    -0.550 OA
ENDBRANCH   1  27
BRANCH   7  30
ATOM     30  C   UNL     1      25.878  -1.269 -15.245  1.00  0.00    -0.077 C 
ATOM     31  C   UNL     1      27.238  -1.923 -15.310  1.00  0.00     0.039 C 
ATOM     32  C   UNL     1      25.237  -1.049 -16.405  1.00  0.00     0.008 C 
ENDBRANCH   7  30
BRANCH  24  33
ATOM     33  O   UNL     1      30.041   5.460 -19.758  1.00  0.00    -0.393 OA
ATOM     34  H   UNL     1      29.516   6.237 -20.085  1.00  0.00     0.210 HD
ENDBRANCH  24  33
TORSDOF 3
ENDMDL
MODEL 4
REMARK VINA RESULT:    -5.648      2.223      7.378
REMARK INTER + INTRA:          -6.746
REMARK INTER:                  -6.483
REMARK INTRA:                  -0.263
REMARK UNBOUND:                -0.272
REMARK SMILES C=C(C)[C@@H]1CC[C@@]2(C(=O)[O-])CC[C@@]3(C)[C@@H](CC[C@H]4[C@@]5(C)CC[C@H](O)C(C)(C)[C@H]5CC[C@]43C)[C@H]12
REMARK SMILES IDX 7 1 6 2 33 3 11 4 5 5 15 6 4 7 12 8 16 9 13 10 17 11 31 12
REMARK SMILES IDX 14 13 18 14 30 15 32 16 19 17 29 18 21 19 20 20 28 21 22 22
REMARK SMILES IDX 25 23 23 24 26 25 27 26 8 27 9 28 10 29 2 30 3 31 1 32 24 33
REMARK H PARENT 24 34
REMARK Flexibility Score: inf
ROOT
ATOM      1  C   UNL     1      28.016   4.734 -17.215  1.00  0.00     0.014 C 
ATOM      2  C   UNL     1      28.735   5.091 -18.530  1.00  0.00     0.014 C 
ATOM      3  C   UNL     1      27.713   3.246 -17.489  1.00  0.00     0.012 C 
ATOM      4  C   UNL     1      26.672   5.461 -16.995  1.00  0.00     0.014 C 
ATOM      5  C   UNL     1      29.685   3.900 -18.764  1.00  0.00     0.009 C 
ATOM      6  C   UNL     1      26.966   2.523 -16.339  1.00  0.00     0.000 C 
ATOM      7  C   UNL     1      28.947   2.661 -18.221  1.00  0.00     0.018 C 
ATOM      8  C   UNL     1      25.840   4.811 -15.848  1.00  0.00     0.008 C 
ATOM      9  C   UNL     1      26.814   1.012 -16.599  1.00  0.00     0.005 C 
ATOM     10  C   UNL     1      25.594   3.249 -15.995  1.00  0.00    -0.024 C 
ATOM     11  C   UNL     1      25.552   0.333 -16.050  1.00  0.00     0.005 C 
ATOM     12  C   UNL     1      25.021   2.579 -14.643  1.00  0.00    -0.024 C 
ATOM     13  C   UNL     1      24.533   3.128 -17.156  1.00  0.00     0.012 C 
ATOM     14  C   UNL     1      24.798   0.994 -14.822  1.00  0.00     0.002 C 
ATOM     15  C   UNL     1      25.968   2.901 -13.421  1.00  0.00     0.008 C 
ATOM     16  C   UNL     1      23.635   3.226 -14.297  1.00  0.00     0.012 C 
ATOM     17  C   UNL     1      24.677   0.089 -13.463  1.00  0.00    -0.026 C 
ATOM     18  C   UNL     1      26.390   1.707 -12.582  1.00  0.00     0.005 C 
ATOM     19  C   UNL     1      25.519  -1.230 -13.559  1.00  0.00     0.010 C 
ATOM     20  C   UNL     1      23.175  -0.317 -13.325  1.00  0.00     0.012 C 
ATOM     21  C   UNL     1      25.146   0.887 -12.177  1.00  0.00     0.003 C 
ATOM     22  C   UNL     1      25.624  -2.051 -12.271  1.00  0.00     0.033 C 
ATOM     23  C   UNL     1      25.343   0.044 -10.832  1.00  0.00    -0.006 C 
ATOM     24  C   UNL     1      26.189  -1.230 -11.112  1.00  0.00     0.120 C 
ATOM     25  C   UNL     1      26.081   0.884  -9.745  1.00  0.00     0.014 C 
ATOM     26  C   UNL     1      23.963  -0.328 -10.195  1.00  0.00     0.014 C 
ENDROOT
BRANCH   1  27
ATOM     27  C   UNL     1      28.961   5.041 -16.039  1.00  0.00     0.048 C 
ATOM     28  O   UNL     1      29.818   5.969 -16.119  1.00  0.00    -0.550 OA
ATOM     29  O   UNL     1      28.873   4.358 -14.832  1.00  0.00    -0.550 OA
ENDBRANCH   1  27
BRANCH   7  30
ATOM     30  C   UNL     1      29.844   1.681 -17.460  1.00  0.00    -0.077 C 
ATOM     31  C   UNL     1      29.975   0.261 -17.960  1.00  0.00     0.039 C 
ATOM     32  C   UNL     1      30.538   2.021 -16.362  1.00  0.00     0.008 C 
ENDBRANCH   7  30
BRANCH  24  33
ATOM     33  O   UNL     1      26.243  -2.052  -9.972  1.00  0.00    -0.393 OA
ATOM     34  H   UNL     1      27.140  -2.477  -9.955  1.00  0.00     0.210 HD
ENDBRANCH  24  33
TORSDOF 3
ENDMDL
MODEL 5
REMARK VINA RESULT:    -5.626      2.137      7.322
REMARK INTER + INTRA:          -6.721
REMARK INTER:                  -6.450
REMARK INTRA:                  -0.270
REMARK UNBOUND:                -0.272
REMARK SMILES C=C(C)[C@@H]1CC[C@@]2(C(=O)[O-])CC[C@@]3(C)[C@@H](CC[C@H]4[C@@]5(C)CC[C@H](O)C(C)(C)[C@H]5CC[C@]43C)[C@H]12
REMARK SMILES IDX 7 1 6 2 33 3 11 4 5 5 15 6 4 7 12 8 16 9 13 10 17 11 31 12
REMARK SMILES IDX 14 13 18 14 30 15 32 16 19 17 29 18 21 19 20 20 28 21 22 22
REMARK SMILES IDX 25 23 23 24 26 25 27 26 8 27 9 28 10 29 2 30 3 31 1 32 24 33
REMARK H PARENT 24 34
REMARK Flexibility Score: inf
ROOT
ATOM      1  C   UNL     1      28.671   5.631 -16.300  1.00  0.00     0.014 C 
ATOM      2  C   UNL     1      30.054   6.061 -16.826  1.00  0.00     0.014 C 
ATOM      3  C   UNL     1      28.841   4.099 -16.365  1.00  0.00     0.012 C 
ATOM      4  C   UNL     1      27.485   6.018 -17.209  1.00  0.00     0.014 C 
ATOM      5  C   UNL     1      31.034   5.128 -16.088  1.00  0.00     0.009 C 
ATOM      6  C   UNL     1      27.601   3.298 -15.892  1.00  0.00     0.000 C 
ATOM      7  C   UNL     1      30.293   3.787 -15.923  1.00  0.00     0.018 C 
ATOM      8  C   UNL     1      26.179   5.266 -16.812  1.00  0.00     0.008 C 
ATOM      9  C   UNL     1      27.871   1.781 -15.841  1.00  0.00     0.005 C 
ATOM     10  C   UNL     1      26.309   3.684 -16.733  1.00  0.00    -0.024 C 
ATOM     11  C   UNL     1      26.689   0.853 -16.149  1.00  0.00     0.005 C 
ATOM     12  C   UNL     1      25.042   2.991 -16.013  1.00  0.00    -0.024 C 
ATOM     13  C   UNL     1      26.401   3.224 -18.239  1.00  0.00     0.012 C 
ATOM     14  C   UNL     1      25.213   1.392 -15.935  1.00  0.00     0.002 C 
ATOM     15  C   UNL     1      24.802   3.623 -14.585  1.00  0.00     0.008 C 
ATOM     16  C   UNL     1      23.747   3.299 -16.843  1.00  0.00     0.012 C 
ATOM     17  C   UNL     1      24.287   0.584 -14.854  1.00  0.00    -0.026 C 
ATOM     18  C   UNL     1      24.658   2.632 -13.443  1.00  0.00     0.005 C 
ATOM     19  C   UNL     1      25.110  -0.490 -14.062  1.00  0.00     0.010 C 
ATOM     20  C   UNL     1      23.191  -0.170 -15.674  1.00  0.00     0.012 C 
ATOM     21  C   UNL     1      23.607   1.562 -13.808  1.00  0.00     0.003 C 
ATOM     22  C   UNL     1      24.381  -1.166 -12.898  1.00  0.00     0.033 C 
ATOM     23  C   UNL     1      22.905   0.891 -12.538  1.00  0.00    -0.006 C 
ATOM     24  C   UNL     1      23.855  -0.152 -11.884  1.00  0.00     0.120 C 
ATOM     25  C   UNL     1      22.549   1.962 -11.461  1.00  0.00     0.014 C 
ATOM     26  C   UNL     1      21.539   0.236 -12.931  1.00  0.00     0.014 C 
ENDROOT
BRANCH   1  27
ATOM     27  C   UNL     1      28.465   6.245 -14.902  1.00  0.00     0.048 C 
ATOM     28  O   UNL     1      29.018   7.337 -14.584  1.00  0.00    -0.550 OA
ATOM     29  O   UNL     1      27.623   5.660 -13.965  1.00  0.00    -0.550 OA
ENDBRANCH   1  27
BRANCH   7  30
ATOM     30  C   UNL     1      30.509   3.115 -14.564  1.00  0.00    -0.077 C 
ATOM     31  C   UNL     1      31.055   1.708 -14.516  1.00  0.00     0.039 C 
ATOM     32  C   UNL     1      30.243   3.721 -13.395  1.00  0.00     0.008 C 
ENDBRANCH   7  30
BRANCH  24  33
ATOM     33  O   UNL     1      23.194  -0.851 -10.857  1.00  0.00    -0.393 OA
ATOM     34  H   UNL     1      22.231  -0.616 -10.910  1.00  0.00     0.210 HD
ENDBRANCH  24  33
TORSDOF 3
ENDMDL
MODEL 6
REMARK VINA RESULT:    -5.578      1.680      2.338
REMARK INTER + INTRA:          -6.665
REMARK INTER:                  -6.421
REMARK INTRA:                  -0.244
REMARK UNBOUND:                -0.272
REMARK SMILES C=C(C)[C@@H]1CC[C@@]2(C(=O)[O-])CC[C@@]3(C)[C@@H](CC[C@H]4[C@@]5(C)CC[C@H](O)C(C)(C)[C@H]5CC[C@]43C)[C@H]12
REMARK SMILES IDX 7 1 6 2 33 3 11 4 5 5 15 6 4 7 12 8 16 9 13 10 17 11 31 12
REMARK SMILES IDX 14 13 18 14 30 15 32 16 19 17 29 18 21 19 20 20 28 21 22 22
REMARK SMILES IDX 25 23 23 24 26 25 27 26 8 27 9 28 10 29 2 30 3 31 1 32 24 33
REMARK H PARENT 24 34
REMARK Flexibility Score: inf
ROOT
ATOM      1  C   UNL     1      26.234  -0.503 -11.334  1.00  0.00     0.014 C 
ATOM      2  C   UNL     1      25.265  -1.465 -10.620  1.00  0.00     0.014 C 
ATOM      3  C   UNL     1      25.603  -0.506 -12.741  1.00  0.00     0.012 C 
ATOM      4  C   UNL     1      27.683  -1.021 -11.461  1.00  0.00     0.014 C 
ATOM      5  C   UNL     1      23.874  -1.004 -11.096  1.00  0.00     0.009 C 
ATOM      6  C   UNL     1      26.337   0.387 -13.774  1.00  0.00     0.000 C 
ATOM      7  C   UNL     1      24.066  -0.519 -12.546  1.00  0.00     0.018 C 
ATOM      8  C   UNL     1      28.514  -0.182 -12.478  1.00  0.00     0.008 C 
ATOM      9  C   UNL     1      25.589   0.462 -15.119  1.00  0.00     0.005 C 
ATOM     10  C   UNL     1      27.863  -0.033 -13.919  1.00  0.00    -0.024 C 
ATOM     11  C   UNL     1      26.443   0.607 -16.385  1.00  0.00     0.005 C 
ATOM     12  C   UNL     1      28.589   1.096 -14.816  1.00  0.00    -0.024 C 
ATOM     13  C   UNL     1      28.044  -1.454 -14.579  1.00  0.00     0.012 C 
ATOM     14  C   UNL     1      27.896   1.231 -16.263  1.00  0.00     0.002 C 
ATOM     15  C   UNL     1      28.619   2.477 -14.050  1.00  0.00     0.008 C 
ATOM     16  C   UNL     1      30.089   0.692 -15.035  1.00  0.00     0.012 C 
ATOM     17  C   UNL     1      28.176   2.604 -17.111  1.00  0.00    -0.026 C 
ATOM     18  C   UNL     1      28.116   3.676 -14.836  1.00  0.00     0.005 C 
ATOM     19  C   UNL     1      26.866   3.174 -17.756  1.00  0.00     0.010 C 
ATOM     20  C   UNL     1      29.150   2.224 -18.272  1.00  0.00     0.012 C 
ATOM     21  C   UNL     1      28.822   3.736 -16.208  1.00  0.00     0.003 C 
ATOM     22  C   UNL     1      26.989   4.554 -18.409  1.00  0.00     0.033 C 
ATOM     23  C   UNL     1      28.892   5.207 -16.830  1.00  0.00    -0.006 C 
ATOM     24  C   UNL     1      27.515   5.605 -17.433  1.00  0.00     0.120 C 
ATOM     25  C   UNL     1      29.266   6.261 -15.742  1.00  0.00     0.014 C 
ATOM     26  C   UNL     1      30.025   5.309 -17.905  1.00  0.00     0.014 C 
ENDROOT
BRANCH   1  27
ATOM     27  C   UNL     1      26.237   0.841 -10.581  1.00  0.00     0.048 C 
ATOM     28  O   UNL     1      26.157   0.879  -9.319  1.00  0.00    -0.550 OA
ATOM     29  O   UNL     1      26.386   2.051 -11.246  1.00  0.00    -0.550 OA
ENDBRANCH   1  27
BRANCH   7  30
ATOM     30  C   UNL     1      23.280   0.750 -12.892  1.00  0.00    -0.077 C 
ATOM     31  C   UNL     1      22.476   0.794 -14.170  1.00  0.00     0.039 C 
ATOM     32  C   UNL     1      23.260   1.838 -12.105  1.00  0.00     0.008 C 
ENDBRANCH   7  30
BRANCH  24  33
ATOM     33  O   UNL     1      27.606   6.835 -18.111  1.00  0.00    -0.393 OA
ATOM     34  H   UNL     1      28.513   6.887 -18.511  1.00  0.00     0.210 HD
ENDBRANCH  24  33
TORSDOF 3
ENDMDL
MODEL 7
REMARK VINA RESULT:    -5.357      1.888      3.288
REMARK INTER + INTRA:          -6.412
REMARK INTER:                  -6.148
REMARK INTRA:                  -0.264
REMARK UNBOUND:                -0.272
REMARK SMILES C=C(C)[C@@H]1CC[C@@]2(C(=O)[O-])CC[C@@]3(C)[C@@H](CC[C@H]4[C@@]5(C)CC[C@H](O)C(C)(C)[C@H]5CC[C@]43C)[C@H]12
REMARK SMILES IDX 7 1 6 2 33 3 11 4 5 5 15 6 4 7 12 8 16 9 13 10 17 11 31 12
REMARK SMILES IDX 14 13 18 14 30 15 32 16 19 17 29 18 21 19 20 20 28 21 22 22
REMARK SMILES IDX 25 23 23 24 26 25 27 26 8 27 9 28 10 29 2 30 3 31 1 32 24 33
REMARK H PARENT 24 34
REMARK Flexibility Score: inf
ROOT
ATOM      1  C   UNL     1      24.414   0.981 -12.473  1.00  0.00     0.014 C 
ATOM      2  C   UNL     1      24.078   0.233 -11.167  1.00  0.00     0.014 C 
ATOM      3  C   UNL     1      25.906   1.278 -12.216  1.00  0.00     0.012 C 
ATOM      4  C   UNL     1      23.683   2.328 -12.652  1.00  0.00     0.014 C 
ATOM      5  C   UNL     1      25.273  -0.721 -10.973  1.00  0.00     0.009 C 
ATOM      6  C   UNL     1      26.610   2.051 -13.361  1.00  0.00     0.000 C 
ATOM      7  C   UNL     1      26.503   0.029 -11.520  1.00  0.00     0.018 C 
ATOM      8  C   UNL     1      24.314   3.185 -13.791  1.00  0.00     0.008 C 
ATOM      9  C   UNL     1      28.125   2.198 -13.122  1.00  0.00     0.005 C 
ATOM     10  C   UNL     1      25.878   3.429 -13.664  1.00  0.00    -0.024 C 
ATOM     11  C   UNL     1      28.794   3.471 -13.654  1.00  0.00     0.005 C 
ATOM     12  C   UNL     1      26.526   4.031 -15.013  1.00  0.00    -0.024 C 
ATOM     13  C   UNL     1      26.017   4.464 -12.482  1.00  0.00     0.012 C 
ATOM     14  C   UNL     1      28.114   4.252 -14.855  1.00  0.00     0.002 C 
ATOM     15  C   UNL     1      26.185   3.110 -16.250  1.00  0.00     0.008 C 
ATOM     16  C   UNL     1      25.873   5.424 -15.320  1.00  0.00     0.012 C 
ATOM     17  C   UNL     1      28.997   4.402 -16.226  1.00  0.00    -0.026 C 
ATOM     18  C   UNL     1      27.366   2.708 -17.117  1.00  0.00     0.005 C 
ATOM     19  C   UNL     1      30.317   3.559 -16.169  1.00  0.00     0.010 C 
ATOM     20  C   UNL     1      29.400   5.907 -16.338  1.00  0.00     0.012 C 
ATOM     21  C   UNL     1      28.178   3.961 -17.509  1.00  0.00     0.003 C 
ATOM     22  C   UNL     1      31.118   3.483 -17.472  1.00  0.00     0.033 C 
ATOM     23  C   UNL     1      29.000   3.793 -18.871  1.00  0.00    -0.006 C 
ATOM     24  C   UNL     1      30.279   2.943 -18.629  1.00  0.00     0.120 C 
ATOM     25  C   UNL     1      28.142   3.078 -19.960  1.00  0.00     0.014 C 
ATOM     26  C   UNL     1      29.360   5.187 -19.484  1.00  0.00     0.014 C 
ENDROOT
BRANCH   1  27
ATOM     27  C   UNL     1      24.089   0.060 -13.664  1.00  0.00     0.048 C 
ATOM     28  O   UNL     1      23.173  -0.809 -13.582  1.00  0.00    -0.550 OA
ATOM     29  O   UNL     1      24.739   0.187 -14.884  1.00  0.00    -0.550 OA
ENDBRANCH   1  27
BRANCH   7  30
ATOM     30  C   UNL     1      27.471  -0.851 -12.316  1.00  0.00    -0.077 C 
ATOM     31  C   UNL     1      28.896  -0.998 -11.837  1.00  0.00     0.039 C 
ATOM     32  C   UNL     1      27.115  -1.515 -13.427  1.00  0.00     0.008 C 
ENDBRANCH   7  30
BRANCH  24  33
ATOM     33  O   UNL     1      31.082   2.913 -19.784  1.00  0.00    -0.393 OA
ATOM     34  H   UNL     1      30.660   2.280 -20.422  1.00  0.00     0.210 HD
ENDBRANCH  24  33
TORSDOF 3
ENDMDL
MODEL 8
REMARK VINA RESULT:    -5.248      1.473      7.477
REMARK INTER + INTRA:          -6.287
REMARK INTER:                  -6.087
REMARK INTRA:                  -0.200
REMARK UNBOUND:                -0.272
REMARK SMILES C=C(C)[C@@H]1CC[C@@]2(C(=O)[O-])CC[C@@]3(C)[C@@H](CC[C@H]4[C@@]5(C)CC[C@H](O)C(C)(C)[C@H]5CC[C@]43C)[C@H]12
REMARK SMILES IDX 7 1 6 2 33 3 11 4 5 5 15 6 4 7 12 8 16 9 13 10 17 11 31 12
REMARK SMILES IDX 14 13 18 14 30 15 32 16 19 17 29 18 21 19 20 20 28 21 22 22
REMARK SMILES IDX 25 23 23 24 26 25 27 26 8 27 9 28 10 29 2 30 3 31 1 32 24 33
REMARK H PARENT 24 34
REMARK Flexibility Score: inf
ROOT
ATOM      1  C   UNL     1      29.941   3.655 -18.462  1.00  0.00     0.014 C 
ATOM      2  C   UNL     1      31.061   4.621 -18.894  1.00  0.00     0.014 C 
ATOM      3  C   UNL     1      29.951   3.919 -16.943  1.00  0.00     0.012 C 
ATOM      4  C   UNL     1      30.255   2.160 -18.687  1.00  0.00     0.014 C 
ATOM      5  C   UNL     1      30.764   5.907 -18.097  1.00  0.00     0.009 C 
ATOM      6  C   UNL     1      28.913   3.092 -16.142  1.00  0.00     0.000 C 
ATOM      7  C   UNL     1      30.179   5.440 -16.750  1.00  0.00     0.018 C 
ATOM      8  C   UNL     1      29.258   1.236 -17.926  1.00  0.00     0.008 C 
ATOM      9  C   UNL     1      28.864   3.495 -14.656  1.00  0.00     0.005 C 
ATOM     10  C   UNL     1      29.117   1.532 -16.371  1.00  0.00    -0.024 C 
ATOM     11  C   UNL     1      28.537   2.389 -13.644  1.00  0.00     0.005 C 
ATOM     12  C   UNL     1      27.855   0.779 -15.705  1.00  0.00    -0.024 C 
ATOM     13  C   UNL     1      30.464   0.997 -15.748  1.00  0.00     0.012 C 
ATOM     14  C   UNL     1      27.733   1.113 -14.135  1.00  0.00     0.002 C 
ATOM     15  C   UNL     1      26.526   1.133 -16.483  1.00  0.00     0.008 C 
ATOM     16  C   UNL     1      28.043  -0.771 -15.857  1.00  0.00     0.012 C 
ATOM     17  C   UNL     1      26.290   0.834 -13.412  1.00  0.00    -0.026 C 
ATOM     18  C   UNL     1      25.363   1.596 -15.622  1.00  0.00     0.005 C 
ATOM     19  C   UNL     1      25.865   2.016 -12.474  1.00  0.00     0.010 C 
ATOM     20  C   UNL     1      26.473  -0.436 -12.520  1.00  0.00     0.012 C 
ATOM     21  C   UNL     1      25.135   0.594 -14.469  1.00  0.00     0.003 C 
ATOM     22  C   UNL     1      24.448   1.936 -11.901  1.00  0.00     0.033 C 
ATOM     23  C   UNL     1      23.635   0.586 -13.914  1.00  0.00    -0.006 C 
ATOM     24  C   UNL     1      23.391   1.818 -12.998  1.00  0.00     0.120 C 
ATOM     25  C   UNL     1      22.603   0.640 -15.083  1.00  0.00     0.014 C 
ATOM     26  C   UNL     1      23.324  -0.748 -13.156  1.00  0.00     0.014 C 
ENDROOT
BRANCH   1  27
ATOM     27  C   UNL     1      28.652   4.027 -19.220  1.00  0.00     0.048 C 
ATOM     28  O   UNL     1      28.693   4.762 -20.248  1.00  0.00    -0.550 OA
ATOM     29  O   UNL     1      27.413   3.525 -18.844  1.00  0.00    -0.550 OA
ENDBRANCH   1  27
BRANCH   7  30
ATOM     30  C   UNL     1      29.009   6.291 -16.247  1.00  0.00    -0.077 C 
ATOM     31  C   UNL     1      29.116   6.971 -14.903  1.00  0.00     0.039 C 
ATOM     32  C   UNL     1      27.879   6.475 -16.950  1.00  0.00     0.008 C 
ENDBRANCH   7  30
BRANCH  24  33
ATOM     33  O   UNL     1      22.125   1.741 -12.389  1.00  0.00    -0.393 OA
ATOM     34  H   UNL     1      21.506   1.321 -13.042  1.00  0.00     0.210 HD
ENDBRANCH  24  33
TORSDOF 3
ENDMDL
MODEL 9
REMARK VINA RESULT:    -5.046      2.273      7.139
REMARK INTER + INTRA:          -6.056
REMARK INTER:                  -6.732
REMARK INTRA:                   0.676
REMARK UNBOUND:                -0.272
REMARK SMILES C=C(C)[C@@H]1CC[C@@]2(C(=O)[O-])CC[C@@]3(C)[C@@H](CC[C@H]4[C@@]5(C)CC[C@H](O)C(C)(C)[C@H]5CC[C@]43C)[C@H]12
REMARK SMILES IDX 7 1 6 2 33 3 11 4 5 5 15 6 4 7 12 8 16 9 13 10 17 11 31 12
REMARK SMILES IDX 14 13 18 14 30 15 32 16 19 17 29 18 21 19 20 20 28 21 22 22
REMARK SMILES IDX 25 23 23 24 26 25 27 26 8 27 9 28 10 29 2 30 3 31 1 32 24 33
REMARK H PARENT 24 34
REMARK Flexibility Score: inf
ROOT
ATOM      1  C   UNL     1      29.538   5.744 -15.301  1.00  0.00     0.014 C 
ATOM      2  C   UNL     1      30.150   7.022 -15.906  1.00  0.00     0.014 C 
ATOM      3  C   UNL     1      28.105   5.861 -15.860  1.00  0.00     0.012 C 
ATOM      4  C   UNL     1      29.449   5.737 -13.760  1.00  0.00     0.014 C 
ATOM      5  C   UNL     1      29.637   7.022 -17.359  1.00  0.00     0.009 C 
ATOM      6  C   UNL     1      27.160   4.704 -15.445  1.00  0.00     0.000 C 
ATOM      7  C   UNL     1      28.228   6.401 -17.307  1.00  0.00     0.018 C 
ATOM      8  C   UNL     1      28.522   4.599 -13.236  1.00  0.00     0.008 C 
ATOM      9  C   UNL     1      25.788   4.792 -16.141  1.00  0.00     0.005 C 
ATOM     10  C   UNL     1      27.062   4.578 -13.864  1.00  0.00    -0.024 C 
ATOM     11  C   UNL     1      24.574   4.281 -15.355  1.00  0.00     0.005 C 
ATOM     12  C   UNL     1      26.266   3.212 -13.539  1.00  0.00    -0.024 C 
ATOM     13  C   UNL     1      26.332   5.807 -13.198  1.00  0.00     0.012 C 
ATOM     14  C   UNL     1      24.798   3.216 -14.202  1.00  0.00     0.002 C 
ATOM     15  C   UNL     1      27.110   1.957 -13.996  1.00  0.00     0.008 C 
ATOM     16  C   UNL     1      26.094   3.074 -11.986  1.00  0.00     0.012 C 
ATOM     17  C   UNL     1      24.044   1.773 -14.380  1.00  0.00    -0.026 C 
ATOM     18  C   UNL     1      26.371   0.944 -14.854  1.00  0.00     0.005 C 
ATOM     19  C   UNL     1      23.373   1.632 -15.790  1.00  0.00     0.010 C 
ATOM     20  C   UNL     1      22.909   1.724 -13.307  1.00  0.00     0.012 C 
ATOM     21  C   UNL     1      25.039   0.556 -14.176  1.00  0.00     0.003 C 
ATOM     22  C   UNL     1      22.806   0.249 -16.123  1.00  0.00     0.033 C 
ATOM     23  C   UNL     1      24.506  -0.893 -14.592  1.00  0.00    -0.006 C 
ATOM     24  C   UNL     1      23.864  -0.848 -16.007  1.00  0.00     0.120 C 
ATOM     25  C   UNL     1      25.668  -1.933 -14.622  1.00  0.00     0.014 C 
ATOM     26  C   UNL     1      23.492  -1.443 -13.533  1.00  0.00     0.014 C 
ENDROOT
BRANCH   1  27
ATOM     27  C   UNL     1      30.366   4.532 -15.771  1.00  0.00     0.048 C 
ATOM     28  O   UNL     1      31.125   4.616 -16.779  1.00  0.00    -0.550 OA
ATOM     29  O   UNL     1      30.359   3.329 -15.077  1.00  0.00    -0.550 OA
ENDBRANCH   1  27
BRANCH   7  30
ATOM     30  C   UNL     1      27.919   5.449 -18.465  1.00  0.00    -0.077 C 
ATOM     31  C   UNL     1      28.189   3.972 -18.298  1.00  0.00     0.039 C 
ATOM     32  C   UNL     1      27.404   5.859 -19.636  1.00  0.00     0.008 C 
ENDBRANCH   7  30
BRANCH  24  33
ATOM     33  O   UNL     1      23.261  -2.080 -16.320  1.00  0.00    -0.393 OA
ATOM     34  H   UNL     1      23.942  -2.788 -16.174  1.00  0.00     0.210 HD
ENDBRANCH  24  33
TORSDOF 3
ENDMDL
