MODEL 1
REMARK VINA RESULT:    -6.197      0.000      0.000
REMARK INTER + INTRA:          -7.563
REMARK INTER:                  -7.284
REMARK INTRA:                  -0.280
REMARK UNBOUND:                -0.280
REMARK SMILES O=c1cc(-c2ccc(O)c(O)c2)oc2cc(O)cc(O)c12
REMARK SMILES IDX 4 1 3 2 2 3 1 4 21 5 19 6 18 7 16 8 15 9 14 10 13 11 5 12
REMARK SMILES IDX 6 13 7 14 8 15 12 16 10 17 9 18 11 20 20 22 17 24
REMARK H PARENT 9 19 11 21 20 23 17 25
REMARK Flexibility Score: inf
ROOT
ATOM      1  C   UNL     1      24.582  30.242   6.953  1.00  0.00     0.138 A 
ATOM      2  C   UNL     1      24.088  30.885   8.096  1.00  0.00     0.100 A 
ATOM      3  C   UNL     1      22.975  31.721   7.991  1.00  0.00     0.197 A 
ATOM      4  O   UNL     1      22.522  32.239   9.044  1.00  0.00    -0.289 OA
ATOM      5  C   UNL     1      22.378  31.942   6.727  1.00  0.00     0.107 A 
ATOM      6  C   UNL     1      21.261  32.800   6.493  1.00  0.00     0.134 A 
ATOM      7  C   UNL     1      20.695  32.863   5.213  1.00  0.00     0.093 A 
ATOM      8  C   UNL     1      21.240  32.143   4.148  1.00  0.00     0.123 A 
ATOM      9  C   UNL     1      22.360  31.342   4.355  1.00  0.00     0.094 A 
ATOM     10  C   UNL     1      22.926  31.231   5.627  1.00  0.00     0.146 A 
ATOM     11  O   UNL     1      23.984  30.441   5.783  1.00  0.00    -0.456 OA
ENDROOT
BRANCH   1  12
ATOM     12  C   UNL     1      25.764  29.344   7.007  1.00  0.00     0.021 A 
ATOM     13  C   UNL     1      25.741  28.130   6.301  1.00  0.00     0.016 A 
ATOM     14  C   UNL     1      26.836  27.263   6.341  1.00  0.00     0.051 A 
ATOM     15  C   UNL     1      27.969  27.589   7.092  1.00  0.00     0.157 A 
ATOM     16  C   UNL     1      26.902  29.662   7.774  1.00  0.00     0.062 A 
ATOM     17  C   UNL     1      28.002  28.792   7.815  1.00  0.00     0.158 A 
BRANCH  15  18
ATOM     18  O   UNL     1      29.047  26.706   7.110  1.00  0.00    -0.504 OA
ATOM     19  H   UNL     1      29.746  26.725   7.843  1.00  0.00     0.293 HD
ENDBRANCH  15  18
BRANCH  17  20
ATOM     20  O   UNL     1      29.125  29.118   8.576  1.00  0.00    -0.504 OA
ATOM     21  H   UNL     1      29.062  29.732   9.379  1.00  0.00     0.293 HD
ENDBRANCH  17  20
ENDBRANCH   1  12
BRANCH   6  22
ATOM     22  O   UNL     1      20.687  33.624   7.467  1.00  0.00    -0.507 OA
ATOM     23  H   UNL     1      19.790  34.076   7.388  1.00  0.00     0.293 HD
ENDBRANCH   6  22
BRANCH   8  24
ATOM     24  O   UNL     1      20.679  32.224   2.875  1.00  0.00    -0.508 OA
ATOM     25  H   UNL     1      21.251  32.369   2.052  1.00  0.00     0.293 HD
ENDBRANCH   8  24
TORSDOF 5
ENDMDL
MODEL 2
REMARK VINA RESULT:    -6.115      1.175      2.686
REMARK INTER + INTRA:          -7.467
REMARK INTER:                  -7.173
REMARK INTRA:                  -0.294
REMARK UNBOUND:                -0.280
REMARK SMILES O=c1cc(-c2ccc(O)c(O)c2)oc2cc(O)cc(O)c12
REMARK SMILES IDX 4 1 3 2 2 3 1 4 21 5 19 6 18 7 16 8 15 9 14 10 13 11 5 12
REMARK SMILES IDX 6 13 7 14 8 15 12 16 10 17 9 18 11 20 20 22 17 24
REMARK H PARENT 9 19 11 21 20 23 17 25
REMARK Flexibility Score: inf
ROOT
ATOM      1  C   UNL     1      24.882  29.567   6.329  1.00  0.00     0.138 A 
ATOM      2  C   UNL     1      24.432  29.634   5.003  1.00  0.00     0.100 A 
ATOM      3  C   UNL     1      23.371  30.479   4.677  1.00  0.00     0.197 A 
ATOM      4  O   UNL     1      23.027  30.560   3.469  1.00  0.00    -0.289 OA
ATOM      5  C   UNL     1      22.734  31.234   5.691  1.00  0.00     0.107 A 
ATOM      6  C   UNL     1      21.621  32.103   5.482  1.00  0.00     0.134 A 
ATOM      7  C   UNL     1      21.138  32.873   6.548  1.00  0.00     0.093 A 
ATOM      8  C   UNL     1      21.690  32.763   7.826  1.00  0.00     0.123 A 
ATOM      9  C   UNL     1      22.743  31.882   8.051  1.00  0.00     0.094 A 
ATOM     10  C   UNL     1      23.271  31.125   7.002  1.00  0.00     0.146 A 
ATOM     11  O   UNL     1      24.288  30.309   7.257  1.00  0.00    -0.456 OA
ENDROOT
BRANCH   1  12
ATOM     12  C   UNL     1      26.005  28.682   6.733  1.00  0.00     0.021 A 
ATOM     13  C   UNL     1      26.055  27.366   6.246  1.00  0.00     0.016 A 
ATOM     14  C   UNL     1      27.096  26.510   6.616  1.00  0.00     0.051 A 
ATOM     15  C   UNL     1      28.098  26.950   7.485  1.00  0.00     0.157 A 
ATOM     16  C   UNL     1      27.009  29.117   7.620  1.00  0.00     0.062 A 
ATOM     17  C   UNL     1      28.054  28.258   7.993  1.00  0.00     0.158 A 
BRANCH  15  18
ATOM     18  O   UNL     1      29.125  26.074   7.834  1.00  0.00    -0.504 OA
ATOM     19  H   UNL     1      29.065  25.078   7.658  1.00  0.00     0.293 HD
ENDBRANCH  15  18
BRANCH  17  20
ATOM     20  O   UNL     1      29.044  28.700   8.870  1.00  0.00    -0.504 OA
ATOM     21  H   UNL     1      29.713  29.412   8.601  1.00  0.00     0.293 HD
ENDBRANCH  17  20
ENDBRANCH   1  12
BRANCH   6  22
ATOM     22  O   UNL     1      20.942  32.230   4.266  1.00  0.00    -0.507 OA
ATOM     23  H   UNL     1      21.380  32.261   3.359  1.00  0.00     0.293 HD
ENDBRANCH   6  22
BRANCH   8  24
ATOM     24  O   UNL     1      21.192  33.523   8.883  1.00  0.00    -0.508 OA
ATOM     25  H   UNL     1      21.366  33.267   9.847  1.00  0.00     0.293 HD
ENDBRANCH   8  24
TORSDOF 5
ENDMDL
MODEL 3
REMARK VINA RESULT:    -5.958      1.478      7.302
REMARK INTER + INTRA:          -7.282
REMARK INTER:                  -6.989
REMARK INTRA:                  -0.293
REMARK UNBOUND:                -0.280
REMARK SMILES O=c1cc(-c2ccc(O)c(O)c2)oc2cc(O)cc(O)c12
REMARK SMILES IDX 4 1 3 2 2 3 1 4 21 5 19 6 18 7 16 8 15 9 14 10 13 11 5 12
REMARK SMILES IDX 6 13 7 14 8 15 12 16 10 17 9 18 11 20 20 22 17 24
REMARK H PARENT 9 19 11 21 20 23 17 25
REMARK Flexibility Score: inf
ROOT
ATOM      1  C   UNL     1      24.092  29.558   5.843  1.00  0.00     0.138 A 
ATOM      2  C   UNL     1      23.991  28.296   5.242  1.00  0.00     0.100 A 
ATOM      3  C   UNL     1      24.972  27.334   5.488  1.00  0.00     0.197 A 
ATOM      4  O   UNL     1      24.824  26.193   4.979  1.00  0.00    -0.289 OA
ATOM      5  C   UNL     1      26.077  27.651   6.314  1.00  0.00     0.107 A 
ATOM      6  C   UNL     1      27.155  26.762   6.608  1.00  0.00     0.134 A 
ATOM      7  C   UNL     1      28.145  27.156   7.518  1.00  0.00     0.093 A 
ATOM      8  C   UNL     1      28.127  28.425   8.098  1.00  0.00     0.123 A 
ATOM      9  C   UNL     1      27.108  29.318   7.779  1.00  0.00     0.094 A 
ATOM     10  C   UNL     1      26.087  28.943   6.902  1.00  0.00     0.146 A 
ATOM     11  O   UNL     1      25.124  29.821   6.639  1.00  0.00    -0.456 OA
ENDROOT
BRANCH   1  12
ATOM     12  C   UNL     1      23.079  30.620   5.613  1.00  0.00     0.021 A 
ATOM     13  C   UNL     1      22.622  30.866   4.308  1.00  0.00     0.016 A 
ATOM     14  C   UNL     1      21.675  31.864   4.063  1.00  0.00     0.051 A 
ATOM     15  C   UNL     1      21.177  32.640   5.113  1.00  0.00     0.157 A 
ATOM     16  C   UNL     1      22.585  31.414   6.667  1.00  0.00     0.062 A 
ATOM     17  C   UNL     1      21.636  32.417   6.421  1.00  0.00     0.158 A 
BRANCH  15  18
ATOM     18  O   UNL     1      20.232  33.627   4.837  1.00  0.00    -0.504 OA
ATOM     19  H   UNL     1      19.809  33.726   3.922  1.00  0.00     0.293 HD
ENDBRANCH  15  18
BRANCH  17  20
ATOM     20  O   UNL     1      21.151  33.196   7.472  1.00  0.00    -0.504 OA
ATOM     21  H   UNL     1      20.317  33.762   7.374  1.00  0.00     0.293 HD
ENDBRANCH  17  20
ENDBRANCH   1  12
BRANCH   6  22
ATOM     22  O   UNL     1      27.314  25.502   6.024  1.00  0.00    -0.507 OA
ATOM     23  H   UNL     1      28.197  25.039   5.875  1.00  0.00     0.293 HD
ENDBRANCH   6  22
BRANCH   8  24
ATOM     24  O   UNL     1      29.125  28.813   8.990  1.00  0.00    -0.508 OA
ATOM     25  H   UNL     1      29.876  28.185   9.251  1.00  0.00     0.293 HD
ENDBRANCH   8  24
TORSDOF 5
ENDMDL
MODEL 4
REMARK VINA RESULT:    -5.843      1.457      7.003
REMARK INTER + INTRA:          -7.148
REMARK INTER:                  -6.877
REMARK INTRA:                  -0.270
REMARK UNBOUND:                -0.280
REMARK SMILES O=c1cc(-c2ccc(O)c(O)c2)oc2cc(O)cc(O)c12
REMARK SMILES IDX 4 1 3 2 2 3 1 4 21 5 19 6 18 7 16 8 15 9 14 10 13 11 5 12
REMARK SMILES IDX 6 13 7 14 8 15 12 16 10 17 9 18 11 20 20 22 17 24
REMARK H PARENT 9 19 11 21 20 23 17 25
REMARK Flexibility Score: inf
ROOT
ATOM      1  C   UNL     1      24.760  29.841   6.671  1.00  0.00     0.138 A 
ATOM      2  C   UNL     1      25.906  30.270   7.353  1.00  0.00     0.100 A 
ATOM      3  C   UNL     1      26.966  29.383   7.549  1.00  0.00     0.197 A 
ATOM      4  O   UNL     1      28.003  29.814   8.115  1.00  0.00    -0.289 OA
ATOM      5  C   UNL     1      26.859  28.048   7.090  1.00  0.00     0.107 A 
ATOM      6  C   UNL     1      27.861  27.045   7.264  1.00  0.00     0.134 A 
ATOM      7  C   UNL     1      27.682  25.784   6.679  1.00  0.00     0.093 A 
ATOM      8  C   UNL     1      26.516  25.473   5.978  1.00  0.00     0.123 A 
ATOM      9  C   UNL     1      25.512  26.428   5.846  1.00  0.00     0.094 A 
ATOM     10  C   UNL     1      25.673  27.705   6.387  1.00  0.00     0.146 A 
ATOM     11  O   UNL     1      24.697  28.592   6.223  1.00  0.00    -0.456 OA
ENDROOT
BRANCH   1  12
ATOM     12  C   UNL     1      23.602  30.742   6.438  1.00  0.00     0.021 A 
ATOM     13  C   UNL     1      23.153  30.963   5.125  1.00  0.00     0.016 A 
ATOM     14  C   UNL     1      22.071  31.811   4.877  1.00  0.00     0.051 A 
ATOM     15  C   UNL     1      21.426  32.462   5.932  1.00  0.00     0.157 A 
ATOM     16  C   UNL     1      22.957  31.411   7.497  1.00  0.00     0.062 A 
ATOM     17  C   UNL     1      21.872  32.264   7.248  1.00  0.00     0.158 A 
BRANCH  15  18
ATOM     18  O   UNL     1      20.348  33.300   5.653  1.00  0.00    -0.504 OA
ATOM     19  H   UNL     1      19.470  33.233   6.155  1.00  0.00     0.293 HD
ENDBRANCH  15  18
BRANCH  17  20
ATOM     20  O   UNL     1      21.240  32.919   8.305  1.00  0.00    -0.504 OA
ATOM     21  H   UNL     1      21.407  33.899   8.499  1.00  0.00     0.293 HD
ENDBRANCH  17  20
ENDBRANCH   1  12
BRANCH   6  22
ATOM     22  O   UNL     1      29.028  27.223   8.013  1.00  0.00    -0.507 OA
ATOM     23  H   UNL     1      29.963  27.062   7.675  1.00  0.00     0.293 HD
ENDBRANCH   6  22
BRANCH   8  24
ATOM     24  O   UNL     1      26.342  24.211   5.414  1.00  0.00    -0.508 OA
ATOM     25  H   UNL     1      25.424  23.793   5.321  1.00  0.00     0.293 HD
ENDBRANCH   8  24
TORSDOF 5
ENDMDL
MODEL 5
REMARK VINA RESULT:    -5.822      1.643      7.070
REMARK INTER + INTRA:          -7.122
REMARK INTER:                  -6.827
REMARK INTRA:                  -0.295
REMARK UNBOUND:                -0.280
REMARK SMILES O=c1cc(-c2ccc(O)c(O)c2)oc2cc(O)cc(O)c12
REMARK SMILES IDX 4 1 3 2 2 3 1 4 21 5 19 6 18 7 16 8 15 9 14 10 13 11 5 12
REMARK SMILES IDX 6 13 7 14 8 15 12 16 10 17 9 18 11 20 20 22 17 24
REMARK H PARENT 9 19 11 21 20 23 17 25
REMARK Flexibility Score: inf
ROOT
ATOM      1  C   UNL     1      24.979  29.607   7.010  1.00  0.00     0.138 A 
ATOM      2  C   UNL     1      26.273  29.836   7.496  1.00  0.00     0.100 A 
ATOM      3  C   UNL     1      27.251  28.851   7.346  1.00  0.00     0.197 A 
ATOM      4  O   UNL     1      28.417  29.108   7.742  1.00  0.00    -0.289 OA
ATOM      5  C   UNL     1      26.919  27.617   6.736  1.00  0.00     0.107 A 
ATOM      6  C   UNL     1      27.824  26.527   6.559  1.00  0.00     0.134 A 
ATOM      7  C   UNL     1      27.406  25.392   5.853  1.00  0.00     0.093 A 
ATOM      8  C   UNL     1      26.101  25.284   5.368  1.00  0.00     0.123 A 
ATOM      9  C   UNL     1      25.196  26.320   5.579  1.00  0.00     0.094 A 
ATOM     10  C   UNL     1      25.592  27.481   6.250  1.00  0.00     0.146 A 
ATOM     11  O   UNL     1      24.701  28.453   6.414  1.00  0.00    -0.456 OA
ENDROOT
BRANCH   1  12
ATOM     12  C   UNL     1      23.900  30.619   7.146  1.00  0.00     0.021 A 
ATOM     13  C   UNL     1      23.745  31.303   8.363  1.00  0.00     0.016 A 
ATOM     14  C   UNL     1      22.734  32.254   8.521  1.00  0.00     0.051 A 
ATOM     15  C   UNL     1      21.853  32.530   7.472  1.00  0.00     0.157 A 
ATOM     16  C   UNL     1      23.000  30.890   6.096  1.00  0.00     0.062 A 
ATOM     17  C   UNL     1      21.983  31.843   6.254  1.00  0.00     0.158 A 
BRANCH  15  18
ATOM     18  O   UNL     1      20.855  33.485   7.659  1.00  0.00    -0.504 OA
ATOM     19  H   UNL     1      20.765  34.295   7.055  1.00  0.00     0.293 HD
ENDBRANCH  15  18
BRANCH  17  20
ATOM     20  O   UNL     1      21.101  32.106   5.207  1.00  0.00    -0.504 OA
ATOM     21  H   UNL     1      21.323  31.858   4.250  1.00  0.00     0.293 HD
ENDBRANCH  17  20
ENDBRANCH   1  12
BRANCH   6  22
ATOM     22  O   UNL     1      29.125  26.496   7.071  1.00  0.00    -0.507 OA
ATOM     23  H   UNL     1      29.544  25.710   7.541  1.00  0.00     0.293 HD
ENDBRANCH   6  22
BRANCH   8  24
ATOM     24  O   UNL     1      25.691  24.144   4.680  1.00  0.00    -0.508 OA
ATOM     25  H   UNL     1      25.454  24.175   3.696  1.00  0.00     0.293 HD
ENDBRANCH   8  24
TORSDOF 5
ENDMDL
MODEL 6
REMARK VINA RESULT:    -5.787      0.697      1.546
REMARK INTER + INTRA:          -7.082
REMARK INTER:                  -6.778
REMARK INTRA:                  -0.303
REMARK UNBOUND:                -0.280
REMARK SMILES O=c1cc(-c2ccc(O)c(O)c2)oc2cc(O)cc(O)c12
REMARK SMILES IDX 4 1 3 2 2 3 1 4 21 5 19 6 18 7 16 8 15 9 14 10 13 11 5 12
REMARK SMILES IDX 6 13 7 14 8 15 12 16 10 17 9 18 11 20 20 22 17 24
REMARK H PARENT 9 19 11 21 20 23 17 25
REMARK Flexibility Score: inf
ROOT
ATOM      1  C   UNL     1      24.573  30.085   6.809  1.00  0.00     0.138 A 
ATOM      2  C   UNL     1      24.141  30.736   7.972  1.00  0.00     0.100 A 
ATOM      3  C   UNL     1      23.054  31.610   7.910  1.00  0.00     0.197 A 
ATOM      4  O   UNL     1      22.655  32.136   8.981  1.00  0.00    -0.289 OA
ATOM      5  C   UNL     1      22.421  31.859   6.669  1.00  0.00     0.107 A 
ATOM      6  C   UNL     1      21.327  32.756   6.479  1.00  0.00     0.134 A 
ATOM      7  C   UNL     1      20.719  32.845   5.220  1.00  0.00     0.093 A 
ATOM      8  C   UNL     1      21.203  32.115   4.132  1.00  0.00     0.123 A 
ATOM      9  C   UNL     1      22.301  31.275   4.296  1.00  0.00     0.094 A 
ATOM     10  C   UNL     1      22.907  31.137   5.547  1.00  0.00     0.146 A 
ATOM     11  O   UNL     1      23.942  30.312   5.662  1.00  0.00    -0.456 OA
ENDROOT
BRANCH   1  12
ATOM     12  C   UNL     1      25.725  29.147   6.817  1.00  0.00     0.021 A 
ATOM     13  C   UNL     1      26.801  29.383   7.689  1.00  0.00     0.016 A 
ATOM     14  C   UNL     1      27.901  28.522   7.711  1.00  0.00     0.051 A 
ATOM     15  C   UNL     1      27.951  27.417   6.857  1.00  0.00     0.157 A 
ATOM     16  C   UNL     1      25.787  28.040   5.948  1.00  0.00     0.062 A 
ATOM     17  C   UNL     1      26.891  27.176   5.968  1.00  0.00     0.158 A 
BRANCH  15  18
ATOM     18  O   UNL     1      29.061  26.574   6.904  1.00  0.00    -0.504 OA
ATOM     19  H   UNL     1      29.203  25.835   6.226  1.00  0.00     0.293 HD
ENDBRANCH  15  18
BRANCH  17  20
ATOM     20  O   UNL     1      26.940  26.081   5.105  1.00  0.00    -0.504 OA
ATOM     21  H   UNL     1      26.668  25.154   5.408  1.00  0.00     0.293 HD
ENDBRANCH  17  20
ENDBRANCH   1  12
BRANCH   6  22
ATOM     22  O   UNL     1      20.815  33.592   7.476  1.00  0.00    -0.507 OA
ATOM     23  H   UNL     1      21.138  33.620   8.430  1.00  0.00     0.293 HD
ENDBRANCH   6  22
BRANCH   8  24
ATOM     24  O   UNL     1      20.600  32.222   2.880  1.00  0.00    -0.508 OA
ATOM     25  H   UNL     1      19.727  32.719   2.753  1.00  0.00     0.293 HD
ENDBRANCH   8  24
TORSDOF 5
ENDMDL
MODEL 7
REMARK VINA RESULT:    -5.755      1.279      3.099
REMARK INTER + INTRA:          -7.044
REMARK INTER:                  -6.765
REMARK INTRA:                  -0.279
REMARK UNBOUND:                -0.280
REMARK SMILES O=c1cc(-c2ccc(O)c(O)c2)oc2cc(O)cc(O)c12
REMARK SMILES IDX 4 1 3 2 2 3 1 4 21 5 19 6 18 7 16 8 15 9 14 10 13 11 5 12
REMARK SMILES IDX 6 13 7 14 8 15 12 16 10 17 9 18 11 20 20 22 17 24
REMARK H PARENT 9 19 11 21 20 23 17 25
REMARK Flexibility Score: inf
ROOT
ATOM      1  C   UNL     1      24.936  29.492   6.049  1.00  0.00     0.138 A 
ATOM      2  C   UNL     1      24.643  29.611   4.684  1.00  0.00     0.100 A 
ATOM      3  C   UNL     1      23.618  30.463   4.270  1.00  0.00     0.197 A 
ATOM      4  O   UNL     1      23.417  30.591   3.035  1.00  0.00    -0.289 OA
ATOM      5  C   UNL     1      22.860  31.172   5.233  1.00  0.00     0.107 A 
ATOM      6  C   UNL     1      21.769  32.042   4.930  1.00  0.00     0.134 A 
ATOM      7  C   UNL     1      21.157  32.765   5.962  1.00  0.00     0.093 A 
ATOM      8  C   UNL     1      21.557  32.606   7.290  1.00  0.00     0.123 A 
ATOM      9  C   UNL     1      22.586  31.722   7.601  1.00  0.00     0.094 A 
ATOM     10  C   UNL     1      23.240  31.012   6.591  1.00  0.00     0.146 A 
ATOM     11  O   UNL     1      24.229  30.192   6.931  1.00  0.00    -0.456 OA
ENDROOT
BRANCH   1  12
ATOM     12  C   UNL     1      26.013  28.598   6.546  1.00  0.00     0.021 A 
ATOM     13  C   UNL     1      26.884  29.058   7.547  1.00  0.00     0.016 A 
ATOM     14  C   UNL     1      27.910  28.240   8.027  1.00  0.00     0.051 A 
ATOM     15  C   UNL     1      28.092  26.955   7.509  1.00  0.00     0.157 A 
ATOM     16  C   UNL     1      26.208  27.307   6.017  1.00  0.00     0.062 A 
ATOM     17  C   UNL     1      27.239  26.486   6.497  1.00  0.00     0.158 A 
BRANCH  15  18
ATOM     18  O   UNL     1      29.123  26.162   8.010  1.00  0.00    -0.504 OA
ATOM     19  H   UNL     1      29.701  26.459   8.788  1.00  0.00     0.293 HD
ENDBRANCH  15  18
BRANCH  17  20
ATOM     20  O   UNL     1      27.421  25.209   5.967  1.00  0.00    -0.504 OA
ATOM     21  H   UNL     1      27.145  24.378   6.477  1.00  0.00     0.293 HD
ENDBRANCH  17  20
ENDBRANCH   1  12
BRANCH   6  22
ATOM     22  O   UNL     1      21.236  32.215   3.649  1.00  0.00    -0.507 OA
ATOM     23  H   UNL     1      21.172  33.095   3.162  1.00  0.00     0.293 HD
ENDBRANCH   6  22
BRANCH   8  24
ATOM     24  O   UNL     1      20.931  33.318   8.311  1.00  0.00    -0.508 OA
ATOM     25  H   UNL     1      19.922  33.372   8.378  1.00  0.00     0.293 HD
ENDBRANCH   8  24
TORSDOF 5
ENDMDL
MODEL 8
REMARK VINA RESULT:    -5.289      3.183      7.102
REMARK INTER + INTRA:          -6.496
REMARK INTER:                  -6.232
REMARK INTRA:                  -0.264
REMARK UNBOUND:                -0.280
REMARK SMILES O=c1cc(-c2ccc(O)c(O)c2)oc2cc(O)cc(O)c12
REMARK SMILES IDX 4 1 3 2 2 3 1 4 21 5 19 6 18 7 16 8 15 9 14 10 13 11 5 12
REMARK SMILES IDX 6 13 7 14 8 15 12 16 10 17 9 18 11 20 20 22 17 24
REMARK H PARENT 9 19 11 21 20 23 17 25
REMARK Flexibility Score: inf
ROOT
ATOM      1  C   UNL     1      23.250  28.888   5.617  1.00  0.00     0.138 A 
ATOM      2  C   UNL     1      24.631  28.659   5.701  1.00  0.00     0.100 A 
ATOM      3  C   UNL     1      25.108  27.353   5.822  1.00  0.00     0.197 A 
ATOM      4  O   UNL     1      26.353  27.176   5.838  1.00  0.00    -0.289 OA
ATOM      5  C   UNL     1      24.194  26.274   5.896  1.00  0.00     0.107 A 
ATOM      6  C   UNL     1      24.564  24.904   6.055  1.00  0.00     0.134 A 
ATOM      7  C   UNL     1      23.573  23.914   6.018  1.00  0.00     0.093 A 
ATOM      8  C   UNL     1      22.224  24.248   5.885  1.00  0.00     0.123 A 
ATOM      9  C   UNL     1      21.849  25.585   5.779  1.00  0.00     0.094 A 
ATOM     10  C   UNL     1      22.816  26.594   5.779  1.00  0.00     0.146 A 
ATOM     11  O   UNL     1      22.415  27.855   5.659  1.00  0.00    -0.456 OA
ENDROOT
BRANCH   1  12
ATOM     12  C   UNL     1      22.688  30.257   5.491  1.00  0.00     0.021 A 
ATOM     13  C   UNL     1      22.504  30.811   4.213  1.00  0.00     0.016 A 
ATOM     14  C   UNL     1      21.983  32.100   4.066  1.00  0.00     0.051 A 
ATOM     15  C   UNL     1      21.648  32.860   5.189  1.00  0.00     0.157 A 
ATOM     16  C   UNL     1      22.361  31.031   6.621  1.00  0.00     0.062 A 
ATOM     17  C   UNL     1      21.840  32.326   6.474  1.00  0.00     0.158 A 
BRANCH  15  18
ATOM     18  O   UNL     1      21.128  34.141   5.011  1.00  0.00    -0.504 OA
ATOM     19  H   UNL     1      21.078  34.812   5.769  1.00  0.00     0.293 HD
ENDBRANCH  15  18
BRANCH  17  20
ATOM     20  O   UNL     1      21.517  33.083   7.600  1.00  0.00    -0.504 OA
ATOM     21  H   UNL     1      20.696  33.675   7.624  1.00  0.00     0.293 HD
ENDBRANCH  17  20
ENDBRANCH   1  12
BRANCH   6  22
ATOM     22  O   UNL     1      25.873  24.465   6.275  1.00  0.00    -0.507 OA
ATOM     23  H   UNL     1      26.690  24.823   5.806  1.00  0.00     0.293 HD
ENDBRANCH   6  22
BRANCH   8  24
ATOM     24  O   UNL     1      21.246  23.257   5.864  1.00  0.00    -0.508 OA
ATOM     25  H   UNL     1      20.942  22.830   4.996  1.00  0.00     0.293 HD
ENDBRANCH   8  24
TORSDOF 5
ENDMDL
MODEL 9
REMARK VINA RESULT:    -4.859      2.278      6.895
REMARK INTER + INTRA:          -5.991
REMARK INTER:                  -5.723
REMARK INTRA:                  -0.268
REMARK UNBOUND:                -0.280
REMARK SMILES O=c1cc(-c2ccc(O)c(O)c2)oc2cc(O)cc(O)c12
REMARK SMILES IDX 4 1 3 2 2 3 1 4 21 5 19 6 18 7 16 8 15 9 14 10 13 11 5 12
REMARK SMILES IDX 6 13 7 14 8 15 12 16 10 17 9 18 11 20 20 22 17 24
REMARK H PARENT 9 19 11 21 20 23 17 25
REMARK Flexibility Score: inf
ROOT
ATOM      1  C   UNL     1      24.235  29.716   6.290  1.00  0.00     0.138 A 
ATOM      2  C   UNL     1      24.006  28.364   6.575  1.00  0.00     0.100 A 
ATOM      3  C   UNL     1      24.855  27.392   6.042  1.00  0.00     0.197 A 
ATOM      4  O   UNL     1      24.657  26.192   6.362  1.00  0.00    -0.289 OA
ATOM      5  C   UNL     1      25.918  27.778   5.190  1.00  0.00     0.107 A 
ATOM      6  C   UNL     1      26.826  26.873   4.561  1.00  0.00     0.134 A 
ATOM      7  C   UNL     1      27.899  27.380   3.817  1.00  0.00     0.093 A 
ATOM      8  C   UNL     1      28.063  28.754   3.631  1.00  0.00     0.123 A 
ATOM      9  C   UNL     1      27.154  29.642   4.198  1.00  0.00     0.094 A 
ATOM     10  C   UNL     1      26.093  29.171   4.975  1.00  0.00     0.146 A 
ATOM     11  O   UNL     1      25.258  30.055   5.512  1.00  0.00    -0.456 OA
ENDROOT
BRANCH   1  12
ATOM     12  C   UNL     1      23.362  30.791   6.827  1.00  0.00     0.021 A 
ATOM     13  C   UNL     1      23.484  31.171   8.174  1.00  0.00     0.016 A 
ATOM     14  C   UNL     1      22.670  32.174   8.707  1.00  0.00     0.051 A 
ATOM     15  C   UNL     1      21.713  32.806   7.909  1.00  0.00     0.157 A 
ATOM     16  C   UNL     1      22.386  31.422   6.030  1.00  0.00     0.062 A 
ATOM     17  C   UNL     1      21.567  32.427   6.565  1.00  0.00     0.158 A 
BRANCH  15  18
ATOM     18  O   UNL     1      20.917  33.804   8.468  1.00  0.00    -0.504 OA
ATOM     19  H   UNL     1      21.067  34.787   8.270  1.00  0.00     0.293 HD
ENDBRANCH  15  18
BRANCH  17  20
ATOM     20  O   UNL     1      20.606  33.046   5.766  1.00  0.00    -0.504 OA
ATOM     21  H   UNL     1      19.839  33.572   6.168  1.00  0.00     0.293 HD
ENDBRANCH  17  20
ENDBRANCH   1  12
BRANCH   6  22
ATOM     22  O   UNL     1      26.710  25.481   4.615  1.00  0.00    -0.507 OA
ATOM     23  H   UNL     1      25.844  24.976   4.723  1.00  0.00     0.293 HD
ENDBRANCH   6  22
BRANCH   8  24
ATOM     24  O   UNL     1      29.125  29.247   2.876  1.00  0.00    -0.508 OA
ATOM     25  H   UNL     1      29.628  30.082   3.150  1.00  0.00     0.293 HD
ENDBRANCH   8  24
TORSDOF 5
ENDMDL
