MODEL 1
REMARK VINA RESULT:    -3.456      0.000      0.000
REMARK INTER + INTRA:          -5.108
REMARK INTER:                  -4.668
REMARK INTRA:                  -0.440
REMARK UNBOUND:                -0.440
REMARK SMILES CCCCCCCC(=O)[O-]
REMARK SMILES IDX 5 1 6 2 7 3 8 4 9 5 10 6 4 7 3 8 2 9 1 10
REMARK H PARENT
REMARK Flexibility Score: inf
ROOT
ATOM      1  C   UNL     1      49.495  46.376  55.910  1.00  0.00     0.000 C 
ENDROOT
BRANCH   1   2
ATOM      2  C   UNL     1      49.081  45.442  57.061  1.00  0.00     0.006 C 
BRANCH   2   3
ATOM      3  C   UNL     1      49.326  46.057  58.444  1.00  0.00     0.053 C 
BRANCH   3   4
ATOM      4  C   UNL     1      48.072  46.681  58.968  1.00  0.00     0.041 C 
ATOM      5  O   UNL     1      48.121  47.766  59.605  1.00  0.00    -0.550 OA
ATOM      6  O   UNL     1      46.842  46.089  58.711  1.00  0.00    -0.550 OA
ENDBRANCH   3   4
ENDBRANCH   2   3
ENDBRANCH   1   2
BRANCH   1   7
ATOM      7  C   UNL     1      50.322  45.705  54.794  1.00  0.00     0.000 C 
BRANCH   7   8
ATOM      8  C   UNL     1      51.850  45.857  54.928  1.00  0.00    -0.000 C 
BRANCH   8   9
ATOM      9  C   UNL     1      52.512  44.887  55.922  1.00  0.00    -0.003 C 
ATOM     10  C   UNL     1      52.851  45.543  57.259  1.00  0.00     0.004 C 
ENDBRANCH   8   9
ENDBRANCH   7   8
ENDBRANCH   1   7
TORSDOF 6
ENDMDL
MODEL 2
REMARK VINA RESULT:    -3.364      3.052      4.861
REMARK INTER + INTRA:          -4.984
REMARK INTER:                  -4.669
REMARK INTRA:                  -0.315
REMARK UNBOUND:                -0.440
REMARK SMILES CCCCCCCC(=O)[O-]
REMARK SMILES IDX 5 1 6 2 7 3 8 4 9 5 10 6 4 7 3 8 2 9 1 10
REMARK H PARENT
REMARK Flexibility Score: inf
ROOT
ATOM      1  C   UNL     1      49.142  46.079  56.368  1.00  0.00     0.000 C 
ENDROOT
BRANCH   1   2
ATOM      2  C   UNL     1      49.755  45.630  55.030  1.00  0.00     0.006 C 
BRANCH   2   3
ATOM      3  C   UNL     1      51.063  46.358  54.700  1.00  0.00     0.053 C 
BRANCH   3   4
ATOM      4  C   UNL     1      52.228  45.635  55.298  1.00  0.00     0.041 C 
ATOM      5  O   UNL     1      52.936  44.875  54.586  1.00  0.00    -0.550 OA
ATOM      6  O   UNL     1      52.562  45.838  56.631  1.00  0.00    -0.550 OA
ENDBRANCH   3   4
ENDBRANCH   2   3
ENDBRANCH   1   2
BRANCH   1   7
ATOM      7  C   UNL     1      49.059  44.980  57.447  1.00  0.00     0.000 C 
BRANCH   7   8
ATOM      8  C   UNL     1      49.370  45.445  58.883  1.00  0.00    -0.000 C 
BRANCH   8   9
ATOM      9  C   UNL     1      49.333  46.969  59.091  1.00  0.00    -0.003 C 
ATOM     10  C   UNL     1      47.967  47.475  59.551  1.00  0.00     0.004 C 
ENDBRANCH   8   9
ENDBRANCH   7   8
ENDBRANCH   1   7
TORSDOF 6
ENDMDL
MODEL 3
REMARK VINA RESULT:    -3.317      3.050      4.906
REMARK INTER + INTRA:          -4.921
REMARK INTER:                  -4.602
REMARK INTRA:                  -0.319
REMARK UNBOUND:                -0.440
REMARK SMILES CCCCCCCC(=O)[O-]
REMARK SMILES IDX 5 1 6 2 7 3 8 4 9 5 10 6 4 7 3 8 2 9 1 10
REMARK H PARENT
REMARK Flexibility Score: inf
ROOT
ATOM      1  C   UNL     1      48.985  45.081  56.184  1.00  0.00     0.000 C 
ENDROOT
BRANCH   1   2
ATOM      2  C   UNL     1      49.639  46.448  55.918  1.00  0.00     0.006 C 
BRANCH   2   3
ATOM      3  C   UNL     1      50.594  46.428  54.718  1.00  0.00     0.053 C 
BRANCH   3   4
ATOM      4  C   UNL     1      51.900  45.809  55.101  1.00  0.00     0.041 C 
ATOM      5  O   UNL     1      52.377  45.993  56.252  1.00  0.00    -0.550 OA
ATOM      6  O   UNL     1      52.569  44.986  54.203  1.00  0.00    -0.550 OA
ENDBRANCH   3   4
ENDBRANCH   2   3
ENDBRANCH   1   2
BRANCH   1   7
ATOM      7  C   UNL     1      47.981  45.056  57.355  1.00  0.00     0.000 C 
BRANCH   7   8
ATOM      8  C   UNL     1      48.606  45.192  58.757  1.00  0.00    -0.000 C 
BRANCH   8   9
ATOM      9  C   UNL     1      47.974  46.278  59.645  1.00  0.00    -0.003 C 
ATOM     10  C   UNL     1      48.337  47.695  59.203  1.00  0.00     0.004 C 
ENDBRANCH   8   9
ENDBRANCH   7   8
ENDBRANCH   1   7
TORSDOF 6
ENDMDL
MODEL 4
REMARK VINA RESULT:    -3.090     12.175     13.796
REMARK INTER + INTRA:          -4.614
REMARK INTER:                  -4.059
REMARK INTRA:                  -0.556
REMARK UNBOUND:                -0.440
REMARK SMILES CCCCCCCC(=O)[O-]
REMARK SMILES IDX 5 1 6 2 7 3 8 4 9 5 10 6 4 7 3 8 2 9 1 10
REMARK H PARENT
REMARK Flexibility Score: inf
ROOT
ATOM      1  C   UNL     1      52.283  46.577  42.655  1.00  0.00     0.000 C 
ENDROOT
BRANCH   1   2
ATOM      2  C   UNL     1      50.890  46.271  42.078  1.00  0.00     0.006 C 
BRANCH   2   3
ATOM      3  C   UNL     1      49.832  47.297  42.502  1.00  0.00     0.053 C 
BRANCH   3   4
ATOM      4  C   UNL     1      48.578  46.605  42.934  1.00  0.00     0.041 C 
ATOM      5  O   UNL     1      47.453  47.096  42.651  1.00  0.00    -0.550 OA
ATOM      6  O   UNL     1      48.650  45.393  43.608  1.00  0.00    -0.550 OA
ENDBRANCH   3   4
ENDBRANCH   2   3
ENDBRANCH   1   2
BRANCH   1   7
ATOM      7  C   UNL     1      52.752  45.615  43.766  1.00  0.00     0.000 C 
BRANCH   7   8
ATOM      8  C   UNL     1      51.843  45.558  45.010  1.00  0.00    -0.000 C 
BRANCH   8   9
ATOM      9  C   UNL     1      51.787  46.858  45.830  1.00  0.00    -0.003 C 
ATOM     10  C   UNL     1      50.410  47.121  46.437  1.00  0.00     0.004 C 
ENDBRANCH   8   9
ENDBRANCH   7   8
ENDBRANCH   1   7
TORSDOF 6
ENDMDL
MODEL 5
REMARK VINA RESULT:    -3.080     13.141     14.834
REMARK INTER + INTRA:          -4.601
REMARK INTER:                  -4.154
REMARK INTRA:                  -0.446
REMARK UNBOUND:                -0.440
REMARK SMILES CCCCCCCC(=O)[O-]
REMARK SMILES IDX 5 1 6 2 7 3 8 4 9 5 10 6 4 7 3 8 2 9 1 10
REMARK H PARENT
REMARK Flexibility Score: inf
ROOT
ATOM      1  C   UNL     1      53.665  45.962  43.471  1.00  0.00     0.000 C 
ENDROOT
BRANCH   1   2
ATOM      2  C   UNL     1      53.940  46.071  41.961  1.00  0.00     0.006 C 
BRANCH   2   3
ATOM      3  C   UNL     1      52.657  46.126  41.124  1.00  0.00     0.053 C 
BRANCH   3   4
ATOM      4  C   UNL     1      51.960  47.435  41.322  1.00  0.00     0.041 C 
ATOM      5  O   UNL     1      50.804  47.468  41.822  1.00  0.00    -0.550 OA
ATOM      6  O   UNL     1      52.606  48.622  41.002  1.00  0.00    -0.550 OA
ENDBRANCH   3   4
ENDBRANCH   2   3
ENDBRANCH   1   2
BRANCH   1   7
ATOM      7  C   UNL     1      52.627  44.892  43.867  1.00  0.00     0.000 C 
BRANCH   7   8
ATOM      8  C   UNL     1      51.750  45.247  45.084  1.00  0.00    -0.000 C 
BRANCH   8   9
ATOM      9  C   UNL     1      51.349  46.729  45.180  1.00  0.00    -0.003 C 
ATOM     10  C   UNL     1      51.331  47.250  46.616  1.00  0.00     0.004 C 
ENDBRANCH   8   9
ENDBRANCH   7   8
ENDBRANCH   1   7
TORSDOF 6
ENDMDL
MODEL 6
REMARK VINA RESULT:    -2.954      1.131      2.338
REMARK INTER + INTRA:          -4.431
REMARK INTER:                  -4.064
REMARK INTRA:                  -0.366
REMARK UNBOUND:                -0.440
REMARK SMILES CCCCCCCC(=O)[O-]
REMARK SMILES IDX 5 1 6 2 7 3 8 4 9 5 10 6 4 7 3 8 2 9 1 10
REMARK H PARENT
REMARK Flexibility Score: inf
ROOT
ATOM      1  C   UNL     1      51.530  44.880  57.931  1.00  0.00     0.000 C 
ENDROOT
BRANCH   1   2
ATOM      2  C   UNL     1      50.430  45.783  58.514  1.00  0.00     0.006 C 
BRANCH   2   3
ATOM      3  C   UNL     1      49.109  45.039  58.743  1.00  0.00     0.053 C 
BRANCH   3   4
ATOM      4  C   UNL     1      48.151  45.899  59.506  1.00  0.00     0.041 C 
ATOM      5  O   UNL     1      47.266  45.372  60.232  1.00  0.00    -0.550 OA
ATOM      6  O   UNL     1      48.267  47.282  59.456  1.00  0.00    -0.550 OA
ENDBRANCH   3   4
ENDBRANCH   2   3
ENDBRANCH   1   2
BRANCH   1   7
ATOM      7  C   UNL     1      52.562  45.603  57.041  1.00  0.00     0.000 C 
BRANCH   7   8
ATOM      8  C   UNL     1      52.536  45.205  55.552  1.00  0.00    -0.000 C 
BRANCH   8   9
ATOM      9  C   UNL     1      51.131  45.119  54.930  1.00  0.00    -0.003 C 
ATOM     10  C   UNL     1      50.481  46.488  54.735  1.00  0.00     0.004 C 
ENDBRANCH   8   9
ENDBRANCH   7   8
ENDBRANCH   1   7
TORSDOF 6
ENDMDL
MODEL 7
REMARK VINA RESULT:    -2.937     12.993     14.493
REMARK INTER + INTRA:          -4.408
REMARK INTER:                  -4.242
REMARK INTRA:                  -0.166
REMARK UNBOUND:                -0.440
REMARK SMILES CCCCCCCC(=O)[O-]
REMARK SMILES IDX 5 1 6 2 7 3 8 4 9 5 10 6 4 7 3 8 2 9 1 10
REMARK H PARENT
REMARK Flexibility Score: inf
ROOT
ATOM      1  C   UNL     1      48.559  47.120  43.289  1.00  0.00     0.000 C 
ENDROOT
BRANCH   1   2
ATOM      2  C   UNL     1      47.800  46.400  42.161  1.00  0.00     0.006 C 
BRANCH   2   3
ATOM      3  C   UNL     1      47.081  47.368  41.214  1.00  0.00     0.053 C 
BRANCH   3   4
ATOM      4  C   UNL     1      45.614  47.392  41.506  1.00  0.00     0.041 C 
ATOM      5  O   UNL     1      44.972  46.314  41.612  1.00  0.00    -0.550 OA
ATOM      6  O   UNL     1      44.966  48.603  41.708  1.00  0.00    -0.550 OA
ENDBRANCH   3   4
ENDBRANCH   2   3
ENDBRANCH   1   2
BRANCH   1   7
ATOM      7  C   UNL     1      49.503  46.222  44.114  1.00  0.00     0.000 C 
BRANCH   7   8
ATOM      8  C   UNL     1      50.984  46.652  44.114  1.00  0.00    -0.000 C 
BRANCH   8   9
ATOM      9  C   UNL     1      51.720  46.435  45.447  1.00  0.00    -0.003 C 
ATOM     10  C   UNL     1      51.091  47.203  46.608  1.00  0.00     0.004 C 
ENDBRANCH   8   9
ENDBRANCH   7   8
ENDBRANCH   1   7
TORSDOF 6
ENDMDL
MODEL 8
REMARK VINA RESULT:    -2.911     12.924     14.492
REMARK INTER + INTRA:          -4.373
REMARK INTER:                  -3.888
REMARK INTRA:                  -0.485
REMARK UNBOUND:                -0.440
REMARK SMILES CCCCCCCC(=O)[O-]
REMARK SMILES IDX 5 1 6 2 7 3 8 4 9 5 10 6 4 7 3 8 2 9 1 10
REMARK H PARENT
REMARK Flexibility Score: inf
ROOT
ATOM      1  C   UNL     1      49.242  46.789  43.519  1.00  0.00     0.000 C 
ENDROOT
BRANCH   1   2
ATOM      2  C   UNL     1      49.773  47.281  42.162  1.00  0.00     0.006 C 
BRANCH   2   3
ATOM      3  C   UNL     1      50.894  46.396  41.605  1.00  0.00     0.053 C 
BRANCH   3   4
ATOM      4  C   UNL     1      52.200  47.125  41.634  1.00  0.00     0.041 C 
ATOM      5  O   UNL     1      52.322  48.231  41.043  1.00  0.00    -0.550 OA
ATOM      6  O   UNL     1      53.269  46.608  42.355  1.00  0.00    -0.550 OA
ENDBRANCH   3   4
ENDBRANCH   2   3
ENDBRANCH   1   2
BRANCH   1   7
ATOM      7  C   UNL     1      49.717  45.380  43.931  1.00  0.00     0.000 C 
BRANCH   7   8
ATOM      8  C   UNL     1      50.546  45.322  45.230  1.00  0.00    -0.000 C 
BRANCH   8   9
ATOM      9  C   UNL     1      51.549  46.474  45.409  1.00  0.00    -0.003 C 
ATOM     10  C   UNL     1      51.328  47.261  46.700  1.00  0.00     0.004 C 
ENDBRANCH   8   9
ENDBRANCH   7   8
ENDBRANCH   1   7
TORSDOF 6
ENDMDL
MODEL 9
REMARK VINA RESULT:    -0.732     15.471     16.839
REMARK INTER + INTRA:          -1.428
REMARK INTER:                  -1.044
REMARK INTRA:                  -0.384
REMARK UNBOUND:                -0.440
REMARK SMILES CCCCCCCC(=O)[O-]
REMARK SMILES IDX 5 1 6 2 7 3 8 4 9 5 10 6 4 7 3 8 2 9 1 10
REMARK H PARENT
REMARK Flexibility Score: inf
ROOT
ATOM      1  C   UNL     1      43.887  45.965  41.670  1.00  0.00     0.000 C 
ENDROOT
BRANCH   1   2
ATOM      2  C   UNL     1      45.232  45.967  40.922  1.00  0.00     0.006 C 
BRANCH   2   3
ATOM      3  C   UNL     1      46.186  47.060  41.417  1.00  0.00     0.053 C 
BRANCH   3   4
ATOM      4  C   UNL     1      47.423  46.451  41.997  1.00  0.00     0.041 C 
ATOM      5  O   UNL     1      47.596  45.204  41.954  1.00  0.00    -0.550 OA
ATOM      6  O   UNL     1      48.409  47.263  42.542  1.00  0.00    -0.550 OA
ENDBRANCH   3   4
ENDBRANCH   2   3
ENDBRANCH   1   2
BRANCH   1   7
ATOM      7  C   UNL     1      42.700  46.548  40.875  1.00  0.00     0.000 C 
BRANCH   7   8
ATOM      8  C   UNL     1      42.557  48.081  40.940  1.00  0.00    -0.000 C 
BRANCH   8   9
ATOM      9  C   UNL     1      42.927  48.708  42.295  1.00  0.00    -0.003 C 
ATOM     10  C   UNL     1      44.084  49.701  42.196  1.00  0.00     0.004 C 
ENDBRANCH   8   9
ENDBRANCH   7   8
ENDBRANCH   1   7
TORSDOF 6
ENDMDL
