MODEL 1
REMARK VINA RESULT:    -5.643      0.000      0.000
REMARK INTER + INTRA:          -7.239
REMARK INTER:                  -6.963
REMARK INTRA:                  -0.276
REMARK UNBOUND:                -0.276
REMARK SMILES O=C1c2c(O)cc(O)cc2O[C@H](c2cc(O)c(O)c(O)c2)[C@@H]1O
REMARK SMILES IDX 12 1 22 2 2 3 1 4 3 5 4 6 6 7 7 8 9 9 10 10 11 11 13 12
REMARK SMILES IDX 14 13 15 14 21 15 17 16 19 17 16 18 18 20 20 22 23 24 5 26
REMARK SMILES IDX 8 28
REMARK H PARENT 16 19 18 21 20 23 23 25 5 27 8 29
REMARK Flexibility Score: inf
ROOT
ATOM      1  C   UNL     1     -10.336   7.675   5.988  1.00  0.00     0.240 C 
ATOM      2  C   UNL     1     -11.717   8.286   6.307  1.00  0.00     0.231 C 
ATOM      3  C   UNL     1     -12.727   7.178   6.449  1.00  0.00     0.202 C 
ATOM      4  O   UNL     1     -13.852   7.298   5.896  1.00  0.00    -0.291 OA
ATOM      5  C   UNL     1     -12.347   5.944   7.185  1.00  0.00     0.105 A 
ATOM      6  C   UNL     1     -13.280   5.005   7.699  1.00  0.00     0.133 A 
ATOM      7  C   UNL     1     -12.816   3.839   8.319  1.00  0.00     0.093 A 
ATOM      8  C   UNL     1     -11.445   3.616   8.491  1.00  0.00     0.123 A 
ATOM      9  C   UNL     1     -10.527   4.560   8.032  1.00  0.00     0.093 A 
ATOM     10  C   UNL     1     -10.966   5.711   7.373  1.00  0.00     0.138 A 
ATOM     11  O   UNL     1     -10.015   6.632   6.914  1.00  0.00    -0.481 OA
ENDROOT
BRANCH   1  12
ATOM     12  C   UNL     1      -9.251   8.728   5.972  1.00  0.00     0.003 A 
ATOM     13  C   UNL     1      -9.441   9.953   5.311  1.00  0.00     0.058 A 
ATOM     14  C   UNL     1      -8.416  10.908   5.271  1.00  0.00     0.161 A 
ATOM     15  C   UNL     1      -8.008   8.458   6.567  1.00  0.00     0.058 A 
ATOM     16  C   UNL     1      -7.182  10.635   5.884  1.00  0.00     0.200 A 
ATOM     17  C   UNL     1      -6.980   9.409   6.530  1.00  0.00     0.161 A 
BRANCH  14  18
ATOM     18  O   UNL     1      -8.618  12.125   4.621  1.00  0.00    -0.504 OA
ATOM     19  H   UNL     1      -7.998  12.445   3.886  1.00  0.00     0.293 HD
ENDBRANCH  14  18
BRANCH  16  20
ATOM     20  O   UNL     1      -6.147  11.570   5.859  1.00  0.00    -0.502 OA
ATOM     21  H   UNL     1      -5.213  11.333   5.544  1.00  0.00     0.293 HD
ENDBRANCH  16  20
BRANCH  17  22
ATOM     22  O   UNL     1      -5.751   9.140   7.131  1.00  0.00    -0.504 OA
ATOM     23  H   UNL     1      -5.241   8.286   6.937  1.00  0.00     0.293 HD
ENDBRANCH  17  22
ENDBRANCH   1  12
BRANCH   2  24
ATOM     24  O   UNL     1     -11.690   9.073   7.473  1.00  0.00    -0.381 OA
ATOM     25  H   UNL     1     -11.742  10.026   7.200  1.00  0.00     0.211 HD
ENDBRANCH   2  24
BRANCH   6  26
ATOM     26  O   UNL     1     -14.663   5.199   7.653  1.00  0.00    -0.507 OA
ATOM     27  H   UNL     1     -15.291   4.976   8.411  1.00  0.00     0.293 HD
ENDBRANCH   6  26
BRANCH   8  28
ATOM     28  O   UNL     1     -10.987   2.463   9.125  1.00  0.00    -0.508 OA
ATOM     29  H   UNL     1     -11.568   1.951   9.778  1.00  0.00     0.293 HD
ENDBRANCH   8  28
TORSDOF 7
ENDMDL
MODEL 2
REMARK VINA RESULT:    -5.565      1.694      2.243
REMARK INTER + INTRA:          -7.143
REMARK INTER:                  -7.431
REMARK INTRA:                   0.288
REMARK UNBOUND:                -0.276
REMARK SMILES O=C1c2c(O)cc(O)cc2O[C@H](c2cc(O)c(O)c(O)c2)[C@@H]1O
REMARK SMILES IDX 12 1 22 2 2 3 1 4 3 5 4 6 6 7 7 8 9 9 10 10 11 11 13 12
REMARK SMILES IDX 14 13 15 14 21 15 17 16 19 17 16 18 18 20 20 22 23 24 5 26
REMARK SMILES IDX 8 28
REMARK H PARENT 16 19 18 21 20 23 23 25 5 27 8 29
REMARK Flexibility Score: inf
ROOT
ATOM      1  C   UNL     1      -9.073   9.138   5.801  1.00  0.00     0.240 C 
ATOM      2  C   UNL     1     -10.359   9.849   6.273  1.00  0.00     0.231 C 
ATOM      3  C   UNL     1     -11.534   8.931   6.067  1.00  0.00     0.202 C 
ATOM      4  O   UNL     1     -12.593   9.393   5.564  1.00  0.00    -0.291 OA
ATOM      5  C   UNL     1     -11.395   7.491   6.406  1.00  0.00     0.105 A 
ATOM      6  C   UNL     1     -12.491   6.611   6.607  1.00  0.00     0.133 A 
ATOM      7  C   UNL     1     -12.251   5.254   6.854  1.00  0.00     0.093 A 
ATOM      8  C   UNL     1     -10.945   4.767   6.966  1.00  0.00     0.123 A 
ATOM      9  C   UNL     1      -9.865   5.638   6.819  1.00  0.00     0.093 A 
ATOM     10  C   UNL     1     -10.081   6.987   6.530  1.00  0.00     0.138 A 
ATOM     11  O   UNL     1      -8.973   7.831   6.376  1.00  0.00    -0.481 OA
ENDROOT
BRANCH   1  12
ATOM     12  C   UNL     1      -7.838   9.954   6.110  1.00  0.00     0.003 A 
ATOM     13  C   UNL     1      -6.938  10.318   5.095  1.00  0.00     0.058 A 
ATOM     14  C   UNL     1      -5.777  11.044   5.397  1.00  0.00     0.161 A 
ATOM     15  C   UNL     1      -7.547  10.302   7.439  1.00  0.00     0.058 A 
ATOM     16  C   UNL     1      -5.503  11.401   6.728  1.00  0.00     0.200 A 
ATOM     17  C   UNL     1      -6.388  11.027   7.747  1.00  0.00     0.161 A 
BRANCH  14  18
ATOM     18  O   UNL     1      -4.895  11.407   4.381  1.00  0.00    -0.504 OA
ATOM     19  H   UNL     1      -3.954  11.033   4.335  1.00  0.00     0.293 HD
ENDBRANCH  14  18
BRANCH  16  20
ATOM     20  O   UNL     1      -4.356  12.125   7.054  1.00  0.00    -0.502 OA
ATOM     21  H   UNL     1      -4.264  12.623   7.932  1.00  0.00     0.293 HD
ENDBRANCH  16  20
BRANCH  17  22
ATOM     22  O   UNL     1      -6.109  11.378   9.067  1.00  0.00    -0.504 OA
ATOM     23  H   UNL     1      -6.758  11.176   9.819  1.00  0.00     0.293 HD
ENDBRANCH  17  22
ENDBRANCH   1  12
BRANCH   2  24
ATOM     24  O   UNL     1     -10.279  10.244   7.621  1.00  0.00    -0.381 OA
ATOM     25  H   UNL     1      -9.732  11.071   7.666  1.00  0.00     0.211 HD
ENDBRANCH   2  24
BRANCH   6  26
ATOM     26  O   UNL     1     -13.822   7.036   6.606  1.00  0.00    -0.507 OA
ATOM     27  H   UNL     1     -14.615   6.413   6.628  1.00  0.00     0.293 HD
ENDBRANCH   6  26
BRANCH   8  28
ATOM     28  O   UNL     1     -10.709   3.420   7.231  1.00  0.00    -0.508 OA
ATOM     29  H   UNL     1     -10.937   2.699   6.556  1.00  0.00     0.293 HD
ENDBRANCH   8  28
TORSDOF 7
ENDMDL
MODEL 3
REMARK VINA RESULT:    -5.436      1.629      2.399
REMARK INTER + INTRA:          -6.983
REMARK INTER:                  -7.234
REMARK INTRA:                   0.251
REMARK UNBOUND:                -0.276
REMARK SMILES O=C1c2c(O)cc(O)cc2O[C@H](c2cc(O)c(O)c(O)c2)[C@@H]1O
REMARK SMILES IDX 12 1 22 2 2 3 1 4 3 5 4 6 6 7 7 8 9 9 10 10 11 11 13 12
REMARK SMILES IDX 14 13 15 14 21 15 17 16 19 17 16 18 18 20 20 22 23 24 5 26
REMARK SMILES IDX 8 28
REMARK H PARENT 16 19 18 21 20 23 23 25 5 27 8 29
REMARK Flexibility Score: inf
ROOT
ATOM      1  C   UNL     1      -9.203   9.067   5.849  1.00  0.00     0.240 C 
ATOM      2  C   UNL     1     -10.470   9.825   6.299  1.00  0.00     0.231 C 
ATOM      3  C   UNL     1     -11.672   8.942   6.092  1.00  0.00     0.202 C 
ATOM      4  O   UNL     1     -12.710   9.430   5.572  1.00  0.00    -0.291 OA
ATOM      5  C   UNL     1     -11.582   7.503   6.451  1.00  0.00     0.105 A 
ATOM      6  C   UNL     1     -12.708   6.661   6.652  1.00  0.00     0.133 A 
ATOM      7  C   UNL     1     -12.513   5.300   6.920  1.00  0.00     0.093 A 
ATOM      8  C   UNL     1     -11.224   4.773   7.051  1.00  0.00     0.123 A 
ATOM      9  C   UNL     1     -10.117   5.608   6.905  1.00  0.00     0.093 A 
ATOM     10  C   UNL     1     -10.286   6.959   6.595  1.00  0.00     0.138 A 
ATOM     11  O   UNL     1      -9.150   7.765   6.443  1.00  0.00    -0.481 OA
ENDROOT
BRANCH   1  12
ATOM     12  C   UNL     1      -7.946   9.847   6.161  1.00  0.00     0.003 A 
ATOM     13  C   UNL     1      -7.631  10.214   7.481  1.00  0.00     0.058 A 
ATOM     14  C   UNL     1      -6.482  10.969   7.756  1.00  0.00     0.161 A 
ATOM     15  C   UNL     1      -7.110  10.271   5.116  1.00  0.00     0.058 A 
ATOM     16  C   UNL     1      -5.643  11.374   6.704  1.00  0.00     0.200 A 
ATOM     17  C   UNL     1      -5.961  11.026   5.384  1.00  0.00     0.161 A 
BRANCH  14  18
ATOM     18  O   UNL     1      -6.173  11.320   9.069  1.00  0.00    -0.504 OA
ATOM     19  H   UNL     1      -5.221  11.507   9.360  1.00  0.00     0.293 HD
ENDBRANCH  14  18
BRANCH  16  20
ATOM     20  O   UNL     1      -4.493  12.124   6.952  1.00  0.00    -0.502 OA
ATOM     21  H   UNL     1      -3.592  11.691   7.118  1.00  0.00     0.293 HD
ENDBRANCH  16  20
BRANCH  17  22
ATOM     22  O   UNL     1      -5.130  11.437   4.344  1.00  0.00    -0.504 OA
ATOM     23  H   UNL     1      -4.134  11.250   4.354  1.00  0.00     0.293 HD
ENDBRANCH  17  22
ENDBRANCH   1  12
BRANCH   2  24
ATOM     24  O   UNL     1     -10.391  10.235   7.642  1.00  0.00    -0.381 OA
ATOM     25  H   UNL     1     -11.283  10.100   8.056  1.00  0.00     0.211 HD
ENDBRANCH   2  24
BRANCH   6  26
ATOM     26  O   UNL     1     -14.024   7.128   6.632  1.00  0.00    -0.507 OA
ATOM     27  H   UNL     1     -14.687   6.920   5.900  1.00  0.00     0.293 HD
ENDBRANCH   6  26
BRANCH   8  28
ATOM     28  O   UNL     1     -11.035   3.423   7.337  1.00  0.00    -0.508 OA
ATOM     29  H   UNL     1     -10.340   2.870   6.848  1.00  0.00     0.293 HD
ENDBRANCH   8  28
TORSDOF 7
ENDMDL
MODEL 4
REMARK VINA RESULT:    -4.878      3.867      5.503
REMARK INTER + INTRA:          -6.295
REMARK INTER:                  -5.909
REMARK INTRA:                  -0.386
REMARK UNBOUND:                -0.276
REMARK SMILES O=C1c2c(O)cc(O)cc2O[C@H](c2cc(O)c(O)c(O)c2)[C@@H]1O
REMARK SMILES IDX 12 1 22 2 2 3 1 4 3 5 4 6 6 7 7 8 9 9 10 10 11 11 13 12
REMARK SMILES IDX 14 13 15 14 21 15 17 16 19 17 16 18 18 20 20 22 23 24 5 26
REMARK SMILES IDX 8 28
REMARK H PARENT 16 19 18 21 20 23 23 25 5 27 8 29
REMARK Flexibility Score: inf
ROOT
ATOM      1  C   UNL     1     -10.177  11.406   6.211  1.00  0.00     0.240 C 
ATOM      2  C   UNL     1     -10.895  10.217   6.885  1.00  0.00     0.231 C 
ATOM      3  C   UNL     1     -12.361  10.269   6.546  1.00  0.00     0.202 C 
ATOM      4  O   UNL     1     -13.210  10.077   7.457  1.00  0.00    -0.291 OA
ATOM      5  C   UNL     1     -12.770  10.608   5.158  1.00  0.00     0.105 A 
ATOM      6  C   UNL     1     -14.058  10.341   4.621  1.00  0.00     0.133 A 
ATOM      7  C   UNL     1     -14.364  10.763   3.322  1.00  0.00     0.093 A 
ATOM      8  C   UNL     1     -13.399  11.389   2.526  1.00  0.00     0.123 A 
ATOM      9  C   UNL     1     -12.119  11.607   3.032  1.00  0.00     0.093 A 
ATOM     10  C   UNL     1     -11.803  11.234   4.341  1.00  0.00     0.138 A 
ATOM     11  O   UNL     1     -10.510  11.480   4.821  1.00  0.00    -0.481 OA
ENDROOT
BRANCH   1  12
ATOM     12  C   UNL     1      -8.679  11.331   6.399  1.00  0.00     0.003 A 
ATOM     13  C   UNL     1      -8.109  11.333   7.683  1.00  0.00     0.058 A 
ATOM     14  C   UNL     1      -6.717  11.300   7.846  1.00  0.00     0.161 A 
ATOM     15  C   UNL     1      -7.835  11.324   5.277  1.00  0.00     0.058 A 
ATOM     16  C   UNL     1      -5.882  11.277   6.716  1.00  0.00     0.200 A 
ATOM     17  C   UNL     1      -6.443  11.291   5.433  1.00  0.00     0.161 A 
BRANCH  14  18
ATOM     18  O   UNL     1      -6.162  11.294   9.124  1.00  0.00    -0.504 OA
ATOM     19  H   UNL     1      -6.075  10.440   9.662  1.00  0.00     0.293 HD
ENDBRANCH  14  18
BRANCH  16  20
ATOM     20  O   UNL     1      -4.493  11.242   6.852  1.00  0.00    -0.502 OA
ATOM     21  H   UNL     1      -3.965  12.035   7.196  1.00  0.00     0.293 HD
ENDBRANCH  16  20
BRANCH  17  22
ATOM     22  O   UNL     1      -5.610  11.275   4.315  1.00  0.00    -0.504 OA
ATOM     23  H   UNL     1      -4.827  10.636   4.246  1.00  0.00     0.293 HD
ENDBRANCH  17  22
ENDBRANCH   1  12
BRANCH   2  24
ATOM     24  O   UNL     1     -10.349   8.981   6.496  1.00  0.00    -0.381 OA
ATOM     25  H   UNL     1     -10.872   8.262   6.936  1.00  0.00     0.211 HD
ENDBRANCH   2  24
BRANCH   6  26
ATOM     26  O   UNL     1     -15.045   9.637   5.315  1.00  0.00    -0.507 OA
ATOM     27  H   UNL     1     -15.421   9.921   6.207  1.00  0.00     0.293 HD
ENDBRANCH   6  26
BRANCH   8  28
ATOM     28  O   UNL     1     -13.702  11.790   1.226  1.00  0.00    -0.508 OA
ATOM     29  H   UNL     1     -14.430  12.470   1.037  1.00  0.00     0.293 HD
ENDBRANCH   8  28
TORSDOF 7
ENDMDL
MODEL 5
REMARK VINA RESULT:    -4.745      3.725      6.792
REMARK INTER + INTRA:          -6.131
REMARK INTER:                  -5.949
REMARK INTRA:                  -0.182
REMARK UNBOUND:                -0.276
REMARK SMILES O=C1c2c(O)cc(O)cc2O[C@H](c2cc(O)c(O)c(O)c2)[C@@H]1O
REMARK SMILES IDX 12 1 22 2 2 3 1 4 3 5 4 6 6 7 7 8 9 9 10 10 11 11 13 12
REMARK SMILES IDX 14 13 15 14 21 15 17 16 19 17 16 18 18 20 20 22 23 24 5 26
REMARK SMILES IDX 8 28
REMARK H PARENT 16 19 18 21 20 23 23 25 5 27 8 29
REMARK Flexibility Score: inf
ROOT
ATOM      1  C   UNL     1     -12.181   7.821   6.746  1.00  0.00     0.240 C 
ATOM      2  C   UNL     1     -12.989   8.222   7.998  1.00  0.00     0.231 C 
ATOM      3  C   UNL     1     -13.418   9.659   7.869  1.00  0.00     0.202 C 
ATOM      4  O   UNL     1     -13.297  10.428   8.860  1.00  0.00    -0.291 OA
ATOM      5  C   UNL     1     -13.916  10.150   6.558  1.00  0.00     0.105 A 
ATOM      6  C   UNL     1     -14.676  11.337   6.389  1.00  0.00     0.133 A 
ATOM      7  C   UNL     1     -15.038  11.748   5.100  1.00  0.00     0.093 A 
ATOM      8  C   UNL     1     -14.712  10.971   3.983  1.00  0.00     0.123 A 
ATOM      9  C   UNL     1     -14.009   9.778   4.150  1.00  0.00     0.093 A 
ATOM     10  C   UNL     1     -13.601   9.370   5.422  1.00  0.00     0.138 A 
ATOM     11  O   UNL     1     -12.885   8.173   5.551  1.00  0.00    -0.481 OA
ENDROOT
BRANCH   1  12
ATOM     12  C   UNL     1     -11.839   6.348   6.751  1.00  0.00     0.003 A 
ATOM     13  C   UNL     1     -11.507   5.685   7.945  1.00  0.00     0.058 A 
ATOM     14  C   UNL     1     -11.158   4.328   7.934  1.00  0.00     0.161 A 
ATOM     15  C   UNL     1     -11.789   5.639   5.539  1.00  0.00     0.058 A 
ATOM     16  C   UNL     1     -11.125   3.624   6.718  1.00  0.00     0.200 A 
ATOM     17  C   UNL     1     -11.439   4.282   5.522  1.00  0.00     0.161 A 
BRANCH  14  18
ATOM     18  O   UNL     1     -10.838   3.678   9.125  1.00  0.00    -0.504 OA
ATOM     19  H   UNL     1     -10.974   4.122  10.026  1.00  0.00     0.293 HD
ENDBRANCH  14  18
BRANCH  16  20
ATOM     20  O   UNL     1     -10.782   2.272   6.681  1.00  0.00    -0.502 OA
ATOM     21  H   UNL     1     -10.011   1.927   6.123  1.00  0.00     0.293 HD
ENDBRANCH  16  20
BRANCH  17  22
ATOM     22  O   UNL     1     -11.399   3.582   4.318  1.00  0.00    -0.504 OA
ATOM     23  H   UNL     1     -12.080   2.864   4.099  1.00  0.00     0.293 HD
ENDBRANCH  17  22
ENDBRANCH   1  12
BRANCH   2  24
ATOM     24  O   UNL     1     -14.109   7.394   8.191  1.00  0.00    -0.381 OA
ATOM     25  H   UNL     1     -13.827   6.621   8.747  1.00  0.00     0.211 HD
ENDBRANCH   2  24
BRANCH   6  26
ATOM     26  O   UNL     1     -15.122  12.117   7.458  1.00  0.00    -0.507 OA
ATOM     27  H   UNL     1     -15.293  11.760   8.387  1.00  0.00     0.293 HD
ENDBRANCH   6  26
BRANCH   8  28
ATOM     28  O   UNL     1     -15.090  11.373   2.704  1.00  0.00    -0.508 OA
ATOM     29  H   UNL     1     -16.010  11.757   2.519  1.00  0.00     0.293 HD
ENDBRANCH   8  28
TORSDOF 7
ENDMDL
MODEL 6
REMARK VINA RESULT:    -4.732      4.315      5.188
REMARK INTER + INTRA:          -6.115
REMARK INTER:                  -6.066
REMARK INTRA:                  -0.049
REMARK UNBOUND:                -0.276
REMARK SMILES O=C1c2c(O)cc(O)cc2O[C@H](c2cc(O)c(O)c(O)c2)[C@@H]1O
REMARK SMILES IDX 12 1 22 2 2 3 1 4 3 5 4 6 6 7 7 8 9 9 10 10 11 11 13 12
REMARK SMILES IDX 14 13 15 14 21 15 17 16 19 17 16 18 18 20 20 22 23 24 5 26
REMARK SMILES IDX 8 28
REMARK H PARENT 16 19 18 21 20 23 23 25 5 27 8 29
REMARK Flexibility Score: inf
ROOT
ATOM      1  C   UNL     1     -14.274   7.289   5.305  1.00  0.00     0.240 C 
ATOM      2  C   UNL     1     -13.940   7.668   6.763  1.00  0.00     0.231 C 
ATOM      3  C   UNL     1     -13.748   6.409   7.568  1.00  0.00     0.202 C 
ATOM      4  O   UNL     1     -14.278   6.322   8.707  1.00  0.00    -0.291 OA
ATOM      5  C   UNL     1     -12.989   5.280   6.971  1.00  0.00     0.105 A 
ATOM      6  C   UNL     1     -12.431   4.212   7.723  1.00  0.00     0.133 A 
ATOM      7  C   UNL     1     -11.792   3.158   7.057  1.00  0.00     0.093 A 
ATOM      8  C   UNL     1     -11.646   3.175   5.666  1.00  0.00     0.123 A 
ATOM      9  C   UNL     1     -12.149   4.247   4.929  1.00  0.00     0.093 A 
ATOM     10  C   UNL     1     -12.826   5.288   5.568  1.00  0.00     0.138 A 
ATOM     11  O   UNL     1     -13.330   6.342   4.795  1.00  0.00    -0.481 OA
ENDROOT
BRANCH   1  12
ATOM     12  C   UNL     1     -14.342   8.509   4.413  1.00  0.00     0.003 A 
ATOM     13  C   UNL     1     -13.975   8.437   3.059  1.00  0.00     0.058 A 
ATOM     14  C   UNL     1     -14.006   9.581   2.250  1.00  0.00     0.161 A 
ATOM     15  C   UNL     1     -14.713   9.750   4.956  1.00  0.00     0.058 A 
ATOM     16  C   UNL     1     -14.395  10.815   2.798  1.00  0.00     0.200 A 
ATOM     17  C   UNL     1     -14.746  10.897   4.152  1.00  0.00     0.161 A 
BRANCH  14  18
ATOM     18  O   UNL     1     -13.649   9.497   0.905  1.00  0.00    -0.504 OA
ATOM     19  H   UNL     1     -13.473  10.325   0.349  1.00  0.00     0.293 HD
ENDBRANCH  14  18
BRANCH  16  20
ATOM     20  O   UNL     1     -14.437  11.967   2.013  1.00  0.00    -0.502 OA
ATOM     21  H   UNL     1     -14.831  11.970   1.079  1.00  0.00     0.293 HD
ENDBRANCH  16  20
BRANCH  17  22
ATOM     22  O   UNL     1     -15.125  12.124   4.693  1.00  0.00    -0.504 OA
ATOM     23  H   UNL     1     -15.652  12.802   4.155  1.00  0.00     0.293 HD
ENDBRANCH  17  22
ENDBRANCH   1  12
BRANCH   2  24
ATOM     24  O   UNL     1     -12.795   8.481   6.849  1.00  0.00    -0.381 OA
ATOM     25  H   UNL     1     -12.096   7.975   7.339  1.00  0.00     0.211 HD
ENDBRANCH   2  24
BRANCH   6  26
ATOM     26  O   UNL     1     -12.450   4.168   9.119  1.00  0.00    -0.507 OA
ATOM     27  H   UNL     1     -12.291   4.969   9.713  1.00  0.00     0.293 HD
ENDBRANCH   6  26
BRANCH   8  28
ATOM     28  O   UNL     1     -10.994   2.135   5.008  1.00  0.00    -0.508 OA
ATOM     29  H   UNL     1     -10.741   2.202   4.029  1.00  0.00     0.293 HD
ENDBRANCH   8  28
TORSDOF 7
ENDMDL
MODEL 7
REMARK VINA RESULT:    -4.227      3.355      5.123
REMARK INTER + INTRA:          -5.491
REMARK INTER:                  -5.125
REMARK INTRA:                  -0.366
REMARK UNBOUND:                -0.276
REMARK SMILES O=C1c2c(O)cc(O)cc2O[C@H](c2cc(O)c(O)c(O)c2)[C@@H]1O
REMARK SMILES IDX 12 1 22 2 2 3 1 4 3 5 4 6 6 7 7 8 9 9 10 10 11 11 13 12
REMARK SMILES IDX 14 13 15 14 21 15 17 16 19 17 16 18 18 20 20 22 23 24 5 26
REMARK SMILES IDX 8 28
REMARK H PARENT 16 19 18 21 20 23 23 25 5 27 8 29
REMARK Flexibility Score: inf
ROOT
ATOM      1  C   UNL     1     -10.018  10.927   6.413  1.00  0.00     0.240 C 
ATOM      2  C   UNL     1     -10.431   9.467   6.694  1.00  0.00     0.231 C 
ATOM      3  C   UNL     1     -11.908   9.316   6.443  1.00  0.00     0.202 C 
ATOM      4  O   UNL     1     -12.611   8.681   7.273  1.00  0.00    -0.291 OA
ATOM      5  C   UNL     1     -12.510   9.972   5.253  1.00  0.00     0.105 A 
ATOM      6  C   UNL     1     -13.772   9.622   4.705  1.00  0.00     0.133 A 
ATOM      7  C   UNL     1     -14.280  10.350   3.622  1.00  0.00     0.093 A 
ATOM      8  C   UNL     1     -13.533  11.377   3.035  1.00  0.00     0.123 A 
ATOM      9  C   UNL     1     -12.271  11.690   3.539  1.00  0.00     0.093 A 
ATOM     10  C   UNL     1     -11.762  11.006   4.646  1.00  0.00     0.138 A 
ATOM     11  O   UNL     1     -10.495  11.355   5.133  1.00  0.00    -0.481 OA
ENDROOT
BRANCH   1  12
ATOM     12  C   UNL     1      -8.520  11.112   6.512  1.00  0.00     0.003 A 
ATOM     13  C   UNL     1      -7.734  11.288   5.360  1.00  0.00     0.058 A 
ATOM     14  C   UNL     1      -6.343  11.422   5.460  1.00  0.00     0.161 A 
ATOM     15  C   UNL     1      -7.890  11.041   7.765  1.00  0.00     0.058 A 
ATOM     16  C   UNL     1      -5.724  11.367   6.721  1.00  0.00     0.200 A 
ATOM     17  C   UNL     1      -6.499  11.174   7.871  1.00  0.00     0.161 A 
BRANCH  14  18
ATOM     18  O   UNL     1      -5.573  11.606   4.312  1.00  0.00    -0.504 OA
ATOM     19  H   UNL     1      -5.960  11.468   3.386  1.00  0.00     0.293 HD
ENDBRANCH  14  18
BRANCH  16  20
ATOM     20  O   UNL     1      -4.340  11.499   6.846  1.00  0.00    -0.502 OA
ATOM     21  H   UNL     1      -3.700  11.179   6.129  1.00  0.00     0.293 HD
ENDBRANCH  16  20
BRANCH  17  22
ATOM     22  O   UNL     1      -5.880  11.113   9.118  1.00  0.00    -0.504 OA
ATOM     23  H   UNL     1      -5.365  11.900   9.494  1.00  0.00     0.293 HD
ENDBRANCH  17  22
ENDBRANCH   1  12
BRANCH   2  24
ATOM     24  O   UNL     1      -9.707   8.553   5.908  1.00  0.00    -0.381 OA
ATOM     25  H   UNL     1      -8.949   8.214   6.452  1.00  0.00     0.211 HD
ENDBRANCH   2  24
BRANCH   6  26
ATOM     26  O   UNL     1     -14.537   8.550   5.170  1.00  0.00    -0.507 OA
ATOM     27  H   UNL     1     -14.772   7.740   4.616  1.00  0.00     0.293 HD
ENDBRANCH   6  26
BRANCH   8  28
ATOM     28  O   UNL     1     -14.033  12.087   1.946  1.00  0.00    -0.508 OA
ATOM     29  H   UNL     1     -13.688  11.928   1.006  1.00  0.00     0.293 HD
ENDBRANCH   8  28
TORSDOF 7
ENDMDL
