MODEL 1
REMARK VINA RESULT:    -4.949      0.000      0.000
REMARK INTER + INTRA:          -5.094
REMARK INTER:                  -5.094
REMARK INTRA:                   0.000
REMARK UNBOUND:                 0.000
REMARK SMILES Nc1ncnc2nc[nH]c12
REMARK SMILES IDX 8 1 7 2 6 3 5 4 4 5 3 6 2 7 10 8 9 9 1 11
REMARK H PARENT 9 10 1 12 1 13
REMARK Flexibility Score: inf
ROOT
ATOM      1  C   UNL     1      -9.192   5.440  21.125  1.00  0.00     0.199 A 
ATOM      2  N   UNL     1     -10.491   5.054  21.006  1.00  0.00    -0.217 NA
ATOM      3  C   UNL     1     -10.454   4.253  19.928  1.00  0.00     0.182 A 
ATOM      4  N   UNL     1     -11.500   3.597  19.372  1.00  0.00    -0.215 NA
ATOM      5  C   UNL     1     -11.263   2.823  18.270  1.00  0.00     0.226 A 
ATOM      6  N   UNL     1      -9.999   2.719  17.750  1.00  0.00    -0.217 NA
ATOM      7  C   UNL     1      -8.942   3.381  18.309  1.00  0.00     0.152 A 
ATOM      8  C   UNL     1      -9.199   4.165  19.431  1.00  0.00     0.127 A 
ATOM      9  N   UNL     1      -8.376   4.913  20.176  1.00  0.00    -0.340 N 
ATOM     10  H   UNL     1      -7.349   5.064  20.066  1.00  0.00     0.168 HD
ENDROOT
BRANCH   7  11
ATOM     11  N   UNL     1      -7.633   3.258  17.750  1.00  0.00    -0.382 N 
ATOM     12  H   UNL     1      -6.796   3.263  18.373  1.00  0.00     0.158 HD
ATOM     13  H   UNL     1      -7.489   3.162  16.720  1.00  0.00     0.158 HD
ENDBRANCH   7  11
TORSDOF 1
ENDMDL
MODEL 2
REMARK VINA RESULT:    -4.699      1.002      3.023
REMARK INTER + INTRA:          -4.837
REMARK INTER:                  -4.837
REMARK INTRA:                   0.000
REMARK UNBOUND:                 0.000
REMARK SMILES Nc1ncnc2nc[nH]c12
REMARK SMILES IDX 8 1 7 2 6 3 5 4 4 5 3 6 2 7 10 8 9 9 1 11
REMARK H PARENT 9 10 1 12 1 13
REMARK Flexibility Score: inf
ROOT
ATOM      1  C   UNL     1      -8.990   2.875  18.125  1.00  0.00     0.199 A 
ATOM      2  N   UNL     1     -10.308   2.732  18.430  1.00  0.00    -0.217 NA
ATOM      3  C   UNL     1     -10.497   3.700  19.342  1.00  0.00     0.182 A 
ATOM      4  N   UNL     1     -11.655   3.996  19.979  1.00  0.00    -0.215 NA
ATOM      5  C   UNL     1     -11.650   5.024  20.880  1.00  0.00     0.226 A 
ATOM      6  N   UNL     1     -10.501   5.731  21.125  1.00  0.00    -0.217 NA
ATOM      7  C   UNL     1      -9.332   5.434  20.483  1.00  0.00     0.152 A 
ATOM      8  C   UNL     1      -9.352   4.384  19.569  1.00  0.00     0.127 A 
ATOM      9  N   UNL     1      -8.377   3.877  18.805  1.00  0.00    -0.340 N 
ATOM     10  H   UNL     1      -7.378   4.172  18.738  1.00  0.00     0.168 HD
ENDROOT
BRANCH   7  11
ATOM     11  N   UNL     1      -8.147   6.184  20.755  1.00  0.00    -0.382 N 
ATOM     12  H   UNL     1      -7.209   5.755  20.595  1.00  0.00     0.158 HD
ATOM     13  H   UNL     1      -8.194   7.164  21.112  1.00  0.00     0.158 HD
ENDBRANCH   7  11
TORSDOF 1
ENDMDL
MODEL 3
REMARK VINA RESULT:    -4.637      1.315      2.918
REMARK INTER + INTRA:          -4.772
REMARK INTER:                  -4.772
REMARK INTRA:                   0.000
REMARK UNBOUND:                 0.000
REMARK SMILES Nc1ncnc2nc[nH]c12
REMARK SMILES IDX 8 1 7 2 6 3 5 4 4 5 3 6 2 7 10 8 9 9 1 11
REMARK H PARENT 9 10 1 12 1 13
REMARK Flexibility Score: inf
ROOT
ATOM      1  C   UNL     1     -11.537   1.799  18.126  1.00  0.00     0.199 A 
ATOM      2  N   UNL     1     -12.125   2.894  18.680  1.00  0.00    -0.217 NA
ATOM      3  C   UNL     1     -11.101   3.760  18.758  1.00  0.00     0.182 A 
ATOM      4  N   UNL     1     -11.145   5.023  19.244  1.00  0.00    -0.215 NA
ATOM      5  C   UNL     1      -9.991   5.757  19.239  1.00  0.00     0.226 A 
ATOM      6  N   UNL     1      -8.826   5.220  18.754  1.00  0.00    -0.217 NA
ATOM      7  C   UNL     1      -8.779   3.945  18.264  1.00  0.00     0.152 A 
ATOM      8  C   UNL     1      -9.962   3.211  18.276  1.00  0.00     0.127 A 
ATOM      9  N   UNL     1     -10.214   1.961  17.867  1.00  0.00    -0.340 N 
ATOM     10  H   UNL     1      -9.559   1.266  17.447  1.00  0.00     0.168 HD
ENDROOT
BRANCH   7  11
ATOM     11  N   UNL     1      -7.554   3.407  17.765  1.00  0.00    -0.382 N 
ATOM     12  H   UNL     1      -7.434   3.243  16.741  1.00  0.00     0.158 HD
ATOM     13  H   UNL     1      -6.763   3.170  18.404  1.00  0.00     0.158 HD
ENDBRANCH   7  11
TORSDOF 1
ENDMDL
MODEL 4
REMARK VINA RESULT:    -3.985      1.798      3.633
REMARK INTER + INTRA:          -4.101
REMARK INTER:                  -4.101
REMARK INTRA:                   0.000
REMARK UNBOUND:                 0.000
REMARK SMILES Nc1ncnc2nc[nH]c12
REMARK SMILES IDX 8 1 7 2 6 3 5 4 4 5 3 6 2 7 10 8 9 9 1 11
REMARK H PARENT 9 10 1 12 1 13
REMARK Flexibility Score: inf
ROOT
ATOM      1  C   UNL     1     -10.849   2.846  18.540  1.00  0.00     0.199 A 
ATOM      2  N   UNL     1     -10.015   2.869  19.616  1.00  0.00    -0.217 NA
ATOM      3  C   UNL     1      -9.848   4.186  19.819  1.00  0.00     0.182 A 
ATOM      4  N   UNL     1      -9.095   4.766  20.785  1.00  0.00    -0.215 NA
ATOM      5  C   UNL     1      -9.048   6.132  20.833  1.00  0.00     0.226 A 
ATOM      6  N   UNL     1      -9.746   6.885  19.924  1.00  0.00    -0.217 NA
ATOM      7  C   UNL     1     -10.505   6.302  18.949  1.00  0.00     0.152 A 
ATOM      8  C   UNL     1     -10.543   4.911  18.913  1.00  0.00     0.127 A 
ATOM      9  N   UNL     1     -11.190   4.079  18.086  1.00  0.00    -0.340 N 
ATOM     10  H   UNL     1     -11.812   4.310  17.282  1.00  0.00     0.168 HD
ENDROOT
BRANCH   7  11
ATOM     11  N   UNL     1     -11.224   7.108  18.013  1.00  0.00    -0.382 N 
ATOM     12  H   UNL     1     -11.893   6.663  17.347  1.00  0.00     0.158 HD
ATOM     13  H   UNL     1     -11.097   8.144  17.978  1.00  0.00     0.158 HD
ENDBRANCH   7  11
TORSDOF 1
ENDMDL
MODEL 5
REMARK VINA RESULT:    -3.793      1.914      2.459
REMARK INTER + INTRA:          -3.904
REMARK INTER:                  -3.904
REMARK INTRA:                   0.000
REMARK UNBOUND:                 0.000
REMARK SMILES Nc1ncnc2nc[nH]c12
REMARK SMILES IDX 8 1 7 2 6 3 5 4 4 5 3 6 2 7 10 8 9 9 1 11
REMARK H PARENT 9 10 1 12 1 13
REMARK Flexibility Score: inf
ROOT
ATOM      1  C   UNL     1     -11.306   7.453  19.226  1.00  0.00     0.199 A 
ATOM      2  N   UNL     1     -12.098   6.490  18.680  1.00  0.00    -0.217 NA
ATOM      3  C   UNL     1     -11.438   5.364  18.999  1.00  0.00     0.182 A 
ATOM      4  N   UNL     1     -11.804   4.097  18.688  1.00  0.00    -0.215 NA
ATOM      5  C   UNL     1     -10.998   3.073  19.103  1.00  0.00     0.226 A 
ATOM      6  N   UNL     1      -9.853   3.331  19.813  1.00  0.00    -0.217 NA
ATOM      7  C   UNL     1      -9.482   4.608  20.127  1.00  0.00     0.152 A 
ATOM      8  C   UNL     1     -10.313   5.640  19.698  1.00  0.00     0.127 A 
ATOM      9  N   UNL     1     -10.206   6.965  19.856  1.00  0.00    -0.340 N 
ATOM     10  H   UNL     1      -9.461   7.508  20.344  1.00  0.00     0.168 HD
ENDROOT
BRANCH   7  11
ATOM     11  N   UNL     1      -8.285   4.852  20.867  1.00  0.00    -0.382 N 
ATOM     12  H   UNL     1      -7.896   4.110  21.489  1.00  0.00     0.158 HD
ATOM     13  H   UNL     1      -7.782   5.765  20.801  1.00  0.00     0.158 HD
ENDBRANCH   7  11
TORSDOF 1
ENDMDL
MODEL 6
REMARK VINA RESULT:    -3.739     18.434     18.771
REMARK INTER + INTRA:          -3.848
REMARK INTER:                  -3.848
REMARK INTRA:                   0.000
REMARK UNBOUND:                 0.000
REMARK SMILES Nc1ncnc2nc[nH]c12
REMARK SMILES IDX 8 1 7 2 6 3 5 4 4 5 3 6 2 7 10 8 9 9 1 11
REMARK H PARENT 9 10 1 12 1 13
REMARK Flexibility Score: inf
ROOT
ATOM      1  C   UNL     1      -7.077  -0.349   0.920  1.00  0.00     0.199 A 
ATOM      2  N   UNL     1      -8.355  -0.813   0.875  1.00  0.00    -0.217 NA
ATOM      3  C   UNL     1      -9.072   0.323   0.901  1.00  0.00     0.182 A 
ATOM      4  N   UNL     1     -10.422   0.428   0.875  1.00  0.00    -0.215 NA
ATOM      5  C   UNL     1     -10.972   1.680   0.907  1.00  0.00     0.226 A 
ATOM      6  N   UNL     1     -10.172   2.791   0.964  1.00  0.00    -0.217 NA
ATOM      7  C   UNL     1      -8.809   2.687   0.990  1.00  0.00     0.152 A 
ATOM      8  C   UNL     1      -8.264   1.407   0.957  1.00  0.00     0.127 A 
ATOM      9  N   UNL     1      -6.987   1.004   0.970  1.00  0.00    -0.340 N 
ATOM     10  H   UNL     1      -6.120   1.583   1.009  1.00  0.00     0.168 HD
ENDROOT
BRANCH   7  11
ATOM     11  N   UNL     1      -7.995   3.860   1.050  1.00  0.00    -0.382 N 
ATOM     12  H   UNL     1      -7.920   4.399   1.940  1.00  0.00     0.158 HD
ATOM     13  H   UNL     1      -7.466   4.197   0.215  1.00  0.00     0.158 HD
ENDBRANCH   7  11
TORSDOF 1
ENDMDL
MODEL 7
REMARK VINA RESULT:    -3.708      2.638      3.720
REMARK INTER + INTRA:          -3.816
REMARK INTER:                  -3.816
REMARK INTRA:                   0.000
REMARK UNBOUND:                 0.000
REMARK SMILES Nc1ncnc2nc[nH]c12
REMARK SMILES IDX 8 1 7 2 6 3 5 4 4 5 3 6 2 7 10 8 9 9 1 11
REMARK H PARENT 9 10 1 12 1 13
REMARK Flexibility Score: inf
ROOT
ATOM      1  C   UNL     1      -8.414   8.933  20.375  1.00  0.00     0.199 A 
ATOM      2  N   UNL     1      -9.748   9.117  20.574  1.00  0.00    -0.217 NA
ATOM      3  C   UNL     1     -10.187   7.859  20.743  1.00  0.00     0.182 A 
ATOM      4  N   UNL     1     -11.465   7.474  20.978  1.00  0.00    -0.215 NA
ATOM      5  C   UNL     1     -11.718   6.138  21.125  1.00  0.00     0.226 A 
ATOM      6  N   UNL     1     -10.702   5.222  21.035  1.00  0.00    -0.217 NA
ATOM      7  C   UNL     1      -9.413   5.609  20.798  1.00  0.00     0.152 A 
ATOM      8  C   UNL     1      -9.170   6.972  20.651  1.00  0.00     0.127 A 
ATOM      9  N   UNL     1      -8.029   7.632  20.416  1.00  0.00    -0.340 N 
ATOM     10  H   UNL     1      -7.067   7.250  20.293  1.00  0.00     0.168 HD
ENDROOT
BRANCH   7  11
ATOM     11  N   UNL     1      -8.371   4.636  20.709  1.00  0.00    -0.382 N 
ATOM     12  H   UNL     1      -8.160   4.178  19.795  1.00  0.00     0.158 HD
ATOM     13  H   UNL     1      -7.805   4.367  21.545  1.00  0.00     0.158 HD
ENDBRANCH   7  11
TORSDOF 1
ENDMDL
MODEL 8
REMARK VINA RESULT:    -3.556     18.487     18.647
REMARK INTER + INTRA:          -3.660
REMARK INTER:                  -3.660
REMARK INTRA:                   0.000
REMARK UNBOUND:                 0.000
REMARK SMILES Nc1ncnc2nc[nH]c12
REMARK SMILES IDX 8 1 7 2 6 3 5 4 4 5 3 6 2 7 10 8 9 9 1 11
REMARK H PARENT 9 10 1 12 1 13
REMARK Flexibility Score: inf
ROOT
ATOM      1  C   UNL     1      -9.238   3.892   0.911  1.00  0.00     0.199 A 
ATOM      2  N   UNL     1     -10.398   3.181   0.905  1.00  0.00    -0.217 NA
ATOM      3  C   UNL     1      -9.956   1.913   0.894  1.00  0.00     0.182 A 
ATOM      4  N   UNL     1     -10.716   0.792   0.884  1.00  0.00    -0.215 NA
ATOM      5  C   UNL     1     -10.079  -0.419   0.875  1.00  0.00     0.226 A 
ATOM      6  N   UNL     1      -8.709  -0.485   0.876  1.00  0.00    -0.217 NA
ATOM      7  C   UNL     1      -7.941   0.645   0.886  1.00  0.00     0.152 A 
ATOM      8  C   UNL     1      -8.604   1.869   0.895  1.00  0.00     0.127 A 
ATOM      9  N   UNL     1      -8.123   3.119   0.906  1.00  0.00    -0.340 N 
ATOM     10  H   UNL     1      -7.129   3.437   0.909  1.00  0.00     0.168 HD
ENDROOT
BRANCH   7  11
ATOM     11  N   UNL     1      -6.516   0.551   0.886  1.00  0.00    -0.382 N 
ATOM     12  H   UNL     1      -5.970   0.872   0.056  1.00  0.00     0.158 HD
ATOM     13  H   UNL     1      -5.996   0.165   1.706  1.00  0.00     0.158 HD
ENDBRANCH   7  11
TORSDOF 1
ENDMDL
