MODEL 1
REMARK VINA RESULT:    -4.409      0.000      0.000
REMARK INTER + INTRA:          -9.947
REMARK INTER:                  -8.018
REMARK INTRA:                  -1.929
REMARK UNBOUND:                -1.929
REMARK SMILES CCCCCCCCCCCCCC[C@@H](C)C(=O)[O-]
REMARK SMILES IDX 9 1 10 2 11 3 12 4 13 5 14 6 15 7 16 8 17 9 18 10 19 11 8 12
REMARK SMILES IDX 7 13 6 14 5 15 4 16 3 17 2 18 1 19
REMARK H PARENT
REMARK Flexibility Score: inf
ROOT
ATOM      1  C   UNL     1      -4.752  35.958  22.332  1.00  0.00     0.000 C 
ENDROOT
BRANCH   1   2
ATOM      2  C   UNL     1      -5.770  36.719  21.473  1.00  0.00     0.000 C 
BRANCH   2   3
ATOM      3  C   UNL     1      -6.024  35.998  20.142  1.00  0.00     0.000 C 
BRANCH   3   4
ATOM      4  C   UNL     1      -4.809  36.100  19.193  1.00  0.00     0.000 C 
BRANCH   4   5
ATOM      5  C   UNL     1      -4.257  37.531  19.059  1.00  0.00     0.001 C 
BRANCH   5   6
ATOM      6  C   UNL     1      -2.756  37.662  19.406  1.00  0.00     0.009 C 
BRANCH   6   7
ATOM      7  C   UNL     1      -1.877  38.352  18.335  1.00  0.00     0.032 C 
ATOM      8  C   UNL     1      -0.392  38.410  18.733  1.00  0.00     0.014 C 
BRANCH   7   9
ATOM      9  C   UNL     1      -2.074  37.759  16.966  1.00  0.00     0.044 C 
ATOM     10  O   UNL     1      -1.640  36.609  16.689  1.00  0.00    -0.550 OA
ATOM     11  O   UNL     1      -2.793  38.465  16.009  1.00  0.00    -0.550 OA
ENDBRANCH   7   9
ENDBRANCH   6   7
ENDBRANCH   5   6
ENDBRANCH   4   5
ENDBRANCH   3   4
ENDBRANCH   2   3
ENDBRANCH   1   2
BRANCH   1  12
ATOM     12  C   UNL     1      -5.456  35.152  23.433  1.00  0.00     0.000 C 
BRANCH  12  13
ATOM     13  C   UNL     1      -6.059  36.042  24.532  1.00  0.00    -0.000 C 
BRANCH  13  14
ATOM     14  C   UNL     1      -5.025  37.002  25.145  1.00  0.00    -0.000 C 
BRANCH  14  15
ATOM     15  C   UNL     1      -5.630  38.372  25.497  1.00  0.00    -0.000 C 
BRANCH  15  16
ATOM     16  C   UNL     1      -5.629  39.343  24.308  1.00  0.00    -0.000 C 
BRANCH  16  17
ATOM     17  C   UNL     1      -4.208  39.557  23.774  1.00  0.00    -0.000 C 
BRANCH  17  18
ATOM     18  C   UNL     1      -4.211  39.725  22.250  1.00  0.00    -0.003 C 
ATOM     19  C   UNL     1      -5.525  40.332  21.765  1.00  0.00     0.004 C 
ENDBRANCH  17  18
ENDBRANCH  16  17
ENDBRANCH  15  16
ENDBRANCH  14  15
ENDBRANCH  13  14
ENDBRANCH  12  13
ENDBRANCH   1  12
TORSDOF 14
ENDMDL
MODEL 2
REMARK VINA RESULT:    -4.206      3.685      7.221
REMARK INTER + INTRA:          -9.577
REMARK INTER:                  -8.362
REMARK INTRA:                  -1.215
REMARK UNBOUND:                -1.929
REMARK SMILES CCCCCCCCCCCCCC[C@@H](C)C(=O)[O-]
REMARK SMILES IDX 9 1 10 2 11 3 12 4 13 5 14 6 15 7 16 8 17 9 18 10 19 11 8 12
REMARK SMILES IDX 7 13 6 14 5 15 4 16 3 17 2 18 1 19
REMARK H PARENT
REMARK Flexibility Score: inf
ROOT
ATOM      1  C   UNL     1      -4.838  38.098  20.577  1.00  0.00     0.000 C 
ENDROOT
BRANCH   1   2
ATOM      2  C   UNL     1      -4.760  36.587  20.829  1.00  0.00     0.000 C 
BRANCH   2   3
ATOM      3  C   UNL     1      -6.030  36.072  21.520  1.00  0.00     0.000 C 
BRANCH   3   4
ATOM      4  C   UNL     1      -5.706  35.329  22.837  1.00  0.00     0.000 C 
BRANCH   4   5
ATOM      5  C   UNL     1      -6.113  36.115  24.096  1.00  0.00     0.001 C 
BRANCH   5   6
ATOM      6  C   UNL     1      -6.106  37.651  23.911  1.00  0.00     0.009 C 
BRANCH   6   7
ATOM      7  C   UNL     1      -4.800  38.371  24.323  1.00  0.00     0.032 C 
ATOM      8  C   UNL     1      -4.642  39.745  23.649  1.00  0.00     0.014 C 
BRANCH   7   9
ATOM      9  C   UNL     1      -4.638  38.451  25.817  1.00  0.00     0.044 C 
ATOM     10  O   UNL     1      -3.505  38.324  26.355  1.00  0.00    -0.550 OA
ATOM     11  O   UNL     1      -5.743  38.725  26.613  1.00  0.00    -0.550 OA
ENDBRANCH   7   9
ENDBRANCH   6   7
ENDBRANCH   5   6
ENDBRANCH   4   5
ENDBRANCH   3   4
ENDBRANCH   2   3
ENDBRANCH   1   2
BRANCH   1  12
ATOM     12  C   UNL     1      -4.347  38.445  19.164  1.00  0.00     0.000 C 
BRANCH  12  13
ATOM     13  C   UNL     1      -3.283  37.465  18.644  1.00  0.00    -0.000 C 
BRANCH  13  14
ATOM     14  C   UNL     1      -1.881  38.096  18.585  1.00  0.00    -0.000 C 
BRANCH  14  15
ATOM     15  C   UNL     1      -1.043  37.562  17.411  1.00  0.00    -0.000 C 
BRANCH  15  16
ATOM     16  C   UNL     1      -1.845  36.635  16.486  1.00  0.00    -0.000 C 
BRANCH  16  17
ATOM     17  C   UNL     1      -2.000  37.252  15.091  1.00  0.00    -0.000 C 
BRANCH  17  18
ATOM     18  C   UNL     1      -3.079  38.341  15.087  1.00  0.00    -0.003 C 
ATOM     19  C   UNL     1      -4.013  38.188  13.889  1.00  0.00     0.004 C 
ENDBRANCH  17  18
ENDBRANCH  16  17
ENDBRANCH  15  16
ENDBRANCH  14  15
ENDBRANCH  13  14
ENDBRANCH  12  13
ENDBRANCH   1  12
TORSDOF 14
ENDMDL
MODEL 3
REMARK VINA RESULT:    -4.020      3.117      6.855
REMARK INTER + INTRA:          -9.240
REMARK INTER:                  -7.962
REMARK INTRA:                  -1.278
REMARK UNBOUND:                -1.929
REMARK SMILES CCCCCCCCCCCCCC[C@@H](C)C(=O)[O-]
REMARK SMILES IDX 9 1 10 2 11 3 12 4 13 5 14 6 15 7 16 8 17 9 18 10 19 11 8 12
REMARK SMILES IDX 7 13 6 14 5 15 4 16 3 17 2 18 1 19
REMARK H PARENT
REMARK Flexibility Score: inf
ROOT
ATOM      1  C   UNL     1      -5.553  37.040  20.379  1.00  0.00     0.000 C 
ENDROOT
BRANCH   1   2
ATOM      2  C   UNL     1      -5.282  38.546  20.469  1.00  0.00     0.000 C 
BRANCH   2   3
ATOM      3  C   UNL     1      -3.873  38.826  21.012  1.00  0.00     0.000 C 
BRANCH   3   4
ATOM      4  C   UNL     1      -3.911  39.722  22.271  1.00  0.00     0.000 C 
BRANCH   4   5
ATOM      5  C   UNL     1      -5.338  40.044  22.749  1.00  0.00     0.001 C 
BRANCH   5   6
ATOM      6  C   UNL     1      -5.936  38.988  23.707  1.00  0.00     0.009 C 
BRANCH   6   7
ATOM      7  C   UNL     1      -4.914  38.053  24.398  1.00  0.00     0.032 C 
ATOM      8  C   UNL     1      -4.680  38.418  25.874  1.00  0.00     0.014 C 
BRANCH   7   9
ATOM      9  C   UNL     1      -5.260  36.599  24.221  1.00  0.00     0.044 C 
ATOM     10  O   UNL     1      -4.736  35.915  23.301  1.00  0.00    -0.550 OA
ATOM     11  O   UNL     1      -6.125  35.985  25.118  1.00  0.00    -0.550 OA
ENDBRANCH   7   9
ENDBRANCH   6   7
ENDBRANCH   5   6
ENDBRANCH   4   5
ENDBRANCH   3   4
ENDBRANCH   2   3
ENDBRANCH   1   2
BRANCH   1  12
ATOM     12  C   UNL     1      -4.314  36.288  19.872  1.00  0.00     0.000 C 
BRANCH  12  13
ATOM     13  C   UNL     1      -4.631  35.332  18.710  1.00  0.00    -0.000 C 
BRANCH  13  14
ATOM     14  C   UNL     1      -3.880  35.706  17.420  1.00  0.00    -0.000 C 
BRANCH  14  15
ATOM     15  C   UNL     1      -3.121  37.037  17.545  1.00  0.00    -0.000 C 
BRANCH  15  16
ATOM     16  C   UNL     1      -1.702  36.967  16.962  1.00  0.00    -0.000 C 
BRANCH  16  17
ATOM     17  C   UNL     1      -1.660  37.554  15.546  1.00  0.00    -0.000 C 
BRANCH  17  18
ATOM     18  C   UNL     1      -2.915  38.385  15.257  1.00  0.00    -0.003 C 
ATOM     19  C   UNL     1      -3.658  37.855  14.034  1.00  0.00     0.004 C 
ENDBRANCH  17  18
ENDBRANCH  16  17
ENDBRANCH  15  16
ENDBRANCH  14  15
ENDBRANCH  13  14
ENDBRANCH  12  13
ENDBRANCH   1  12
TORSDOF 14
ENDMDL
MODEL 4
REMARK VINA RESULT:    -4.004      2.942      6.954
REMARK INTER + INTRA:          -9.211
REMARK INTER:                  -8.186
REMARK INTRA:                  -1.025
REMARK UNBOUND:                -1.929
REMARK SMILES CCCCCCCCCCCCCC[C@@H](C)C(=O)[O-]
REMARK SMILES IDX 9 1 10 2 11 3 12 4 13 5 14 6 15 7 16 8 17 9 18 10 19 11 8 12
REMARK SMILES IDX 7 13 6 14 5 15 4 16 3 17 2 18 1 19
REMARK H PARENT
REMARK Flexibility Score: inf
ROOT
ATOM      1  C   UNL     1      -5.310  37.892  20.238  1.00  0.00     0.000 C 
ENDROOT
BRANCH   1   2
ATOM      2  C   UNL     1      -5.376  36.371  20.415  1.00  0.00     0.000 C 
BRANCH   2   3
ATOM      3  C   UNL     1      -4.859  35.949  21.797  1.00  0.00     0.000 C 
BRANCH   3   4
ATOM      4  C   UNL     1      -5.982  35.341  22.670  1.00  0.00     0.000 C 
BRANCH   4   5
ATOM      5  C   UNL     1      -6.016  35.907  24.101  1.00  0.00     0.001 C 
BRANCH   5   6
ATOM      6  C   UNL     1      -4.953  36.996  24.374  1.00  0.00     0.009 C 
BRANCH   6   7
ATOM      7  C   UNL     1      -5.501  38.417  24.648  1.00  0.00     0.032 C 
ATOM      8  C   UNL     1      -5.245  38.884  26.091  1.00  0.00     0.014 C 
BRANCH   7   9
ATOM      9  C   UNL     1      -5.021  39.420  23.633  1.00  0.00     0.044 C 
ATOM     10  O   UNL     1      -5.833  40.013  22.872  1.00  0.00    -0.550 OA
ATOM     11  O   UNL     1      -3.671  39.741  23.571  1.00  0.00    -0.550 OA
ENDBRANCH   7   9
ENDBRANCH   6   7
ENDBRANCH   5   6
ENDBRANCH   4   5
ENDBRANCH   3   4
ENDBRANCH   2   3
ENDBRANCH   1   2
BRANCH   1  12
ATOM     12  C   UNL     1      -4.388  38.269  19.069  1.00  0.00     0.000 C 
BRANCH  12  13
ATOM     13  C   UNL     1      -3.092  37.442  19.039  1.00  0.00    -0.000 C 
BRANCH  13  14
ATOM     14  C   UNL     1      -2.083  37.966  18.004  1.00  0.00    -0.000 C 
BRANCH  14  15
ATOM     15  C   UNL     1      -1.723  36.912  16.944  1.00  0.00    -0.000 C 
BRANCH  15  16
ATOM     16  C   UNL     1      -2.046  37.374  15.516  1.00  0.00    -0.000 C 
BRANCH  16  17
ATOM     17  C   UNL     1      -3.081  38.506  15.526  1.00  0.00    -0.000 C 
BRANCH  17  18
ATOM     18  C   UNL     1      -3.772  38.632  14.163  1.00  0.00    -0.003 C 
ATOM     19  C   UNL     1      -4.312  40.044  13.948  1.00  0.00     0.004 C 
ENDBRANCH  17  18
ENDBRANCH  16  17
ENDBRANCH  15  16
ENDBRANCH  14  15
ENDBRANCH  13  14
ENDBRANCH  12  13
ENDBRANCH   1  12
TORSDOF 14
ENDMDL
MODEL 5
REMARK VINA RESULT:    -3.984      1.088      2.909
REMARK INTER + INTRA:          -9.174
REMARK INTER:                  -7.731
REMARK INTRA:                  -1.443
REMARK UNBOUND:                -1.929
REMARK SMILES CCCCCCCCCCCCCC[C@@H](C)C(=O)[O-]
REMARK SMILES IDX 9 1 10 2 11 3 12 4 13 5 14 6 15 7 16 8 17 9 18 10 19 11 8 12
REMARK SMILES IDX 7 13 6 14 5 15 4 16 3 17 2 18 1 19
REMARK H PARENT
REMARK Flexibility Score: inf
ROOT
ATOM      1  C   UNL     1      -4.315  39.526  21.987  1.00  0.00     0.000 C 
ENDROOT
BRANCH   1   2
ATOM      2  C   UNL     1      -5.412  39.401  20.922  1.00  0.00     0.000 C 
BRANCH   2   3
ATOM      3  C   UNL     1      -4.842  38.885  19.594  1.00  0.00     0.000 C 
BRANCH   3   4
ATOM      4  C   UNL     1      -3.548  38.067  19.803  1.00  0.00     0.000 C 
BRANCH   4   5
ATOM      5  C   UNL     1      -3.578  36.690  19.115  1.00  0.00     0.001 C 
BRANCH   5   6
ATOM      6  C   UNL     1      -3.530  36.755  17.571  1.00  0.00     0.009 C 
BRANCH   6   7
ATOM      7  C   UNL     1      -2.604  37.842  16.973  1.00  0.00     0.032 C 
ATOM      8  C   UNL     1      -1.146  37.701  17.440  1.00  0.00     0.014 C 
BRANCH   7   9
ATOM      9  C   UNL     1      -2.715  37.926  15.474  1.00  0.00     0.044 C 
ATOM     10  O   UNL     1      -2.150  37.077  14.734  1.00  0.00    -0.550 OA
ATOM     11  O   UNL     1      -3.497  38.920  14.898  1.00  0.00    -0.550 OA
ENDBRANCH   7   9
ENDBRANCH   6   7
ENDBRANCH   5   6
ENDBRANCH   4   5
ENDBRANCH   3   4
ENDBRANCH   2   3
ENDBRANCH   1   2
BRANCH   1  12
ATOM     12  C   UNL     1      -4.881  40.098  23.294  1.00  0.00     0.000 C 
BRANCH  12  13
ATOM     13  C   UNL     1      -5.860  39.139  23.991  1.00  0.00    -0.000 C 
BRANCH  13  14
ATOM     14  C   UNL     1      -5.344  38.665  25.361  1.00  0.00    -0.000 C 
BRANCH  14  15
ATOM     15  C   UNL     1      -4.944  37.180  25.358  1.00  0.00    -0.000 C 
BRANCH  15  16
ATOM     16  C   UNL     1      -6.124  36.250  25.038  1.00  0.00    -0.000 C 
BRANCH  16  17
ATOM     17  C   UNL     1      -5.755  35.258  23.928  1.00  0.00    -0.000 C 
BRANCH  17  18
ATOM     18  C   UNL     1      -5.126  35.980  22.731  1.00  0.00    -0.003 C 
ATOM     19  C   UNL     1      -6.125  36.117  21.584  1.00  0.00     0.004 C 
ENDBRANCH  17  18
ENDBRANCH  16  17
ENDBRANCH  15  16
ENDBRANCH  14  15
ENDBRANCH  13  14
ENDBRANCH  12  13
ENDBRANCH   1  12
TORSDOF 14
ENDMDL
MODEL 6
REMARK VINA RESULT:    -3.984      1.385      1.755
REMARK INTER + INTRA:          -9.173
REMARK INTER:                  -7.437
REMARK INTRA:                  -1.736
REMARK UNBOUND:                -1.929
REMARK SMILES CCCCCCCCCCCCCC[C@@H](C)C(=O)[O-]
REMARK SMILES IDX 9 1 10 2 11 3 12 4 13 5 14 6 15 7 16 8 17 9 18 10 19 11 8 12
REMARK SMILES IDX 7 13 6 14 5 15 4 16 3 17 2 18 1 19
REMARK H PARENT
REMARK Flexibility Score: inf
ROOT
ATOM      1  C   UNL     1      -4.590  35.664  22.427  1.00  0.00     0.000 C 
ENDROOT
BRANCH   1   2
ATOM      2  C   UNL     1      -4.421  36.138  20.978  1.00  0.00     0.000 C 
BRANCH   2   3
ATOM      3  C   UNL     1      -5.768  36.168  20.242  1.00  0.00     0.000 C 
BRANCH   3   4
ATOM      4  C   UNL     1      -5.652  35.599  18.810  1.00  0.00     0.000 C 
BRANCH   4   5
ATOM      5  C   UNL     1      -4.199  35.368  18.360  1.00  0.00     0.001 C 
BRANCH   5   6
ATOM      6  C   UNL     1      -3.730  36.315  17.230  1.00  0.00     0.009 C 
BRANCH   6   7
ATOM      7  C   UNL     1      -2.365  37.008  17.457  1.00  0.00     0.032 C 
ATOM      8  C   UNL     1      -1.680  37.413  16.141  1.00  0.00     0.014 C 
BRANCH   7   9
ATOM      9  C   UNL     1      -2.462  38.158  18.424  1.00  0.00     0.044 C 
ATOM     10  O   UNL     1      -3.582  38.587  18.811  1.00  0.00    -0.550 OA
ATOM     11  O   UNL     1      -1.301  38.719  18.941  1.00  0.00    -0.550 OA
ENDBRANCH   7   9
ENDBRANCH   6   7
ENDBRANCH   5   6
ENDBRANCH   4   5
ENDBRANCH   3   4
ENDBRANCH   2   3
ENDBRANCH   1   2
BRANCH   1  12
ATOM     12  C   UNL     1      -6.027  35.898  22.917  1.00  0.00     0.000 C 
BRANCH  12  13
ATOM     13  C   UNL     1      -6.088  36.389  24.373  1.00  0.00    -0.000 C 
BRANCH  13  14
ATOM     14  C   UNL     1      -4.889  37.278  24.745  1.00  0.00    -0.000 C 
BRANCH  14  15
ATOM     15  C   UNL     1      -5.320  38.646  25.300  1.00  0.00    -0.000 C 
BRANCH  15  16
ATOM     16  C   UNL     1      -4.995  39.802  24.342  1.00  0.00    -0.000 C 
BRANCH  16  17
ATOM     17  C   UNL     1      -4.279  39.289  23.086  1.00  0.00    -0.000 C 
BRANCH  17  18
ATOM     18  C   UNL     1      -5.172  39.431  21.847  1.00  0.00    -0.003 C 
ATOM     19  C   UNL     1      -5.799  40.821  21.776  1.00  0.00     0.004 C 
ENDBRANCH  17  18
ENDBRANCH  16  17
ENDBRANCH  15  16
ENDBRANCH  14  15
ENDBRANCH  13  14
ENDBRANCH  12  13
ENDBRANCH   1  12
TORSDOF 14
ENDMDL
MODEL 7
REMARK VINA RESULT:    -3.903      1.087      1.982
REMARK INTER + INTRA:          -9.026
REMARK INTER:                  -7.664
REMARK INTRA:                  -1.362
REMARK UNBOUND:                -1.929
REMARK SMILES CCCCCCCCCCCCCC[C@@H](C)C(=O)[O-]
REMARK SMILES IDX 9 1 10 2 11 3 12 4 13 5 14 6 15 7 16 8 17 9 18 10 19 11 8 12
REMARK SMILES IDX 7 13 6 14 5 15 4 16 3 17 2 18 1 19
REMARK H PARENT
REMARK Flexibility Score: inf
ROOT
ATOM      1  C   UNL     1      -4.339  36.119  21.008  1.00  0.00     0.000 C 
ENDROOT
BRANCH   1   2
ATOM      2  C   UNL     1      -5.368  37.046  20.349  1.00  0.00     0.000 C 
BRANCH   2   3
ATOM      3  C   UNL     1      -4.680  38.136  19.514  1.00  0.00     0.000 C 
BRANCH   3   4
ATOM      4  C   UNL     1      -3.153  38.163  19.751  1.00  0.00     0.000 C 
BRANCH   4   5
ATOM      5  C   UNL     1      -2.350  38.588  18.508  1.00  0.00     0.001 C 
BRANCH   5   6
ATOM      6  C   UNL     1      -1.521  37.447  17.873  1.00  0.00     0.009 C 
BRANCH   6   7
ATOM      7  C   UNL     1      -2.187  36.716  16.682  1.00  0.00     0.032 C 
ATOM      8  C   UNL     1      -3.502  36.021  17.072  1.00  0.00     0.014 C 
BRANCH   7   9
ATOM      9  C   UNL     1      -2.352  37.611  15.483  1.00  0.00     0.044 C 
ATOM     10  O   UNL     1      -1.768  37.354  14.396  1.00  0.00    -0.550 OA
ATOM     11  O   UNL     1      -3.204  38.706  15.556  1.00  0.00    -0.550 OA
ENDBRANCH   7   9
ENDBRANCH   6   7
ENDBRANCH   5   6
ENDBRANCH   4   5
ENDBRANCH   3   4
ENDBRANCH   2   3
ENDBRANCH   1   2
BRANCH   1  12
ATOM     12  C   UNL     1      -4.473  36.150  22.537  1.00  0.00     0.000 C 
BRANCH  12  13
ATOM     13  C   UNL     1      -5.896  35.826  23.019  1.00  0.00    -0.000 C 
BRANCH  13  14
ATOM     14  C   UNL     1      -6.124  36.220  24.488  1.00  0.00    -0.000 C 
BRANCH  14  15
ATOM     15  C   UNL     1      -4.944  37.012  25.076  1.00  0.00    -0.000 C 
BRANCH  15  16
ATOM     16  C   UNL     1      -5.267  38.501  25.268  1.00  0.00    -0.000 C 
BRANCH  16  17
ATOM     17  C   UNL     1      -5.865  39.102  23.991  1.00  0.00    -0.000 C 
BRANCH  17  18
ATOM     18  C   UNL     1      -4.790  39.815  23.162  1.00  0.00    -0.003 C 
ATOM     19  C   UNL     1      -5.409  40.569  21.988  1.00  0.00     0.004 C 
ENDBRANCH  17  18
ENDBRANCH  16  17
ENDBRANCH  15  16
ENDBRANCH  14  15
ENDBRANCH  13  14
ENDBRANCH  12  13
ENDBRANCH   1  12
TORSDOF 14
ENDMDL
MODEL 8
REMARK VINA RESULT:    -3.851      1.789      3.169
REMARK INTER + INTRA:          -8.931
REMARK INTER:                  -7.249
REMARK INTRA:                  -1.682
REMARK UNBOUND:                -1.929
REMARK SMILES CCCCCCCCCCCCCC[C@@H](C)C(=O)[O-]
REMARK SMILES IDX 9 1 10 2 11 3 12 4 13 5 14 6 15 7 16 8 17 9 18 10 19 11 8 12
REMARK SMILES IDX 7 13 6 14 5 15 4 16 3 17 2 18 1 19
REMARK H PARENT
REMARK Flexibility Score: inf
ROOT
ATOM      1  C   UNL     1      -4.514  36.370  21.372  1.00  0.00     0.000 C 
ENDROOT
BRANCH   1   2
ATOM      2  C   UNL     1      -3.603  35.917  20.224  1.00  0.00     0.000 C 
BRANCH   2   3
ATOM      3  C   UNL     1      -4.416  35.292  19.082  1.00  0.00     0.000 C 
BRANCH   3   4
ATOM      4  C   UNL     1      -4.177  36.021  17.740  1.00  0.00     0.000 C 
BRANCH   4   5
ATOM      5  C   UNL     1      -2.914  36.900  17.740  1.00  0.00     0.001 C 
BRANCH   5   6
ATOM      6  C   UNL     1      -3.087  38.251  17.008  1.00  0.00     0.009 C 
BRANCH   6   7
ATOM      7  C   UNL     1      -2.470  38.331  15.591  1.00  0.00     0.032 C 
ATOM      8  C   UNL     1      -1.517  37.161  15.292  1.00  0.00     0.014 C 
BRANCH   7   9
ATOM      9  C   UNL     1      -3.516  38.499  14.521  1.00  0.00     0.044 C 
ATOM     10  O   UNL     1      -4.034  37.497  13.959  1.00  0.00    -0.550 OA
ATOM     11  O   UNL     1      -3.957  39.772  14.186  1.00  0.00    -0.550 OA
ENDBRANCH   7   9
ENDBRANCH   6   7
ENDBRANCH   5   6
ENDBRANCH   4   5
ENDBRANCH   3   4
ENDBRANCH   2   3
ENDBRANCH   1   2
BRANCH   1  12
ATOM     12  C   UNL     1      -5.603  37.326  20.863  1.00  0.00     0.000 C 
BRANCH  12  13
ATOM     13  C   UNL     1      -5.037  38.665  20.364  1.00  0.00    -0.000 C 
BRANCH  13  14
ATOM     14  C   UNL     1      -4.191  39.381  21.431  1.00  0.00    -0.000 C 
BRANCH  14  15
ATOM     15  C   UNL     1      -5.051  40.162  22.438  1.00  0.00    -0.000 C 
BRANCH  15  16
ATOM     16  C   UNL     1      -4.963  39.591  23.861  1.00  0.00    -0.000 C 
BRANCH  16  17
ATOM     17  C   UNL     1      -6.092  38.586  24.120  1.00  0.00    -0.000 C 
BRANCH  17  18
ATOM     18  C   UNL     1      -5.734  37.641  25.273  1.00  0.00    -0.003 C 
ATOM     19  C   UNL     1      -4.355  37.965  25.843  1.00  0.00     0.004 C 
ENDBRANCH  17  18
ENDBRANCH  16  17
ENDBRANCH  15  16
ENDBRANCH  14  15
ENDBRANCH  13  14
ENDBRANCH  12  13
ENDBRANCH   1  12
TORSDOF 14
ENDMDL
MODEL 9
REMARK VINA RESULT:    -3.805      1.149      2.774
REMARK INTER + INTRA:          -8.849
REMARK INTER:                  -7.928
REMARK INTRA:                  -0.920
REMARK UNBOUND:                -1.929
REMARK SMILES CCCCCCCCCCCCCC[C@@H](C)C(=O)[O-]
REMARK SMILES IDX 9 1 10 2 11 3 12 4 13 5 14 6 15 7 16 8 17 9 18 10 19 11 8 12
REMARK SMILES IDX 7 13 6 14 5 15 4 16 3 17 2 18 1 19
REMARK H PARENT
REMARK Flexibility Score: inf
ROOT
ATOM      1  C   UNL     1      -4.607  37.120  20.990  1.00  0.00     0.000 C 
ENDROOT
BRANCH   1   2
ATOM      2  C   UNL     1      -5.881  36.352  20.616  1.00  0.00     0.000 C 
BRANCH   2   3
ATOM      3  C   UNL     1      -5.900  36.000  19.122  1.00  0.00     0.000 C 
BRANCH   3   4
ATOM      4  C   UNL     1      -4.602  35.283  18.684  1.00  0.00     0.000 C 
BRANCH   4   5
ATOM      5  C   UNL     1      -3.813  36.053  17.610  1.00  0.00     0.001 C 
BRANCH   5   6
ATOM      6  C   UNL     1      -3.488  37.516  17.994  1.00  0.00     0.009 C 
BRANCH   6   7
ATOM      7  C   UNL     1      -2.306  38.163  17.233  1.00  0.00     0.032 C 
ATOM      8  C   UNL     1      -0.945  37.860  17.883  1.00  0.00     0.014 C 
BRANCH   7   9
ATOM      9  C   UNL     1      -2.321  37.830  15.765  1.00  0.00     0.044 C 
ATOM     10  O   UNL     1      -3.251  38.236  15.017  1.00  0.00    -0.550 OA
ATOM     11  O   UNL     1      -1.267  37.113  15.213  1.00  0.00    -0.550 OA
ENDBRANCH   7   9
ENDBRANCH   6   7
ENDBRANCH   5   6
ENDBRANCH   4   5
ENDBRANCH   3   4
ENDBRANCH   2   3
ENDBRANCH   1   2
BRANCH   1  12
ATOM     12  C   UNL     1      -4.840  38.636  20.918  1.00  0.00     0.000 C 
BRANCH  12  13
ATOM     13  C   UNL     1      -4.348  39.376  22.173  1.00  0.00    -0.000 C 
BRANCH  13  14
ATOM     14  C   UNL     1      -5.350  39.290  23.337  1.00  0.00    -0.000 C 
BRANCH  14  15
ATOM     15  C   UNL     1      -4.664  39.377  24.711  1.00  0.00    -0.000 C 
BRANCH  15  16
ATOM     16  C   UNL     1      -5.113  38.262  25.668  1.00  0.00    -0.000 C 
BRANCH  16  17
ATOM     17  C   UNL     1      -6.059  37.282  24.964  1.00  0.00    -0.000 C 
BRANCH  17  18
ATOM     18  C   UNL     1      -5.274  36.169  24.260  1.00  0.00    -0.003 C 
ATOM     19  C   UNL     1      -6.122  34.908  24.110  1.00  0.00     0.004 C 
ENDBRANCH  17  18
ENDBRANCH  16  17
ENDBRANCH  15  16
ENDBRANCH  14  15
ENDBRANCH  13  14
ENDBRANCH  12  13
ENDBRANCH   1  12
TORSDOF 14
ENDMDL
