MODEL 1
REMARK VINA RESULT:    -4.416      0.000      0.000
REMARK INTER + INTRA:          -8.692
REMARK INTER:                  -7.772
REMARK INTRA:                  -0.920
REMARK UNBOUND:                -0.920
REMARK SMILES CCCCCCC=CCCCCCCCC(=O)[O-]
REMARK SMILES IDX 10 1 11 2 12 3 13 4 14 5 15 6 16 7 17 8 18 9 9 10 8 11 7 12
REMARK SMILES IDX 6 13 5 14 4 15 3 16 2 17 1 18
REMARK H PARENT
REMARK Flexibility Score: inf
ROOT
ATOM      1  C   UNL     1      12.294  16.707  27.314  1.00  0.00     0.004 C 
ENDROOT
BRANCH   1   2
ATOM      2  C   UNL     1      11.218  17.670  26.785  1.00  0.00     0.000 C 
BRANCH   2   3
ATOM      3  C   UNL     1      10.879  17.461  25.294  1.00  0.00     0.000 C 
BRANCH   3   4
ATOM      4  C   UNL     1      11.787  16.406  24.637  1.00  0.00     0.000 C 
BRANCH   4   5
ATOM      5  C   UNL     1      12.667  16.991  23.517  1.00  0.00     0.006 C 
BRANCH   5   6
ATOM      6  C   UNL     1      13.602  18.121  23.974  1.00  0.00     0.053 C 
BRANCH   6   7
ATOM      7  C   UNL     1      14.948  17.604  24.380  1.00  0.00     0.041 C 
ATOM      8  O   UNL     1      15.043  16.677  25.227  1.00  0.00    -0.550 OA
ATOM      9  O   UNL     1      16.097  18.125  23.797  1.00  0.00    -0.550 OA
ENDBRANCH   6   7
ENDBRANCH   5   6
ENDBRANCH   4   5
ENDBRANCH   3   4
ENDBRANCH   2   3
ENDBRANCH   1   2
BRANCH   1  10
ATOM     10  C   UNL     1      13.540  17.434  27.839  1.00  0.00     0.027 C 
BRANCH  10  11
ATOM     11  C   UNL     1      14.213  16.643  28.926  1.00  0.00    -0.031 C 
ATOM     12  C   UNL     1      14.469  15.333  28.787  1.00  0.00    -0.031 C 
BRANCH  12  13
ATOM     13  C   UNL     1      15.141  14.542  29.874  1.00  0.00     0.027 C 
BRANCH  13  14
ATOM     14  C   UNL     1      14.265  14.476  31.134  1.00  0.00     0.004 C 
BRANCH  14  15
ATOM     15  C   UNL     1      14.778  13.456  32.168  1.00  0.00     0.000 C 
BRANCH  15  16
ATOM     16  C   UNL     1      15.997  12.630  31.719  1.00  0.00    -0.000 C 
BRANCH  16  17
ATOM     17  C   UNL     1      15.631  11.195  31.313  1.00  0.00    -0.003 C 
ATOM     18  C   UNL     1      15.492  11.071  29.799  1.00  0.00     0.004 C 
ENDBRANCH  16  17
ENDBRANCH  15  16
ENDBRANCH  14  15
ENDBRANCH  13  14
ENDBRANCH  12  13
ENDBRANCH  10  11
ENDBRANCH   1  10
TORSDOF 13
ENDMDL
MODEL 2
REMARK VINA RESULT:    -4.361      2.678      7.551
REMARK INTER + INTRA:          -8.595
REMARK INTER:                  -7.333
REMARK INTRA:                  -1.262
REMARK UNBOUND:                -0.920
REMARK SMILES CCCCCCC=CCCCCCCCC(=O)[O-]
REMARK SMILES IDX 10 1 11 2 12 3 13 4 14 5 15 6 16 7 17 8 18 9 9 10 8 11 7 12
REMARK SMILES IDX 6 13 5 14 4 15 3 16 2 17 1 18
REMARK H PARENT
REMARK Flexibility Score: inf
ROOT
ATOM      1  C   UNL     1      13.581  15.548  28.686  1.00  0.00     0.004 C 
ENDROOT
BRANCH   1   2
ATOM      2  C   UNL     1      14.926  14.805  28.755  1.00  0.00     0.000 C 
BRANCH   2   3
ATOM      3  C   UNL     1      15.531  14.753  30.174  1.00  0.00     0.000 C 
BRANCH   3   4
ATOM      4  C   UNL     1      14.491  14.344  31.233  1.00  0.00     0.000 C 
BRANCH   4   5
ATOM      5  C   UNL     1      14.982  13.203  32.142  1.00  0.00     0.006 C 
BRANCH   5   6
ATOM      6  C   UNL     1      16.032  12.287  31.494  1.00  0.00     0.053 C 
BRANCH   6   7
ATOM      7  C   UNL     1      15.424  11.371  30.477  1.00  0.00     0.041 C 
ATOM      8  O   UNL     1      15.881  11.334  29.304  1.00  0.00    -0.550 OA
ATOM      9  O   UNL     1      14.375  10.534  30.835  1.00  0.00    -0.550 OA
ENDBRANCH   6   7
ENDBRANCH   5   6
ENDBRANCH   4   5
ENDBRANCH   3   4
ENDBRANCH   2   3
ENDBRANCH   1   2
BRANCH   1  10
ATOM     10  C   UNL     1      13.738  17.074  28.743  1.00  0.00     0.027 C 
BRANCH  10  11
ATOM     11  C   UNL     1      12.809  17.752  27.774  1.00  0.00    -0.031 C 
ATOM     12  C   UNL     1      12.133  17.059  26.845  1.00  0.00    -0.031 C 
BRANCH  12  13
ATOM     13  C   UNL     1      11.206  17.737  25.876  1.00  0.00     0.027 C 
BRANCH  13  14
ATOM     14  C   UNL     1      11.230  17.041  24.506  1.00  0.00     0.004 C 
BRANCH  14  15
ATOM     15  C   UNL     1      12.657  16.833  23.965  1.00  0.00     0.000 C 
BRANCH  15  16
ATOM     16  C   UNL     1      13.410  18.125  23.600  1.00  0.00    -0.000 C 
BRANCH  16  17
ATOM     17  C   UNL     1      14.891  18.089  24.001  1.00  0.00    -0.003 C 
ATOM     18  C   UNL     1      15.132  17.084  25.124  1.00  0.00     0.004 C 
ENDBRANCH  16  17
ENDBRANCH  15  16
ENDBRANCH  14  15
ENDBRANCH  13  14
ENDBRANCH  12  13
ENDBRANCH  10  11
ENDBRANCH   1  10
TORSDOF 13
ENDMDL
MODEL 3
REMARK VINA RESULT:    -4.195      1.750      2.462
REMARK INTER + INTRA:          -8.304
REMARK INTER:                  -7.392
REMARK INTRA:                  -0.912
REMARK UNBOUND:                -0.920
REMARK SMILES CCCCCCC=CCCCCCCCC(=O)[O-]
REMARK SMILES IDX 10 1 11 2 12 3 13 4 14 5 15 6 16 7 17 8 18 9 9 10 8 11 7 12
REMARK SMILES IDX 6 13 5 14 4 15 3 16 2 17 1 18
REMARK H PARENT
REMARK Flexibility Score: inf
ROOT
ATOM      1  C   UNL     1      13.195  16.901  27.482  1.00  0.00     0.004 C 
ENDROOT
BRANCH   1   2
ATOM      2  C   UNL     1      14.650  17.046  27.005  1.00  0.00     0.000 C 
BRANCH   2   3
ATOM      3  C   UNL     1      14.815  16.914  25.476  1.00  0.00     0.000 C 
BRANCH   3   4
ATOM      4  C   UNL     1      14.235  18.125  24.723  1.00  0.00     0.000 C 
BRANCH   4   5
ATOM      5  C   UNL     1      13.688  17.756  23.332  1.00  0.00     0.006 C 
BRANCH   5   6
ATOM      6  C   UNL     1      12.154  17.722  23.246  1.00  0.00     0.053 C 
BRANCH   6   7
ATOM      7  C   UNL     1      11.552  16.890  24.335  1.00  0.00     0.041 C 
ATOM      8  O   UNL     1      11.752  15.647  24.369  1.00  0.00    -0.550 OA
ATOM      9  O   UNL     1      10.796  17.492  25.333  1.00  0.00    -0.550 OA
ENDBRANCH   6   7
ENDBRANCH   5   6
ENDBRANCH   4   5
ENDBRANCH   3   4
ENDBRANCH   2   3
ENDBRANCH   1   2
BRANCH   1  10
ATOM     10  C   UNL     1      12.897  15.519  28.080  1.00  0.00     0.027 C 
BRANCH  10  11
ATOM     11  C   UNL     1      13.664  15.302  29.355  1.00  0.00    -0.031 C 
ATOM     12  C   UNL     1      14.905  14.795  29.351  1.00  0.00    -0.031 C 
BRANCH  12  13
ATOM     13  C   UNL     1      15.671  14.577  30.627  1.00  0.00     0.027 C 
BRANCH  13  14
ATOM     14  C   UNL     1      14.724  14.268  31.797  1.00  0.00     0.004 C 
BRANCH  14  15
ATOM     15  C   UNL     1      14.798  12.800  32.256  1.00  0.00     0.000 C 
BRANCH  15  16
ATOM     16  C   UNL     1      15.821  11.932  31.501  1.00  0.00    -0.000 C 
BRANCH  16  17
ATOM     17  C   UNL     1      15.165  10.958  30.512  1.00  0.00    -0.003 C 
ATOM     18  C   UNL     1      15.860  11.003  29.155  1.00  0.00     0.004 C 
ENDBRANCH  16  17
ENDBRANCH  15  16
ENDBRANCH  14  15
ENDBRANCH  13  14
ENDBRANCH  12  13
ENDBRANCH  10  11
ENDBRANCH   1  10
TORSDOF 13
ENDMDL
MODEL 4
REMARK VINA RESULT:    -3.794      2.808      7.392
REMARK INTER + INTRA:          -7.598
REMARK INTER:                  -6.507
REMARK INTRA:                  -1.091
REMARK UNBOUND:                -0.920
REMARK SMILES CCCCCCC=CCCCCCCCC(=O)[O-]
REMARK SMILES IDX 10 1 11 2 12 3 13 4 14 5 15 6 16 7 17 8 18 9 9 10 8 11 7 12
REMARK SMILES IDX 6 13 5 14 4 15 3 16 2 17 1 18
REMARK H PARENT
REMARK Flexibility Score: inf
ROOT
ATOM      1  C   UNL     1      14.565  15.615  27.406  1.00  0.00     0.004 C 
ENDROOT
BRANCH   1   2
ATOM      2  C   UNL     1      13.255  15.436  28.191  1.00  0.00     0.000 C 
BRANCH   2   3
ATOM      3  C   UNL     1      13.466  15.201  29.702  1.00  0.00     0.000 C 
BRANCH   3   4
ATOM      4  C   UNL     1      14.784  14.463  29.995  1.00  0.00     0.000 C 
BRANCH   4   5
ATOM      5  C   UNL     1      14.849  13.904  31.429  1.00  0.00     0.006 C 
BRANCH   5   6
ATOM      6  C   UNL     1      15.834  12.739  31.608  1.00  0.00     0.053 C 
BRANCH   6   7
ATOM      7  C   UNL     1      15.414  11.528  30.833  1.00  0.00     0.041 C 
ATOM      8  O   UNL     1      14.647  10.675  31.353  1.00  0.00    -0.550 OA
ATOM      9  O   UNL     1      15.845  11.358  29.523  1.00  0.00    -0.550 OA
ENDBRANCH   6   7
ENDBRANCH   5   6
ENDBRANCH   4   5
ENDBRANCH   3   4
ENDBRANCH   2   3
ENDBRANCH   1   2
BRANCH   1  10
ATOM     10  C   UNL     1      15.032  17.076  27.349  1.00  0.00     0.027 C 
BRANCH  10  11
ATOM     11  C   UNL     1      14.528  17.759  26.107  1.00  0.00    -0.031 C 
ATOM     12  C   UNL     1      14.971  17.417  24.888  1.00  0.00    -0.031 C 
BRANCH  12  13
ATOM     13  C   UNL     1      14.467  18.101  23.647  1.00  0.00     0.027 C 
BRANCH  13  14
ATOM     14  C   UNL     1      12.933  18.081  23.586  1.00  0.00     0.004 C 
BRANCH  14  15
ATOM     15  C   UNL     1      12.342  16.680  23.830  1.00  0.00     0.000 C 
BRANCH  15  16
ATOM     16  C   UNL     1      11.548  16.526  25.140  1.00  0.00    -0.000 C 
BRANCH  16  17
ATOM     17  C   UNL     1      10.918  17.842  25.616  1.00  0.00    -0.003 C 
ATOM     18  C   UNL     1      11.143  18.050  27.110  1.00  0.00     0.004 C 
ENDBRANCH  16  17
ENDBRANCH  15  16
ENDBRANCH  14  15
ENDBRANCH  13  14
ENDBRANCH  12  13
ENDBRANCH  10  11
ENDBRANCH   1  10
TORSDOF 13
ENDMDL
MODEL 5
REMARK VINA RESULT:    -2.894      3.124      7.368
REMARK INTER + INTRA:          -6.014
REMARK INTER:                  -5.708
REMARK INTRA:                  -0.306
REMARK UNBOUND:                -0.920
REMARK SMILES CCCCCCC=CCCCCCCCC(=O)[O-]
REMARK SMILES IDX 10 1 11 2 12 3 13 4 14 5 15 6 16 7 17 8 18 9 9 10 8 11 7 12
REMARK SMILES IDX 6 13 5 14 4 15 3 16 2 17 1 18
REMARK H PARENT
REMARK Flexibility Score: inf
ROOT
ATOM      1  C   UNL     1      12.943  16.706  28.331  1.00  0.00     0.004 C 
ENDROOT
BRANCH   1   2
ATOM      2  C   UNL     1      14.408  16.728  28.798  1.00  0.00     0.000 C 
BRANCH   2   3
ATOM      3  C   UNL     1      15.290  15.656  28.123  1.00  0.00     0.000 C 
BRANCH   3   4
ATOM      4  C   UNL     1      15.364  14.361  28.950  1.00  0.00     0.000 C 
BRANCH   4   5
ATOM      5  C   UNL     1      14.512  14.422  30.232  1.00  0.00     0.006 C 
BRANCH   5   6
ATOM      6  C   UNL     1      15.299  14.165  31.526  1.00  0.00     0.053 C 
BRANCH   6   7
ATOM      7  C   UNL     1      15.339  12.709  31.876  1.00  0.00     0.041 C 
ATOM      8  O   UNL     1      14.538  12.239  32.727  1.00  0.00    -0.550 OA
ATOM      9  O   UNL     1      16.239  11.865  31.238  1.00  0.00    -0.550 OA
ENDBRANCH   6   7
ENDBRANCH   5   6
ENDBRANCH   4   5
ENDBRANCH   3   4
ENDBRANCH   2   3
ENDBRANCH   1   2
BRANCH   1  10
ATOM     10  C   UNL     1      12.425  18.091  27.922  1.00  0.00     0.027 C 
BRANCH  10  11
ATOM     11  C   UNL     1      11.714  18.037  26.598  1.00  0.00    -0.031 C 
ATOM     12  C   UNL     1      11.742  16.938  25.830  1.00  0.00    -0.031 C 
BRANCH  12  13
ATOM     13  C   UNL     1      11.031  16.884  24.506  1.00  0.00     0.027 C 
BRANCH  13  14
ATOM     14  C   UNL     1      12.031  16.783  23.344  1.00  0.00     0.004 C 
BRANCH  14  15
ATOM     15  C   UNL     1      12.741  18.117  23.047  1.00  0.00     0.000 C 
BRANCH  15  16
ATOM     16  C   UNL     1      14.268  18.098  23.238  1.00  0.00    -0.000 C 
BRANCH  16  17
ATOM     17  C   UNL     1      14.686  17.979  24.710  1.00  0.00    -0.003 C 
ATOM     18  C   UNL     1      14.754  16.518  25.145  1.00  0.00     0.004 C 
ENDBRANCH  16  17
ENDBRANCH  15  16
ENDBRANCH  14  15
ENDBRANCH  13  14
ENDBRANCH  12  13
ENDBRANCH  10  11
ENDBRANCH   1  10
TORSDOF 13
ENDMDL
MODEL 6
REMARK VINA RESULT:    -2.851      1.762      2.697
REMARK INTER + INTRA:          -5.937
REMARK INTER:                  -5.427
REMARK INTRA:                  -0.510
REMARK UNBOUND:                -0.920
REMARK SMILES CCCCCCC=CCCCCCCCC(=O)[O-]
REMARK SMILES IDX 10 1 11 2 12 3 13 4 14 5 15 6 16 7 17 8 18 9 9 10 8 11 7 12
REMARK SMILES IDX 6 13 5 14 4 15 3 16 2 17 1 18
REMARK H PARENT
REMARK Flexibility Score: inf
ROOT
ATOM      1  C   UNL     1      15.170  16.502  25.740  1.00  0.00     0.004 C 
ENDROOT
BRANCH   1   2
ATOM      2  C   UNL     1      15.066  17.358  24.467  1.00  0.00     0.000 C 
BRANCH   2   3
ATOM      3  C   UNL     1      13.726  18.114  24.337  1.00  0.00     0.000 C 
BRANCH   3   4
ATOM      4  C   UNL     1      12.773  17.436  23.337  1.00  0.00     0.000 C 
BRANCH   4   5
ATOM      5  C   UNL     1      11.826  16.424  24.007  1.00  0.00     0.006 C 
BRANCH   5   6
ATOM      6  C   UNL     1      10.904  17.034  25.074  1.00  0.00     0.053 C 
BRANCH   6   7
ATOM      7  C   UNL     1      11.530  17.011  26.434  1.00  0.00     0.041 C 
ATOM      8  O   UNL     1      11.672  18.079  27.085  1.00  0.00    -0.550 OA
ATOM      9  O   UNL     1      11.927  15.804  26.996  1.00  0.00    -0.550 OA
ENDBRANCH   6   7
ENDBRANCH   5   6
ENDBRANCH   4   5
ENDBRANCH   3   4
ENDBRANCH   2   3
ENDBRANCH   1   2
BRANCH   1  10
ATOM     10  C   UNL     1      15.060  17.331  27.028  1.00  0.00     0.027 C 
BRANCH  10  11
ATOM     11  C   UNL     1      15.015  16.445  28.242  1.00  0.00    -0.031 C 
ATOM     12  C   UNL     1      15.084  15.110  28.140  1.00  0.00    -0.031 C 
BRANCH  12  13
ATOM     13  C   UNL     1      15.038  14.224  29.355  1.00  0.00     0.027 C 
BRANCH  13  14
ATOM     14  C   UNL     1      15.033  15.054  30.647  1.00  0.00     0.004 C 
BRANCH  14  15
ATOM     15  C   UNL     1      14.955  14.186  31.917  1.00  0.00     0.000 C 
BRANCH  15  16
ATOM     16  C   UNL     1      14.680  12.692  31.669  1.00  0.00    -0.000 C 
BRANCH  16  17
ATOM     17  C   UNL     1      15.929  11.918  31.227  1.00  0.00    -0.003 C 
ATOM     18  C   UNL     1      15.590  10.896  30.147  1.00  0.00     0.004 C 
ENDBRANCH  16  17
ENDBRANCH  15  16
ENDBRANCH  14  15
ENDBRANCH  13  14
ENDBRANCH  12  13
ENDBRANCH  10  11
ENDBRANCH   1  10
TORSDOF 13
ENDMDL
MODEL 7
REMARK VINA RESULT:    -2.573      2.434      7.538
REMARK INTER + INTRA:          -5.448
REMARK INTER:                  -4.727
REMARK INTRA:                  -0.721
REMARK UNBOUND:                -0.920
REMARK SMILES CCCCCCC=CCCCCCCCC(=O)[O-]
REMARK SMILES IDX 10 1 11 2 12 3 13 4 14 5 15 6 16 7 17 8 18 9 9 10 8 11 7 12
REMARK SMILES IDX 6 13 5 14 4 15 3 16 2 17 1 18
REMARK H PARENT
REMARK Flexibility Score: inf
ROOT
ATOM      1  C   UNL     1      14.031  14.660  29.959  1.00  0.00     0.004 C 
ENDROOT
BRANCH   1   2
ATOM      2  C   UNL     1      14.111  14.760  31.492  1.00  0.00     0.000 C 
BRANCH   2   3
ATOM      3  C   UNL     1      14.434  13.418  32.183  1.00  0.00     0.000 C 
BRANCH   3   4
ATOM      4  C   UNL     1      15.855  12.924  31.856  1.00  0.00     0.000 C 
BRANCH   4   5
ATOM      5  C   UNL     1      15.900  11.425  31.508  1.00  0.00     0.006 C 
BRANCH   5   6
ATOM      6  C   UNL     1      15.039  11.031  30.298  1.00  0.00     0.053 C 
BRANCH   6   7
ATOM      7  C   UNL     1      15.836  11.000  29.031  1.00  0.00     0.041 C 
ATOM      8  O   UNL     1      16.192  12.074  28.478  1.00  0.00    -0.550 OA
ATOM      9  O   UNL     1      16.215   9.783  28.478  1.00  0.00    -0.550 OA
ENDBRANCH   6   7
ENDBRANCH   5   6
ENDBRANCH   4   5
ENDBRANCH   3   4
ENDBRANCH   2   3
ENDBRANCH   1   2
BRANCH   1  10
ATOM     10  C   UNL     1      15.391  14.856  29.275  1.00  0.00     0.027 C 
BRANCH  10  11
ATOM     11  C   UNL     1      15.286  15.816  28.122  1.00  0.00    -0.031 C 
ATOM     12  C   UNL     1      14.263  16.676  28.015  1.00  0.00    -0.031 C 
BRANCH  12  13
ATOM     13  C   UNL     1      14.158  17.635  26.861  1.00  0.00     0.027 C 
BRANCH  13  14
ATOM     14  C   UNL     1      14.850  17.074  25.609  1.00  0.00     0.004 C 
BRANCH  14  15
ATOM     15  C   UNL     1      14.226  17.589  24.299  1.00  0.00     0.000 C 
BRANCH  15  16
ATOM     16  C   UNL     1      12.789  18.125  24.428  1.00  0.00    -0.000 C 
BRANCH  16  17
ATOM     17  C   UNL     1      11.733  17.011  24.433  1.00  0.00    -0.003 C 
ATOM     18  C   UNL     1      10.655  17.280  25.478  1.00  0.00     0.004 C 
ENDBRANCH  16  17
ENDBRANCH  15  16
ENDBRANCH  14  15
ENDBRANCH  13  14
ENDBRANCH  12  13
ENDBRANCH  10  11
ENDBRANCH   1  10
TORSDOF 13
ENDMDL
MODEL 8
REMARK VINA RESULT:    -2.567      1.514      2.347
REMARK INTER + INTRA:          -5.437
REMARK INTER:                  -4.112
REMARK INTRA:                  -1.325
REMARK UNBOUND:                -0.920
REMARK SMILES CCCCCCC=CCCCCCCCC(=O)[O-]
REMARK SMILES IDX 10 1 11 2 12 3 13 4 14 5 15 6 16 7 17 8 18 9 9 10 8 11 7 12
REMARK SMILES IDX 6 13 5 14 4 15 3 16 2 17 1 18
REMARK H PARENT
REMARK Flexibility Score: inf
ROOT
ATOM      1  C   UNL     1      14.776  16.034  26.471  1.00  0.00     0.004 C 
ENDROOT
BRANCH   1   2
ATOM      2  C   UNL     1      14.493  17.538  26.632  1.00  0.00     0.000 C 
BRANCH   2   3
ATOM      3  C   UNL     1      13.072  17.847  27.150  1.00  0.00     0.000 C 
BRANCH   3   4
ATOM      4  C   UNL     1      12.029  16.852  26.610  1.00  0.00     0.000 C 
BRANCH   4   5
ATOM      5  C   UNL     1      11.367  17.332  25.306  1.00  0.00     0.006 C 
BRANCH   5   6
ATOM      6  C   UNL     1      11.870  16.618  24.042  1.00  0.00     0.053 C 
BRANCH   6   7
ATOM      7  C   UNL     1      12.488  17.573  23.068  1.00  0.00     0.041 C 
ATOM      8  O   UNL     1      11.868  17.901  22.022  1.00  0.00    -0.550 OA
ATOM      9  O   UNL     1      13.735  18.125  23.332  1.00  0.00    -0.550 OA
ENDBRANCH   6   7
ENDBRANCH   5   6
ENDBRANCH   4   5
ENDBRANCH   3   4
ENDBRANCH   2   3
ENDBRANCH   1   2
BRANCH   1  10
ATOM     10  C   UNL     1      15.528  15.437  27.668  1.00  0.00     0.027 C 
BRANCH  10  11
ATOM     11  C   UNL     1      14.635  15.329  28.873  1.00  0.00    -0.031 C 
ATOM     12  C   UNL     1      15.063  14.777  30.018  1.00  0.00    -0.031 C 
BRANCH  12  13
ATOM     13  C   UNL     1      14.169  14.669  31.223  1.00  0.00     0.027 C 
BRANCH  13  14
ATOM     14  C   UNL     1      14.618  13.525  32.145  1.00  0.00     0.004 C 
BRANCH  14  15
ATOM     15  C   UNL     1      15.930  12.864  31.684  1.00  0.00     0.000 C 
BRANCH  15  16
ATOM     16  C   UNL     1      15.870  11.333  31.532  1.00  0.00    -0.000 C 
BRANCH  16  17
ATOM     17  C   UNL     1      15.128  10.887  30.264  1.00  0.00    -0.003 C 
ATOM     18  C   UNL     1      15.927  11.231  29.010  1.00  0.00     0.004 C 
ENDBRANCH  16  17
ENDBRANCH  15  16
ENDBRANCH  14  15
ENDBRANCH  13  14
ENDBRANCH  12  13
ENDBRANCH  10  11
ENDBRANCH   1  10
TORSDOF 13
ENDMDL
