MODEL 1
REMARK VINA RESULT:    -4.389      0.000      0.000
REMARK INTER + INTRA:          -5.176
REMARK INTER:                  -5.031
REMARK INTRA:                  -0.145
REMARK UNBOUND:                -0.145
REMARK SMILES O=C([O-])C=Cc1ccc(O)cc1
REMARK SMILES IDX 6 1 7 2 12 3 8 4 11 5 9 6 5 7 4 8 2 9 1 10 3 11 10 12
REMARK H PARENT 10 13
REMARK Flexibility Score: inf
ROOT
ATOM      1  C   UNL     1       0.094 -23.915 -45.327  1.00  0.00    -0.025 A 
ATOM      2  C   UNL     1      -1.201 -24.059 -45.853  1.00  0.00     0.012 A 
ATOM      3  C   UNL     1       1.128 -24.729 -45.832  1.00  0.00     0.012 A 
ATOM      4  C   UNL     1      -1.464 -25.010 -46.844  1.00  0.00     0.047 A 
ATOM      5  C   UNL     1       0.861 -25.679 -46.823  1.00  0.00     0.047 A 
ATOM      6  C   UNL     1      -0.437 -25.823 -47.329  1.00  0.00     0.115 A 
ENDROOT
BRANCH   1   7
ATOM      7  C   UNL     1       0.325 -22.883 -44.284  1.00  0.00     0.010 C 
ATOM      8  C   UNL     1      -0.022 -21.597 -44.420  1.00  0.00     0.025 C 
BRANCH   8   9
ATOM      9  C   UNL     1       0.237 -20.605 -43.364  1.00  0.00     0.064 C 
ATOM     10  O   UNL     1       1.039 -20.883 -42.434  1.00  0.00    -0.545 OA
ATOM     11  O   UNL     1      -0.389 -19.364 -43.375  1.00  0.00    -0.545 OA
ENDBRANCH   8   9
ENDBRANCH   1   7
BRANCH   6  12
ATOM     12  O   UNL     1      -0.713 -26.768 -48.316  1.00  0.00    -0.508 OA
ATOM     13  H   UNL     1      -1.015 -27.705 -48.081  1.00  0.00     0.293 HD
ENDBRANCH   6  12
TORSDOF 3
ENDMDL
MODEL 2
REMARK VINA RESULT:    -4.237      3.284      5.091
REMARK INTER + INTRA:          -5.002
REMARK INTER:                  -4.858
REMARK INTRA:                  -0.143
REMARK UNBOUND:                -0.145
REMARK SMILES O=C([O-])C=Cc1ccc(O)cc1
REMARK SMILES IDX 6 1 7 2 12 3 8 4 11 5 9 6 5 7 4 8 2 9 1 10 3 11 10 12
REMARK H PARENT 10 13
REMARK Flexibility Score: inf
ROOT
ATOM      1  C   UNL     1      -0.490 -25.345 -46.582  1.00  0.00    -0.025 A 
ATOM      2  C   UNL     1      -0.116 -24.182 -45.887  1.00  0.00     0.012 A 
ATOM      3  C   UNL     1       0.520 -26.208 -47.056  1.00  0.00     0.012 A 
ATOM      4  C   UNL     1       1.233 -23.874 -45.689  1.00  0.00     0.047 A 
ATOM      5  C   UNL     1       1.868 -25.897 -46.856  1.00  0.00     0.047 A 
ATOM      6  C   UNL     1       2.227 -24.727 -46.173  1.00  0.00     0.115 A 
ENDROOT
BRANCH   1   7
ATOM      7  C   UNL     1      -1.936 -25.634 -46.757  1.00  0.00     0.010 C 
ATOM      8  C   UNL     1      -2.803 -25.734 -45.741  1.00  0.00     0.025 C 
BRANCH   8   9
ATOM      9  C   UNL     1      -4.227 -26.033 -45.961  1.00  0.00     0.064 C 
ATOM     10  O   UNL     1      -4.565 -26.773 -46.921  1.00  0.00    -0.545 OA
ATOM     11  O   UNL     1      -5.208 -25.513 -45.123  1.00  0.00    -0.545 OA
ENDBRANCH   8   9
ENDBRANCH   1   7
BRANCH   6  12
ATOM     12  O   UNL     1       3.569 -24.408 -45.970  1.00  0.00    -0.508 OA
ATOM     13  H   UNL     1       3.993 -23.600 -46.409  1.00  0.00     0.293 HD
ENDBRANCH   6  12
TORSDOF 3
ENDMDL
MODEL 3
REMARK VINA RESULT:    -4.180     12.712     14.123
REMARK INTER + INTRA:          -4.936
REMARK INTER:                  -4.797
REMARK INTRA:                  -0.139
REMARK UNBOUND:                -0.145
REMARK SMILES O=C([O-])C=Cc1ccc(O)cc1
REMARK SMILES IDX 6 1 7 2 12 3 8 4 11 5 9 6 5 7 4 8 2 9 1 10 3 11 10 12
REMARK H PARENT 10 13
REMARK Flexibility Score: inf
ROOT
ATOM      1  C   UNL     1       0.722 -10.609 -41.442  1.00  0.00    -0.025 A 
ATOM      2  C   UNL     1       1.439 -11.760 -41.812  1.00  0.00     0.012 A 
ATOM      3  C   UNL     1       0.751  -9.486 -42.294  1.00  0.00     0.012 A 
ATOM      4  C   UNL     1       2.188 -11.782 -42.992  1.00  0.00     0.047 A 
ATOM      5  C   UNL     1       1.501  -9.513 -43.475  1.00  0.00     0.047 A 
ATOM      6  C   UNL     1       2.222 -10.661 -43.825  1.00  0.00     0.115 A 
ENDROOT
BRANCH   1   7
ATOM      7  C   UNL     1      -0.067 -10.637 -40.184  1.00  0.00     0.010 C 
ATOM      8  C   UNL     1      -0.367  -9.545 -39.469  1.00  0.00     0.025 C 
BRANCH   8   9
ATOM      9  C   UNL     1      -1.143  -9.622 -38.221  1.00  0.00     0.064 C 
ATOM     10  O   UNL     1      -2.004 -10.529 -38.079  1.00  0.00    -0.545 OA
ATOM     11  O   UNL     1      -0.939  -8.709 -37.192  1.00  0.00    -0.545 OA
ENDBRANCH   8   9
ENDBRANCH   1   7
BRANCH   6  12
ATOM     12  O   UNL     1       2.974 -10.697 -44.998  1.00  0.00    -0.508 OA
ATOM     13  H   UNL     1       2.766 -11.354 -45.740  1.00  0.00     0.293 HD
ENDBRANCH   6  12
TORSDOF 3
ENDMDL
MODEL 4
REMARK VINA RESULT:    -4.151     13.730     16.485
REMARK INTER + INTRA:          -4.903
REMARK INTER:                  -4.760
REMARK INTRA:                  -0.143
REMARK UNBOUND:                -0.145
REMARK SMILES O=C([O-])C=Cc1ccc(O)cc1
REMARK SMILES IDX 6 1 7 2 12 3 8 4 11 5 9 6 5 7 4 8 2 9 1 10 3 11 10 12
REMARK H PARENT 10 13
REMARK Flexibility Score: inf
ROOT
ATOM      1  C   UNL     1      -0.775  -8.799 -39.089  1.00  0.00    -0.025 A 
ATOM      2  C   UNL     1      -0.927  -9.903 -38.231  1.00  0.00     0.012 A 
ATOM      3  C   UNL     1      -0.862  -7.501 -38.548  1.00  0.00     0.012 A 
ATOM      4  C   UNL     1      -1.184  -9.715 -36.870  1.00  0.00     0.047 A 
ATOM      5  C   UNL     1      -1.119  -7.317 -37.186  1.00  0.00     0.047 A 
ATOM      6  C   UNL     1      -1.283  -8.424 -36.344  1.00  0.00     0.115 A 
ENDROOT
BRANCH   1   7
ATOM      7  C   UNL     1      -0.492  -9.050 -40.525  1.00  0.00     0.010 C 
ATOM      8  C   UNL     1       0.441  -9.907 -40.961  1.00  0.00     0.025 C 
BRANCH   8   9
ATOM      9  C   UNL     1       0.695 -10.116 -42.395  1.00  0.00     0.064 C 
ATOM     10  O   UNL     1       0.440 -11.233 -42.915  1.00  0.00    -0.545 OA
ATOM     11  O   UNL     1       1.213  -9.098 -43.189  1.00  0.00    -0.545 OA
ENDBRANCH   8   9
ENDBRANCH   1   7
BRANCH   6  12
ATOM     12  O   UNL     1      -1.541  -8.251 -34.986  1.00  0.00    -0.508 OA
ATOM     13  H   UNL     1      -1.265  -7.408 -34.497  1.00  0.00     0.293 HD
ENDBRANCH   6  12
TORSDOF 3
ENDMDL
MODEL 5
REMARK VINA RESULT:    -4.118     13.723     16.785
REMARK INTER + INTRA:          -4.865
REMARK INTER:                  -4.730
REMARK INTRA:                  -0.134
REMARK UNBOUND:                -0.145
REMARK SMILES O=C([O-])C=Cc1ccc(O)cc1
REMARK SMILES IDX 6 1 7 2 12 3 8 4 11 5 9 6 5 7 4 8 2 9 1 10 3 11 10 12
REMARK H PARENT 10 13
REMARK Flexibility Score: inf
ROOT
ATOM      1  C   UNL     1      -0.851  -8.706 -38.868  1.00  0.00    -0.025 A 
ATOM      2  C   UNL     1      -1.090  -7.344 -38.614  1.00  0.00     0.012 A 
ATOM      3  C   UNL     1      -0.758  -9.594 -37.778  1.00  0.00     0.012 A 
ATOM      4  C   UNL     1      -1.209  -6.876 -37.301  1.00  0.00     0.047 A 
ATOM      5  C   UNL     1      -0.878  -9.123 -36.467  1.00  0.00     0.047 A 
ATOM      6  C   UNL     1      -1.102  -7.761 -36.227  1.00  0.00     0.115 A 
ENDROOT
BRANCH   1   7
ATOM      7  C   UNL     1      -0.742  -9.155 -40.279  1.00  0.00     0.010 C 
ATOM      8  C   UNL     1       0.340  -9.759 -40.786  1.00  0.00     0.025 C 
BRANCH   8   9
ATOM      9  C   UNL     1       0.409 -10.178 -42.196  1.00  0.00     0.064 C 
ATOM     10  O   UNL     1       1.208  -9.599 -42.978  1.00  0.00    -0.545 OA
ATOM     11  O   UNL     1      -0.396 -11.204 -42.679  1.00  0.00    -0.545 OA
ENDBRANCH   8   9
ENDBRANCH   1   7
BRANCH   6  12
ATOM     12  O   UNL     1      -1.222  -7.281 -34.924  1.00  0.00    -0.508 OA
ATOM     13  H   UNL     1      -0.422  -6.925 -34.415  1.00  0.00     0.293 HD
ENDBRANCH   6  12
TORSDOF 3
ENDMDL
MODEL 6
REMARK VINA RESULT:    -4.096      3.001      3.873
REMARK INTER + INTRA:          -4.840
REMARK INTER:                  -4.698
REMARK INTRA:                  -0.141
REMARK UNBOUND:                -0.145
REMARK SMILES O=C([O-])C=Cc1ccc(O)cc1
REMARK SMILES IDX 6 1 7 2 12 3 8 4 11 5 9 6 5 7 4 8 2 9 1 10 3 11 10 12
REMARK H PARENT 10 13
REMARK Flexibility Score: inf
ROOT
ATOM      1  C   UNL     1       1.118 -25.108 -46.221  1.00  0.00    -0.025 A 
ATOM      2  C   UNL     1       1.189 -26.344 -46.888  1.00  0.00     0.012 A 
ATOM      3  C   UNL     1      -0.123 -24.442 -46.154  1.00  0.00     0.012 A 
ATOM      4  C   UNL     1       0.054 -26.891 -47.494  1.00  0.00     0.047 A 
ATOM      5  C   UNL     1      -1.256 -24.993 -46.761  1.00  0.00     0.047 A 
ATOM      6  C   UNL     1      -1.169 -26.219 -47.434  1.00  0.00     0.115 A 
ENDROOT
BRANCH   1   7
ATOM      7  C   UNL     1       2.348 -24.573 -45.585  1.00  0.00     0.010 C 
ATOM      8  C   UNL     1       3.106 -25.270 -44.728  1.00  0.00     0.025 C 
BRANCH   8   9
ATOM      9  C   UNL     1       4.312 -24.696 -44.111  1.00  0.00     0.064 C 
ATOM     10  O   UNL     1       5.440 -24.924 -44.622  1.00  0.00    -0.545 OA
ATOM     11  O   UNL     1       4.228 -23.902 -42.972  1.00  0.00    -0.545 OA
ENDBRANCH   8   9
ENDBRANCH   1   7
BRANCH   6  12
ATOM     12  O   UNL     1      -2.292 -26.775 -48.043  1.00  0.00    -0.508 OA
ATOM     13  H   UNL     1      -3.081 -27.103 -47.500  1.00  0.00     0.293 HD
ENDBRANCH   6  12
TORSDOF 3
ENDMDL
MODEL 7
REMARK VINA RESULT:    -4.095     13.589     15.304
REMARK INTER + INTRA:          -4.839
REMARK INTER:                  -4.693
REMARK INTRA:                  -0.146
REMARK UNBOUND:                -0.145
REMARK SMILES O=C([O-])C=Cc1ccc(O)cc1
REMARK SMILES IDX 6 1 7 2 12 3 8 4 11 5 9 6 5 7 4 8 2 9 1 10 3 11 10 12
REMARK H PARENT 10 13
REMARK Flexibility Score: inf
ROOT
ATOM      1  C   UNL     1      -0.814  -9.465 -41.865  1.00  0.00    -0.025 A 
ATOM      2  C   UNL     1      -0.899  -9.066 -40.520  1.00  0.00     0.012 A 
ATOM      3  C   UNL     1      -1.857  -9.114 -42.745  1.00  0.00     0.012 A 
ATOM      4  C   UNL     1      -2.010  -8.354 -40.058  1.00  0.00     0.047 A 
ATOM      5  C   UNL     1      -2.967  -8.401 -42.280  1.00  0.00     0.047 A 
ATOM      6  C   UNL     1      -3.046  -8.021 -40.934  1.00  0.00     0.115 A 
ENDROOT
BRANCH   1   7
ATOM      7  C   UNL     1       0.391 -10.211 -42.309  1.00  0.00     0.010 C 
ATOM      8  C   UNL     1       1.628  -9.960 -41.861  1.00  0.00     0.025 C 
BRANCH   8   9
ATOM      9  C   UNL     1       2.796 -10.717 -42.338  1.00  0.00     0.064 C 
ATOM     10  O   UNL     1       3.713 -11.019 -41.531  1.00  0.00    -0.545 OA
ATOM     11  O   UNL     1       2.905 -11.105 -43.669  1.00  0.00    -0.545 OA
ENDBRANCH   8   9
ENDBRANCH   1   7
BRANCH   6  12
ATOM     12  O   UNL     1      -4.148  -7.312 -40.461  1.00  0.00    -0.508 OA
ATOM     13  H   UNL     1      -4.994  -7.784 -40.164  1.00  0.00     0.293 HD
ENDBRANCH   6  12
TORSDOF 3
ENDMDL
MODEL 8
REMARK VINA RESULT:    -4.027     15.671     16.951
REMARK INTER + INTRA:          -4.761
REMARK INTER:                  -4.620
REMARK INTRA:                  -0.140
REMARK UNBOUND:                -0.145
REMARK SMILES O=C([O-])C=Cc1ccc(O)cc1
REMARK SMILES IDX 6 1 7 2 12 3 8 4 11 5 9 6 5 7 4 8 2 9 1 10 3 11 10 12
REMARK H PARENT 10 13
REMARK Flexibility Score: inf
ROOT
ATOM      1  C   UNL     1      -1.009  -9.796 -35.767  1.00  0.00    -0.025 A 
ATOM      2  C   UNL     1      -1.341 -10.602 -36.870  1.00  0.00     0.012 A 
ATOM      3  C   UNL     1      -0.527  -8.491 -36.000  1.00  0.00     0.012 A 
ATOM      4  C   UNL     1      -1.174 -10.127 -38.174  1.00  0.00     0.047 A 
ATOM      5  C   UNL     1      -0.361  -8.020 -37.306  1.00  0.00     0.047 A 
ATOM      6  C   UNL     1      -0.683  -8.838 -38.396  1.00  0.00     0.115 A 
ENDROOT
BRANCH   1   7
ATOM      7  C   UNL     1      -1.214 -10.341 -34.402  1.00  0.00     0.010 C 
ATOM      8  C   UNL     1      -0.499 -11.351 -33.889  1.00  0.00     0.025 C 
BRANCH   8   9
ATOM      9  C   UNL     1      -0.745 -11.868 -32.533  1.00  0.00     0.064 C 
ATOM     10  O   UNL     1      -1.787 -11.523 -31.916  1.00  0.00    -0.545 OA
ATOM     11  O   UNL     1       0.154 -12.733 -31.920  1.00  0.00    -0.545 OA
ENDBRANCH   8   9
ENDBRANCH   1   7
BRANCH   6  12
ATOM     12  O   UNL     1      -0.520  -8.378 -39.701  1.00  0.00    -0.508 OA
ATOM     13  H   UNL     1       0.333  -7.921 -39.999  1.00  0.00     0.293 HD
ENDBRANCH   6  12
TORSDOF 3
ENDMDL
MODEL 9
REMARK VINA RESULT:    -3.944     12.715     15.088
REMARK INTER + INTRA:          -4.665
REMARK INTER:                  -4.524
REMARK INTRA:                  -0.142
REMARK UNBOUND:                -0.145
REMARK SMILES O=C([O-])C=Cc1ccc(O)cc1
REMARK SMILES IDX 6 1 7 2 12 3 8 4 11 5 9 6 5 7 4 8 2 9 1 10 3 11 10 12
REMARK H PARENT 10 13
REMARK Flexibility Score: inf
ROOT
ATOM      1  C   UNL     1      -0.760  -9.742 -39.600  1.00  0.00    -0.025 A 
ATOM      2  C   UNL     1      -0.764 -11.147 -39.655  1.00  0.00     0.012 A 
ATOM      3  C   UNL     1      -0.406  -9.018 -40.756  1.00  0.00     0.012 A 
ATOM      4  C   UNL     1      -0.400 -11.813 -40.829  1.00  0.00     0.047 A 
ATOM      5  C   UNL     1      -0.042  -9.688 -41.928  1.00  0.00     0.047 A 
ATOM      6  C   UNL     1      -0.037 -11.088 -41.966  1.00  0.00     0.115 A 
ENDROOT
BRANCH   1   7
ATOM      7  C   UNL     1      -1.165  -9.081 -38.334  1.00  0.00     0.010 C 
ATOM      8  C   UNL     1      -0.658  -9.396 -37.135  1.00  0.00     0.025 C 
BRANCH   8   9
ATOM      9  C   UNL     1      -1.098  -8.721 -35.903  1.00  0.00     0.064 C 
ATOM     10  O   UNL     1      -1.471  -9.409 -34.917  1.00  0.00    -0.545 OA
ATOM     11  O   UNL     1      -1.108  -7.334 -35.809  1.00  0.00    -0.545 OA
ENDBRANCH   8   9
ENDBRANCH   1   7
BRANCH   6  12
ATOM     12  O   UNL     1       0.325 -11.765 -43.129  1.00  0.00    -0.508 OA
ATOM     13  H   UNL     1       0.203 -12.767 -43.219  1.00  0.00     0.293 HD
ENDBRANCH   6  12
TORSDOF 3
ENDMDL
