MODEL 1
REMARK VINA RESULT:    -6.673      0.000      0.000
REMARK INTER + INTRA:         -13.858
REMARK INTER:                 -10.964
REMARK INTRA:                  -2.894
REMARK UNBOUND:                -2.894
REMARK SMILES C[C@@H]1O[C@@H](OC[C@@H]2O[C@@H](Oc3c(-c4ccc(O)c(O)c4)oc4cc(O)cc(O)c4c3=O)[C@H](O)[C@@H](O)[C@H]2O)[C@H](O)[C@@H](O)[C@H]1O
REMARK SMILES IDX 7 1 36 2 34 3 32 4 9 5 8 6 6 7 5 8 4 9 1 10 2 11 42 12 3 13
REMARK SMILES IDX 40 14 38 15 43 16 41 18 39 20 37 22 35 24 10 26 11 27 12 28
REMARK SMILES IDX 30 29 21 30 29 31 31 32 22 33 27 34 23 35 26 36 24 37 13 38
REMARK SMILES IDX 20 39 14 40 18 41 15 42 16 43 19 44 17 46 28 48 25 50 33 52
REMARK H PARENT 43 17 41 19 39 21 37 23 35 25 19 45 17 47 28 49 25 51 33 53
REMARK Flexibility Score: inf
ROOT
ATOM      1  C   UNL     1      56.440   5.130  82.691  1.00  0.00     0.180 C 
ATOM      2  C   UNL     1      55.778   3.988  83.505  1.00  0.00     0.177 C 
ATOM      3  C   UNL     1      54.431   3.567  82.872  1.00  0.00     0.180 C 
ATOM      4  C   UNL     1      53.573   4.788  82.461  1.00  0.00     0.214 C 
ATOM      5  C   UNL     1      54.411   5.904  81.797  1.00  0.00     0.339 C 
ATOM      6  O   UNL     1      55.551   6.228  82.574  1.00  0.00    -0.332 OA
ENDROOT
BRANCH   1   7
ATOM      7  C   UNL     1      57.718   5.649  83.368  1.00  0.00     0.198 C 
BRANCH   7   8
ATOM      8  O   UNL     1      58.258   6.727  82.626  1.00  0.00    -0.347 OA
BRANCH   8   9
ATOM      9  C   UNL     1      58.818   7.726  83.471  1.00  0.00     0.281 C 
ATOM     10  C   UNL     1      56.042  10.140  83.336  1.00  0.00     0.041 C 
ATOM     11  C   UNL     1      57.201   9.297  82.802  1.00  0.00     0.150 C 
ATOM     12  C   UNL     1      58.240  10.193  82.082  1.00  0.00     0.174 C 
ATOM     13  O   UNL     1      57.801   8.621  83.898  1.00  0.00    -0.344 OA
ATOM     14  C   UNL     1      59.444   9.355  81.616  1.00  0.00     0.179 C 
ATOM     15  C   UNL     1      59.972   8.503  82.785  1.00  0.00     0.202 C 
BRANCH  12  16
ATOM     16  O   UNL     1      57.674  10.895  81.000  1.00  0.00    -0.388 OA
ATOM     17  H   UNL     1      58.068  11.810  80.982  1.00  0.00     0.211 HD
ENDBRANCH  12  16
BRANCH  14  18
ATOM     18  O   UNL     1      59.068   8.524  80.545  1.00  0.00    -0.387 OA
ATOM     19  H   UNL     1      58.725   7.682  80.941  1.00  0.00     0.211 HD
ENDBRANCH  14  18
BRANCH  15  20
ATOM     20  O   UNL     1      60.584   9.335  83.738  1.00  0.00    -0.385 OA
ATOM     21  H   UNL     1      61.467   8.931  83.952  1.00  0.00     0.211 HD
ENDBRANCH  15  20
ENDBRANCH   8   9
ENDBRANCH   7   8
ENDBRANCH   1   7
BRANCH   2  22
ATOM     22  O   UNL     1      56.630   2.870  83.558  1.00  0.00    -0.387 OA
ATOM     23  H   UNL     1      56.476   2.331  82.735  1.00  0.00     0.211 HD
ENDBRANCH   2  22
BRANCH   3  24
ATOM     24  O   UNL     1      54.614   2.694  81.782  1.00  0.00    -0.387 OA
ATOM     25  H   UNL     1      54.001   1.925  81.893  1.00  0.00     0.211 HD
ENDBRANCH   3  24
BRANCH   5  26
ATOM     26  O   UNL     1      54.764   5.540  80.459  1.00  0.00    -0.454 OA
BRANCH  26  27
ATOM     27  C   UNL     1      54.631   6.387  79.345  1.00  0.00     0.214 A 
ATOM     28  C   UNL     1      53.573   6.170  78.441  1.00  0.00     0.180 A 
ATOM     29  C   UNL     1      55.508   7.463  79.108  1.00  0.00     0.239 A 
ATOM     30  O   UNL     1      53.370   7.016  77.438  1.00  0.00    -0.452 OA
ATOM     31  C   UNL     1      55.273   8.328  78.019  1.00  0.00     0.111 A 
ATOM     32  O   UNL     1      56.505   7.639  79.858  1.00  0.00    -0.285 OA
ATOM     33  C   UNL     1      54.149   8.066  77.201  1.00  0.00     0.146 A 
ATOM     34  C   UNL     1      56.101   9.436  77.719  1.00  0.00     0.134 A 
ATOM     35  C   UNL     1      53.847   8.911  76.129  1.00  0.00     0.094 A 
ATOM     36  C   UNL     1      55.787  10.267  76.634  1.00  0.00     0.093 A 
ATOM     37  C   UNL     1      54.663  10.013  75.846  1.00  0.00     0.123 A 
BRANCH  28  38
ATOM     38  C   UNL     1      52.639   5.034  78.600  1.00  0.00     0.025 A 
ATOM     39  C   UNL     1      51.672   5.067  79.619  1.00  0.00     0.062 A 
ATOM     40  C   UNL     1      52.673   3.936  77.723  1.00  0.00     0.016 A 
ATOM     41  C   UNL     1      50.774   4.006  79.782  1.00  0.00     0.158 A 
ATOM     42  C   UNL     1      51.779   2.876  77.883  1.00  0.00     0.051 A 
ATOM     43  C   UNL     1      50.830   2.902  78.913  1.00  0.00     0.157 A 
BRANCH  41  44
ATOM     44  O   UNL     1      49.833   4.067  80.809  1.00  0.00    -0.504 OA
ATOM     45  H   UNL     1      49.512   4.948  81.191  1.00  0.00     0.293 HD
ENDBRANCH  41  44
BRANCH  43  46
ATOM     46  O   UNL     1      49.943   1.839  79.075  1.00  0.00    -0.504 OA
ATOM     47  H   UNL     1      49.976   1.022  78.475  1.00  0.00     0.293 HD
ENDBRANCH  43  46
ENDBRANCH  28  38
BRANCH  34  48
ATOM     48  O   UNL     1      57.232   9.721  78.488  1.00  0.00    -0.507 OA
ATOM     49  H   UNL     1      57.534   9.113  79.239  1.00  0.00     0.293 HD
ENDBRANCH  34  48
BRANCH  37  50
ATOM     50  O   UNL     1      54.366  10.862  74.783  1.00  0.00    -0.508 OA
ATOM     51  H   UNL     1      53.609  11.533  74.837  1.00  0.00     0.293 HD
ENDBRANCH  37  50
ENDBRANCH  26  27
ENDBRANCH   5  26
BRANCH   4  52
ATOM     52  O   UNL     1      52.873   5.296  83.572  1.00  0.00    -0.384 OA
ATOM     53  H   UNL     1      53.475   5.249  84.358  1.00  0.00     0.211 HD
ENDBRANCH   4  52
TORSDOF 16
ENDMDL
MODEL 2
REMARK VINA RESULT:    -6.410      2.157      3.534
REMARK INTER + INTRA:         -13.426
REMARK INTER:                 -11.113
REMARK INTRA:                  -2.313
REMARK UNBOUND:                -2.894
REMARK SMILES C[C@@H]1O[C@@H](OC[C@@H]2O[C@@H](Oc3c(-c4ccc(O)c(O)c4)oc4cc(O)cc(O)c4c3=O)[C@H](O)[C@@H](O)[C@H]2O)[C@H](O)[C@@H](O)[C@H]1O
REMARK SMILES IDX 7 1 36 2 34 3 32 4 9 5 8 6 6 7 5 8 4 9 1 10 2 11 42 12 3 13
REMARK SMILES IDX 40 14 38 15 43 16 41 18 39 20 37 22 35 24 10 26 11 27 12 28
REMARK SMILES IDX 30 29 21 30 29 31 31 32 22 33 27 34 23 35 26 36 24 37 13 38
REMARK SMILES IDX 20 39 14 40 18 41 15 42 16 43 19 44 17 46 28 48 25 50 33 52
REMARK H PARENT 43 17 41 19 39 21 37 23 35 25 19 45 17 47 28 49 25 51 33 53
REMARK Flexibility Score: inf
ROOT
ATOM      1  C   UNL     1      56.300   6.123  82.143  1.00  0.00     0.180 C 
ATOM      2  C   UNL     1      57.211   5.608  83.287  1.00  0.00     0.177 C 
ATOM      3  C   UNL     1      57.648   4.147  83.031  1.00  0.00     0.180 C 
ATOM      4  C   UNL     1      56.471   3.261  82.555  1.00  0.00     0.214 C 
ATOM      5  C   UNL     1      55.569   3.979  81.526  1.00  0.00     0.339 C 
ATOM      6  O   UNL     1      55.184   5.264  81.981  1.00  0.00    -0.332 OA
ENDROOT
BRANCH   1   7
ATOM      7  C   UNL     1      55.753   7.529  82.435  1.00  0.00     0.198 C 
BRANCH   7   8
ATOM      8  O   UNL     1      54.990   7.992  81.336  1.00  0.00    -0.347 OA
BRANCH   8   9
ATOM      9  C   UNL     1      53.801   8.653  81.756  1.00  0.00     0.281 C 
ATOM     10  C   UNL     1      51.976   8.528  78.562  1.00  0.00     0.041 C 
ATOM     11  C   UNL     1      53.085   8.931  79.533  1.00  0.00     0.150 C 
ATOM     12  C   UNL     1      53.231  10.473  79.585  1.00  0.00     0.174 C 
ATOM     13  O   UNL     1      52.761   8.417  80.817  1.00  0.00    -0.344 OA
ATOM     14  C   UNL     1      54.293  10.880  80.622  1.00  0.00     0.179 C 
ATOM     15  C   UNL     1      54.012  10.176  81.963  1.00  0.00     0.202 C 
BRANCH  12  16
ATOM     16  O   UNL     1      53.534  11.018  78.323  1.00  0.00    -0.388 OA
ATOM     17  H   UNL     1      53.330  10.332  77.630  1.00  0.00     0.211 HD
ENDBRANCH  12  16
BRANCH  14  18
ATOM     18  O   UNL     1      55.576  10.539  80.159  1.00  0.00    -0.387 OA
ATOM     19  H   UNL     1      55.857   9.730  80.659  1.00  0.00     0.211 HD
ENDBRANCH  14  18
BRANCH  15  20
ATOM     20  O   UNL     1      52.853  10.716  82.547  1.00  0.00    -0.385 OA
ATOM     21  H   UNL     1      53.135  11.168  83.386  1.00  0.00     0.211 HD
ENDBRANCH  15  20
ENDBRANCH   8   9
ENDBRANCH   7   8
ENDBRANCH   1   7
BRANCH   2  22
ATOM     22  O   UNL     1      58.356   6.418  83.400  1.00  0.00    -0.387 OA
ATOM     23  H   UNL     1      58.590   6.480  84.366  1.00  0.00     0.211 HD
ENDBRANCH   2  22
BRANCH   3  24
ATOM     24  O   UNL     1      58.727   4.073  82.129  1.00  0.00    -0.387 OA
ATOM     25  H   UNL     1      59.436   3.516  82.538  1.00  0.00     0.211 HD
ENDBRANCH   3  24
BRANCH   5  26
ATOM     26  O   UNL     1      56.211   4.035  80.247  1.00  0.00    -0.454 OA
BRANCH  26  27
ATOM     27  C   UNL     1      56.239   5.174  79.424  1.00  0.00     0.214 A 
ATOM     28  C   UNL     1      55.071   5.548  78.732  1.00  0.00     0.180 A 
ATOM     29  C   UNL     1      57.391   5.972  79.279  1.00  0.00     0.239 A 
ATOM     30  O   UNL     1      55.046   6.674  78.028  1.00  0.00    -0.452 OA
ATOM     31  C   UNL     1      57.332   7.148  78.505  1.00  0.00     0.111 A 
ATOM     32  O   UNL     1      58.470   5.623  79.828  1.00  0.00    -0.285 OA
ATOM     33  C   UNL     1      56.097   7.475  77.897  1.00  0.00     0.146 A 
ATOM     34  C   UNL     1      58.441   8.009  78.319  1.00  0.00     0.134 A 
ATOM     35  C   UNL     1      55.971   8.649  77.147  1.00  0.00     0.094 A 
ATOM     36  C   UNL     1      58.297   9.176  77.556  1.00  0.00     0.093 A 
ATOM     37  C   UNL     1      57.068   9.501  76.979  1.00  0.00     0.123 A 
BRANCH  28  38
ATOM     38  C   UNL     1      53.837   4.736  78.800  1.00  0.00     0.025 A 
ATOM     39  C   UNL     1      52.779   5.146  79.629  1.00  0.00     0.062 A 
ATOM     40  C   UNL     1      53.684   3.579  78.016  1.00  0.00     0.016 A 
ATOM     41  C   UNL     1      51.601   4.395  79.702  1.00  0.00     0.158 A 
ATOM     42  C   UNL     1      52.509   2.827  78.087  1.00  0.00     0.051 A 
ATOM     43  C   UNL     1      51.465   3.227  78.932  1.00  0.00     0.157 A 
BRANCH  41  44
ATOM     44  O   UNL     1      50.574   4.826  80.543  1.00  0.00    -0.504 OA
ATOM     45  H   UNL     1      49.898   5.521  80.251  1.00  0.00     0.293 HD
ENDBRANCH  41  44
BRANCH  43  46
ATOM     46  O   UNL     1      50.296   2.471  79.006  1.00  0.00    -0.504 OA
ATOM     47  H   UNL     1      50.228   1.655  79.604  1.00  0.00     0.293 HD
ENDBRANCH  43  46
ENDBRANCH  28  38
BRANCH  34  48
ATOM     48  O   UNL     1      59.684   7.715  78.884  1.00  0.00    -0.507 OA
ATOM     49  H   UNL     1      60.308   8.442  79.211  1.00  0.00     0.293 HD
ENDBRANCH  34  48
BRANCH  37  50
ATOM     50  O   UNL     1      56.949  10.674  76.237  1.00  0.00    -0.508 OA
ATOM     51  H   UNL     1      56.907  11.581  76.685  1.00  0.00     0.293 HD
ENDBRANCH  37  50
ENDBRANCH  26  27
ENDBRANCH   5  26
BRANCH   4  52
ATOM     52  O   UNL     1      55.708   2.823  83.655  1.00  0.00    -0.384 OA
ATOM     53  H   UNL     1      54.984   2.239  83.309  1.00  0.00     0.211 HD
ENDBRANCH   4  52
TORSDOF 16
ENDMDL
MODEL 3
REMARK VINA RESULT:    -6.330      2.904      7.219
REMARK INTER + INTRA:         -13.294
REMARK INTER:                 -10.951
REMARK INTRA:                  -2.343
REMARK UNBOUND:                -2.894
REMARK SMILES C[C@@H]1O[C@@H](OC[C@@H]2O[C@@H](Oc3c(-c4ccc(O)c(O)c4)oc4cc(O)cc(O)c4c3=O)[C@H](O)[C@@H](O)[C@H]2O)[C@H](O)[C@@H](O)[C@H]1O
REMARK SMILES IDX 7 1 36 2 34 3 32 4 9 5 8 6 6 7 5 8 4 9 1 10 2 11 42 12 3 13
REMARK SMILES IDX 40 14 38 15 43 16 41 18 39 20 37 22 35 24 10 26 11 27 12 28
REMARK SMILES IDX 30 29 21 30 29 31 31 32 22 33 27 34 23 35 26 36 24 37 13 38
REMARK SMILES IDX 20 39 14 40 18 41 15 42 16 43 19 44 17 46 28 48 25 50 33 52
REMARK H PARENT 43 17 41 19 39 21 37 23 35 25 19 45 17 47 28 49 25 51 33 53
REMARK Flexibility Score: inf
ROOT
ATOM      1  C   UNL     1      54.844   7.428  77.936  1.00  0.00     0.180 C 
ATOM      2  C   UNL     1      56.225   7.115  78.565  1.00  0.00     0.177 C 
ATOM      3  C   UNL     1      56.944   8.415  78.995  1.00  0.00     0.180 C 
ATOM      4  C   UNL     1      56.846   9.520  77.915  1.00  0.00     0.214 C 
ATOM      5  C   UNL     1      55.441   9.601  77.277  1.00  0.00     0.339 C 
ATOM      6  O   UNL     1      54.991   8.327  76.850  1.00  0.00    -0.332 OA
ENDROOT
BRANCH   1   7
ATOM      7  C   UNL     1      54.164   6.162  77.389  1.00  0.00     0.198 C 
BRANCH   7   8
ATOM      8  O   UNL     1      53.282   5.627  78.359  1.00  0.00    -0.347 OA
BRANCH   8   9
ATOM      9  C   UNL     1      53.542   4.249  78.610  1.00  0.00     0.281 C 
ATOM     10  C   UNL     1      50.503   2.856  77.068  1.00  0.00     0.041 C 
ATOM     11  C   UNL     1      51.329   3.662  78.071  1.00  0.00     0.150 C 
ATOM     12  C   UNL     1      50.996   3.232  79.522  1.00  0.00     0.174 C 
ATOM     13  O   UNL     1      52.705   3.445  77.791  1.00  0.00    -0.344 OA
ATOM     14  C   UNL     1      51.885   3.987  80.526  1.00  0.00     0.179 C 
ATOM     15  C   UNL     1      53.362   3.875  80.104  1.00  0.00     0.202 C 
BRANCH  12  16
ATOM     16  O   UNL     1      49.634   3.416  79.829  1.00  0.00    -0.388 OA
ATOM     17  H   UNL     1      49.427   4.388  79.755  1.00  0.00     0.211 HD
ENDBRANCH  12  16
BRANCH  14  18
ATOM     18  O   UNL     1      51.503   5.339  80.589  1.00  0.00    -0.387 OA
ATOM     19  H   UNL     1      52.207   5.813  81.103  1.00  0.00     0.211 HD
ENDBRANCH  14  18
BRANCH  15  20
ATOM     20  O   UNL     1      53.810   2.557  80.295  1.00  0.00    -0.385 OA
ATOM     21  H   UNL     1      53.961   2.440  81.271  1.00  0.00     0.211 HD
ENDBRANCH  15  20
ENDBRANCH   8   9
ENDBRANCH   7   8
ENDBRANCH   1   7
BRANCH   2  22
ATOM     22  O   UNL     1      56.072   6.282  79.688  1.00  0.00    -0.387 OA
ATOM     23  H   UNL     1      56.828   6.467  80.309  1.00  0.00     0.211 HD
ENDBRANCH   2  22
BRANCH   3  24
ATOM     24  O   UNL     1      56.477   8.887  80.237  1.00  0.00    -0.387 OA
ATOM     25  H   UNL     1      57.176   8.717  80.917  1.00  0.00     0.211 HD
ENDBRANCH   3  24
BRANCH   5  26
ATOM     26  O   UNL     1      54.515  10.220  78.176  1.00  0.00    -0.454 OA
BRANCH  26  27
ATOM     27  C   UNL     1      53.119  10.200  78.014  1.00  0.00     0.214 A 
ATOM     28  C   UNL     1      52.305   9.881  79.119  1.00  0.00     0.180 A 
ATOM     29  C   UNL     1      52.498  10.509  76.788  1.00  0.00     0.239 A 
ATOM     30  O   UNL     1      50.983   9.953  79.014  1.00  0.00    -0.452 OA
ATOM     31  C   UNL     1      51.091  10.553  76.711  1.00  0.00     0.111 A 
ATOM     32  O   UNL     1      53.201  10.727  75.766  1.00  0.00    -0.285 OA
ATOM     33  C   UNL     1      50.358  10.278  77.889  1.00  0.00     0.146 A 
ATOM     34  C   UNL     1      50.391  10.865  75.520  1.00  0.00     0.134 A 
ATOM     35  C   UNL     1      48.961  10.343  77.879  1.00  0.00     0.094 A 
ATOM     36  C   UNL     1      48.991  10.916  75.528  1.00  0.00     0.093 A 
ATOM     37  C   UNL     1      48.276  10.665  76.701  1.00  0.00     0.123 A 
BRANCH  28  38
ATOM     38  C   UNL     1      52.886   9.503  80.426  1.00  0.00     0.025 A 
ATOM     39  C   UNL     1      53.139   8.151  80.709  1.00  0.00     0.062 A 
ATOM     40  C   UNL     1      53.230  10.479  81.377  1.00  0.00     0.016 A 
ATOM     41  C   UNL     1      53.695   7.773  81.936  1.00  0.00     0.158 A 
ATOM     42  C   UNL     1      53.785  10.105  82.604  1.00  0.00     0.051 A 
ATOM     43  C   UNL     1      54.016   8.754  82.891  1.00  0.00     0.157 A 
BRANCH  41  44
ATOM     44  O   UNL     1      53.925   6.421  82.188  1.00  0.00    -0.504 OA
ATOM     45  H   UNL     1      53.514   5.946  82.982  1.00  0.00     0.293 HD
ENDBRANCH  41  44
BRANCH  43  46
ATOM     46  O   UNL     1      54.563   8.383  84.119  1.00  0.00    -0.504 OA
ATOM     47  H   UNL     1      54.214   7.585  84.637  1.00  0.00     0.293 HD
ENDBRANCH  43  46
ENDBRANCH  28  38
BRANCH  34  48
ATOM     48  O   UNL     1      51.075  11.125  74.329  1.00  0.00    -0.507 OA
ATOM     49  H   UNL     1      51.724  10.459  73.930  1.00  0.00     0.293 HD
ENDBRANCH  34  48
BRANCH  37  50
ATOM     50  O   UNL     1      46.885  10.736  76.685  1.00  0.00    -0.508 OA
ATOM     51  H   UNL     1      46.400  11.490  76.215  1.00  0.00     0.293 HD
ENDBRANCH  37  50
ENDBRANCH  26  27
ENDBRANCH   5  26
BRANCH   4  52
ATOM     52  O   UNL     1      57.826   9.327  76.921  1.00  0.00    -0.384 OA
ATOM     53  H   UNL     1      57.407   8.828  76.174  1.00  0.00     0.211 HD
ENDBRANCH   4  52
TORSDOF 16
ENDMDL
MODEL 4
REMARK VINA RESULT:    -6.329      2.248      6.862
REMARK INTER + INTRA:         -13.293
REMARK INTER:                 -12.069
REMARK INTRA:                  -1.224
REMARK UNBOUND:                -2.894
REMARK SMILES C[C@@H]1O[C@@H](OC[C@@H]2O[C@@H](Oc3c(-c4ccc(O)c(O)c4)oc4cc(O)cc(O)c4c3=O)[C@H](O)[C@@H](O)[C@H]2O)[C@H](O)[C@@H](O)[C@H]1O
REMARK SMILES IDX 7 1 36 2 34 3 32 4 9 5 8 6 6 7 5 8 4 9 1 10 2 11 42 12 3 13
REMARK SMILES IDX 40 14 38 15 43 16 41 18 39 20 37 22 35 24 10 26 11 27 12 28
REMARK SMILES IDX 30 29 21 30 29 31 31 32 22 33 27 34 23 35 26 36 24 37 13 38
REMARK SMILES IDX 20 39 14 40 18 41 15 42 16 43 19 44 17 46 28 48 25 50 33 52
REMARK H PARENT 43 17 41 19 39 21 37 23 35 25 19 45 17 47 28 49 25 51 33 53
REMARK Flexibility Score: inf
ROOT
ATOM      1  C   UNL     1      53.800   8.399  80.638  1.00  0.00     0.180 C 
ATOM      2  C   UNL     1      54.879   9.414  81.093  1.00  0.00     0.177 C 
ATOM      3  C   UNL     1      55.977   8.717  81.930  1.00  0.00     0.180 C 
ATOM      4  C   UNL     1      55.381   7.740  82.973  1.00  0.00     0.214 C 
ATOM      5  C   UNL     1      54.212   6.906  82.404  1.00  0.00     0.339 C 
ATOM      6  O   UNL     1      53.253   7.729  81.761  1.00  0.00    -0.332 OA
ENDROOT
BRANCH   1   7
ATOM      7  C   UNL     1      52.636   9.088  79.909  1.00  0.00     0.198 C 
BRANCH   7   8
ATOM      8  O   UNL     1      53.093   9.668  78.701  1.00  0.00    -0.347 OA
BRANCH   8   9
ATOM      9  C   UNL     1      53.799   8.729  77.896  1.00  0.00     0.281 C 
ATOM     10  C   UNL     1      56.077  11.085  76.221  1.00  0.00     0.041 C 
ATOM     11  C   UNL     1      54.739  10.446  76.593  1.00  0.00     0.150 C 
ATOM     12  C   UNL     1      53.961  10.029  75.320  1.00  0.00     0.174 C 
ATOM     13  O   UNL     1      54.999   9.315  77.412  1.00  0.00    -0.344 OA
ATOM     14  C   UNL     1      52.651   9.314  75.699  1.00  0.00     0.179 C 
ATOM     15  C   UNL     1      52.941   8.197  76.718  1.00  0.00     0.202 C 
BRANCH  12  16
ATOM     16  O   UNL     1      53.703  11.125  74.475  1.00  0.00    -0.388 OA
ATOM     17  H   UNL     1      53.169  10.801  73.699  1.00  0.00     0.211 HD
ENDBRANCH  12  16
BRANCH  14  18
ATOM     18  O   UNL     1      51.737  10.236  76.240  1.00  0.00    -0.387 OA
ATOM     19  H   UNL     1      52.160  10.615  77.054  1.00  0.00     0.211 HD
ENDBRANCH  14  18
BRANCH  15  20
ATOM     20  O   UNL     1      53.639   7.152  76.088  1.00  0.00    -0.385 OA
ATOM     21  H   UNL     1      54.597   7.254  76.333  1.00  0.00     0.211 HD
ENDBRANCH  15  20
ENDBRANCH   8   9
ENDBRANCH   7   8
ENDBRANCH   1   7
BRANCH   2  22
ATOM     22  O   UNL     1      55.474  10.026  79.974  1.00  0.00    -0.387 OA
ATOM     23  H   UNL     1      56.417  10.240  80.211  1.00  0.00     0.211 HD
ENDBRANCH   2  22
BRANCH   3  24
ATOM     24  O   UNL     1      56.923   8.064  81.116  1.00  0.00    -0.387 OA
ATOM     25  H   UNL     1      56.435   7.529  80.441  1.00  0.00     0.211 HD
ENDBRANCH   3  24
BRANCH   5  26
ATOM     26  O   UNL     1      54.703   5.880  81.534  1.00  0.00    -0.454 OA
BRANCH  26  27
ATOM     27  C   UNL     1      53.951   5.286  80.506  1.00  0.00     0.214 A 
ATOM     28  C   UNL     1      54.559   5.056  79.256  1.00  0.00     0.180 A 
ATOM     29  C   UNL     1      52.611   4.890  80.684  1.00  0.00     0.239 A 
ATOM     30  O   UNL     1      53.900   4.407  78.304  1.00  0.00    -0.452 OA
ATOM     31  C   UNL     1      51.936   4.224  79.641  1.00  0.00     0.111 A 
ATOM     32  O   UNL     1      52.018   5.148  81.765  1.00  0.00    -0.285 OA
ATOM     33  C   UNL     1      52.650   3.982  78.443  1.00  0.00     0.146 A 
ATOM     34  C   UNL     1      50.594   3.785  79.744  1.00  0.00     0.134 A 
ATOM     35  C   UNL     1      52.042   3.293  77.389  1.00  0.00     0.094 A 
ATOM     36  C   UNL     1      49.999   3.104  78.673  1.00  0.00     0.093 A 
ATOM     37  C   UNL     1      50.718   2.851  77.504  1.00  0.00     0.123 A 
BRANCH  28  38
ATOM     38  C   UNL     1      55.949   5.484  78.981  1.00  0.00     0.025 A 
ATOM     39  C   UNL     1      56.181   6.675  78.273  1.00  0.00     0.062 A 
ATOM     40  C   UNL     1      57.045   4.741  79.452  1.00  0.00     0.016 A 
ATOM     41  C   UNL     1      57.488   7.101  78.009  1.00  0.00     0.158 A 
ATOM     42  C   UNL     1      58.350   5.163  79.190  1.00  0.00     0.051 A 
ATOM     43  C   UNL     1      58.579   6.340  78.464  1.00  0.00     0.157 A 
BRANCH  41  44
ATOM     44  O   UNL     1      57.683   8.283  77.295  1.00  0.00    -0.504 OA
ATOM     45  H   UNL     1      58.604   8.591  77.009  1.00  0.00     0.293 HD
ENDBRANCH  41  44
BRANCH  43  46
ATOM     46  O   UNL     1      59.882   6.756  78.198  1.00  0.00    -0.504 OA
ATOM     47  H   UNL     1      60.682   6.316  78.639  1.00  0.00     0.293 HD
ENDBRANCH  43  46
ENDBRANCH  28  38
BRANCH  34  48
ATOM     48  O   UNL     1      49.846   4.019  80.901  1.00  0.00    -0.507 OA
ATOM     49  H   UNL     1      50.251   3.937  81.825  1.00  0.00     0.293 HD
ENDBRANCH  34  48
BRANCH  37  50
ATOM     50  O   UNL     1      50.108   2.160  76.460  1.00  0.00    -0.508 OA
ATOM     51  H   UNL     1      50.396   1.223  76.206  1.00  0.00     0.293 HD
ENDBRANCH  37  50
ENDBRANCH  26  27
ENDBRANCH   5  26
BRANCH   4  52
ATOM     52  O   UNL     1      54.970   8.439  84.125  1.00  0.00    -0.384 OA
ATOM     53  H   UNL     1      54.017   8.221  84.289  1.00  0.00     0.211 HD
ENDBRANCH   4  52
TORSDOF 16
ENDMDL
MODEL 5
REMARK VINA RESULT:    -6.012      2.089      5.179
REMARK INTER + INTRA:         -12.773
REMARK INTER:                 -10.791
REMARK INTRA:                  -1.981
REMARK UNBOUND:                -2.894
REMARK SMILES C[C@@H]1O[C@@H](OC[C@@H]2O[C@@H](Oc3c(-c4ccc(O)c(O)c4)oc4cc(O)cc(O)c4c3=O)[C@H](O)[C@@H](O)[C@H]2O)[C@H](O)[C@@H](O)[C@H]1O
REMARK SMILES IDX 7 1 36 2 34 3 32 4 9 5 8 6 6 7 5 8 4 9 1 10 2 11 42 12 3 13
REMARK SMILES IDX 40 14 38 15 43 16 41 18 39 20 37 22 35 24 10 26 11 27 12 28
REMARK SMILES IDX 30 29 21 30 29 31 31 32 22 33 27 34 23 35 26 36 24 37 13 38
REMARK SMILES IDX 20 39 14 40 18 41 15 42 16 43 19 44 17 46 28 48 25 50 33 52
REMARK H PARENT 43 17 41 19 39 21 37 23 35 25 19 45 17 47 28 49 25 51 33 53
REMARK Flexibility Score: inf
ROOT
ATOM      1  C   UNL     1      54.513   8.715  79.399  1.00  0.00     0.180 C 
ATOM      2  C   UNL     1      53.964  10.164  79.423  1.00  0.00     0.177 C 
ATOM      3  C   UNL     1      52.517  10.198  79.967  1.00  0.00     0.180 C 
ATOM      4  C   UNL     1      51.639   9.076  79.361  1.00  0.00     0.214 C 
ATOM      5  C   UNL     1      52.387   7.726  79.267  1.00  0.00     0.339 C 
ATOM      6  O   UNL     1      53.652   7.877  78.647  1.00  0.00    -0.332 OA
ENDROOT
BRANCH   1   7
ATOM      7  C   UNL     1      55.903   8.639  78.748  1.00  0.00     0.198 C 
BRANCH   7   8
ATOM      8  O   UNL     1      56.909   8.802  79.731  1.00  0.00    -0.347 OA
BRANCH   8   9
ATOM      9  C   UNL     1      57.986   7.890  79.544  1.00  0.00     0.281 C 
ATOM     10  C   UNL     1      59.899   8.712  82.580  1.00  0.00     0.041 C 
ATOM     11  C   UNL     1      59.265   8.949  81.209  1.00  0.00     0.150 C 
ATOM     12  C   UNL     1      60.325   9.455  80.198  1.00  0.00     0.174 C 
ATOM     13  O   UNL     1      58.696   7.727  80.764  1.00  0.00    -0.344 OA
ATOM     14  C   UNL     1      59.703   9.618  78.800  1.00  0.00     0.179 C 
ATOM     15  C   UNL     1      58.948   8.333  78.411  1.00  0.00     0.202 C 
BRANCH  12  16
ATOM     16  O   UNL     1      60.925  10.658  80.618  1.00  0.00    -0.388 OA
ATOM     17  H   UNL     1      60.246  11.384  80.551  1.00  0.00     0.211 HD
ENDBRANCH  12  16
BRANCH  14  18
ATOM     18  O   UNL     1      58.824  10.715  78.787  1.00  0.00    -0.387 OA
ATOM     19  H   UNL     1      58.258  10.640  79.598  1.00  0.00     0.211 HD
ENDBRANCH  14  18
BRANCH  15  20
ATOM     20  O   UNL     1      59.868   7.298  78.171  1.00  0.00    -0.385 OA
ATOM     21  H   UNL     1      59.765   6.641  78.909  1.00  0.00     0.211 HD
ENDBRANCH  15  20
ENDBRANCH   8   9
ENDBRANCH   7   8
ENDBRANCH   1   7
BRANCH   2  22
ATOM     22  O   UNL     1      54.778  10.980  80.230  1.00  0.00    -0.387 OA
ATOM     23  H   UNL     1      55.622  10.484  80.409  1.00  0.00     0.211 HD
ENDBRANCH   2  22
BRANCH   3  24
ATOM     24  O   UNL     1      52.484  10.155  81.374  1.00  0.00    -0.387 OA
ATOM     25  H   UNL     1      51.661   9.682  81.652  1.00  0.00     0.211 HD
ENDBRANCH   3  24
BRANCH   5  26
ATOM     26  O   UNL     1      52.495   7.121  80.560  1.00  0.00    -0.454 OA
BRANCH  26  27
ATOM     27  C   UNL     1      53.597   6.360  80.989  1.00  0.00     0.214 A 
ATOM     28  C   UNL     1      53.761   5.051  80.494  1.00  0.00     0.180 A 
ATOM     29  C   UNL     1      54.559   6.865  81.884  1.00  0.00     0.239 A 
ATOM     30  O   UNL     1      54.844   4.351  80.808  1.00  0.00    -0.452 OA
ATOM     31  C   UNL     1      55.686   6.083  82.212  1.00  0.00     0.111 A 
ATOM     32  O   UNL     1      54.401   8.004  82.400  1.00  0.00    -0.285 OA
ATOM     33  C   UNL     1      55.795   4.805  81.616  1.00  0.00     0.146 A 
ATOM     34  C   UNL     1      56.702   6.522  83.094  1.00  0.00     0.134 A 
ATOM     35  C   UNL     1      56.910   4.001  81.877  1.00  0.00     0.094 A 
ATOM     36  C   UNL     1      57.806   5.698  83.350  1.00  0.00     0.093 A 
ATOM     37  C   UNL     1      57.917   4.447  82.741  1.00  0.00     0.123 A 
BRANCH  28  38
ATOM     38  C   UNL     1      52.768   4.437  79.585  1.00  0.00     0.025 A 
ATOM     39  C   UNL     1      51.484   4.128  80.065  1.00  0.00     0.062 A 
ATOM     40  C   UNL     1      53.071   4.194  78.234  1.00  0.00     0.016 A 
ATOM     41  C   UNL     1      50.528   3.554  79.220  1.00  0.00     0.158 A 
ATOM     42  C   UNL     1      52.120   3.621  77.388  1.00  0.00     0.051 A 
ATOM     43  C   UNL     1      50.847   3.294  77.876  1.00  0.00     0.157 A 
BRANCH  41  44
ATOM     44  O   UNL     1      49.266   3.251  79.731  1.00  0.00    -0.504 OA
ATOM     45  H   UNL     1      48.535   2.853  79.155  1.00  0.00     0.293 HD
ENDBRANCH  41  44
BRANCH  43  46
ATOM     46  O   UNL     1      49.902   2.715  77.031  1.00  0.00    -0.504 OA
ATOM     47  H   UNL     1      48.909   2.884  77.148  1.00  0.00     0.293 HD
ENDBRANCH  43  46
ENDBRANCH  28  38
BRANCH  34  48
ATOM     48  O   UNL     1      56.625   7.769  83.719  1.00  0.00    -0.507 OA
ATOM     49  H   UNL     1      57.328   8.483  83.576  1.00  0.00     0.293 HD
ENDBRANCH  34  48
BRANCH  37  50
ATOM     50  O   UNL     1      59.031   3.653  83.001  1.00  0.00    -0.508 OA
ATOM     51  H   UNL     1      58.961   2.810  83.557  1.00  0.00     0.293 HD
ENDBRANCH  37  50
ENDBRANCH  26  27
ENDBRANCH   5  26
BRANCH   4  52
ATOM     52  O   UNL     1      51.154   9.457  78.095  1.00  0.00    -0.384 OA
ATOM     53  H   UNL     1      51.326   8.710  77.466  1.00  0.00     0.211 HD
ENDBRANCH   4  52
TORSDOF 16
ENDMDL
MODEL 6
REMARK VINA RESULT:    -5.779      1.911      2.506
REMARK INTER + INTRA:         -12.389
REMARK INTER:                 -10.044
REMARK INTRA:                  -2.345
REMARK UNBOUND:                -2.894
REMARK SMILES C[C@@H]1O[C@@H](OC[C@@H]2O[C@@H](Oc3c(-c4ccc(O)c(O)c4)oc4cc(O)cc(O)c4c3=O)[C@H](O)[C@@H](O)[C@H]2O)[C@H](O)[C@@H](O)[C@H]1O
REMARK SMILES IDX 7 1 36 2 34 3 32 4 9 5 8 6 6 7 5 8 4 9 1 10 2 11 42 12 3 13
REMARK SMILES IDX 40 14 38 15 43 16 41 18 39 20 37 22 35 24 10 26 11 27 12 28
REMARK SMILES IDX 30 29 21 30 29 31 31 32 22 33 27 34 23 35 26 36 24 37 13 38
REMARK SMILES IDX 20 39 14 40 18 41 15 42 16 43 19 44 17 46 28 48 25 50 33 52
REMARK H PARENT 43 17 41 19 39 21 37 23 35 25 19 45 17 47 28 49 25 51 33 53
REMARK Flexibility Score: inf
ROOT
ATOM      1  C   UNL     1      54.851   4.629  80.646  1.00  0.00     0.180 C 
ATOM      2  C   UNL     1      54.488   3.437  81.569  1.00  0.00     0.177 C 
ATOM      3  C   UNL     1      53.169   3.709  82.329  1.00  0.00     0.180 C 
ATOM      4  C   UNL     1      53.112   5.145  82.904  1.00  0.00     0.214 C 
ATOM      5  C   UNL     1      53.652   6.201  81.913  1.00  0.00     0.339 C 
ATOM      6  O   UNL     1      54.919   5.829  81.398  1.00  0.00    -0.332 OA
ENDROOT
BRANCH   1   7
ATOM      7  C   UNL     1      56.220   4.436  79.974  1.00  0.00     0.198 C 
BRANCH   7   8
ATOM      8  O   UNL     1      56.602   5.621  79.301  1.00  0.00    -0.347 OA
BRANCH   8   9
ATOM      9  C   UNL     1      57.961   5.962  79.555  1.00  0.00     0.281 C 
ATOM     10  C   UNL     1      57.379   8.635  82.017  1.00  0.00     0.041 C 
ATOM     11  C   UNL     1      57.333   7.943  80.655  1.00  0.00     0.150 C 
ATOM     12  C   UNL     1      57.949   8.851  79.562  1.00  0.00     0.174 C 
ATOM     13  O   UNL     1      58.051   6.722  80.752  1.00  0.00    -0.344 OA
ATOM     14  C   UNL     1      57.974   8.122  78.206  1.00  0.00     0.179 C 
ATOM     15  C   UNL     1      58.610   6.729  78.373  1.00  0.00     0.202 C 
BRANCH  12  16
ATOM     16  O   UNL     1      57.272  10.080  79.451  1.00  0.00    -0.388 OA
ATOM     17  H   UNL     1      56.961  10.182  78.510  1.00  0.00     0.211 HD
ENDBRANCH  12  16
BRANCH  14  18
ATOM     18  O   UNL     1      56.668   7.998  77.699  1.00  0.00    -0.387 OA
ATOM     19  H   UNL     1      56.567   8.687  76.993  1.00  0.00     0.211 HD
ENDBRANCH  14  18
BRANCH  15  20
ATOM     20  O   UNL     1      59.986   6.865  78.626  1.00  0.00    -0.385 OA
ATOM     21  H   UNL     1      60.461   6.606  77.792  1.00  0.00     0.211 HD
ENDBRANCH  15  20
ENDBRANCH   8   9
ENDBRANCH   7   8
ENDBRANCH   1   7
BRANCH   2  22
ATOM     22  O   UNL     1      54.348   2.259  80.812  1.00  0.00    -0.387 OA
ATOM     23  H   UNL     1      53.977   1.556  81.411  1.00  0.00     0.211 HD
ENDBRANCH   2  22
BRANCH   3  24
ATOM     24  O   UNL     1      52.039   3.444  81.531  1.00  0.00    -0.387 OA
ATOM     25  H   UNL     1      52.330   3.402  80.586  1.00  0.00     0.211 HD
ENDBRANCH   3  24
BRANCH   5  26
ATOM     26  O   UNL     1      52.702   6.443  80.869  1.00  0.00    -0.454 OA
BRANCH  26  27
ATOM     27  C   UNL     1      52.987   7.145  79.685  1.00  0.00     0.214 A 
ATOM     28  C   UNL     1      52.702   6.542  78.445  1.00  0.00     0.180 A 
ATOM     29  C   UNL     1      53.531   8.444  79.692  1.00  0.00     0.239 A 
ATOM     30  O   UNL     1      52.871   7.224  77.318  1.00  0.00    -0.452 OA
ATOM     31  C   UNL     1      53.717   9.129  78.473  1.00  0.00     0.111 A 
ATOM     32  O   UNL     1      53.863   8.981  80.782  1.00  0.00    -0.285 OA
ATOM     33  C   UNL     1      53.343   8.465  77.282  1.00  0.00     0.146 A 
ATOM     34  C   UNL     1      54.247  10.439  78.395  1.00  0.00     0.134 A 
ATOM     35  C   UNL     1      53.472   9.109  76.047  1.00  0.00     0.094 A 
ATOM     36  C   UNL     1      54.377  11.065  77.148  1.00  0.00     0.093 A 
ATOM     37  C   UNL     1      53.985  10.410  75.979  1.00  0.00     0.123 A 
BRANCH  28  38
ATOM     38  C   UNL     1      52.171   5.164  78.358  1.00  0.00     0.025 A 
ATOM     39  C   UNL     1      50.857   4.897  78.778  1.00  0.00     0.062 A 
ATOM     40  C   UNL     1      52.945   4.119  77.822  1.00  0.00     0.016 A 
ATOM     41  C   UNL     1      50.334   3.602  78.697  1.00  0.00     0.158 A 
ATOM     42  C   UNL     1      52.426   2.825  77.741  1.00  0.00     0.051 A 
ATOM     43  C   UNL     1      51.123   2.559  78.181  1.00  0.00     0.157 A 
BRANCH  41  44
ATOM     44  O   UNL     1      49.029   3.370  79.132  1.00  0.00    -0.504 OA
ATOM     45  H   UNL     1      48.704   2.445  79.383  1.00  0.00     0.293 HD
ENDBRANCH  41  44
BRANCH  43  46
ATOM     46  O   UNL     1      50.610   1.265  78.105  1.00  0.00    -0.504 OA
ATOM     47  H   UNL     1      50.687   0.711  77.259  1.00  0.00     0.293 HD
ENDBRANCH  43  46
ENDBRANCH  28  38
BRANCH  34  48
ATOM     48  O   UNL     1      54.646  11.125  79.545  1.00  0.00    -0.507 OA
ATOM     49  H   UNL     1      55.488  10.876  80.050  1.00  0.00     0.293 HD
ENDBRANCH  34  48
BRANCH  37  50
ATOM     50  O   UNL     1      54.112  11.060  74.754  1.00  0.00    -0.508 OA
ATOM     51  H   UNL     1      53.961  12.057  74.667  1.00  0.00     0.293 HD
ENDBRANCH  37  50
ENDBRANCH  26  27
ENDBRANCH   5  26
BRANCH   4  52
ATOM     52  O   UNL     1      53.811   5.216  84.125  1.00  0.00    -0.384 OA
ATOM     53  H   UNL     1      53.771   6.154  84.444  1.00  0.00     0.211 HD
ENDBRANCH   4  52
TORSDOF 16
ENDMDL
MODEL 7
REMARK VINA RESULT:    -5.573      1.608      2.840
REMARK INTER + INTRA:         -12.051
REMARK INTER:                  -9.990
REMARK INTRA:                  -2.061
REMARK UNBOUND:                -2.894
REMARK SMILES C[C@@H]1O[C@@H](OC[C@@H]2O[C@@H](Oc3c(-c4ccc(O)c(O)c4)oc4cc(O)cc(O)c4c3=O)[C@H](O)[C@@H](O)[C@H]2O)[C@H](O)[C@@H](O)[C@H]1O
REMARK SMILES IDX 7 1 36 2 34 3 32 4 9 5 8 6 6 7 5 8 4 9 1 10 2 11 42 12 3 13
REMARK SMILES IDX 40 14 38 15 43 16 41 18 39 20 37 22 35 24 10 26 11 27 12 28
REMARK SMILES IDX 30 29 21 30 29 31 31 32 22 33 27 34 23 35 26 36 24 37 13 38
REMARK SMILES IDX 20 39 14 40 18 41 15 42 16 43 19 44 17 46 28 48 25 50 33 52
REMARK H PARENT 43 17 41 19 39 21 37 23 35 25 19 45 17 47 28 49 25 51 33 53
REMARK Flexibility Score: inf
ROOT
ATOM      1  C   UNL     1      56.421   6.124  82.256  1.00  0.00     0.180 C 
ATOM      2  C   UNL     1      57.298   5.448  83.341  1.00  0.00     0.177 C 
ATOM      3  C   UNL     1      57.538   3.957  83.009  1.00  0.00     0.180 C 
ATOM      4  C   UNL     1      56.242   3.248  82.544  1.00  0.00     0.214 C 
ATOM      5  C   UNL     1      55.404   4.118  81.581  1.00  0.00     0.339 C 
ATOM      6  O   UNL     1      55.201   5.420  82.103  1.00  0.00    -0.332 OA
ENDROOT
BRANCH   1   7
ATOM      7  C   UNL     1      56.067   7.573  82.626  1.00  0.00     0.198 C 
BRANCH   7   8
ATOM      8  O   UNL     1      57.248   8.313  82.876  1.00  0.00    -0.347 OA
BRANCH   8   9
ATOM      9  C   UNL     1      57.770   8.898  81.687  1.00  0.00     0.281 C 
ATOM     10  C   UNL     1      61.351   8.535  82.454  1.00  0.00     0.041 C 
ATOM     11  C   UNL     1      59.922   9.051  82.622  1.00  0.00     0.150 C 
ATOM     12  C   UNL     1      59.900  10.599  82.644  1.00  0.00     0.174 C 
ATOM     13  O   UNL     1      59.141   8.556  81.543  1.00  0.00    -0.344 OA
ATOM     14  C   UNL     1      58.453  11.117  82.733  1.00  0.00     0.179 C 
ATOM     15  C   UNL     1      57.587  10.438  81.656  1.00  0.00     0.202 C 
BRANCH  12  16
ATOM     16  O   UNL     1      60.681  11.125  83.691  1.00  0.00    -0.388 OA
ATOM     17  H   UNL     1      60.067  11.508  84.376  1.00  0.00     0.211 HD
ENDBRANCH  12  16
BRANCH  14  18
ATOM     18  O   UNL     1      57.925  10.857  84.010  1.00  0.00    -0.387 OA
ATOM     19  H   UNL     1      56.982  10.576  83.880  1.00  0.00     0.211 HD
ENDBRANCH  14  18
BRANCH  15  20
ATOM     20  O   UNL     1      57.958  10.910  80.385  1.00  0.00    -0.385 OA
ATOM     21  H   UNL     1      57.822  11.895  80.389  1.00  0.00     0.211 HD
ENDBRANCH  15  20
ENDBRANCH   8   9
ENDBRANCH   7   8
ENDBRANCH   1   7
BRANCH   2  22
ATOM     22  O   UNL     1      58.540   6.102  83.441  1.00  0.00    -0.387 OA
ATOM     23  H   UNL     1      59.132   5.543  84.014  1.00  0.00     0.211 HD
ENDBRANCH   2  22
BRANCH   3  24
ATOM     24  O   UNL     1      58.568   3.790  82.063  1.00  0.00    -0.387 OA
ATOM     25  H   UNL     1      59.330   3.343  82.509  1.00  0.00     0.211 HD
ENDBRANCH   3  24
BRANCH   5  26
ATOM     26  O   UNL     1      56.004   4.152  80.282  1.00  0.00    -0.454 OA
BRANCH  26  27
ATOM     27  C   UNL     1      56.078   5.298  79.472  1.00  0.00     0.214 A 
ATOM     28  C   UNL     1      54.895   5.816  78.908  1.00  0.00     0.180 A 
ATOM     29  C   UNL     1      57.292   5.966  79.219  1.00  0.00     0.239 A 
ATOM     30  O   UNL     1      54.927   6.952  78.222  1.00  0.00    -0.452 OA
ATOM     31  C   UNL     1      57.288   7.158  78.467  1.00  0.00     0.111 A 
ATOM     32  O   UNL     1      58.374   5.486  79.650  1.00  0.00    -0.285 OA
ATOM     33  C   UNL     1      56.043   7.634  77.993  1.00  0.00     0.146 A 
ATOM     34  C   UNL     1      58.463   7.894  78.177  1.00  0.00     0.134 A 
ATOM     35  C   UNL     1      55.976   8.831  77.272  1.00  0.00     0.094 A 
ATOM     36  C   UNL     1      58.376   9.086  77.446  1.00  0.00     0.093 A 
ATOM     37  C   UNL     1      57.140   9.559  77.001  1.00  0.00     0.123 A 
BRANCH  28  38
ATOM     38  C   UNL     1      53.590   5.144  79.093  1.00  0.00     0.025 A 
ATOM     39  C   UNL     1      53.287   3.995  78.343  1.00  0.00     0.062 A 
ATOM     40  C   UNL     1      52.661   5.610  80.039  1.00  0.00     0.016 A 
ATOM     41  C   UNL     1      52.061   3.341  78.509  1.00  0.00     0.158 A 
ATOM     42  C   UNL     1      51.436   4.960  80.206  1.00  0.00     0.051 A 
ATOM     43  C   UNL     1      51.128   3.827  79.441  1.00  0.00     0.157 A 
BRANCH  41  44
ATOM     44  O   UNL     1      51.789   2.208  77.742  1.00  0.00    -0.504 OA
ATOM     45  H   UNL     1      50.906   2.086  77.262  1.00  0.00     0.293 HD
ENDBRANCH  41  44
BRANCH  43  46
ATOM     46  O   UNL     1      49.902   3.184  79.606  1.00  0.00    -0.504 OA
ATOM     47  H   UNL     1      49.042   3.705  79.737  1.00  0.00     0.293 HD
ENDBRANCH  43  46
ENDBRANCH  28  38
BRANCH  34  48
ATOM     48  O   UNL     1      59.716   7.450  78.609  1.00  0.00    -0.507 OA
ATOM     49  H   UNL     1      60.575   7.827  78.230  1.00  0.00     0.293 HD
ENDBRANCH  34  48
BRANCH  37  50
ATOM     50  O   UNL     1      57.080  10.754  76.288  1.00  0.00    -0.508 OA
ATOM     51  H   UNL     1      56.198  11.219  76.108  1.00  0.00     0.293 HD
ENDBRANCH  37  50
ENDBRANCH  26  27
ENDBRANCH   5  26
BRANCH   4  52
ATOM     52  O   UNL     1      55.468   2.858  83.655  1.00  0.00    -0.384 OA
ATOM     53  H   UNL     1      55.209   1.910  83.526  1.00  0.00     0.211 HD
ENDBRANCH   4  52
TORSDOF 16
ENDMDL
MODEL 8
REMARK VINA RESULT:    -5.045      1.880      5.217
REMARK INTER + INTRA:         -11.183
REMARK INTER:                  -9.296
REMARK INTRA:                  -1.887
REMARK UNBOUND:                -2.894
REMARK SMILES C[C@@H]1O[C@@H](OC[C@@H]2O[C@@H](Oc3c(-c4ccc(O)c(O)c4)oc4cc(O)cc(O)c4c3=O)[C@H](O)[C@@H](O)[C@H]2O)[C@H](O)[C@@H](O)[C@H]1O
REMARK SMILES IDX 7 1 36 2 34 3 32 4 9 5 8 6 6 7 5 8 4 9 1 10 2 11 42 12 3 13
REMARK SMILES IDX 40 14 38 15 43 16 41 18 39 20 37 22 35 24 10 26 11 27 12 28
REMARK SMILES IDX 30 29 21 30 29 31 31 32 22 33 27 34 23 35 26 36 24 37 13 38
REMARK SMILES IDX 20 39 14 40 18 41 15 42 16 43 19 44 17 46 28 48 25 50 33 52
REMARK H PARENT 43 17 41 19 39 21 37 23 35 25 19 45 17 47 28 49 25 51 33 53
REMARK Flexibility Score: inf
ROOT
ATOM      1  C   UNL     1      56.981   6.137  83.207  1.00  0.00     0.180 C 
ATOM      2  C   UNL     1      57.480   4.674  83.319  1.00  0.00     0.177 C 
ATOM      3  C   UNL     1      56.521   3.705  82.589  1.00  0.00     0.180 C 
ATOM      4  C   UNL     1      55.035   4.014  82.897  1.00  0.00     0.214 C 
ATOM      5  C   UNL     1      54.734   5.530  82.895  1.00  0.00     0.339 C 
ATOM      6  O   UNL     1      55.657   6.243  83.701  1.00  0.00    -0.332 OA
ENDROOT
BRANCH   1   7
ATOM      7  C   UNL     1      57.851   7.103  84.026  1.00  0.00     0.198 C 
BRANCH   7   8
ATOM      8  O   UNL     1      58.946   7.551  83.248  1.00  0.00    -0.347 OA
BRANCH   8   9
ATOM      9  C   UNL     1      58.519   8.196  82.052  1.00  0.00     0.281 C 
ATOM     10  C   UNL     1      61.829   8.721  80.531  1.00  0.00     0.041 C 
ATOM     11  C   UNL     1      60.711   8.890  81.560  1.00  0.00     0.150 C 
ATOM     12  C   UNL     1      60.377  10.389  81.761  1.00  0.00     0.174 C 
ATOM     13  O   UNL     1      59.569   8.182  81.097  1.00  0.00    -0.344 OA
ATOM     14  C   UNL     1      59.198  10.553  82.737  1.00  0.00     0.179 C 
ATOM     15  C   UNL     1      58.030   9.646  82.304  1.00  0.00     0.202 C 
BRANCH  12  16
ATOM     16  O   UNL     1      61.493  11.125  82.202  1.00  0.00    -0.388 OA
ATOM     17  H   UNL     1      61.990  10.570  82.865  1.00  0.00     0.211 HD
ENDBRANCH  12  16
BRANCH  14  18
ATOM     18  O   UNL     1      59.603  10.226  84.043  1.00  0.00    -0.387 OA
ATOM     19  H   UNL     1      60.293   9.518  83.962  1.00  0.00     0.211 HD
ENDBRANCH  14  18
BRANCH  15  20
ATOM     20  O   UNL     1      57.462  10.142  81.118  1.00  0.00    -0.385 OA
ATOM     21  H   UNL     1      58.124   9.988  80.392  1.00  0.00     0.211 HD
ENDBRANCH  15  20
ENDBRANCH   8   9
ENDBRANCH   7   8
ENDBRANCH   1   7
BRANCH   2  22
ATOM     22  O   UNL     1      58.766   4.553  82.761  1.00  0.00    -0.387 OA
ATOM     23  H   UNL     1      59.417   4.483  83.511  1.00  0.00     0.211 HD
ENDBRANCH   2  22
BRANCH   3  24
ATOM     24  O   UNL     1      56.751   3.685  81.200  1.00  0.00    -0.387 OA
ATOM     25  H   UNL     1      57.414   4.388  80.985  1.00  0.00     0.211 HD
ENDBRANCH   3  24
BRANCH   5  26
ATOM     26  O   UNL     1      54.696   6.034  81.556  1.00  0.00    -0.454 OA
BRANCH  26  27
ATOM     27  C   UNL     1      53.919   5.481  80.522  1.00  0.00     0.214 A 
ATOM     28  C   UNL     1      54.469   5.384  79.229  1.00  0.00     0.180 A 
ATOM     29  C   UNL     1      52.614   4.997  80.736  1.00  0.00     0.239 A 
ATOM     30  O   UNL     1      53.792   4.777  78.262  1.00  0.00    -0.452 OA
ATOM     31  C   UNL     1      51.917   4.378  79.679  1.00  0.00     0.111 A 
ATOM     32  O   UNL     1      52.070   5.135  81.864  1.00  0.00    -0.285 OA
ATOM     33  C   UNL     1      52.575   4.272  78.430  1.00  0.00     0.146 A 
ATOM     34  C   UNL     1      50.608   3.857  79.814  1.00  0.00     0.134 A 
ATOM     35  C   UNL     1      51.946   3.635  77.356  1.00  0.00     0.094 A 
ATOM     36  C   UNL     1      49.991   3.230  78.724  1.00  0.00     0.093 A 
ATOM     37  C   UNL     1      50.656   3.111  77.502  1.00  0.00     0.123 A 
BRANCH  28  38
ATOM     38  C   UNL     1      55.816   5.910  78.918  1.00  0.00     0.025 A 
ATOM     39  C   UNL     1      56.004   7.295  78.769  1.00  0.00     0.062 A 
ATOM     40  C   UNL     1      56.924   5.053  78.811  1.00  0.00     0.016 A 
ATOM     41  C   UNL     1      57.272   7.813  78.482  1.00  0.00     0.158 A 
ATOM     42  C   UNL     1      58.191   5.567  78.524  1.00  0.00     0.051 A 
ATOM     43  C   UNL     1      58.371   6.946  78.354  1.00  0.00     0.157 A 
BRANCH  41  44
ATOM     44  O   UNL     1      57.421   9.192  78.331  1.00  0.00    -0.504 OA
ATOM     45  H   UNL     1      57.510   9.812  79.126  1.00  0.00     0.293 HD
ENDBRANCH  41  44
BRANCH  43  46
ATOM     46  O   UNL     1      59.635   7.456  78.062  1.00  0.00    -0.504 OA
ATOM     47  H   UNL     1      59.759   8.240  77.432  1.00  0.00     0.293 HD
ENDBRANCH  43  46
ENDBRANCH  28  38
BRANCH  34  48
ATOM     48  O   UNL     1      49.915   3.957  81.023  1.00  0.00    -0.507 OA
ATOM     49  H   UNL     1      50.351   4.321  81.861  1.00  0.00     0.293 HD
ENDBRANCH  34  48
BRANCH  37  50
ATOM     50  O   UNL     1      50.025   2.471  76.438  1.00  0.00    -0.508 OA
ATOM     51  H   UNL     1      49.757   1.496  76.491  1.00  0.00     0.293 HD
ENDBRANCH  37  50
ENDBRANCH  26  27
ENDBRANCH   5  26
BRANCH   4  52
ATOM     52  O   UNL     1      54.655   3.440  84.125  1.00  0.00    -0.384 OA
ATOM     53  H   UNL     1      53.944   4.007  84.519  1.00  0.00     0.211 HD
ENDBRANCH   4  52
TORSDOF 16
ENDMDL
