MODEL 1
REMARK VINA RESULT:    -4.564      0.000      0.000
REMARK INTER + INTRA:          -9.505
REMARK INTER:                  -8.033
REMARK INTRA:                  -1.472
REMARK UNBOUND:                -1.472
REMARK SMILES CCCCCCCCCCCCCCC(=O)[O-]
REMARK SMILES IDX 9 1 10 2 11 3 12 4 13 5 14 6 15 7 16 8 17 9 8 10 7 11 6 12
REMARK SMILES IDX 5 13 4 14 3 15 2 16 1 17
REMARK H PARENT
REMARK Flexibility Score: inf
ROOT
ATOM      1  C   UNL     1       9.854  -4.055  48.324  1.00  0.00     0.000 C 
ENDROOT
BRANCH   1   2
ATOM      2  C   UNL     1       8.756  -5.074  48.671  1.00  0.00     0.000 C 
BRANCH   2   3
ATOM      3  C   UNL     1       7.684  -5.196  47.579  1.00  0.00     0.000 C 
BRANCH   3   4
ATOM      4  C   UNL     1       6.286  -5.340  48.201  1.00  0.00     0.000 C 
BRANCH   4   5
ATOM      5  C   UNL     1       6.316  -5.358  49.739  1.00  0.00     0.006 C 
BRANCH   5   6
ATOM      6  C   UNL     1       5.131  -4.637  50.403  1.00  0.00     0.053 C 
BRANCH   6   7
ATOM      7  C   UNL     1       4.004  -4.409  49.443  1.00  0.00     0.041 C 
ATOM      8  O   UNL     1       4.005  -3.398  48.694  1.00  0.00    -0.550 OA
ATOM      9  O   UNL     1       2.969  -5.331  49.353  1.00  0.00    -0.550 OA
ENDBRANCH   6   7
ENDBRANCH   5   6
ENDBRANCH   4   5
ENDBRANCH   3   4
ENDBRANCH   2   3
ENDBRANCH   1   2
BRANCH   1  10
ATOM     10  C   UNL     1       9.421  -2.578  48.405  1.00  0.00     0.000 C 
BRANCH  10  11
ATOM     11  C   UNL     1       8.324  -2.303  49.455  1.00  0.00    -0.000 C 
BRANCH  11  12
ATOM     12  C   UNL     1       7.075  -1.645  48.841  1.00  0.00    -0.000 C 
BRANCH  12  13
ATOM     13  C   UNL     1       7.402  -0.830  47.572  1.00  0.00    -0.000 C 
BRANCH  13  14
ATOM     14  C   UNL     1       6.218  -0.707  46.595  1.00  0.00    -0.000 C 
BRANCH  14  15
ATOM     15  C   UNL     1       5.775  -2.062  46.023  1.00  0.00    -0.000 C 
BRANCH  15  16
ATOM     16  C   UNL     1       4.756  -1.915  44.884  1.00  0.00    -0.003 C 
ATOM     17  C   UNL     1       4.494  -3.232  44.154  1.00  0.00     0.004 C 
ENDBRANCH  15  16
ENDBRANCH  14  15
ENDBRANCH  13  14
ENDBRANCH  12  13
ENDBRANCH  11  12
ENDBRANCH  10  11
ENDBRANCH   1  10
TORSDOF 13
ENDMDL
MODEL 2
REMARK VINA RESULT:    -4.307      2.213      5.524
REMARK INTER + INTRA:          -9.053
REMARK INTER:                  -7.393
REMARK INTRA:                  -1.660
REMARK UNBOUND:                -1.472
REMARK SMILES CCCCCCCCCCCCCCC(=O)[O-]
REMARK SMILES IDX 9 1 10 2 11 3 12 4 13 5 14 6 15 7 16 8 17 9 8 10 7 11 6 12
REMARK SMILES IDX 5 13 4 14 3 15 2 16 1 17
REMARK H PARENT
REMARK Flexibility Score: inf
ROOT
ATOM      1  C   UNL     1       5.079  -1.638  45.174  1.00  0.00     0.000 C 
ENDROOT
BRANCH   1   2
ATOM      2  C   UNL     1       5.386  -1.151  46.600  1.00  0.00     0.000 C 
BRANCH   2   3
ATOM      3  C   UNL     1       6.659  -0.297  46.681  1.00  0.00     0.000 C 
BRANCH   3   4
ATOM      4  C   UNL     1       7.654  -0.895  47.688  1.00  0.00     0.000 C 
BRANCH   4   5
ATOM      5  C   UNL     1       6.977  -1.808  48.726  1.00  0.00     0.006 C 
BRANCH   5   6
ATOM      6  C   UNL     1       7.958  -2.572  49.630  1.00  0.00     0.053 C 
BRANCH   6   7
ATOM      7  C   UNL     1       8.924  -3.399  48.840  1.00  0.00     0.041 C 
ATOM      8  O   UNL     1       8.504  -4.200  47.964  1.00  0.00    -0.550 OA
ATOM      9  O   UNL     1      10.290  -3.260  49.046  1.00  0.00    -0.550 OA
ENDBRANCH   6   7
ENDBRANCH   5   6
ENDBRANCH   4   5
ENDBRANCH   3   4
ENDBRANCH   2   3
ENDBRANCH   1   2
BRANCH   1  10
ATOM     10  C   UNL     1       4.836  -3.154  45.041  1.00  0.00     0.000 C 
BRANCH  10  11
ATOM     11  C   UNL     1       5.269  -3.969  46.278  1.00  0.00    -0.000 C 
BRANCH  11  12
ATOM     12  C   UNL     1       4.570  -5.338  46.352  1.00  0.00    -0.000 C 
BRANCH  12  13
ATOM     13  C   UNL     1       4.064  -5.665  47.773  1.00  0.00    -0.000 C 
BRANCH  13  14
ATOM     14  C   UNL     1       4.498  -4.638  48.834  1.00  0.00    -0.000 C 
BRANCH  14  15
ATOM     15  C   UNL     1       4.305  -5.148  50.271  1.00  0.00    -0.000 C 
BRANCH  15  16
ATOM     16  C   UNL     1       5.622  -5.202  51.058  1.00  0.00    -0.003 C 
ATOM     17  C   UNL     1       6.695  -6.034  50.354  1.00  0.00     0.004 C 
ENDBRANCH  15  16
ENDBRANCH  14  15
ENDBRANCH  13  14
ENDBRANCH  12  13
ENDBRANCH  11  12
ENDBRANCH  10  11
ENDBRANCH   1  10
TORSDOF 13
ENDMDL
MODEL 3
REMARK VINA RESULT:    -4.248      2.565      5.326
REMARK INTER + INTRA:          -8.948
REMARK INTER:                  -7.825
REMARK INTRA:                  -1.123
REMARK UNBOUND:                -1.472
REMARK SMILES CCCCCCCCCCCCCCC(=O)[O-]
REMARK SMILES IDX 9 1 10 2 11 3 12 4 13 5 14 6 15 7 16 8 17 9 8 10 7 11 6 12
REMARK SMILES IDX 5 13 4 14 3 15 2 16 1 17
REMARK H PARENT
REMARK Flexibility Score: inf
ROOT
ATOM      1  C   UNL     1       5.866  -2.315  50.527  1.00  0.00     0.000 C 
ENDROOT
BRANCH   1   2
ATOM      2  C   UNL     1       7.279  -2.012  50.003  1.00  0.00     0.000 C 
BRANCH   2   3
ATOM      3  C   UNL     1       7.445  -2.324  48.509  1.00  0.00     0.000 C 
BRANCH   3   4
ATOM      4  C   UNL     1       7.718  -1.039  47.711  1.00  0.00     0.000 C 
BRANCH   4   5
ATOM      5  C   UNL     1       6.533  -0.625  46.820  1.00  0.00     0.006 C 
BRANCH   5   6
ATOM      6  C   UNL     1       5.302  -1.537  46.942  1.00  0.00     0.053 C 
BRANCH   6   7
ATOM      7  C   UNL     1       5.041  -2.301  45.682  1.00  0.00     0.041 C 
ATOM      8  O   UNL     1       5.110  -3.558  45.676  1.00  0.00    -0.550 OA
ATOM      9  O   UNL     1       4.687  -1.627  44.520  1.00  0.00    -0.550 OA
ENDBRANCH   6   7
ENDBRANCH   5   6
ENDBRANCH   4   5
ENDBRANCH   3   4
ENDBRANCH   2   3
ENDBRANCH   1   2
BRANCH   1  10
ATOM     10  C   UNL     1       5.713  -3.672  51.241  1.00  0.00     0.000 C 
BRANCH  10  11
ATOM     11  C   UNL     1       5.200  -4.806  50.329  1.00  0.00    -0.000 C 
BRANCH  11  12
ATOM     12  C   UNL     1       4.342  -4.280  49.164  1.00  0.00    -0.000 C 
BRANCH  12  13
ATOM     13  C   UNL     1       3.454  -5.378  48.543  1.00  0.00    -0.000 C 
BRANCH  13  14
ATOM     14  C   UNL     1       2.238  -5.753  49.409  1.00  0.00    -0.000 C 
BRANCH  14  15
ATOM     15  C   UNL     1       0.947  -5.903  48.590  1.00  0.00    -0.000 C 
BRANCH  15  16
ATOM     16  C   UNL     1      -0.155  -4.935  49.047  1.00  0.00    -0.003 C 
ATOM     17  C   UNL     1      -1.476  -5.157  48.310  1.00  0.00     0.004 C 
ENDBRANCH  15  16
ENDBRANCH  14  15
ENDBRANCH  13  14
ENDBRANCH  12  13
ENDBRANCH  11  12
ENDBRANCH  10  11
ENDBRANCH   1  10
TORSDOF 13
ENDMDL
MODEL 4
REMARK VINA RESULT:    -4.225     12.497     14.874
REMARK INTER + INTRA:          -8.909
REMARK INTER:                  -6.969
REMARK INTRA:                  -1.940
REMARK UNBOUND:                -1.472
REMARK SMILES CCCCCCCCCCCCCCC(=O)[O-]
REMARK SMILES IDX 9 1 10 2 11 3 12 4 13 5 14 6 15 7 16 8 17 9 8 10 7 11 6 12
REMARK SMILES IDX 5 13 4 14 3 15 2 16 1 17
REMARK H PARENT
REMARK Flexibility Score: inf
ROOT
ATOM      1  C   UNL     1       4.725  11.396  49.794  1.00  0.00     0.000 C 
ENDROOT
BRANCH   1   2
ATOM      2  C   UNL     1       4.285  12.867  49.880  1.00  0.00     0.000 C 
BRANCH   2   3
ATOM      3  C   UNL     1       2.925  13.126  49.217  1.00  0.00     0.000 C 
BRANCH   3   4
ATOM      4  C   UNL     1       2.225  11.802  48.873  1.00  0.00     0.000 C 
BRANCH   4   5
ATOM      5  C   UNL     1       2.080  11.580  47.356  1.00  0.00     0.006 C 
BRANCH   5   6
ATOM      6  C   UNL     1       2.379  10.144  46.897  1.00  0.00     0.053 C 
BRANCH   6   7
ATOM      7  C   UNL     1       1.174   9.261  46.993  1.00  0.00     0.041 C 
ATOM      8  O   UNL     1       0.961   8.590  48.036  1.00  0.00    -0.550 OA
ATOM      9  O   UNL     1       0.266   9.205  45.943  1.00  0.00    -0.550 OA
ENDBRANCH   6   7
ENDBRANCH   5   6
ENDBRANCH   4   5
ENDBRANCH   3   4
ENDBRANCH   2   3
ENDBRANCH   1   2
BRANCH   1  10
ATOM     10  C   UNL     1       5.901  11.123  48.836  1.00  0.00     0.000 C 
BRANCH  10  11
ATOM     11  C   UNL     1       6.247  12.311  47.913  1.00  0.00    -0.000 C 
BRANCH  11  12
ATOM     12  C   UNL     1       5.710  12.118  46.483  1.00  0.00    -0.000 C 
BRANCH  12  13
ATOM     13  C   UNL     1       5.946  10.688  45.953  1.00  0.00    -0.000 C 
BRANCH  13  14
ATOM     14  C   UNL     1       7.297  10.510  45.238  1.00  0.00    -0.000 C 
BRANCH  14  15
ATOM     15  C   UNL     1       8.094   9.305  45.763  1.00  0.00    -0.000 C 
BRANCH  15  16
ATOM     16  C   UNL     1       8.833   9.614  47.073  1.00  0.00    -0.003 C 
ATOM     17  C   UNL     1       8.506   8.615  48.183  1.00  0.00     0.004 C 
ENDBRANCH  15  16
ENDBRANCH  14  15
ENDBRANCH  13  14
ENDBRANCH  12  13
ENDBRANCH  11  12
ENDBRANCH  10  11
ENDBRANCH   1  10
TORSDOF 13
ENDMDL
MODEL 5
REMARK VINA RESULT:    -4.211      2.297      5.161
REMARK INTER + INTRA:          -8.883
REMARK INTER:                  -7.522
REMARK INTRA:                  -1.362
REMARK UNBOUND:                -1.472
REMARK SMILES CCCCCCCCCCCCCCC(=O)[O-]
REMARK SMILES IDX 9 1 10 2 11 3 12 4 13 5 14 6 15 7 16 8 17 9 8 10 7 11 6 12
REMARK SMILES IDX 5 13 4 14 3 15 2 16 1 17
REMARK H PARENT
REMARK Flexibility Score: inf
ROOT
ATOM      1  C   UNL     1       3.643  -4.960  48.618  1.00  0.00     0.000 C 
ENDROOT
BRANCH   1   2
ATOM      2  C   UNL     1       4.241  -5.981  47.637  1.00  0.00     0.000 C 
BRANCH   2   3
ATOM      3  C   UNL     1       4.948  -5.323  46.443  1.00  0.00     0.000 C 
BRANCH   3   4
ATOM      4  C   UNL     1       5.782  -4.116  46.900  1.00  0.00     0.000 C 
BRANCH   4   5
ATOM      5  C   UNL     1       5.004  -2.790  46.824  1.00  0.00     0.006 C 
BRANCH   5   6
ATOM      6  C   UNL     1       5.541  -1.802  45.775  1.00  0.00     0.053 C 
BRANCH   6   7
ATOM      7  C   UNL     1       4.752  -1.848  44.504  1.00  0.00     0.041 C 
ATOM      8  O   UNL     1       4.370  -2.953  44.035  1.00  0.00    -0.550 OA
ATOM      9  O   UNL     1       4.408  -0.670  43.855  1.00  0.00    -0.550 OA
ENDBRANCH   6   7
ENDBRANCH   5   6
ENDBRANCH   4   5
ENDBRANCH   3   4
ENDBRANCH   2   3
ENDBRANCH   1   2
BRANCH   1  10
ATOM     10  C   UNL     1       3.647  -5.396  50.096  1.00  0.00     0.000 C 
BRANCH  10  11
ATOM     11  C   UNL     1       4.984  -6.009  50.565  1.00  0.00    -0.000 C 
BRANCH  11  12
ATOM     12  C   UNL     1       6.128  -4.979  50.582  1.00  0.00    -0.000 C 
BRANCH  12  13
ATOM     13  C   UNL     1       5.713  -3.649  51.247  1.00  0.00    -0.000 C 
BRANCH  13  14
ATOM     14  C   UNL     1       5.962  -2.413  50.364  1.00  0.00    -0.000 C 
BRANCH  14  15
ATOM     15  C   UNL     1       7.443  -2.007  50.311  1.00  0.00    -0.000 C 
BRANCH  15  16
ATOM     16  C   UNL     1       8.073  -2.256  48.933  1.00  0.00    -0.003 C 
ATOM     17  C   UNL     1       9.531  -2.707  49.025  1.00  0.00     0.004 C 
ENDBRANCH  15  16
ENDBRANCH  14  15
ENDBRANCH  13  14
ENDBRANCH  12  13
ENDBRANCH  11  12
ENDBRANCH  10  11
ENDBRANCH   1  10
TORSDOF 13
ENDMDL
MODEL 6
REMARK VINA RESULT:    -4.186     11.775     14.343
REMARK INTER + INTRA:          -8.840
REMARK INTER:                  -7.470
REMARK INTRA:                  -1.371
REMARK UNBOUND:                -1.472
REMARK SMILES CCCCCCCCCCCCCCC(=O)[O-]
REMARK SMILES IDX 9 1 10 2 11 3 12 4 13 5 14 6 15 7 16 8 17 9 8 10 7 11 6 12
REMARK SMILES IDX 5 13 4 14 3 15 2 16 1 17
REMARK H PARENT
REMARK Flexibility Score: inf
ROOT
ATOM      1  C   UNL     1       5.714  11.634  47.302  1.00  0.00     0.000 C 
ENDROOT
BRANCH   1   2
ATOM      2  C   UNL     1       5.475  10.607  46.183  1.00  0.00     0.000 C 
BRANCH   2   3
ATOM      3  C   UNL     1       6.468  10.745  45.020  1.00  0.00     0.000 C 
BRANCH   3   4
ATOM      4  C   UNL     1       7.850  11.184  45.532  1.00  0.00     0.000 C 
BRANCH   4   5
ATOM      5  C   UNL     1       8.887  10.047  45.500  1.00  0.00     0.006 C 
BRANCH   5   6
ATOM      6  C   UNL     1       8.834   9.109  46.717  1.00  0.00     0.053 C 
BRANCH   6   7
ATOM      7  C   UNL     1       8.607   7.684  46.317  1.00  0.00     0.041 C 
ATOM      8  O   UNL     1       8.568   7.366  45.100  1.00  0.00    -0.550 OA
ATOM      9  O   UNL     1       8.473   6.701  47.289  1.00  0.00    -0.550 OA
ENDBRANCH   6   7
ENDBRANCH   5   6
ENDBRANCH   4   5
ENDBRANCH   3   4
ENDBRANCH   2   3
ENDBRANCH   1   2
BRANCH   1  10
ATOM     10  C   UNL     1       5.952  11.031  48.700  1.00  0.00     0.000 C 
BRANCH  10  11
ATOM     11  C   UNL     1       4.904  11.452  49.751  1.00  0.00    -0.000 C 
BRANCH  11  12
ATOM     12  C   UNL     1       3.987  12.581  49.246  1.00  0.00    -0.000 C 
BRANCH  12  13
ATOM     13  C   UNL     1       2.498  12.176  49.247  1.00  0.00    -0.000 C 
BRANCH  13  14
ATOM     14  C   UNL     1       2.271  10.662  49.084  1.00  0.00    -0.000 C 
BRANCH  14  15
ATOM     15  C   UNL     1       2.022  10.250  47.625  1.00  0.00    -0.000 C 
BRANCH  15  16
ATOM     16  C   UNL     1       1.058   9.060  47.506  1.00  0.00    -0.003 C 
ATOM     17  C   UNL     1       0.228   9.101  46.222  1.00  0.00     0.004 C 
ENDBRANCH  15  16
ENDBRANCH  14  15
ENDBRANCH  13  14
ENDBRANCH  12  13
ENDBRANCH  11  12
ENDBRANCH  10  11
ENDBRANCH   1  10
TORSDOF 13
ENDMDL
MODEL 7
REMARK VINA RESULT:    -4.154     13.843     15.101
REMARK INTER + INTRA:          -8.783
REMARK INTER:                  -7.474
REMARK INTRA:                  -1.309
REMARK UNBOUND:                -1.472
REMARK SMILES CCCCCCCCCCCCCCC(=O)[O-]
REMARK SMILES IDX 9 1 10 2 11 3 12 4 13 5 14 6 15 7 16 8 17 9 8 10 7 11 6 12
REMARK SMILES IDX 5 13 4 14 3 15 2 16 1 17
REMARK H PARENT
REMARK Flexibility Score: inf
ROOT
ATOM      1  C   UNL     1       1.973   9.985  47.057  1.00  0.00     0.000 C 
ENDROOT
BRANCH   1   2
ATOM      2  C   UNL     1       0.893   9.003  47.538  1.00  0.00     0.000 C 
BRANCH   2   3
ATOM      3  C   UNL     1      -0.526   9.584  47.452  1.00  0.00     0.000 C 
BRANCH   3   4
ATOM      4  C   UNL     1      -1.571   8.459  47.371  1.00  0.00     0.000 C 
BRANCH   4   5
ATOM      5  C   UNL     1      -2.267   8.389  46.000  1.00  0.00     0.006 C 
BRANCH   5   6
ATOM      6  C   UNL     1      -1.461   7.651  44.919  1.00  0.00     0.053 C 
BRANCH   6   7
ATOM      7  C   UNL     1      -0.929   8.586  43.878  1.00  0.00     0.041 C 
ATOM      8  O   UNL     1      -0.357   8.134  42.852  1.00  0.00    -0.550 OA
ATOM      9  O   UNL     1      -1.094   9.958  44.024  1.00  0.00    -0.550 OA
ENDBRANCH   6   7
ENDBRANCH   5   6
ENDBRANCH   4   5
ENDBRANCH   3   4
ENDBRANCH   2   3
ENDBRANCH   1   2
BRANCH   1  10
ATOM     10  C   UNL     1       1.894  11.395  47.674  1.00  0.00     0.000 C 
BRANCH  10  11
ATOM     11  C   UNL     1       2.213  11.438  49.183  1.00  0.00    -0.000 C 
BRANCH  11  12
ATOM     12  C   UNL     1       2.797  12.794  49.621  1.00  0.00    -0.000 C 
BRANCH  12  13
ATOM     13  C   UNL     1       4.340  12.804  49.604  1.00  0.00    -0.000 C 
BRANCH  13  14
ATOM     14  C   UNL     1       4.967  11.404  49.738  1.00  0.00    -0.000 C 
BRANCH  14  15
ATOM     15  C   UNL     1       5.974  11.094  48.619  1.00  0.00    -0.000 C 
BRANCH  15  16
ATOM     16  C   UNL     1       5.477  11.545  47.238  1.00  0.00    -0.003 C 
ATOM     17  C   UNL     1       5.787  10.528  46.140  1.00  0.00     0.004 C 
ENDBRANCH  15  16
ENDBRANCH  14  15
ENDBRANCH  13  14
ENDBRANCH  12  13
ENDBRANCH  11  12
ENDBRANCH  10  11
ENDBRANCH   1  10
TORSDOF 13
ENDMDL
MODEL 8
REMARK VINA RESULT:    -4.117     12.814     14.697
REMARK INTER + INTRA:          -8.717
REMARK INTER:                  -8.158
REMARK INTRA:                  -0.559
REMARK UNBOUND:                -1.472
REMARK SMILES CCCCCCCCCCCCCCC(=O)[O-]
REMARK SMILES IDX 9 1 10 2 11 3 12 4 13 5 14 6 15 7 16 8 17 9 8 10 7 11 6 12
REMARK SMILES IDX 5 13 4 14 3 15 2 16 1 17
REMARK H PARENT
REMARK Flexibility Score: inf
ROOT
ATOM      1  C   UNL     1      -0.707   6.886  42.689  1.00  0.00     0.000 C 
ENDROOT
BRANCH   1   2
ATOM      2  C   UNL     1      -0.812   8.395  42.414  1.00  0.00     0.000 C 
BRANCH   2   3
ATOM      3  C   UNL     1      -1.480   9.169  43.559  1.00  0.00     0.000 C 
BRANCH   3   4
ATOM      4  C   UNL     1      -0.678   9.017  44.861  1.00  0.00     0.000 C 
BRANCH   4   5
ATOM      5  C   UNL     1      -1.440   8.233  45.944  1.00  0.00     0.006 C 
BRANCH   5   6
ATOM      6  C   UNL     1      -1.532   8.953  47.299  1.00  0.00     0.053 C 
BRANCH   6   7
ATOM      7  C   UNL     1      -0.208   9.496  47.737  1.00  0.00     0.041 C 
ATOM      8  O   UNL     1      -0.029  10.739  47.822  1.00  0.00    -0.550 OA
ATOM      9  O   UNL     1       0.820   8.629  48.085  1.00  0.00    -0.550 OA
ENDBRANCH   6   7
ENDBRANCH   5   6
ENDBRANCH   4   5
ENDBRANCH   3   4
ENDBRANCH   2   3
ENDBRANCH   1   2
BRANCH   1  10
ATOM     10  C   UNL     1      -1.646   6.003  41.845  1.00  0.00     0.000 C 
BRANCH  10  11
ATOM     11  C   UNL     1      -1.799   6.469  40.382  1.00  0.00    -0.000 C 
BRANCH  11  12
ATOM     12  C   UNL     1      -1.607   5.320  39.377  1.00  0.00    -0.000 C 
BRANCH  12  13
ATOM     13  C   UNL     1      -2.935   4.615  39.028  1.00  0.00    -0.000 C 
BRANCH  13  14
ATOM     14  C   UNL     1      -2.748   3.281  38.283  1.00  0.00    -0.000 C 
BRANCH  14  15
ATOM     15  C   UNL     1      -2.815   2.062  39.217  1.00  0.00    -0.000 C 
BRANCH  15  16
ATOM     16  C   UNL     1      -2.313   0.776  38.544  1.00  0.00    -0.003 C 
ATOM     17  C   UNL     1      -1.923  -0.303  39.554  1.00  0.00     0.004 C 
ENDBRANCH  15  16
ENDBRANCH  14  15
ENDBRANCH  13  14
ENDBRANCH  12  13
ENDBRANCH  11  12
ENDBRANCH  10  11
ENDBRANCH   1  10
TORSDOF 13
ENDMDL
MODEL 9
REMARK VINA RESULT:    -4.049     13.644     15.250
REMARK INTER + INTRA:          -8.599
REMARK INTER:                  -7.307
REMARK INTRA:                  -1.291
REMARK UNBOUND:                -1.472
REMARK SMILES CCCCCCCCCCCCCCC(=O)[O-]
REMARK SMILES IDX 9 1 10 2 11 3 12 4 13 5 14 6 15 7 16 8 17 9 8 10 7 11 6 12
REMARK SMILES IDX 5 13 4 14 3 15 2 16 1 17
REMARK H PARENT
REMARK Flexibility Score: inf
ROOT
ATOM      1  C   UNL     1       4.965  11.504  49.762  1.00  0.00     0.000 C 
ENDROOT
BRANCH   1   2
ATOM      2  C   UNL     1       5.967  10.995  48.713  1.00  0.00     0.000 C 
BRANCH   2   3
ATOM      3  C   UNL     1       5.865  11.740  47.375  1.00  0.00     0.000 C 
BRANCH   3   4
ATOM      4  C   UNL     1       5.630  10.754  46.219  1.00  0.00     0.000 C 
BRANCH   4   5
ATOM      5  C   UNL     1       6.808  10.702  45.230  1.00  0.00     0.006 C 
BRANCH   5   6
ATOM      6  C   UNL     1       7.886   9.665  45.583  1.00  0.00     0.053 C 
BRANCH   6   7
ATOM      7  C   UNL     1       9.262  10.252  45.551  1.00  0.00     0.041 C 
ATOM      8  O   UNL     1      10.202   9.700  46.181  1.00  0.00    -0.550 OA
ATOM      9  O   UNL     1       9.516  11.391  44.798  1.00  0.00    -0.550 OA
ENDBRANCH   6   7
ENDBRANCH   5   6
ENDBRANCH   4   5
ENDBRANCH   3   4
ENDBRANCH   2   3
ENDBRANCH   1   2
BRANCH   1  10
ATOM     10  C   UNL     1       4.404  12.915  49.496  1.00  0.00     0.000 C 
BRANCH  10  11
ATOM     11  C   UNL     1       2.862  12.979  49.460  1.00  0.00    -0.000 C 
BRANCH  11  12
ATOM     12  C   UNL     1       2.231  11.654  48.996  1.00  0.00    -0.000 C 
BRANCH  12  13
ATOM     13  C   UNL     1       2.114  11.563  47.460  1.00  0.00    -0.000 C 
BRANCH  13  14
ATOM     14  C   UNL     1       2.199  10.124  46.919  1.00  0.00    -0.000 C 
BRANCH  14  15
ATOM     15  C   UNL     1       0.817   9.488  46.699  1.00  0.00    -0.000 C 
BRANCH  15  16
ATOM     16  C   UNL     1       0.322   8.715  47.930  1.00  0.00    -0.003 C 
ATOM     17  C   UNL     1      -1.203   8.674  48.026  1.00  0.00     0.004 C 
ENDBRANCH  15  16
ENDBRANCH  14  15
ENDBRANCH  13  14
ENDBRANCH  12  13
ENDBRANCH  11  12
ENDBRANCH  10  11
ENDBRANCH   1  10
TORSDOF 13
ENDMDL
