MODEL 1
REMARK VINA RESULT:    -3.171      0.000      0.000
REMARK INTER + INTRA:          -8.114
REMARK INTER:                  -5.766
REMARK INTRA:                  -2.348
REMARK UNBOUND:                -2.348
REMARK SMILES CCCCCCCCCCCCCCCC(=O)[O-]
REMARK SMILES IDX 9 1 10 2 11 3 12 4 13 5 14 6 15 7 16 8 17 9 18 10 8 11 7 12
REMARK SMILES IDX 6 13 5 14 4 15 3 16 2 17 1 18
REMARK H PARENT
REMARK Flexibility Score: inf
ROOT
ATOM      1  C   UNL     1      54.816  26.043  49.592  1.00  0.00     0.000 C 
ENDROOT
BRANCH   1   2
ATOM      2  C   UNL     1      56.297  26.148  49.977  1.00  0.00     0.000 C 
BRANCH   2   3
ATOM      3  C   UNL     1      56.460  26.797  51.361  1.00  0.00     0.000 C 
BRANCH   3   4
ATOM      4  C   UNL     1      57.625  27.798  51.414  1.00  0.00     0.000 C 
BRANCH   4   5
ATOM      5  C   UNL     1      57.472  28.937  50.390  1.00  0.00     0.000 C 
BRANCH   5   6
ATOM      6  C   UNL     1      58.609  28.959  49.357  1.00  0.00     0.006 C 
BRANCH   6   7
ATOM      7  C   UNL     1      59.988  28.725  49.989  1.00  0.00     0.053 C 
BRANCH   7   8
ATOM      8  C   UNL     1      60.623  27.496  49.415  1.00  0.00     0.041 C 
ATOM      9  O   UNL     1      61.838  27.506  49.084  1.00  0.00    -0.550 OA
ATOM     10  O   UNL     1      59.857  26.356  49.199  1.00  0.00    -0.550 OA
ENDBRANCH   7   8
ENDBRANCH   6   7
ENDBRANCH   5   6
ENDBRANCH   4   5
ENDBRANCH   3   4
ENDBRANCH   2   3
ENDBRANCH   1   2
BRANCH   1  11
ATOM     11  C   UNL     1      53.947  26.925  50.500  1.00  0.00     0.000 C 
BRANCH  11  12
ATOM     12  C   UNL     1      53.344  28.127  49.757  1.00  0.00    -0.000 C 
BRANCH  12  13
ATOM     13  C   UNL     1      53.826  29.472  50.320  1.00  0.00    -0.000 C 
BRANCH  13  14
ATOM     14  C   UNL     1      53.563  29.559  51.831  1.00  0.00    -0.000 C 
BRANCH  14  15
ATOM     15  C   UNL     1      54.735  30.188  52.603  1.00  0.00    -0.000 C 
BRANCH  15  16
ATOM     16  C   UNL     1      55.211  29.308  53.773  1.00  0.00    -0.000 C 
BRANCH  16  17
ATOM     17  C   UNL     1      54.261  28.130  54.050  1.00  0.00    -0.003 C 
ATOM     18  C   UNL     1      54.751  27.225  55.181  1.00  0.00     0.004 C 
ENDBRANCH  16  17
ENDBRANCH  15  16
ENDBRANCH  14  15
ENDBRANCH  13  14
ENDBRANCH  12  13
ENDBRANCH  11  12
ENDBRANCH   1  11
TORSDOF 14
ENDMDL
MODEL 2
REMARK VINA RESULT:    -3.089      1.580      2.224
REMARK INTER + INTRA:          -7.965
REMARK INTER:                  -6.057
REMARK INTRA:                  -1.909
REMARK UNBOUND:                -2.348
REMARK SMILES CCCCCCCCCCCCCCCC(=O)[O-]
REMARK SMILES IDX 9 1 10 2 11 3 12 4 13 5 14 6 15 7 16 8 17 9 18 10 8 11 7 12
REMARK SMILES IDX 6 13 5 14 4 15 3 16 2 17 1 18
REMARK H PARENT
REMARK Flexibility Score: inf
ROOT
ATOM      1  C   UNL     1      54.556  25.847  49.450  1.00  0.00     0.000 C 
ENDROOT
BRANCH   1   2
ATOM      2  C   UNL     1      55.737  26.631  50.035  1.00  0.00     0.000 C 
BRANCH   2   3
ATOM      3  C   UNL     1      56.311  25.921  51.271  1.00  0.00     0.000 C 
BRANCH   3   4
ATOM      4  C   UNL     1      57.834  25.731  51.193  1.00  0.00     0.000 C 
BRANCH   4   5
ATOM      5  C   UNL     1      58.358  25.748  49.746  1.00  0.00     0.000 C 
BRANCH   5   6
ATOM      6  C   UNL     1      59.825  26.194  49.654  1.00  0.00     0.006 C 
BRANCH   6   7
ATOM      7  C   UNL     1      59.976  27.633  49.144  1.00  0.00     0.053 C 
BRANCH   7   8
ATOM      8  C   UNL     1      61.063  28.341  49.892  1.00  0.00     0.041 C 
ATOM      9  O   UNL     1      62.068  27.703  50.304  1.00  0.00    -0.550 OA
ATOM     10  O   UNL     1      60.941  29.695  50.178  1.00  0.00    -0.550 OA
ENDBRANCH   7   8
ENDBRANCH   6   7
ENDBRANCH   5   6
ENDBRANCH   4   5
ENDBRANCH   3   4
ENDBRANCH   2   3
ENDBRANCH   1   2
BRANCH   1  11
ATOM     11  C   UNL     1      53.320  26.746  49.295  1.00  0.00     0.000 C 
BRANCH  11  12
ATOM     12  C   UNL     1      53.127  27.696  50.487  1.00  0.00    -0.000 C 
BRANCH  12  13
ATOM     13  C   UNL     1      52.988  29.164  50.056  1.00  0.00    -0.000 C 
BRANCH  13  14
ATOM     14  C   UNL     1      53.685  30.097  51.057  1.00  0.00    -0.000 C 
BRANCH  14  15
ATOM     15  C   UNL     1      54.344  29.335  52.219  1.00  0.00    -0.000 C 
BRANCH  15  16
ATOM     16  C   UNL     1      55.599  30.047  52.756  1.00  0.00    -0.000 C 
BRANCH  16  17
ATOM     17  C   UNL     1      56.860  29.170  52.660  1.00  0.00    -0.003 C 
ATOM     18  C   UNL     1      57.680  29.446  51.400  1.00  0.00     0.004 C 
ENDBRANCH  16  17
ENDBRANCH  15  16
ENDBRANCH  14  15
ENDBRANCH  13  14
ENDBRANCH  12  13
ENDBRANCH  11  12
ENDBRANCH   1  11
TORSDOF 14
ENDMDL
MODEL 3
REMARK VINA RESULT:    -3.074      1.665      3.069
REMARK INTER + INTRA:          -7.939
REMARK INTER:                  -6.187
REMARK INTRA:                  -1.752
REMARK UNBOUND:                -2.348
REMARK SMILES CCCCCCCCCCCCCCCC(=O)[O-]
REMARK SMILES IDX 9 1 10 2 11 3 12 4 13 5 14 6 15 7 16 8 17 9 18 10 8 11 7 12
REMARK SMILES IDX 6 13 5 14 4 15 3 16 2 17 1 18
REMARK H PARENT
REMARK Flexibility Score: inf
ROOT
ATOM      1  C   UNL     1      56.770  27.283  51.882  1.00  0.00     0.000 C 
ENDROOT
BRANCH   1   2
ATOM      2  C   UNL     1      58.065  28.055  51.597  1.00  0.00     0.000 C 
BRANCH   2   3
ATOM      3  C   UNL     1      57.839  29.127  50.519  1.00  0.00     0.000 C 
BRANCH   3   4
ATOM      4  C   UNL     1      58.828  29.010  49.348  1.00  0.00     0.000 C 
BRANCH   4   5
ATOM      5  C   UNL     1      59.367  27.579  49.172  1.00  0.00     0.000 C 
BRANCH   5   6
ATOM      6  C   UNL     1      60.902  27.519  49.186  1.00  0.00     0.006 C 
BRANCH   6   7
ATOM      7  C   UNL     1      61.449  26.601  50.287  1.00  0.00     0.053 C 
BRANCH   7   8
ATOM      8  C   UNL     1      62.942  26.516  50.201  1.00  0.00     0.041 C 
ATOM      9  O   UNL     1      63.637  27.566  50.195  1.00  0.00    -0.550 OA
ATOM     10  O   UNL     1      63.560  25.278  50.075  1.00  0.00    -0.550 OA
ENDBRANCH   7   8
ENDBRANCH   6   7
ENDBRANCH   5   6
ENDBRANCH   4   5
ENDBRANCH   3   4
ENDBRANCH   2   3
ENDBRANCH   1   2
BRANCH   1  11
ATOM     11  C   UNL     1      56.642  26.062  50.959  1.00  0.00     0.000 C 
BRANCH  11  12
ATOM     12  C   UNL     1      55.525  26.223  49.916  1.00  0.00    -0.000 C 
BRANCH  12  13
ATOM     13  C   UNL     1      54.189  26.647  50.543  1.00  0.00    -0.000 C 
BRANCH  13  14
ATOM     14  C   UNL     1      53.282  27.315  49.498  1.00  0.00    -0.000 C 
BRANCH  14  15
ATOM     15  C   UNL     1      52.876  28.745  49.890  1.00  0.00    -0.000 C 
BRANCH  15  16
ATOM     16  C   UNL     1      54.052  29.557  50.462  1.00  0.00    -0.000 C 
BRANCH  16  17
ATOM     17  C   UNL     1      53.691  30.272  51.776  1.00  0.00    -0.003 C 
ATOM     18  C   UNL     1      54.860  30.332  52.759  1.00  0.00     0.004 C 
ENDBRANCH  16  17
ENDBRANCH  15  16
ENDBRANCH  14  15
ENDBRANCH  13  14
ENDBRANCH  12  13
ENDBRANCH  11  12
ENDBRANCH   1  11
TORSDOF 14
ENDMDL
MODEL 4
REMARK VINA RESULT:    -3.070     11.693     13.373
REMARK INTER + INTRA:          -7.931
REMARK INTER:                  -5.797
REMARK INTRA:                  -2.133
REMARK UNBOUND:                -2.348
REMARK SMILES CCCCCCCCCCCCCCCC(=O)[O-]
REMARK SMILES IDX 9 1 10 2 11 3 12 4 13 5 14 6 15 7 16 8 17 9 18 10 8 11 7 12
REMARK SMILES IDX 6 13 5 14 4 15 3 16 2 17 1 18
REMARK H PARENT
REMARK Flexibility Score: inf
ROOT
ATOM      1  C   UNL     1      62.463  32.017  59.657  1.00  0.00     0.000 C 
ENDROOT
BRANCH   1   2
ATOM      2  C   UNL     1      63.618  33.026  59.636  1.00  0.00     0.000 C 
BRANCH   2   3
ATOM      3  C   UNL     1      63.892  33.578  61.044  1.00  0.00     0.000 C 
BRANCH   3   4
ATOM      4  C   UNL     1      64.438  35.014  61.023  1.00  0.00     0.000 C 
BRANCH   4   5
ATOM      5  C   UNL     1      63.516  36.007  61.752  1.00  0.00     0.000 C 
BRANCH   5   6
ATOM      6  C   UNL     1      62.590  36.768  60.790  1.00  0.00     0.006 C 
BRANCH   6   7
ATOM      7  C   UNL     1      61.225  36.088  60.620  1.00  0.00     0.053 C 
BRANCH   7   8
ATOM      8  C   UNL     1      61.001  35.720  59.186  1.00  0.00     0.041 C 
ATOM      9  O   UNL     1      59.871  35.314  58.805  1.00  0.00    -0.550 OA
ATOM     10  O   UNL     1      62.055  35.777  58.282  1.00  0.00    -0.550 OA
ENDBRANCH   7   8
ENDBRANCH   6   7
ENDBRANCH   5   6
ENDBRANCH   4   5
ENDBRANCH   3   4
ENDBRANCH   2   3
ENDBRANCH   1   2
BRANCH   1  11
ATOM     11  C   UNL     1      61.433  32.381  60.737  1.00  0.00     0.000 C 
BRANCH  11  12
ATOM     12  C   UNL     1      61.042  31.180  61.612  1.00  0.00    -0.000 C 
BRANCH  12  13
ATOM     13  C   UNL     1      62.255  30.336  62.031  1.00  0.00    -0.000 C 
BRANCH  13  14
ATOM     14  C   UNL     1      62.127  28.897  61.510  1.00  0.00    -0.000 C 
BRANCH  14  15
ATOM     15  C   UNL     1      63.489  28.249  61.212  1.00  0.00    -0.000 C 
BRANCH  15  16
ATOM     16  C   UNL     1      64.646  29.264  61.247  1.00  0.00    -0.000 C 
BRANCH  16  17
ATOM     17  C   UNL     1      65.501  29.227  59.968  1.00  0.00    -0.003 C 
ATOM     18  C   UNL     1      64.663  29.298  58.692  1.00  0.00     0.004 C 
ENDBRANCH  16  17
ENDBRANCH  15  16
ENDBRANCH  14  15
ENDBRANCH  13  14
ENDBRANCH  12  13
ENDBRANCH  11  12
ENDBRANCH   1  11
TORSDOF 14
ENDMDL
MODEL 5
REMARK VINA RESULT:    -3.060     11.401     13.229
REMARK INTER + INTRA:          -7.912
REMARK INTER:                  -6.047
REMARK INTRA:                  -1.864
REMARK UNBOUND:                -2.348
REMARK SMILES CCCCCCCCCCCCCCCC(=O)[O-]
REMARK SMILES IDX 9 1 10 2 11 3 12 4 13 5 14 6 15 7 16 8 17 9 18 10 8 11 7 12
REMARK SMILES IDX 6 13 5 14 4 15 3 16 2 17 1 18
REMARK H PARENT
REMARK Flexibility Score: inf
ROOT
ATOM      1  C   UNL     1      62.110  32.803  59.634  1.00  0.00     0.000 C 
ENDROOT
BRANCH   1   2
ATOM      2  C   UNL     1      61.232  31.579  59.923  1.00  0.00     0.000 C 
BRANCH   2   3
ATOM      3  C   UNL     1      61.062  31.369  61.436  1.00  0.00     0.000 C 
BRANCH   3   4
ATOM      4  C   UNL     1      61.575  29.999  61.907  1.00  0.00     0.000 C 
BRANCH   4   5
ATOM      5  C   UNL     1      62.688  29.442  61.002  1.00  0.00     0.000 C 
BRANCH   5   6
ATOM      6  C   UNL     1      64.092  29.683  61.576  1.00  0.00     0.006 C 
BRANCH   6   7
ATOM      7  C   UNL     1      65.031  30.372  60.578  1.00  0.00     0.053 C 
BRANCH   7   8
ATOM      8  C   UNL     1      66.328  29.629  60.483  1.00  0.00     0.041 C 
ATOM      9  O   UNL     1      67.067  29.771  59.473  1.00  0.00    -0.550 OA
ATOM     10  O   UNL     1      66.694  28.740  61.487  1.00  0.00    -0.550 OA
ENDBRANCH   7   8
ENDBRANCH   6   7
ENDBRANCH   5   6
ENDBRANCH   4   5
ENDBRANCH   3   4
ENDBRANCH   2   3
ENDBRANCH   1   2
BRANCH   1  11
ATOM     11  C   UNL     1      62.745  33.342  60.924  1.00  0.00     0.000 C 
BRANCH  11  12
ATOM     12  C   UNL     1      64.092  34.036  60.676  1.00  0.00    -0.000 C 
BRANCH  12  13
ATOM     13  C   UNL     1      64.298  35.265  61.573  1.00  0.00    -0.000 C 
BRANCH  13  14
ATOM     14  C   UNL     1      63.107  36.229  61.461  1.00  0.00    -0.000 C 
BRANCH  14  15
ATOM     15  C   UNL     1      63.108  37.025  60.145  1.00  0.00    -0.000 C 
BRANCH  15  16
ATOM     16  C   UNL     1      61.991  36.581  59.185  1.00  0.00    -0.000 C 
BRANCH  16  17
ATOM     17  C   UNL     1      60.665  36.298  59.913  1.00  0.00    -0.003 C 
ATOM     18  C   UNL     1      59.449  36.404  58.993  1.00  0.00     0.004 C 
ENDBRANCH  16  17
ENDBRANCH  15  16
ENDBRANCH  14  15
ENDBRANCH  13  14
ENDBRANCH  12  13
ENDBRANCH  11  12
ENDBRANCH   1  11
TORSDOF 14
ENDMDL
MODEL 6
REMARK VINA RESULT:    -3.057     11.617     13.779
REMARK INTER + INTRA:          -7.907
REMARK INTER:                  -6.042
REMARK INTRA:                  -1.865
REMARK UNBOUND:                -2.348
REMARK SMILES CCCCCCCCCCCCCCCC(=O)[O-]
REMARK SMILES IDX 9 1 10 2 11 3 12 4 13 5 14 6 15 7 16 8 17 9 18 10 8 11 7 12
REMARK SMILES IDX 6 13 5 14 4 15 3 16 2 17 1 18
REMARK H PARENT
REMARK Flexibility Score: inf
ROOT
ATOM      1  C   UNL     1      61.765  34.769  60.495  1.00  0.00     0.000 C 
ENDROOT
BRANCH   1   2
ATOM      2  C   UNL     1      62.303  33.333  60.461  1.00  0.00     0.000 C 
BRANCH   2   3
ATOM      3  C   UNL     1      61.152  32.315  60.415  1.00  0.00     0.000 C 
BRANCH   3   4
ATOM      4  C   UNL     1      61.125  31.393  61.645  1.00  0.00     0.000 C 
BRANCH   4   5
ATOM      5  C   UNL     1      61.128  29.902  61.264  1.00  0.00     0.000 C 
BRANCH   5   6
ATOM      6  C   UNL     1      62.417  29.185  61.693  1.00  0.00     0.006 C 
BRANCH   6   7
ATOM      7  C   UNL     1      63.616  30.137  61.805  1.00  0.00     0.053 C 
BRANCH   7   8
ATOM      8  C   UNL     1      64.471  30.045  60.579  1.00  0.00     0.041 C 
ATOM      9  O   UNL     1      65.315  30.945  60.326  1.00  0.00    -0.550 OA
ATOM     10  O   UNL     1      64.297  28.992  59.690  1.00  0.00    -0.550 OA
ENDBRANCH   7   8
ENDBRANCH   6   7
ENDBRANCH   5   6
ENDBRANCH   4   5
ENDBRANCH   3   4
ENDBRANCH   2   3
ENDBRANCH   1   2
BRANCH   1  11
ATOM     11  C   UNL     1      62.751  35.709  61.205  1.00  0.00     0.000 C 
BRANCH  11  12
ATOM     12  C   UNL     1      64.072  35.015  61.571  1.00  0.00    -0.000 C 
BRANCH  12  13
ATOM     13  C   UNL     1      65.281  35.957  61.475  1.00  0.00    -0.000 C 
BRANCH  13  14
ATOM     14  C   UNL     1      65.174  36.860  60.236  1.00  0.00    -0.000 C 
BRANCH  14  15
ATOM     15  C   UNL     1      66.097  36.410  59.091  1.00  0.00    -0.000 C 
BRANCH  15  16
ATOM     16  C   UNL     1      65.341  36.216  57.765  1.00  0.00    -0.000 C 
BRANCH  16  17
ATOM     17  C   UNL     1      64.387  35.010  57.801  1.00  0.00    -0.003 C 
ATOM     18  C   UNL     1      65.110  33.688  58.059  1.00  0.00     0.004 C 
ENDBRANCH  16  17
ENDBRANCH  15  16
ENDBRANCH  14  15
ENDBRANCH  13  14
ENDBRANCH  12  13
ENDBRANCH  11  12
ENDBRANCH   1  11
TORSDOF 14
ENDMDL
MODEL 7
REMARK VINA RESULT:    -2.988     11.586     13.486
REMARK INTER + INTRA:          -7.781
REMARK INTER:                  -6.121
REMARK INTRA:                  -1.660
REMARK UNBOUND:                -2.348
REMARK SMILES CCCCCCCCCCCCCCCC(=O)[O-]
REMARK SMILES IDX 9 1 10 2 11 3 12 4 13 5 14 6 15 7 16 8 17 9 18 10 8 11 7 12
REMARK SMILES IDX 6 13 5 14 4 15 3 16 2 17 1 18
REMARK H PARENT
REMARK Flexibility Score: inf
ROOT
ATOM      1  C   UNL     1      62.727  32.751  59.466  1.00  0.00     0.000 C 
ENDROOT
BRANCH   1   2
ATOM      2  C   UNL     1      61.585  32.727  60.491  1.00  0.00     0.000 C 
BRANCH   2   3
ATOM      3  C   UNL     1      60.944  31.333  60.568  1.00  0.00     0.000 C 
BRANCH   3   4
ATOM      4  C   UNL     1      61.273  30.599  61.877  1.00  0.00     0.000 C 
BRANCH   4   5
ATOM      5  C   UNL     1      62.700  30.020  61.887  1.00  0.00     0.000 C 
BRANCH   5   6
ATOM      6  C   UNL     1      62.817  28.725  61.068  1.00  0.00     0.006 C 
BRANCH   6   7
ATOM      7  C   UNL     1      62.323  27.492  61.836  1.00  0.00     0.053 C 
BRANCH   7   8
ATOM      8  C   UNL     1      63.312  26.374  61.720  1.00  0.00     0.041 C 
ATOM      9  O   UNL     1      63.032  25.230  62.165  1.00  0.00    -0.550 OA
ATOM     10  O   UNL     1      64.565  26.611  61.166  1.00  0.00    -0.550 OA
ENDBRANCH   7   8
ENDBRANCH   6   7
ENDBRANCH   5   6
ENDBRANCH   4   5
ENDBRANCH   3   4
ENDBRANCH   2   3
ENDBRANCH   1   2
BRANCH   1  11
ATOM     11  C   UNL     1      64.082  32.957  60.158  1.00  0.00     0.000 C 
BRANCH  11  12
ATOM     12  C   UNL     1      64.465  34.440  60.282  1.00  0.00    -0.000 C 
BRANCH  12  13
ATOM     13  C   UNL     1      64.275  34.982  61.706  1.00  0.00    -0.000 C 
BRANCH  13  14
ATOM     14  C   UNL     1      64.268  36.518  61.710  1.00  0.00    -0.000 C 
BRANCH  14  15
ATOM     15  C   UNL     1      63.201  37.109  60.774  1.00  0.00    -0.000 C 
BRANCH  15  16
ATOM     16  C   UNL     1      61.768  36.765  61.219  1.00  0.00    -0.000 C 
BRANCH  16  17
ATOM     17  C   UNL     1      60.872  36.340  60.043  1.00  0.00    -0.003 C 
ATOM     18  C   UNL     1      61.640  36.213  58.727  1.00  0.00     0.004 C 
ENDBRANCH  16  17
ENDBRANCH  15  16
ENDBRANCH  14  15
ENDBRANCH  13  14
ENDBRANCH  12  13
ENDBRANCH  11  12
ENDBRANCH   1  11
TORSDOF 14
ENDMDL
MODEL 8
REMARK VINA RESULT:    -2.960     10.484     12.598
REMARK INTER + INTRA:          -7.730
REMARK INTER:                  -5.712
REMARK INTRA:                  -2.018
REMARK UNBOUND:                -2.348
REMARK SMILES CCCCCCCCCCCCCCCC(=O)[O-]
REMARK SMILES IDX 9 1 10 2 11 3 12 4 13 5 14 6 15 7 16 8 17 9 18 10 8 11 7 12
REMARK SMILES IDX 6 13 5 14 4 15 3 16 2 17 1 18
REMARK H PARENT
REMARK Flexibility Score: inf
ROOT
ATOM      1  C   UNL     1      63.792  35.475  60.571  1.00  0.00     0.000 C 
ENDROOT
BRANCH   1   2
ATOM      2  C   UNL     1      64.056  34.122  61.244  1.00  0.00     0.000 C 
BRANCH   2   3
ATOM      3  C   UNL     1      64.175  33.002  60.198  1.00  0.00     0.000 C 
BRANCH   3   4
ATOM      4  C   UNL     1      63.219  31.830  60.473  1.00  0.00     0.000 C 
BRANCH   4   5
ATOM      5  C   UNL     1      61.824  32.299  60.923  1.00  0.00     0.000 C 
BRANCH   5   6
ATOM      6  C   UNL     1      61.099  31.253  61.784  1.00  0.00     0.006 C 
BRANCH   6   7
ATOM      7  C   UNL     1      61.718  29.854  61.664  1.00  0.00     0.053 C 
BRANCH   7   8
ATOM      8  C   UNL     1      60.912  29.006  60.729  1.00  0.00     0.041 C 
ATOM      9  O   UNL     1      61.407  28.618  59.638  1.00  0.00    -0.550 OA
ATOM     10  O   UNL     1      59.596  28.687  61.041  1.00  0.00    -0.550 OA
ENDBRANCH   7   8
ENDBRANCH   6   7
ENDBRANCH   5   6
ENDBRANCH   4   5
ENDBRANCH   3   4
ENDBRANCH   2   3
ENDBRANCH   1   2
BRANCH   1  11
ATOM     11  C   UNL     1      63.102  36.446  61.541  1.00  0.00     0.000 C 
BRANCH  11  12
ATOM     12  C   UNL     1      61.753  36.954  61.011  1.00  0.00    -0.000 C 
BRANCH  12  13
ATOM     13  C   UNL     1      60.802  35.811  60.627  1.00  0.00    -0.000 C 
BRANCH  13  14
ATOM     14  C   UNL     1      60.393  35.912  59.149  1.00  0.00    -0.000 C 
BRANCH  14  15
ATOM     15  C   UNL     1      60.963  34.767  58.295  1.00  0.00    -0.000 C 
BRANCH  15  16
ATOM     16  C   UNL     1      59.864  33.855  57.721  1.00  0.00    -0.000 C 
BRANCH  16  17
ATOM     17  C   UNL     1      60.317  32.390  57.602  1.00  0.00    -0.003 C 
ATOM     18  C   UNL     1      59.370  31.417  58.305  1.00  0.00     0.004 C 
ENDBRANCH  16  17
ENDBRANCH  15  16
ENDBRANCH  14  15
ENDBRANCH  13  14
ENDBRANCH  12  13
ENDBRANCH  11  12
ENDBRANCH   1  11
TORSDOF 14
ENDMDL
MODEL 9
REMARK VINA RESULT:    -2.948     11.522     13.440
REMARK INTER + INTRA:          -7.709
REMARK INTER:                  -6.257
REMARK INTRA:                  -1.453
REMARK UNBOUND:                -2.348
REMARK SMILES CCCCCCCCCCCCCCCC(=O)[O-]
REMARK SMILES IDX 9 1 10 2 11 3 12 4 13 5 14 6 15 7 16 8 17 9 18 10 8 11 7 12
REMARK SMILES IDX 6 13 5 14 4 15 3 16 2 17 1 18
REMARK H PARENT
REMARK Flexibility Score: inf
ROOT
ATOM      1  C   UNL     1      62.452  29.778  61.814  1.00  0.00     0.000 C 
ENDROOT
BRANCH   1   2
ATOM      2  C   UNL     1      63.976  29.776  61.636  1.00  0.00     0.000 C 
BRANCH   2   3
ATOM      3  C   UNL     1      64.389  28.908  60.437  1.00  0.00     0.000 C 
BRANCH   3   4
ATOM      4  C   UNL     1      64.790  27.482  60.845  1.00  0.00     0.000 C 
BRANCH   4   5
ATOM      5  C   UNL     1      63.696  26.447  60.526  1.00  0.00     0.000 C 
BRANCH   5   6
ATOM      6  C   UNL     1      63.403  25.514  61.711  1.00  0.00     0.006 C 
BRANCH   6   7
ATOM      7  C   UNL     1      62.324  26.069  62.650  1.00  0.00     0.053 C 
BRANCH   7   8
ATOM      8  C   UNL     1      61.766  24.976  63.508  1.00  0.00     0.041 C 
ATOM      9  O   UNL     1      60.712  25.166  64.170  1.00  0.00    -0.550 OA
ATOM     10  O   UNL     1      62.441  23.766  63.616  1.00  0.00    -0.550 OA
ENDBRANCH   7   8
ENDBRANCH   6   7
ENDBRANCH   5   6
ENDBRANCH   4   5
ENDBRANCH   3   4
ENDBRANCH   2   3
ENDBRANCH   1   2
BRANCH   1  11
ATOM     11  C   UNL     1      61.740  29.651  60.459  1.00  0.00     0.000 C 
BRANCH  11  12
ATOM     12  C   UNL     1      61.139  30.981  59.979  1.00  0.00    -0.000 C 
BRANCH  12  13
ATOM     13  C   UNL     1      61.189  32.074  61.056  1.00  0.00    -0.000 C 
BRANCH  13  14
ATOM     14  C   UNL     1      61.897  33.331  60.528  1.00  0.00    -0.000 C 
BRANCH  14  15
ATOM     15  C   UNL     1      63.393  33.363  60.880  1.00  0.00    -0.000 C 
BRANCH  15  16
ATOM     16  C   UNL     1      63.882  34.774  61.254  1.00  0.00    -0.000 C 
BRANCH  16  17
ATOM     17  C   UNL     1      63.159  35.878  60.463  1.00  0.00    -0.003 C 
ATOM     18  C   UNL     1      62.440  36.880  61.365  1.00  0.00     0.004 C 
ENDBRANCH  16  17
ENDBRANCH  15  16
ENDBRANCH  14  15
ENDBRANCH  13  14
ENDBRANCH  12  13
ENDBRANCH  11  12
ENDBRANCH   1  11
TORSDOF 14
ENDMDL
