MODEL 1
REMARK VINA RESULT:    -4.797      0.000      0.000
REMARK INTER + INTRA:          -8.958
REMARK INTER:                  -7.601
REMARK INTRA:                  -1.357
REMARK UNBOUND:                -1.357
REMARK SMILES CCCCCCCCCCCC(=O)[O-]
REMARK SMILES IDX 7 1 8 2 9 3 10 4 11 5 12 6 13 7 14 8 6 9 5 10 4 11 3 12 2 13
REMARK SMILES IDX 1 14
REMARK H PARENT
REMARK Flexibility Score: inf
ROOT
ATOM      1  C   UNL     1     104.646 107.514 231.042  1.00  0.00     0.000 C 
ENDROOT
BRANCH   1   2
ATOM      2  C   UNL     1     103.284 108.051 230.574  1.00  0.00     0.000 C 
BRANCH   2   3
ATOM      3  C   UNL     1     102.143 107.044 230.803  1.00  0.00     0.000 C 
BRANCH   3   4
ATOM      4  C   UNL     1     102.654 105.649 231.211  1.00  0.00     0.006 C 
BRANCH   4   5
ATOM      5  C   UNL     1     101.999 105.079 232.479  1.00  0.00     0.053 C 
BRANCH   5   6
ATOM      6  C   UNL     1     102.252 105.938 233.680  1.00  0.00     0.041 C 
ATOM      7  O   UNL     1     101.295 106.525 234.252  1.00  0.00    -0.550 OA
ATOM      8  O   UNL     1     103.539 106.063 234.187  1.00  0.00    -0.550 OA
ENDBRANCH   5   6
ENDBRANCH   4   5
ENDBRANCH   3   4
ENDBRANCH   2   3
ENDBRANCH   1   2
BRANCH   1   9
ATOM      9  C   UNL     1     105.687 107.466 229.910  1.00  0.00     0.000 C 
BRANCH   9  10
ATOM     10  C   UNL     1     105.081 107.012 228.573  1.00  0.00    -0.000 C 
BRANCH  10  11
ATOM     11  C   UNL     1     105.309 105.515 228.300  1.00  0.00    -0.000 C 
BRANCH  11  12
ATOM     12  C   UNL     1     104.474 104.990 227.119  1.00  0.00    -0.000 C 
BRANCH  12  13
ATOM     13  C   UNL     1     103.093 105.664 226.991  1.00  0.00    -0.003 C 
ATOM     14  C   UNL     1     101.987 104.862 227.676  1.00  0.00     0.004 C 
ENDBRANCH  12  13
ENDBRANCH  11  12
ENDBRANCH  10  11
ENDBRANCH   9  10
ENDBRANCH   1   9
TORSDOF 10
ENDMDL
MODEL 2
REMARK VINA RESULT:    -4.724      3.312      5.538
REMARK INTER + INTRA:          -8.842
REMARK INTER:                  -7.310
REMARK INTRA:                  -1.533
REMARK UNBOUND:                -1.357
REMARK SMILES CCCCCCCCCCCC(=O)[O-]
REMARK SMILES IDX 7 1 8 2 9 3 10 4 11 5 12 6 13 7 14 8 6 9 5 10 4 11 3 12 2 13
REMARK SMILES IDX 1 14
REMARK H PARENT
REMARK Flexibility Score: inf
ROOT
ATOM      1  C   UNL     1     103.288 108.111 230.362  1.00  0.00     0.000 C 
ENDROOT
BRANCH   1   2
ATOM      2  C   UNL     1     104.722 108.300 230.881  1.00  0.00     0.000 C 
BRANCH   2   3
ATOM      3  C   UNL     1     105.763 107.562 230.021  1.00  0.00     0.000 C 
BRANCH   3   4
ATOM      4  C   UNL     1     105.140 106.877 228.790  1.00  0.00     0.006 C 
BRANCH   4   5
ATOM      5  C   UNL     1     105.205 105.341 228.815  1.00  0.00     0.053 C 
BRANCH   5   6
ATOM      6  C   UNL     1     105.277 104.757 227.438  1.00  0.00     0.041 C 
ATOM      7  O   UNL     1     106.247 104.021 227.113  1.00  0.00    -0.550 OA
ATOM      8  O   UNL     1     104.259 104.998 226.525  1.00  0.00    -0.550 OA
ENDBRANCH   5   6
ENDBRANCH   4   5
ENDBRANCH   3   4
ENDBRANCH   2   3
ENDBRANCH   1   2
BRANCH   1   9
ATOM      9  C   UNL     1     102.384 107.377 231.367  1.00  0.00     0.000 C 
BRANCH   9  10
ATOM     10  C   UNL     1     102.368 105.857 231.144  1.00  0.00    -0.000 C 
BRANCH  10  11
ATOM     11  C   UNL     1     103.214 105.099 232.182  1.00  0.00    -0.000 C 
BRANCH  11  12
ATOM     12  C   UNL     1     103.509 105.936 233.438  1.00  0.00    -0.000 C 
BRANCH  12  13
ATOM     13  C   UNL     1     105.014 106.109 233.725  1.00  0.00    -0.003 C 
ATOM     14  C   UNL     1     105.879 105.148 232.911  1.00  0.00     0.004 C 
ENDBRANCH  12  13
ENDBRANCH  11  12
ENDBRANCH  10  11
ENDBRANCH   9  10
ENDBRANCH   1   9
TORSDOF 10
ENDMDL
MODEL 3
REMARK VINA RESULT:    -4.684      2.503      4.763
REMARK INTER + INTRA:          -8.778
REMARK INTER:                  -7.599
REMARK INTRA:                  -1.180
REMARK UNBOUND:                -1.357
REMARK SMILES CCCCCCCCCCCC(=O)[O-]
REMARK SMILES IDX 7 1 8 2 9 3 10 4 11 5 12 6 13 7 14 8 6 9 5 10 4 11 3 12 2 13
REMARK SMILES IDX 1 14
REMARK H PARENT
REMARK Flexibility Score: inf
ROOT
ATOM      1  C   UNL     1     104.991 108.404 229.157  1.00  0.00     0.000 C 
ENDROOT
BRANCH   1   2
ATOM      2  C   UNL     1     104.686 107.314 228.118  1.00  0.00     0.000 C 
BRANCH   2   3
ATOM      3  C   UNL     1     105.052 105.905 228.617  1.00  0.00     0.000 C 
BRANCH   3   4
ATOM      4  C   UNL     1     104.352 104.790 227.818  1.00  0.00     0.006 C 
BRANCH   4   5
ATOM      5  C   UNL     1     102.929 105.140 227.352  1.00  0.00     0.053 C 
BRANCH   5   6
ATOM      6  C   UNL     1     101.897 104.791 228.381  1.00  0.00     0.041 C 
ATOM      7  O   UNL     1     100.941 105.579 228.611  1.00  0.00    -0.550 OA
ATOM      8  O   UNL     1     101.972 103.583 229.060  1.00  0.00    -0.550 OA
ENDBRANCH   5   6
ENDBRANCH   4   5
ENDBRANCH   3   4
ENDBRANCH   2   3
ENDBRANCH   1   2
BRANCH   1   9
ATOM      9  C   UNL     1     104.529 108.021 230.574  1.00  0.00     0.000 C 
BRANCH   9  10
ATOM     10  C   UNL     1     102.999 108.037 230.719  1.00  0.00    -0.000 C 
BRANCH  10  11
ATOM     11  C   UNL     1     102.470 106.841 231.527  1.00  0.00    -0.000 C 
BRANCH  11  12
ATOM     12  C   UNL     1     103.587 105.889 231.987  1.00  0.00    -0.000 C 
BRANCH  12  13
ATOM     13  C   UNL     1     103.950 106.037 233.479  1.00  0.00    -0.003 C 
ATOM     14  C   UNL     1     105.459 106.026 233.717  1.00  0.00     0.004 C 
ENDBRANCH  12  13
ENDBRANCH  11  12
ENDBRANCH  10  11
ENDBRANCH   9  10
ENDBRANCH   1   9
TORSDOF 10
ENDMDL
MODEL 4
REMARK VINA RESULT:    -4.671      2.340      2.843
REMARK INTER + INTRA:          -8.759
REMARK INTER:                  -7.219
REMARK INTRA:                  -1.540
REMARK UNBOUND:                -1.357
REMARK SMILES CCCCCCCCCCCC(=O)[O-]
REMARK SMILES IDX 7 1 8 2 9 3 10 4 11 5 12 6 13 7 14 8 6 9 5 10 4 11 3 12 2 13
REMARK SMILES IDX 1 14
REMARK H PARENT
REMARK Flexibility Score: inf
ROOT
ATOM      1  C   UNL     1     103.337 107.910 230.738  1.00  0.00     0.000 C 
ENDROOT
BRANCH   1   2
ATOM      2  C   UNL     1     102.355 106.924 231.390  1.00  0.00     0.000 C 
BRANCH   2   3
ATOM      3  C   UNL     1     101.446 106.230 230.360  1.00  0.00     0.000 C 
BRANCH   3   4
ATOM      4  C   UNL     1     101.783 104.738 230.179  1.00  0.00     0.006 C 
BRANCH   4   5
ATOM      5  C   UNL     1     102.478 104.092 231.389  1.00  0.00     0.053 C 
BRANCH   5   6
ATOM      6  C   UNL     1     102.787 102.645 231.154  1.00  0.00     0.041 C 
ATOM      7  O   UNL     1     103.976 102.233 231.220  1.00  0.00    -0.550 OA
ATOM      8  O   UNL     1     101.760 101.746 230.898  1.00  0.00    -0.550 OA
ENDBRANCH   5   6
ENDBRANCH   4   5
ENDBRANCH   3   4
ENDBRANCH   2   3
ENDBRANCH   1   2
BRANCH   1   9
ATOM      9  C   UNL     1     104.782 107.725 231.233  1.00  0.00     0.000 C 
BRANCH   9  10
ATOM     10  C   UNL     1     105.705 107.146 230.150  1.00  0.00    -0.000 C 
BRANCH  10  11
ATOM     11  C   UNL     1     105.598 105.615 230.039  1.00  0.00    -0.000 C 
BRANCH  11  12
ATOM     12  C   UNL     1     105.279 105.140 228.611  1.00  0.00    -0.000 C 
BRANCH  12  13
ATOM     13  C   UNL     1     104.413 106.133 227.809  1.00  0.00    -0.003 C 
ATOM     14  C   UNL     1     103.390 105.428 226.920  1.00  0.00     0.004 C 
ENDBRANCH  12  13
ENDBRANCH  11  12
ENDBRANCH  10  11
ENDBRANCH   9  10
ENDBRANCH   1   9
TORSDOF 10
ENDMDL
MODEL 5
REMARK VINA RESULT:    -4.626      1.353      2.961
REMARK INTER + INTRA:          -8.687
REMARK INTER:                  -6.975
REMARK INTRA:                  -1.712
REMARK UNBOUND:                -1.357
REMARK SMILES CCCCCCCCCCCC(=O)[O-]
REMARK SMILES IDX 7 1 8 2 9 3 10 4 11 5 12 6 13 7 14 8 6 9 5 10 4 11 3 12 2 13
REMARK SMILES IDX 1 14
REMARK H PARENT
REMARK Flexibility Score: inf
ROOT
ATOM      1  C   UNL     1     101.612 104.024 228.476  1.00  0.00     0.000 C 
ENDROOT
BRANCH   1   2
ATOM      2  C   UNL     1     101.357 104.593 229.881  1.00  0.00     0.000 C 
BRANCH   2   3
ATOM      3  C   UNL     1     101.037 106.098 229.858  1.00  0.00     0.000 C 
BRANCH   3   4
ATOM      4  C   UNL     1     101.962 106.917 230.778  1.00  0.00     0.006 C 
BRANCH   4   5
ATOM      5  C   UNL     1     102.622 106.103 231.903  1.00  0.00     0.053 C 
BRANCH   5   6
ATOM      6  C   UNL     1     101.898 106.252 233.206  1.00  0.00     0.041 C 
ATOM      7  O   UNL     1     100.701 106.646 233.224  1.00  0.00    -0.550 OA
ATOM      8  O   UNL     1     102.532 105.923 234.397  1.00  0.00    -0.550 OA
ENDBRANCH   5   6
ENDBRANCH   4   5
ENDBRANCH   3   4
ENDBRANCH   2   3
ENDBRANCH   1   2
BRANCH   1   9
ATOM      9  C   UNL     1     101.982 105.112 227.452  1.00  0.00     0.000 C 
BRANCH   9  10
ATOM     10  C   UNL     1     103.485 105.135 227.135  1.00  0.00    -0.000 C 
BRANCH  10  11
ATOM     11  C   UNL     1     104.220 106.286 227.843  1.00  0.00    -0.000 C 
BRANCH  11  12
ATOM     12  C   UNL     1     105.089 105.806 229.018  1.00  0.00    -0.000 C 
BRANCH  12  13
ATOM     13  C   UNL     1     105.352 104.286 229.012  1.00  0.00    -0.003 C 
ATOM     14  C   UNL     1     104.964 103.621 230.331  1.00  0.00     0.004 C 
ENDBRANCH  12  13
ENDBRANCH  11  12
ENDBRANCH  10  11
ENDBRANCH   9  10
ENDBRANCH   1   9
TORSDOF 10
ENDMDL
MODEL 6
REMARK VINA RESULT:    -4.611      1.428      2.474
REMARK INTER + INTRA:          -8.664
REMARK INTER:                  -7.289
REMARK INTRA:                  -1.375
REMARK UNBOUND:                -1.357
REMARK SMILES CCCCCCCCCCCC(=O)[O-]
REMARK SMILES IDX 7 1 8 2 9 3 10 4 11 5 12 6 13 7 14 8 6 9 5 10 4 11 3 12 2 13
REMARK SMILES IDX 1 14
REMARK H PARENT
REMARK Flexibility Score: inf
ROOT
ATOM      1  C   UNL     1     105.728 106.374 229.630  1.00  0.00     0.000 C 
ENDROOT
BRANCH   1   2
ATOM      2  C   UNL     1     105.092 107.772 229.569  1.00  0.00     0.000 C 
BRANCH   2   3
ATOM      3  C   UNL     1     104.342 108.135 230.863  1.00  0.00     0.000 C 
BRANCH   3   4
ATOM      4  C   UNL     1     102.870 107.685 230.844  1.00  0.00     0.006 C 
BRANCH   4   5
ATOM      5  C   UNL     1     102.587 106.405 231.649  1.00  0.00     0.053 C 
BRANCH   5   6
ATOM      6  C   UNL     1     101.197 106.387 232.208  1.00  0.00     0.041 C 
ATOM      7  O   UNL     1     100.935 107.011 233.271  1.00  0.00    -0.550 OA
ATOM      8  O   UNL     1     100.186 105.710 231.540  1.00  0.00    -0.550 OA
ENDBRANCH   5   6
ENDBRANCH   4   5
ENDBRANCH   3   4
ENDBRANCH   2   3
ENDBRANCH   1   2
BRANCH   1   9
ATOM      9  C   UNL     1     105.010 105.354 228.729  1.00  0.00     0.000 C 
BRANCH   9  10
ATOM     10  C   UNL     1     104.173 106.026 227.630  1.00  0.00    -0.000 C 
BRANCH  10  11
ATOM     11  C   UNL     1     102.977 105.166 227.189  1.00  0.00    -0.000 C 
BRANCH  11  12
ATOM     12  C   UNL     1     101.824 105.178 228.207  1.00  0.00    -0.000 C 
BRANCH  12  13
ATOM     13  C   UNL     1     101.234 103.780 228.488  1.00  0.00    -0.003 C 
ATOM     14  C   UNL     1     101.854 103.122 229.720  1.00  0.00     0.004 C 
ENDBRANCH  12  13
ENDBRANCH  11  12
ENDBRANCH  10  11
ENDBRANCH   9  10
ENDBRANCH   1   9
TORSDOF 10
ENDMDL
MODEL 7
REMARK VINA RESULT:    -4.598      3.303      4.119
REMARK INTER + INTRA:          -8.643
REMARK INTER:                  -7.721
REMARK INTRA:                  -0.922
REMARK UNBOUND:                -1.357
REMARK SMILES CCCCCCCCCCCC(=O)[O-]
REMARK SMILES IDX 7 1 8 2 9 3 10 4 11 5 12 6 13 7 14 8 6 9 5 10 4 11 3 12 2 13
REMARK SMILES IDX 1 14
REMARK H PARENT
REMARK Flexibility Score: inf
ROOT
ATOM      1  C   UNL     1     103.727 106.082 231.965  1.00  0.00     0.000 C 
ENDROOT
BRANCH   1   2
ATOM      2  C   UNL     1     104.431 106.247 233.322  1.00  0.00     0.000 C 
BRANCH   2   3
ATOM      3  C   UNL     1     105.788 105.524 233.374  1.00  0.00     0.000 C 
BRANCH   3   4
ATOM      4  C   UNL     1     106.023 104.611 232.155  1.00  0.00     0.006 C 
BRANCH   4   5
ATOM      5  C   UNL     1     106.848 103.349 232.456  1.00  0.00     0.053 C 
BRANCH   5   6
ATOM      6  C   UNL     1     106.391 102.172 231.651  1.00  0.00     0.041 C 
ATOM      7  O   UNL     1     105.166 102.010 231.404  1.00  0.00    -0.550 OA
ATOM      8  O   UNL     1     107.319 101.272 231.144  1.00  0.00    -0.550 OA
ENDBRANCH   5   6
ENDBRANCH   4   5
ENDBRANCH   3   4
ENDBRANCH   2   3
ENDBRANCH   1   2
BRANCH   1   9
ATOM      9  C   UNL     1     103.628 107.402 231.182  1.00  0.00     0.000 C 
BRANCH   9  10
ATOM     10  C   UNL     1     104.999 108.063 230.968  1.00  0.00    -0.000 C 
BRANCH  10  11
ATOM     11  C   UNL     1     105.693 107.579 229.684  1.00  0.00    -0.000 C 
BRANCH  11  12
ATOM     12  C   UNL     1     104.699 107.187 228.578  1.00  0.00    -0.000 C 
BRANCH  12  13
ATOM     13  C   UNL     1     104.845 105.725 228.106  1.00  0.00    -0.003 C 
ATOM     14  C   UNL     1     103.791 105.339 227.069  1.00  0.00     0.004 C 
ENDBRANCH  12  13
ENDBRANCH  11  12
ENDBRANCH  10  11
ENDBRANCH   9  10
ENDBRANCH   1   9
TORSDOF 10
ENDMDL
MODEL 8
REMARK VINA RESULT:    -4.566      2.636      4.631
REMARK INTER + INTRA:          -8.592
REMARK INTER:                  -7.016
REMARK INTRA:                  -1.576
REMARK UNBOUND:                -1.357
REMARK SMILES CCCCCCCCCCCC(=O)[O-]
REMARK SMILES IDX 7 1 8 2 9 3 10 4 11 5 12 6 13 7 14 8 6 9 5 10 4 11 3 12 2 13
REMARK SMILES IDX 1 14
REMARK H PARENT
REMARK Flexibility Score: inf
ROOT
ATOM      1  C   UNL     1     103.456 105.141 227.116  1.00  0.00     0.000 C 
ENDROOT
BRANCH   1   2
ATOM      2  C   UNL     1     104.478 105.817 228.044  1.00  0.00     0.000 C 
BRANCH   2   3
ATOM      3  C   UNL     1     105.363 104.800 228.786  1.00  0.00     0.000 C 
BRANCH   3   4
ATOM      4  C   UNL     1     105.218 104.890 230.317  1.00  0.00     0.006 C 
BRANCH   4   5
ATOM      5  C   UNL     1     104.608 103.641 230.973  1.00  0.00     0.053 C 
BRANCH   5   6
ATOM      6  C   UNL     1     105.655 102.736 231.546  1.00  0.00     0.041 C 
ATOM      7  O   UNL     1     105.840 101.590 231.055  1.00  0.00    -0.550 OA
ATOM      8  O   UNL     1     106.450 103.170 232.598  1.00  0.00    -0.550 OA
ENDBRANCH   5   6
ENDBRANCH   4   5
ENDBRANCH   3   4
ENDBRANCH   2   3
ENDBRANCH   1   2
BRANCH   1   9
ATOM      9  C   UNL     1     102.025 105.180 227.681  1.00  0.00     0.000 C 
BRANCH   9  10
ATOM     10  C   UNL     1     101.768 104.067 228.709  1.00  0.00    -0.000 C 
BRANCH  10  11
ATOM     11  C   UNL     1     100.985 104.566 229.935  1.00  0.00    -0.000 C 
BRANCH  11  12
ATOM     12  C   UNL     1     101.004 106.097 230.074  1.00  0.00    -0.000 C 
BRANCH  12  13
ATOM     13  C   UNL     1     101.987 106.609 231.146  1.00  0.00    -0.003 C 
ATOM     14  C   UNL     1     102.769 107.837 230.683  1.00  0.00     0.004 C 
ENDBRANCH  12  13
ENDBRANCH  11  12
ENDBRANCH  10  11
ENDBRANCH   9  10
ENDBRANCH   1   9
TORSDOF 10
ENDMDL
MODEL 9
REMARK VINA RESULT:    -4.546      1.110      3.286
REMARK INTER + INTRA:          -8.561
REMARK INTER:                  -7.280
REMARK INTRA:                  -1.281
REMARK UNBOUND:                -1.357
REMARK SMILES CCCCCCCCCCCC(=O)[O-]
REMARK SMILES IDX 7 1 8 2 9 3 10 4 11 5 12 6 13 7 14 8 6 9 5 10 4 11 3 12 2 13
REMARK SMILES IDX 1 14
REMARK H PARENT
REMARK Flexibility Score: inf
ROOT
ATOM      1  C   UNL     1     102.063 105.251 227.305  1.00  0.00     0.000 C 
ENDROOT
BRANCH   1   2
ATOM      2  C   UNL     1     101.754 104.587 228.657  1.00  0.00     0.000 C 
BRANCH   2   3
ATOM      3  C   UNL     1     100.885 105.476 229.565  1.00  0.00     0.000 C 
BRANCH   3   4
ATOM      4  C   UNL     1     101.721 106.384 230.486  1.00  0.00     0.006 C 
BRANCH   4   5
ATOM      5  C   UNL     1     102.341 105.664 231.695  1.00  0.00     0.053 C 
BRANCH   5   6
ATOM      6  C   UNL     1     101.647 106.014 232.976  1.00  0.00     0.041 C 
ATOM      7  O   UNL     1     102.224 105.826 234.080  1.00  0.00    -0.550 OA
ATOM      8  O   UNL     1     100.379 106.578 232.949  1.00  0.00    -0.550 OA
ENDBRANCH   5   6
ENDBRANCH   4   5
ENDBRANCH   3   4
ENDBRANCH   2   3
ENDBRANCH   1   2
BRANCH   1   9
ATOM      9  C   UNL     1     103.563 105.238 226.966  1.00  0.00     0.000 C 
BRANCH   9  10
ATOM     10  C   UNL     1     104.375 106.193 227.855  1.00  0.00    -0.000 C 
BRANCH  10  11
ATOM     11  C   UNL     1     105.310 105.448 228.823  1.00  0.00    -0.000 C 
BRANCH  11  12
ATOM     12  C   UNL     1     105.717 106.301 230.036  1.00  0.00    -0.000 C 
BRANCH  12  13
ATOM     13  C   UNL     1     105.373 107.797 229.883  1.00  0.00    -0.003 C 
ATOM     14  C   UNL     1     105.039 108.459 231.219  1.00  0.00     0.004 C 
ENDBRANCH  12  13
ENDBRANCH  11  12
ENDBRANCH  10  11
ENDBRANCH   9  10
ENDBRANCH   1   9
TORSDOF 10
ENDMDL
