MODEL 1
REMARK VINA RESULT:    -4.806      0.000      0.000
REMARK INTER + INTRA:          -6.303
REMARK INTER:                  -5.930
REMARK INTRA:                  -0.373
REMARK UNBOUND:                -0.373
REMARK SMILES Oc1cc(O)c2cc(O)c(-c3cc(O)c(O)c(O)c3)[o+]c2c1
REMARK SMILES IDX 10 1 20 2 21 3 22 4 2 5 3 6 4 7 6 8 7 9 8 10 11 11 12 12
REMARK SMILES IDX 13 13 19 14 15 15 17 16 14 17 16 19 18 21 9 23 1 25 5 27
REMARK H PARENT 14 18 16 20 18 22 9 24 1 26 5 28
REMARK Flexibility Score: inf
ROOT
ATOM      1  C   UNL     1       7.529   9.613  11.263  1.00  0.00     0.402 A 
ATOM      2  O   UNL     1       7.198  10.804  11.752  1.00  0.00    -0.202 OA
ATOM      3  C   UNL     1       7.915  11.904  11.544  1.00  0.00     0.368 A 
ATOM      4  C   UNL     1       7.484  13.113  12.097  1.00  0.00     0.162 A 
ATOM      5  C   UNL     1       8.219  14.284  11.892  1.00  0.00     0.128 A 
ATOM      6  C   UNL     1       9.388  14.247  11.129  1.00  0.00     0.093 A 
ATOM      7  C   UNL     1       9.841  13.049  10.564  1.00  0.00     0.136 A 
ATOM      8  C   UNL     1       9.101  11.855  10.772  1.00  0.00     0.125 A 
ATOM      9  C   UNL     1       9.486  10.608  10.256  1.00  0.00     0.078 A 
ATOM     10  C   UNL     1       8.707   9.474  10.506  1.00  0.00     0.223 A 
ENDROOT
BRANCH   1  11
ATOM     11  C   UNL     1       6.641   8.465  11.557  1.00  0.00     0.091 A 
ATOM     12  C   UNL     1       5.677   8.077  10.613  1.00  0.00     0.068 A 
ATOM     13  C   UNL     1       4.838   6.982  10.858  1.00  0.00     0.162 A 
ATOM     14  C   UNL     1       6.780   7.717  12.739  1.00  0.00     0.068 A 
ATOM     15  C   UNL     1       4.970   6.252  12.051  1.00  0.00     0.200 A 
ATOM     16  C   UNL     1       5.944   6.619  12.988  1.00  0.00     0.162 A 
BRANCH  13  17
ATOM     17  O   UNL     1       3.875   6.615   9.919  1.00  0.00    -0.504 OA
ATOM     18  H   UNL     1       3.970   5.773   9.362  1.00  0.00     0.293 HD
ENDBRANCH  13  17
BRANCH  15  19
ATOM     19  O   UNL     1       4.145   5.158  12.318  1.00  0.00    -0.502 OA
ATOM     20  H   UNL     1       3.532   4.761  11.617  1.00  0.00     0.293 HD
ENDBRANCH  15  19
BRANCH  16  21
ATOM     21  O   UNL     1       6.081   5.883  14.164  1.00  0.00    -0.504 OA
ATOM     22  H   UNL     1       5.275   5.525  14.663  1.00  0.00     0.293 HD
ENDBRANCH  16  21
ENDBRANCH   1  11
BRANCH  10  23
ATOM     23  O   UNL     1       9.116   8.226  10.036  1.00  0.00    -0.500 OA
ATOM     24  H   UNL     1       8.490   7.430  10.028  1.00  0.00     0.294 HD
ENDBRANCH  10  23
BRANCH   5  25
ATOM     25  O   UNL     1       7.795  15.493  12.440  1.00  0.00    -0.507 OA
ATOM     26  H   UNL     1       7.857  16.361  11.922  1.00  0.00     0.293 HD
ENDBRANCH   5  25
BRANCH   7  27
ATOM     27  O   UNL     1      11.019  13.097   9.812  1.00  0.00    -0.507 OA
ATOM     28  H   UNL     1      11.715  12.364   9.794  1.00  0.00     0.293 HD
ENDBRANCH   7  27
TORSDOF 7
ENDMDL
MODEL 2
REMARK VINA RESULT:    -4.792     12.183     14.928
REMARK INTER + INTRA:          -6.286
REMARK INTER:                  -5.912
REMARK INTRA:                  -0.374
REMARK UNBOUND:                -0.373
REMARK SMILES Oc1cc(O)c2cc(O)c(-c3cc(O)c(O)c(O)c3)[o+]c2c1
REMARK SMILES IDX 10 1 20 2 21 3 22 4 2 5 3 6 4 7 6 8 7 9 8 10 11 11 12 12
REMARK SMILES IDX 13 13 19 14 15 15 17 16 14 17 16 19 18 21 9 23 1 25 5 27
REMARK H PARENT 14 18 16 20 18 22 9 24 1 26 5 28
REMARK Flexibility Score: inf
ROOT
ATOM      1  C   UNL     1      13.343  22.050   7.583  1.00  0.00     0.402 A 
ATOM      2  O   UNL     1      12.170  21.567   7.983  1.00  0.00    -0.202 OA
ATOM      3  C   UNL     1      11.661  21.792   9.191  1.00  0.00     0.368 A 
ATOM      4  C   UNL     1      10.418  21.244   9.518  1.00  0.00     0.162 A 
ATOM      5  C   UNL     1       9.860  21.467  10.780  1.00  0.00     0.128 A 
ATOM      6  C   UNL     1      10.547  22.241  11.718  1.00  0.00     0.093 A 
ATOM      7  C   UNL     1      11.794  22.801  11.414  1.00  0.00     0.136 A 
ATOM      8  C   UNL     1      12.368  22.575  10.136  1.00  0.00     0.125 A 
ATOM      9  C   UNL     1      13.617  23.085   9.748  1.00  0.00     0.078 A 
ATOM     10  C   UNL     1      14.119  22.817   8.472  1.00  0.00     0.223 A 
ENDROOT
BRANCH   1  11
ATOM     11  C   UNL     1      13.796  21.737   6.209  1.00  0.00     0.091 A 
ATOM     12  C   UNL     1      14.599  20.607   5.986  1.00  0.00     0.068 A 
ATOM     13  C   UNL     1      15.025  20.278   4.692  1.00  0.00     0.162 A 
ATOM     14  C   UNL     1      13.394  22.517   5.111  1.00  0.00     0.068 A 
ATOM     15  C   UNL     1      14.634  21.074   3.602  1.00  0.00     0.200 A 
ATOM     16  C   UNL     1      13.816  22.191   3.814  1.00  0.00     0.162 A 
BRANCH  13  17
ATOM     17  O   UNL     1      15.832  19.161   4.485  1.00  0.00    -0.504 OA
ATOM     18  H   UNL     1      15.443  18.268   4.208  1.00  0.00     0.293 HD
ENDBRANCH  13  17
BRANCH  15  19
ATOM     19  O   UNL     1      15.047  20.768   2.305  1.00  0.00    -0.502 OA
ATOM     20  H   UNL     1      15.941  20.334   2.113  1.00  0.00     0.293 HD
ENDBRANCH  15  19
BRANCH  16  21
ATOM     21  O   UNL     1      13.419  22.970   2.728  1.00  0.00    -0.504 OA
ATOM     22  H   UNL     1      12.478  23.342   2.657  1.00  0.00     0.293 HD
ENDBRANCH  16  21
ENDBRANCH   1  11
BRANCH  10  23
ATOM     23  O   UNL     1      15.382  23.280   8.105  1.00  0.00    -0.500 OA
ATOM     24  H   UNL     1      15.777  24.124   8.504  1.00  0.00     0.294 HD
ENDBRANCH  10  23
BRANCH   5  25
ATOM     25  O   UNL     1       8.620  20.925  11.113  1.00  0.00    -0.507 OA
ATOM     26  H   UNL     1       8.181  21.115  12.006  1.00  0.00     0.293 HD
ENDBRANCH   5  25
BRANCH   7  27
ATOM     27  O   UNL     1      12.415  23.565  12.407  1.00  0.00    -0.507 OA
ATOM     28  H   UNL     1      11.925  24.166  13.055  1.00  0.00     0.293 HD
ENDBRANCH   7  27
TORSDOF 7
ENDMDL
MODEL 3
REMARK VINA RESULT:    -4.761     11.899     14.113
REMARK INTER + INTRA:          -6.247
REMARK INTER:                  -5.873
REMARK INTRA:                  -0.374
REMARK UNBOUND:                -0.373
REMARK SMILES Oc1cc(O)c2cc(O)c(-c3cc(O)c(O)c(O)c3)[o+]c2c1
REMARK SMILES IDX 10 1 20 2 21 3 22 4 2 5 3 6 4 7 6 8 7 9 8 10 11 11 12 12
REMARK SMILES IDX 13 13 19 14 15 15 17 16 14 17 16 19 18 21 9 23 1 25 5 27
REMARK H PARENT 14 18 16 20 18 22 9 24 1 26 5 28
REMARK Flexibility Score: inf
ROOT
ATOM      1  C   UNL     1      11.999  22.099   8.161  1.00  0.00     0.402 A 
ATOM      2  O   UNL     1      12.845  21.164   7.740  1.00  0.00    -0.202 OA
ATOM      3  C   UNL     1      13.376  21.155   6.521  1.00  0.00     0.368 A 
ATOM      4  C   UNL     1      14.260  20.131   6.171  1.00  0.00     0.162 A 
ATOM      5  C   UNL     1      14.834  20.100   4.896  1.00  0.00     0.128 A 
ATOM      6  C   UNL     1      14.524  21.098   3.970  1.00  0.00     0.093 A 
ATOM      7  C   UNL     1      13.641  22.134   4.296  1.00  0.00     0.136 A 
ATOM      8  C   UNL     1      13.052  22.170   5.587  1.00  0.00     0.125 A 
ATOM      9  C   UNL     1      12.148  23.162   5.998  1.00  0.00     0.078 A 
ATOM     10  C   UNL     1      11.606  23.128   7.285  1.00  0.00     0.223 A 
ENDROOT
BRANCH   1  11
ATOM     11  C   UNL     1      11.484  22.004   9.546  1.00  0.00     0.091 A 
ATOM     12  C   UNL     1      10.278  21.327   9.790  1.00  0.00     0.068 A 
ATOM     13  C   UNL     1       9.779  21.205  11.094  1.00  0.00     0.162 A 
ATOM     14  C   UNL     1      12.205  22.529  10.633  1.00  0.00     0.068 A 
ATOM     15  C   UNL     1      10.496  21.750  12.173  1.00  0.00     0.200 A 
ATOM     16  C   UNL     1      11.711  22.407  11.939  1.00  0.00     0.162 A 
BRANCH  13  17
ATOM     17  O   UNL     1       8.574  20.543  11.323  1.00  0.00    -0.504 OA
ATOM     18  H   UNL     1       8.467  19.881  12.082  1.00  0.00     0.293 HD
ENDBRANCH  13  17
BRANCH  15  19
ATOM     19  O   UNL     1      10.019  21.644  13.479  1.00  0.00    -0.502 OA
ATOM     20  H   UNL     1       9.994  20.761  13.974  1.00  0.00     0.293 HD
ENDBRANCH  15  19
BRANCH  16  21
ATOM     21  O   UNL     1      12.427  22.935  13.013  1.00  0.00    -0.504 OA
ATOM     22  H   UNL     1      13.435  22.852  13.071  1.00  0.00     0.293 HD
ENDBRANCH  16  21
ENDBRANCH   1  11
BRANCH  10  23
ATOM     23  O   UNL     1      10.669  24.084   7.676  1.00  0.00    -0.500 OA
ATOM     24  H   UNL     1      10.795  25.069   7.471  1.00  0.00     0.294 HD
ENDBRANCH  10  23
BRANCH   5  25
ATOM     25  O   UNL     1      15.716  19.082   4.541  1.00  0.00    -0.507 OA
ATOM     26  H   UNL     1      16.461  18.786   5.160  1.00  0.00     0.293 HD
ENDBRANCH   5  25
BRANCH   7  27
ATOM     27  O   UNL     1      13.385  23.095   3.313  1.00  0.00    -0.507 OA
ATOM     28  H   UNL     1      13.263  24.081   3.497  1.00  0.00     0.293 HD
ENDBRANCH   7  27
TORSDOF 7
ENDMDL
MODEL 4
REMARK VINA RESULT:    -4.750      1.566      7.239
REMARK INTER + INTRA:          -6.234
REMARK INTER:                  -5.901
REMARK INTRA:                  -0.333
REMARK UNBOUND:                -0.373
REMARK SMILES Oc1cc(O)c2cc(O)c(-c3cc(O)c(O)c(O)c3)[o+]c2c1
REMARK SMILES IDX 10 1 20 2 21 3 22 4 2 5 3 6 4 7 6 8 7 9 8 10 11 11 12 12
REMARK SMILES IDX 13 13 19 14 15 15 17 16 14 17 16 19 18 21 9 23 1 25 5 27
REMARK H PARENT 14 18 16 20 18 22 9 24 1 26 5 28
REMARK Flexibility Score: inf
ROOT
ATOM      1  C   UNL     1       7.591   9.943   9.893  1.00  0.00     0.402 A 
ATOM      2  O   UNL     1       7.603   9.253  11.031  1.00  0.00    -0.202 OA
ATOM      3  C   UNL     1       6.775   8.245  11.283  1.00  0.00     0.368 A 
ATOM      4  C   UNL     1       6.866   7.578  12.507  1.00  0.00     0.162 A 
ATOM      5  C   UNL     1       6.009   6.513  12.796  1.00  0.00     0.128 A 
ATOM      6  C   UNL     1       5.056   6.113  11.857  1.00  0.00     0.093 A 
ATOM      7  C   UNL     1       4.944   6.764  10.623  1.00  0.00     0.136 A 
ATOM      8  C   UNL     1       5.810   7.849  10.325  1.00  0.00     0.125 A 
ATOM      9  C   UNL     1       5.761   8.568   9.120  1.00  0.00     0.078 A 
ATOM     10  C   UNL     1       6.645   9.628   8.900  1.00  0.00     0.223 A 
ENDROOT
BRANCH   1  11
ATOM     11  C   UNL     1       8.573  11.039   9.729  1.00  0.00     0.091 A 
ATOM     12  C   UNL     1       8.422  12.219  10.473  1.00  0.00     0.068 A 
ATOM     13  C   UNL     1       9.349  13.264  10.350  1.00  0.00     0.162 A 
ATOM     14  C   UNL     1       9.687  10.901   8.882  1.00  0.00     0.068 A 
ATOM     15  C   UNL     1      10.449  13.126   9.487  1.00  0.00     0.200 A 
ATOM     16  C   UNL     1      10.618  11.942   8.758  1.00  0.00     0.162 A 
BRANCH  13  17
ATOM     17  O   UNL     1       9.181  14.436  11.084  1.00  0.00    -0.504 OA
ATOM     18  H   UNL     1       8.332  14.986  11.021  1.00  0.00     0.293 HD
ENDBRANCH  13  17
BRANCH  15  19
ATOM     19  O   UNL     1      11.383  14.153   9.347  1.00  0.00    -0.502 OA
ATOM     20  H   UNL     1      12.020  14.198   8.561  1.00  0.00     0.293 HD
ENDBRANCH  15  19
BRANCH  16  21
ATOM     21  O   UNL     1      11.718  11.804   7.913  1.00  0.00    -0.504 OA
ATOM     22  H   UNL     1      12.418  11.086   8.065  1.00  0.00     0.293 HD
ENDBRANCH  16  21
ENDBRANCH   1  11
BRANCH  10  23
ATOM     23  O   UNL     1       6.563  10.375   7.725  1.00  0.00    -0.500 OA
ATOM     24  H   UNL     1       6.087  11.269   7.695  1.00  0.00     0.294 HD
ENDBRANCH  10  23
BRANCH   5  25
ATOM     25  O   UNL     1       6.095   5.843  14.015  1.00  0.00    -0.507 OA
ATOM     26  H   UNL     1       5.340   5.872  14.690  1.00  0.00     0.293 HD
ENDBRANCH   5  25
BRANCH   7  27
ATOM     27  O   UNL     1       3.967   6.301   9.737  1.00  0.00    -0.507 OA
ATOM     28  H   UNL     1       3.608   6.830   8.954  1.00  0.00     0.293 HD
ENDBRANCH   7  27
TORSDOF 7
ENDMDL
MODEL 5
REMARK VINA RESULT:    -4.701     13.619     15.426
REMARK INTER + INTRA:          -6.173
REMARK INTER:                  -5.790
REMARK INTRA:                  -0.383
REMARK UNBOUND:                -0.373
REMARK SMILES Oc1cc(O)c2cc(O)c(-c3cc(O)c(O)c(O)c3)[o+]c2c1
REMARK SMILES IDX 10 1 20 2 21 3 22 4 2 5 3 6 4 7 6 8 7 9 8 10 11 11 12 12
REMARK SMILES IDX 13 13 19 14 15 15 17 16 14 17 16 19 18 21 9 23 1 25 5 27
REMARK H PARENT 14 18 16 20 18 22 9 24 1 26 5 28
REMARK Flexibility Score: inf
ROOT
ATOM      1  C   UNL     1      14.367  21.944   7.421  1.00  0.00     0.402 A 
ATOM      2  O   UNL     1      15.552  22.234   7.950  1.00  0.00    -0.202 OA
ATOM      3  C   UNL     1      15.701  22.807   9.140  1.00  0.00     0.368 A 
ATOM      4  C   UNL     1      16.988  23.070   9.613  1.00  0.00     0.162 A 
ATOM      5  C   UNL     1      17.172  23.671  10.862  1.00  0.00     0.128 A 
ATOM      6  C   UNL     1      16.063  24.008  11.641  1.00  0.00     0.093 A 
ATOM      7  C   UNL     1      14.762  23.755  11.189  1.00  0.00     0.136 A 
ATOM      8  C   UNL     1      14.569  23.149   9.920  1.00  0.00     0.125 A 
ATOM      9  C   UNL     1      13.303  22.870   9.381  1.00  0.00     0.078 A 
ATOM     10  C   UNL     1      13.192  22.274   8.122  1.00  0.00     0.223 A 
ENDROOT
BRANCH   1  11
ATOM     11  C   UNL     1      14.334  21.295   6.090  1.00  0.00     0.091 A 
ATOM     12  C   UNL     1      14.323  22.090   4.934  1.00  0.00     0.068 A 
ATOM     13  C   UNL     1      14.313  21.500   3.662  1.00  0.00     0.162 A 
ATOM     14  C   UNL     1      14.370  19.896   5.958  1.00  0.00     0.068 A 
ATOM     15  C   UNL     1      14.329  20.101   3.539  1.00  0.00     0.200 A 
ATOM     16  C   UNL     1      14.362  19.301   4.688  1.00  0.00     0.162 A 
BRANCH  13  17
ATOM     17  O   UNL     1      14.288  22.301   2.521  1.00  0.00    -0.504 OA
ATOM     18  H   UNL     1      15.140  22.570   2.043  1.00  0.00     0.293 HD
ENDBRANCH  13  17
BRANCH  15  19
ATOM     19  O   UNL     1      14.316  19.491   2.284  1.00  0.00    -0.502 OA
ATOM     20  H   UNL     1      13.983  18.545   2.148  1.00  0.00     0.293 HD
ENDBRANCH  15  19
BRANCH  16  21
ATOM     21  O   UNL     1      14.392  17.913   4.561  1.00  0.00    -0.504 OA
ATOM     22  H   UNL     1      14.358  17.462   3.654  1.00  0.00     0.293 HD
ENDBRANCH  16  21
ENDBRANCH   1  11
BRANCH  10  23
ATOM     23  O   UNL     1      11.935  22.044   7.565  1.00  0.00    -0.500 OA
ATOM     24  H   UNL     1      11.601  22.572   6.767  1.00  0.00     0.294 HD
ENDBRANCH  10  23
BRANCH   5  25
ATOM     25  O   UNL     1      18.454  23.935  11.340  1.00  0.00    -0.507 OA
ATOM     26  H   UNL     1      18.963  23.257  11.894  1.00  0.00     0.293 HD
ENDBRANCH   5  25
BRANCH   7  27
ATOM     27  O   UNL     1      13.707  24.121  12.030  1.00  0.00    -0.507 OA
ATOM     28  H   UNL     1      13.442  23.618  12.866  1.00  0.00     0.293 HD
ENDBRANCH   7  27
TORSDOF 7
ENDMDL
MODEL 6
REMARK VINA RESULT:    -4.697      1.075      2.565
REMARK INTER + INTRA:          -6.168
REMARK INTER:                  -5.784
REMARK INTRA:                  -0.385
REMARK UNBOUND:                -0.373
REMARK SMILES Oc1cc(O)c2cc(O)c(-c3cc(O)c(O)c(O)c3)[o+]c2c1
REMARK SMILES IDX 10 1 20 2 21 3 22 4 2 5 3 6 4 7 6 8 7 9 8 10 11 11 12 12
REMARK SMILES IDX 13 13 19 14 15 15 17 16 14 17 16 19 18 21 9 23 1 25 5 27
REMARK H PARENT 14 18 16 20 18 22 9 24 1 26 5 28
REMARK Flexibility Score: inf
ROOT
ATOM      1  C   UNL     1       6.725  10.381  11.635  1.00  0.00     0.402 A 
ATOM      2  O   UNL     1       7.848  10.654  10.978  1.00  0.00    -0.202 OA
ATOM      3  C   UNL     1       8.361  11.877  10.883  1.00  0.00     0.368 A 
ATOM      4  C   UNL     1       9.549  12.064  10.172  1.00  0.00     0.162 A 
ATOM      5  C   UNL     1      10.110  13.339  10.060  1.00  0.00     0.128 A 
ATOM      6  C   UNL     1       9.482  14.431  10.662  1.00  0.00     0.093 A 
ATOM      7  C   UNL     1       8.291  14.270  11.379  1.00  0.00     0.136 A 
ATOM      8  C   UNL     1       7.714  12.978  11.494  1.00  0.00     0.125 A 
ATOM      9  C   UNL     1       6.517  12.724  12.182  1.00  0.00     0.078 A 
ATOM     10  C   UNL     1       6.007  11.425  12.249  1.00  0.00     0.223 A 
ENDROOT
BRANCH   1  11
ATOM     11  C   UNL     1       6.262   8.975  11.677  1.00  0.00     0.091 A 
ATOM     12  C   UNL     1       5.472   8.477  10.629  1.00  0.00     0.068 A 
ATOM     13  C   UNL     1       5.037   7.144  10.634  1.00  0.00     0.162 A 
ATOM     14  C   UNL     1       6.643   8.110  12.717  1.00  0.00     0.068 A 
ATOM     15  C   UNL     1       5.406   6.291  11.688  1.00  0.00     0.200 A 
ATOM     16  C   UNL     1       6.212   6.775  12.725  1.00  0.00     0.162 A 
BRANCH  13  17
ATOM     17  O   UNL     1       4.242   6.665   9.594  1.00  0.00    -0.504 OA
ATOM     18  H   UNL     1       3.728   5.795   9.677  1.00  0.00     0.293 HD
ENDBRANCH  13  17
BRANCH  15  19
ATOM     19  O   UNL     1       4.984   4.962  11.716  1.00  0.00    -0.502 OA
ATOM     20  H   UNL     1       5.521   4.235  12.172  1.00  0.00     0.293 HD
ENDBRANCH  15  19
BRANCH  16  21
ATOM     21  O   UNL     1       6.588   5.922  13.762  1.00  0.00    -0.504 OA
ATOM     22  H   UNL     1       7.562   5.771  13.999  1.00  0.00     0.293 HD
ENDBRANCH  16  21
ENDBRANCH   1  11
BRANCH  10  23
ATOM     23  O   UNL     1       4.792  11.181  12.888  1.00  0.00    -0.500 OA
ATOM     24  H   UNL     1       3.992  11.788  12.760  1.00  0.00     0.294 HD
ENDBRANCH  10  23
BRANCH   5  25
ATOM     25  O   UNL     1      11.296  13.532   9.353  1.00  0.00    -0.507 OA
ATOM     26  H   UNL     1      11.452  14.365   8.797  1.00  0.00     0.293 HD
ENDBRANCH   5  25
BRANCH   7  27
ATOM     27  O   UNL     1       7.726  15.413  11.954  1.00  0.00    -0.507 OA
ATOM     28  H   UNL     1       6.911  15.889  11.594  1.00  0.00     0.293 HD
ENDBRANCH   7  27
TORSDOF 7
ENDMDL
MODEL 7
REMARK VINA RESULT:    -4.638      3.790      7.640
REMARK INTER + INTRA:          -6.096
REMARK INTER:                  -5.910
REMARK INTRA:                  -0.186
REMARK UNBOUND:                -0.373
REMARK SMILES Oc1cc(O)c2cc(O)c(-c3cc(O)c(O)c(O)c3)[o+]c2c1
REMARK SMILES IDX 10 1 20 2 21 3 22 4 2 5 3 6 4 7 6 8 7 9 8 10 11 11 12 12
REMARK SMILES IDX 13 13 19 14 15 15 17 16 14 17 16 19 18 21 9 23 1 25 5 27
REMARK H PARENT 14 18 16 20 18 22 9 24 1 26 5 28
REMARK Flexibility Score: inf
ROOT
ATOM      1  C   UNL     1       8.424  14.035  11.410  1.00  0.00     0.402 A 
ATOM      2  O   UNL     1       9.251  14.019  10.368  1.00  0.00    -0.202 OA
ATOM      3  C   UNL     1       9.673  12.900   9.787  1.00  0.00     0.368 A 
ATOM      4  C   UNL     1      10.539  12.985   8.695  1.00  0.00     0.162 A 
ATOM      5  C   UNL     1      10.996  11.824   8.065  1.00  0.00     0.128 A 
ATOM      6  C   UNL     1      10.582  10.573   8.529  1.00  0.00     0.093 A 
ATOM      7  C   UNL     1       9.715  10.461   9.621  1.00  0.00     0.136 A 
ATOM      8  C   UNL     1       9.251  11.636  10.268  1.00  0.00     0.125 A 
ATOM      9  C   UNL     1       8.390  11.620  11.377  1.00  0.00     0.078 A 
ATOM     10  C   UNL     1       7.978  12.820  11.963  1.00  0.00     0.223 A 
ENDROOT
BRANCH   1  11
ATOM     11  C   UNL     1       8.018  15.348  11.961  1.00  0.00     0.091 A 
ATOM     12  C   UNL     1       7.261  16.226  11.171  1.00  0.00     0.068 A 
ATOM     13  C   UNL     1       6.847  17.466  11.676  1.00  0.00     0.162 A 
ATOM     14  C   UNL     1       8.329  15.713  13.283  1.00  0.00     0.068 A 
ATOM     15  C   UNL     1       7.179  17.832  12.991  1.00  0.00     0.200 A 
ATOM     16  C   UNL     1       7.916  16.952  13.794  1.00  0.00     0.162 A 
BRANCH  13  17
ATOM     17  O   UNL     1       6.106  18.335  10.876  1.00  0.00    -0.504 OA
ATOM     18  H   UNL     1       6.460  18.671   9.988  1.00  0.00     0.293 HD
ENDBRANCH  13  17
BRANCH  15  19
ATOM     19  O   UNL     1       6.780  19.062  13.516  1.00  0.00    -0.502 OA
ATOM     20  H   UNL     1       6.227  19.721  12.984  1.00  0.00     0.293 HD
ENDBRANCH  15  19
BRANCH  16  21
ATOM     21  O   UNL     1       8.231  17.313  15.103  1.00  0.00    -0.504 OA
ATOM     22  H   UNL     1       8.345  18.283  15.374  1.00  0.00     0.293 HD
ENDBRANCH  16  21
ENDBRANCH   1  11
BRANCH  10  23
ATOM     23  O   UNL     1       7.165  12.803  13.095  1.00  0.00    -0.500 OA
ATOM     24  H   UNL     1       6.235  13.206  13.090  1.00  0.00     0.294 HD
ENDBRANCH  10  23
BRANCH   5  25
ATOM     25  O   UNL     1      11.860  11.901   6.975  1.00  0.00    -0.507 OA
ATOM     26  H   UNL     1      12.782  12.313   7.057  1.00  0.00     0.293 HD
ENDBRANCH   5  25
BRANCH   7  27
ATOM     27  O   UNL     1       9.347   9.173  10.022  1.00  0.00    -0.507 OA
ATOM     28  H   UNL     1       8.394   8.872  10.174  1.00  0.00     0.293 HD
ENDBRANCH   7  27
TORSDOF 7
ENDMDL
MODEL 8
REMARK VINA RESULT:    -4.629     10.734     14.356
REMARK INTER + INTRA:          -6.084
REMARK INTER:                  -5.704
REMARK INTRA:                  -0.380
REMARK UNBOUND:                -0.373
REMARK SMILES Oc1cc(O)c2cc(O)c(-c3cc(O)c(O)c(O)c3)[o+]c2c1
REMARK SMILES IDX 10 1 20 2 21 3 22 4 2 5 3 6 4 7 6 8 7 9 8 10 11 11 12 12
REMARK SMILES IDX 13 13 19 14 15 15 17 16 14 17 16 19 18 21 9 23 1 25 5 27
REMARK H PARENT 14 18 16 20 18 22 9 24 1 26 5 28
REMARK Flexibility Score: inf
ROOT
ATOM      1  C   UNL     1      12.249  21.347   7.183  1.00  0.00     0.402 A 
ATOM      2  O   UNL     1      11.099  20.679   7.178  1.00  0.00    -0.202 OA
ATOM      3  C   UNL     1      10.257  20.667   8.207  1.00  0.00     0.368 A 
ATOM      4  C   UNL     1       9.070  19.937   8.106  1.00  0.00     0.162 A 
ATOM      5  C   UNL     1       8.167  19.909   9.173  1.00  0.00     0.128 A 
ATOM      6  C   UNL     1       8.451  20.616  10.343  1.00  0.00     0.093 A 
ATOM      7  C   UNL     1       9.633  21.355  10.469  1.00  0.00     0.136 A 
ATOM      8  C   UNL     1      10.556  21.383   9.391  1.00  0.00     0.125 A 
ATOM      9  C   UNL     1      11.771  22.086   9.433  1.00  0.00     0.078 A 
ATOM     10  C   UNL     1      12.632  22.064   8.332  1.00  0.00     0.223 A 
ENDROOT
BRANCH   1  11
ATOM     11  C   UNL     1      13.096  21.290   5.970  1.00  0.00     0.091 A 
ATOM     12  C   UNL     1      14.060  20.277   5.847  1.00  0.00     0.068 A 
ATOM     13  C   UNL     1      14.861  20.189   4.701  1.00  0.00     0.162 A 
ATOM     14  C   UNL     1      12.919  22.197   4.911  1.00  0.00     0.068 A 
ATOM     15  C   UNL     1      14.691  21.112   3.655  1.00  0.00     0.200 A 
ATOM     16  C   UNL     1      13.717  22.112   3.761  1.00  0.00     0.162 A 
BRANCH  13  17
ATOM     17  O   UNL     1      15.824  19.186   4.596  1.00  0.00    -0.504 OA
ATOM     18  H   UNL     1      15.614  18.290   4.173  1.00  0.00     0.293 HD
ENDBRANCH  13  17
BRANCH  15  19
ATOM     19  O   UNL     1      15.478  21.045   2.505  1.00  0.00    -0.502 OA
ATOM     20  H   UNL     1      15.561  21.823   1.863  1.00  0.00     0.293 HD
ENDBRANCH  15  19
BRANCH  16  21
ATOM     21  O   UNL     1      13.542  23.017   2.715  1.00  0.00    -0.504 OA
ATOM     22  H   UNL     1      14.230  23.115   1.977  1.00  0.00     0.293 HD
ENDBRANCH  16  21
ENDBRANCH   1  11
BRANCH  10  23
ATOM     23  O   UNL     1      13.862  22.719   8.392  1.00  0.00    -0.500 OA
ATOM     24  H   UNL     1      14.164  23.352   7.661  1.00  0.00     0.294 HD
ENDBRANCH  10  23
BRANCH   5  25
ATOM     25  O   UNL     1       6.981  19.184   9.079  1.00  0.00    -0.507 OA
ATOM     26  H   UNL     1       6.964  18.177   9.196  1.00  0.00     0.293 HD
ENDBRANCH   5  25
BRANCH   7  27
ATOM     27  O   UNL     1       9.842  22.036  11.672  1.00  0.00    -0.507 OA
ATOM     28  H   UNL     1      10.138  21.597  12.533  1.00  0.00     0.293 HD
ENDBRANCH   7  27
TORSDOF 7
ENDMDL
MODEL 9
REMARK VINA RESULT:    -4.588     11.608     14.324
REMARK INTER + INTRA:          -6.034
REMARK INTER:                  -5.656
REMARK INTRA:                  -0.377
REMARK UNBOUND:                -0.373
REMARK SMILES Oc1cc(O)c2cc(O)c(-c3cc(O)c(O)c(O)c3)[o+]c2c1
REMARK SMILES IDX 10 1 20 2 21 3 22 4 2 5 3 6 4 7 6 8 7 9 8 10 11 11 12 12
REMARK SMILES IDX 13 13 19 14 15 15 17 16 14 17 16 19 18 21 9 23 1 25 5 27
REMARK H PARENT 14 18 16 20 18 22 9 24 1 26 5 28
REMARK Flexibility Score: inf
ROOT
ATOM      1  C   UNL     1      11.957  21.003   6.820  1.00  0.00     0.402 A 
ATOM      2  O   UNL     1      12.255  21.669   7.932  1.00  0.00    -0.202 OA
ATOM      3  C   UNL     1      11.475  21.681   9.008  1.00  0.00     0.368 A 
ATOM      4  C   UNL     1      11.875  22.408  10.132  1.00  0.00     0.162 A 
ATOM      5  C   UNL     1      11.074  22.435  11.277  1.00  0.00     0.128 A 
ATOM      6  C   UNL     1       9.869  21.730  11.299  1.00  0.00     0.093 A 
ATOM      7  C   UNL     1       9.445  20.994  10.186  1.00  0.00     0.136 A 
ATOM      8  C   UNL     1      10.253  20.966   9.019  1.00  0.00     0.125 A 
ATOM      9  C   UNL     1       9.902  20.267   7.853  1.00  0.00     0.078 A 
ATOM     10  C   UNL     1      10.748  20.288   6.741  1.00  0.00     0.223 A 
ENDROOT
BRANCH   1  11
ATOM     11  C   UNL     1      12.915  21.061   5.692  1.00  0.00     0.091 A 
ATOM     12  C   UNL     1      13.937  20.103   5.604  1.00  0.00     0.068 A 
ATOM     13  C   UNL     1      14.844  20.123   4.535  1.00  0.00     0.162 A 
ATOM     14  C   UNL     1      12.789  22.022   4.675  1.00  0.00     0.068 A 
ATOM     15  C   UNL     1      14.723  21.100   3.533  1.00  0.00     0.200 A 
ATOM     16  C   UNL     1      13.693  22.045   3.602  1.00  0.00     0.162 A 
BRANCH  13  17
ATOM     17  O   UNL     1      15.863  19.174   4.466  1.00  0.00    -0.504 OA
ATOM     18  H   UNL     1      15.727  18.224   4.791  1.00  0.00     0.293 HD
ENDBRANCH  13  17
BRANCH  15  19
ATOM     19  O   UNL     1      15.615  21.141   2.460  1.00  0.00    -0.502 OA
ATOM     20  H   UNL     1      15.473  21.749   1.664  1.00  0.00     0.293 HD
ENDBRANCH  15  19
BRANCH  16  21
ATOM     21  O   UNL     1      13.568  23.004   2.598  1.00  0.00    -0.504 OA
ATOM     22  H   UNL     1      14.031  23.904   2.663  1.00  0.00     0.293 HD
ENDBRANCH  16  21
ENDBRANCH   1  11
BRANCH  10  23
ATOM     23  O   UNL     1      10.376  19.636   5.566  1.00  0.00    -0.500 OA
ATOM     24  H   UNL     1      10.420  18.627   5.480  1.00  0.00     0.294 HD
ENDBRANCH  10  23
BRANCH   5  25
ATOM     25  O   UNL     1      11.468  23.158  12.401  1.00  0.00    -0.507 OA
ATOM     26  H   UNL     1      11.896  24.073  12.320  1.00  0.00     0.293 HD
ENDBRANCH   5  25
BRANCH   7  27
ATOM     27  O   UNL     1       8.227  20.315  10.290  1.00  0.00    -0.507 OA
ATOM     28  H   UNL     1       7.982  19.696  11.049  1.00  0.00     0.293 HD
ENDBRANCH   7  27
TORSDOF 7
ENDMDL
