MODEL 1
REMARK VINA RESULT:    -5.593      0.000      0.000
REMARK INTER + INTRA:          -5.756
REMARK INTER:                  -5.756
REMARK INTRA:                   0.000
REMARK UNBOUND:                 0.000
REMARK SMILES Oc1ccc2[nH]ccc2c1
REMARK SMILES IDX 3 1 4 2 5 3 9 4 8 5 7 6 6 7 10 8 2 9 1 11
REMARK H PARENT 6 10 1 12
REMARK Flexibility Score: inf
ROOT
ATOM      1  C   UNL     1       1.594 -21.525  -7.882  1.00  0.00     0.048 A 
ATOM      2  C   UNL     1       1.914 -20.271  -7.330  1.00  0.00     0.030 A 
ATOM      3  C   UNL     1       1.465 -19.992  -6.041  1.00  0.00     0.046 A 
ATOM      4  C   UNL     1       0.735 -20.899  -5.321  1.00  0.00     0.003 A 
ATOM      5  C   UNL     1       0.451 -20.326  -4.102  1.00  0.00     0.028 A 
ATOM      6  C   UNL     1       1.039 -19.066  -4.147  1.00  0.00     0.083 A 
ATOM      7  N   UNL     1       1.658 -18.867  -5.333  1.00  0.00    -0.361 N 
ATOM      8  C   UNL     1       0.400 -22.150  -5.838  1.00  0.00     0.056 A 
ATOM      9  C   UNL     1       0.839 -22.463  -7.141  1.00  0.00     0.116 A 
ATOM     10  H   UNL     1       2.177 -18.012  -5.634  1.00  0.00     0.166 HD
ENDROOT
BRANCH   9  11
ATOM     11  O   UNL     1       0.535 -23.698  -7.709  1.00  0.00    -0.508 OA
ATOM     12  H   UNL     1      -0.297 -24.212  -7.445  1.00  0.00     0.293 HD
ENDBRANCH   9  11
TORSDOF 1
ENDMDL
MODEL 2
REMARK VINA RESULT:    -5.049      9.904     10.850
REMARK INTER + INTRA:          -5.197
REMARK INTER:                  -5.197
REMARK INTRA:                   0.000
REMARK UNBOUND:                 0.000
REMARK SMILES Oc1ccc2[nH]ccc2c1
REMARK SMILES IDX 3 1 4 2 5 3 9 4 8 5 7 6 6 7 10 8 2 9 1 11
REMARK H PARENT 6 10 1 12
REMARK Flexibility Score: inf
ROOT
ATOM      1  C   UNL     1      -5.219 -28.351  -3.705  1.00  0.00     0.048 A 
ATOM      2  C   UNL     1      -5.268 -27.084  -3.094  1.00  0.00     0.030 A 
ATOM      3  C   UNL     1      -6.483 -26.668  -2.554  1.00  0.00     0.046 A 
ATOM      4  C   UNL     1      -7.602 -27.456  -2.607  1.00  0.00     0.003 A 
ATOM      5  C   UNL     1      -8.623 -26.766  -1.993  1.00  0.00     0.028 A 
ATOM      6  C   UNL     1      -8.054 -25.563  -1.587  1.00  0.00     0.083 A 
ATOM      7  N   UNL     1      -6.747 -25.508  -1.932  1.00  0.00    -0.361 N 
ATOM      8  C   UNL     1      -7.587 -28.715  -3.206  1.00  0.00     0.056 A 
ATOM      9  C   UNL     1      -6.372 -29.166  -3.763  1.00  0.00     0.116 A 
ATOM     10  H   UNL     1      -6.083 -24.722  -1.750  1.00  0.00     0.166 HD
ENDROOT
BRANCH   9  11
ATOM     11  O   UNL     1      -6.298 -30.416  -4.373  1.00  0.00    -0.508 OA
ATOM     12  H   UNL     1      -6.225 -31.268  -3.829  1.00  0.00     0.293 HD
ENDBRANCH   9  11
TORSDOF 1
ENDMDL
MODEL 3
REMARK VINA RESULT:    -4.990      2.167      3.443
REMARK INTER + INTRA:          -5.136
REMARK INTER:                  -5.136
REMARK INTRA:                   0.000
REMARK UNBOUND:                 0.000
REMARK SMILES Oc1ccc2[nH]ccc2c1
REMARK SMILES IDX 3 1 4 2 5 3 9 4 8 5 7 6 6 7 10 8 2 9 1 11
REMARK H PARENT 6 10 1 12
REMARK Flexibility Score: inf
ROOT
ATOM      1  C   UNL     1       1.263 -19.213  -4.395  1.00  0.00     0.048 A 
ATOM      2  C   UNL     1       1.712 -19.031  -5.716  1.00  0.00     0.030 A 
ATOM      3  C   UNL     1       1.502 -20.066  -6.624  1.00  0.00     0.046 A 
ATOM      4  C   UNL     1       0.878 -21.229  -6.259  1.00  0.00     0.003 A 
ATOM      5  C   UNL     1       0.826 -22.037  -7.373  1.00  0.00     0.028 A 
ATOM      6  C   UNL     1       1.437 -21.302  -8.384  1.00  0.00     0.083 A 
ATOM      7  N   UNL     1       1.848 -20.098  -7.921  1.00  0.00    -0.361 N 
ATOM      8  C   UNL     1       0.421 -21.442  -4.960  1.00  0.00     0.056 A 
ATOM      9  C   UNL     1       0.620 -20.413  -4.015  1.00  0.00     0.116 A 
ATOM     10  H   UNL     1       2.335 -19.351  -8.465  1.00  0.00     0.166 HD
ENDROOT
BRANCH   9  11
ATOM     11  O   UNL     1       0.184 -20.570  -2.701  1.00  0.00    -0.508 OA
ATOM     12  H   UNL     1       0.652 -21.197  -2.058  1.00  0.00     0.293 HD
ENDBRANCH   9  11
TORSDOF 1
ENDMDL
MODEL 4
REMARK VINA RESULT:    -4.939      0.824      2.139
REMARK INTER + INTRA:          -5.083
REMARK INTER:                  -5.083
REMARK INTRA:                   0.000
REMARK UNBOUND:                 0.000
REMARK SMILES Oc1ccc2[nH]ccc2c1
REMARK SMILES IDX 3 1 4 2 5 3 9 4 8 5 7 6 6 7 10 8 2 9 1 11
REMARK H PARENT 6 10 1 12
REMARK Flexibility Score: inf
ROOT
ATOM      1  C   UNL     1       0.153 -22.228  -5.869  1.00  0.00     0.048 A 
ATOM      2  C   UNL     1       0.412 -21.052  -5.141  1.00  0.00     0.030 A 
ATOM      3  C   UNL     1       1.385 -20.183  -5.631  1.00  0.00     0.046 A 
ATOM      4  C   UNL     1       2.075 -20.452  -6.783  1.00  0.00     0.003 A 
ATOM      5  C   UNL     1       2.952 -19.411  -6.991  1.00  0.00     0.028 A 
ATOM      6  C   UNL     1       2.743 -18.541  -5.925  1.00  0.00     0.083 A 
ATOM      7  N   UNL     1       1.784 -19.018  -5.098  1.00  0.00    -0.361 N 
ATOM      8  C   UNL     1       1.843 -21.607  -7.527  1.00  0.00     0.056 A 
ATOM      9  C   UNL     1       0.864 -22.508  -7.058  1.00  0.00     0.116 A 
ATOM     10  H   UNL     1       1.431 -18.568  -4.223  1.00  0.00     0.166 HD
ENDROOT
BRANCH   9  11
ATOM     11  O   UNL     1       0.590 -23.679  -7.761  1.00  0.00    -0.508 OA
ATOM     12  H   UNL     1      -0.352 -24.045  -7.832  1.00  0.00     0.293 HD
ENDBRANCH   9  11
TORSDOF 1
ENDMDL
MODEL 5
REMARK VINA RESULT:    -4.917     10.341     11.569
REMARK INTER + INTRA:          -5.061
REMARK INTER:                  -5.061
REMARK INTRA:                   0.000
REMARK UNBOUND:                 0.000
REMARK SMILES Oc1ccc2[nH]ccc2c1
REMARK SMILES IDX 3 1 4 2 5 3 9 4 8 5 7 6 6 7 10 8 2 9 1 11
REMARK H PARENT 6 10 1 12
REMARK Flexibility Score: inf
ROOT
ATOM      1  C   UNL     1      -5.397 -26.670  -2.968  1.00  0.00     0.048 A 
ATOM      2  C   UNL     1      -5.168 -27.890  -3.630  1.00  0.00     0.030 A 
ATOM      3  C   UNL     1      -6.213 -28.810  -3.679  1.00  0.00     0.046 A 
ATOM      4  C   UNL     1      -7.430 -28.549  -3.108  1.00  0.00     0.003 A 
ATOM      5  C   UNL     1      -8.234 -29.645  -3.330  1.00  0.00     0.028 A 
ATOM      6  C   UNL     1      -7.441 -30.538  -4.044  1.00  0.00     0.083 A 
ATOM      7  N   UNL     1      -6.207 -30.023  -4.255  1.00  0.00    -0.361 N 
ATOM      8  C   UNL     1      -7.689 -27.351  -2.445  1.00  0.00     0.056 A 
ATOM      9  C   UNL     1      -6.652 -26.398  -2.377  1.00  0.00     0.116 A 
ATOM     10  H   UNL     1      -5.416 -30.480  -4.762  1.00  0.00     0.166 HD
ENDROOT
BRANCH   9  11
ATOM     11  O   UNL     1      -6.854 -25.182  -1.728  1.00  0.00    -0.508 OA
ATOM     12  H   UNL     1      -6.144 -24.459  -1.724  1.00  0.00     0.293 HD
ENDBRANCH   9  11
TORSDOF 1
ENDMDL
MODEL 6
REMARK VINA RESULT:    -4.893      2.630      4.076
REMARK INTER + INTRA:          -5.036
REMARK INTER:                  -5.036
REMARK INTRA:                   0.000
REMARK UNBOUND:                 0.000
REMARK SMILES Oc1ccc2[nH]ccc2c1
REMARK SMILES IDX 3 1 4 2 5 3 9 4 8 5 7 6 6 7 10 8 2 9 1 11
REMARK H PARENT 6 10 1 12
REMARK Flexibility Score: inf
ROOT
ATOM      1  C   UNL     1       0.486 -20.269  -4.147  1.00  0.00     0.048 A 
ATOM      2  C   UNL     1       0.352 -21.451  -4.897  1.00  0.00     0.030 A 
ATOM      3  C   UNL     1       0.875 -21.466  -6.189  1.00  0.00     0.046 A 
ATOM      4  C   UNL     1       1.503 -20.374  -6.724  1.00  0.00     0.003 A 
ATOM      5  C   UNL     1       1.900 -20.709  -7.999  1.00  0.00     0.028 A 
ATOM      6  C   UNL     1       1.480 -22.024  -8.176  1.00  0.00     0.083 A 
ATOM      7  N   UNL     1       0.855 -22.482  -7.067  1.00  0.00    -0.361 N 
ATOM      8  C   UNL     1       1.653 -19.187  -6.008  1.00  0.00     0.056 A 
ATOM      9  C   UNL     1       1.134 -19.139  -4.697  1.00  0.00     0.116 A 
ATOM     10  H   UNL     1       0.442 -23.431  -6.927  1.00  0.00     0.166 HD
ENDROOT
BRANCH   9  11
ATOM     11  O   UNL     1       1.255 -17.980  -3.934  1.00  0.00    -0.508 OA
ATOM     12  H   UNL     1       0.683 -17.163  -4.116  1.00  0.00     0.293 HD
ENDBRANCH   9  11
TORSDOF 1
ENDMDL
MODEL 7
REMARK VINA RESULT:    -4.884     13.920     15.074
REMARK INTER + INTRA:          -5.026
REMARK INTER:                  -5.026
REMARK INTRA:                   0.000
REMARK UNBOUND:                 0.000
REMARK SMILES Oc1ccc2[nH]ccc2c1
REMARK SMILES IDX 3 1 4 2 5 3 9 4 8 5 7 6 6 7 10 8 2 9 1 11
REMARK H PARENT 6 10 1 12
REMARK Flexibility Score: inf
ROOT
ATOM      1  C   UNL     1       5.184 -24.340   9.342  1.00  0.00     0.048 A 
ATOM      2  C   UNL     1       5.381 -23.134   8.646  1.00  0.00     0.030 A 
ATOM      3  C   UNL     1       5.891 -23.205   7.351  1.00  0.00     0.046 A 
ATOM      4  C   UNL     1       6.195 -24.403   6.762  1.00  0.00     0.003 A 
ATOM      5  C   UNL     1       6.672 -24.133   5.498  1.00  0.00     0.028 A 
ATOM      6  C   UNL     1       6.630 -22.746   5.384  1.00  0.00     0.083 A 
ATOM      7  N   UNL     1       6.153 -22.184   6.518  1.00  0.00    -0.361 N 
ATOM      8  C   UNL     1       6.013 -25.616   7.423  1.00  0.00     0.056 A 
ATOM      9  C   UNL     1       5.498 -25.579   8.736  1.00  0.00     0.116 A 
ATOM     10  H   UNL     1       6.018 -21.165   6.704  1.00  0.00     0.166 HD
ENDROOT
BRANCH   9  11
ATOM     11  O   UNL     1       5.294 -26.759   9.447  1.00  0.00    -0.508 OA
ATOM     12  H   UNL     1       6.000 -27.132  10.070  1.00  0.00     0.293 HD
ENDBRANCH   9  11
TORSDOF 1
ENDMDL
MODEL 8
REMARK VINA RESULT:    -4.792      1.420      2.143
REMARK INTER + INTRA:          -4.932
REMARK INTER:                  -4.932
REMARK INTRA:                   0.000
REMARK UNBOUND:                 0.000
REMARK SMILES Oc1ccc2[nH]ccc2c1
REMARK SMILES IDX 3 1 4 2 5 3 9 4 8 5 7 6 6 7 10 8 2 9 1 11
REMARK H PARENT 6 10 1 12
REMARK Flexibility Score: inf
ROOT
ATOM      1  C   UNL     1       0.536 -22.102  -7.134  1.00  0.00     0.048 A 
ATOM      2  C   UNL     1       0.173 -22.045  -5.776  1.00  0.00     0.030 A 
ATOM      3  C   UNL     1       0.582 -20.935  -5.039  1.00  0.00     0.046 A 
ATOM      4  C   UNL     1       1.313 -19.925  -5.604  1.00  0.00     0.003 A 
ATOM      5  C   UNL     1       1.553 -18.990  -4.622  1.00  0.00     0.028 A 
ATOM      6  C   UNL     1       0.937 -19.495  -3.481  1.00  0.00     0.083 A 
ATOM      7  N   UNL     1       0.345 -20.683  -3.741  1.00  0.00    -0.361 N 
ATOM      8  C   UNL     1       1.691 -19.951  -6.945  1.00  0.00     0.056 A 
ATOM      9  C   UNL     1       1.293 -21.061  -7.720  1.00  0.00     0.116 A 
ATOM     10  H   UNL     1      -0.186 -21.280  -3.068  1.00  0.00     0.166 HD
ENDROOT
BRANCH   9  11
ATOM     11  O   UNL     1       1.640 -21.141  -9.066  1.00  0.00    -0.508 OA
ATOM     12  H   UNL     1       1.187 -21.797  -9.693  1.00  0.00     0.293 HD
ENDBRANCH   9  11
TORSDOF 1
ENDMDL
MODEL 9
REMARK VINA RESULT:    -4.629     12.872     14.022
REMARK INTER + INTRA:          -4.764
REMARK INTER:                  -4.764
REMARK INTRA:                   0.000
REMARK UNBOUND:                 0.000
REMARK SMILES Oc1ccc2[nH]ccc2c1
REMARK SMILES IDX 3 1 4 2 5 3 9 4 8 5 7 6 6 7 10 8 2 9 1 11
REMARK H PARENT 6 10 1 12
REMARK Flexibility Score: inf
ROOT
ATOM      1  C   UNL     1       4.542 -22.983   4.949  1.00  0.00     0.048 A 
ATOM      2  C   UNL     1       4.058 -24.232   5.377  1.00  0.00     0.030 A 
ATOM      3  C   UNL     1       4.429 -24.675   6.646  1.00  0.00     0.046 A 
ATOM      4  C   UNL     1       5.237 -23.929   7.461  1.00  0.00     0.003 A 
ATOM      5  C   UNL     1       5.413 -24.637   8.629  1.00  0.00     0.028 A 
ATOM      6  C   UNL     1       4.680 -25.808   8.457  1.00  0.00     0.083 A 
ATOM      7  N   UNL     1       4.081 -25.826   7.244  1.00  0.00    -0.361 N 
ATOM      8  C   UNL     1       5.735 -22.688   7.067  1.00  0.00     0.056 A 
ATOM      9  C   UNL     1       5.378 -22.211   5.788  1.00  0.00     0.116 A 
ATOM     10  H   UNL     1       3.474 -26.583   6.856  1.00  0.00     0.166 HD
ENDROOT
BRANCH   9  11
ATOM     11  O   UNL     1       5.845 -20.977   5.342  1.00  0.00    -0.508 OA
ATOM     12  H   UNL     1       5.224 -20.297   4.919  1.00  0.00     0.293 HD
ENDBRANCH   9  11
TORSDOF 1
ENDMDL
