MODEL 1
REMARK VINA RESULT:    -4.483      0.000      0.000
REMARK INTER + INTRA:         -15.425
REMARK INTER:                 -11.821
REMARK INTRA:                  -3.603
REMARK UNBOUND:                -3.603
REMARK SMILES CCCCCCCCCCCCCCCCCCCCCCCCCCCCCC(=O)[O-]
REMARK SMILES IDX 16 1 17 2 18 3 19 4 20 5 21 6 22 7 23 8 24 9 25 10 26 11
REMARK SMILES IDX 27 12 28 13 29 14 30 15 31 16 32 17 15 18 14 19 13 20 12 21
REMARK SMILES IDX 11 22 10 23 9 24 8 25 7 26 6 27 5 28 4 29 3 30 2 31 1 32
REMARK H PARENT
REMARK Flexibility Score: inf
ROOT
ATOM      1  C   UNL     1       6.186  18.833  72.276  1.00  0.00     0.000 C 
ENDROOT
BRANCH   1   2
ATOM      2  C   UNL     1       7.458  18.104  71.806  1.00  0.00     0.000 C 
BRANCH   2   3
ATOM      3  C   UNL     1       8.646  19.022  71.453  1.00  0.00     0.000 C 
BRANCH   3   4
ATOM      4  C   UNL     1       9.741  18.367  70.595  1.00  0.00     0.000 C 
BRANCH   4   5
ATOM      5  C   UNL     1       9.339  16.978  70.072  1.00  0.00     0.000 C 
BRANCH   5   6
ATOM      6  C   UNL     1       9.779  16.738  68.618  1.00  0.00     0.000 C 
BRANCH   6   7
ATOM      7  C   UNL     1      10.993  17.569  68.163  1.00  0.00     0.000 C 
BRANCH   7   8
ATOM      8  C   UNL     1      11.562  17.106  66.813  1.00  0.00     0.000 C 
BRANCH   8   9
ATOM      9  C   UNL     1      12.663  16.052  67.013  1.00  0.00     0.000 C 
BRANCH   9  10
ATOM     10  C   UNL     1      12.980  15.793  68.499  1.00  0.00     0.000 C 
BRANCH  10  11
ATOM     11  C   UNL     1      14.133  14.804  68.754  1.00  0.00     0.000 C 
BRANCH  11  12
ATOM     12  C   UNL     1      14.412  14.579  70.251  1.00  0.00     0.000 C 
BRANCH  12  13
ATOM     13  C   UNL     1      15.890  14.271  70.541  1.00  0.00     0.006 C 
BRANCH  13  14
ATOM     14  C   UNL     1      16.839  14.897  69.513  1.00  0.00     0.053 C 
BRANCH  14  15
ATOM     15  C   UNL     1      18.210  14.312  69.646  1.00  0.00     0.041 C 
ATOM     16  O   UNL     1      18.366  13.063  69.703  1.00  0.00    -0.550 OA
ATOM     17  O   UNL     1      19.321  15.146  69.665  1.00  0.00    -0.550 OA
ENDBRANCH  14  15
ENDBRANCH  13  14
ENDBRANCH  12  13
ENDBRANCH  11  12
ENDBRANCH  10  11
ENDBRANCH   9  10
ENDBRANCH   8   9
ENDBRANCH   7   8
ENDBRANCH   6   7
ENDBRANCH   5   6
ENDBRANCH   4   5
ENDBRANCH   3   4
ENDBRANCH   2   3
ENDBRANCH   1   2
BRANCH   1  18
ATOM     18  C   UNL     1       5.473  18.178  73.476  1.00  0.00     0.000 C 
BRANCH  18  19
ATOM     19  C   UNL     1       6.389  17.981  74.704  1.00  0.00     0.000 C 
BRANCH  19  20
ATOM     20  C   UNL     1       6.383  16.529  75.210  1.00  0.00     0.000 C 
BRANCH  20  21
ATOM     21  C   UNL     1       7.789  15.908  75.248  1.00  0.00     0.000 C 
BRANCH  21  22
ATOM     22  C   UNL     1       8.761  16.564  74.251  1.00  0.00     0.000 C 
BRANCH  22  23
ATOM     23  C   UNL     1       9.828  15.567  73.750  1.00  0.00     0.000 C 
BRANCH  23  24
ATOM     24  C   UNL     1      11.052  16.243  73.111  1.00  0.00    -0.000 C 
BRANCH  24  25
ATOM     25  C   UNL     1      11.746  15.355  72.067  1.00  0.00    -0.000 C 
BRANCH  25  26
ATOM     26  C   UNL     1      11.138  13.944  72.004  1.00  0.00    -0.000 C 
BRANCH  26  27
ATOM     27  C   UNL     1      11.488  13.211  70.696  1.00  0.00    -0.000 C 
BRANCH  27  28
ATOM     28  C   UNL     1      10.341  13.262  69.671  1.00  0.00    -0.000 C 
BRANCH  28  29
ATOM     29  C   UNL     1      10.812  12.952  68.241  1.00  0.00    -0.000 C 
BRANCH  29  30
ATOM     30  C   UNL     1       9.990  11.811  67.630  1.00  0.00    -0.000 C 
BRANCH  30  31
ATOM     31  C   UNL     1       9.851  10.639  68.610  1.00  0.00    -0.003 C 
ATOM     32  C   UNL     1       8.582   9.841  68.330  1.00  0.00     0.004 C 
ENDBRANCH  30  31
ENDBRANCH  29  30
ENDBRANCH  28  29
ENDBRANCH  27  28
ENDBRANCH  26  27
ENDBRANCH  25  26
ENDBRANCH  24  25
ENDBRANCH  23  24
ENDBRANCH  22  23
ENDBRANCH  21  22
ENDBRANCH  20  21
ENDBRANCH  19  20
ENDBRANCH  18  19
ENDBRANCH   1  18
TORSDOF 28
ENDMDL
MODEL 2
REMARK VINA RESULT:    -4.288      2.764      6.539
REMARK INTER + INTRA:         -14.911
REMARK INTER:                  -9.973
REMARK INTRA:                  -4.938
REMARK UNBOUND:                -3.603
REMARK SMILES CCCCCCCCCCCCCCCCCCCCCCCCCCCCCC(=O)[O-]
REMARK SMILES IDX 16 1 17 2 18 3 19 4 20 5 21 6 22 7 23 8 24 9 25 10 26 11
REMARK SMILES IDX 27 12 28 13 29 14 30 15 31 16 32 17 15 18 14 19 13 20 12 21
REMARK SMILES IDX 11 22 10 23 9 24 8 25 7 26 6 27 5 28 4 29 3 30 2 31 1 32
REMARK H PARENT
REMARK Flexibility Score: inf
ROOT
ATOM      1  C   UNL     1      10.471  15.036  72.916  1.00  0.00     0.000 C 
ENDROOT
BRANCH   1   2
ATOM      2  C   UNL     1       9.977  16.294  73.652  1.00  0.00     0.000 C 
BRANCH   2   3
ATOM      3  C   UNL     1       8.612  16.150  74.354  1.00  0.00     0.000 C 
BRANCH   3   4
ATOM      4  C   UNL     1       7.850  17.468  74.574  1.00  0.00     0.000 C 
BRANCH   4   5
ATOM      5  C   UNL     1       6.483  17.491  73.873  1.00  0.00     0.000 C 
BRANCH   5   6
ATOM      6  C   UNL     1       6.551  18.077  72.452  1.00  0.00     0.000 C 
BRANCH   6   7
ATOM      7  C   UNL     1       7.836  18.864  72.137  1.00  0.00     0.000 C 
BRANCH   7   8
ATOM      8  C   UNL     1       8.699  18.192  71.058  1.00  0.00     0.000 C 
BRANCH   8   9
ATOM      9  C   UNL     1       8.125  16.820  70.670  1.00  0.00     0.000 C 
BRANCH   9  10
ATOM     10  C   UNL     1       8.536  16.380  69.251  1.00  0.00     0.000 C 
BRANCH  10  11
ATOM     11  C   UNL     1       8.570  14.856  69.027  1.00  0.00     0.000 C 
BRANCH  11  12
ATOM     12  C   UNL     1       9.967  14.335  68.646  1.00  0.00     0.000 C 
BRANCH  12  13
ATOM     13  C   UNL     1      10.299  12.986  69.303  1.00  0.00     0.006 C 
BRANCH  13  14
ATOM     14  C   UNL     1      10.551  11.874  68.279  1.00  0.00     0.053 C 
BRANCH  14  15
ATOM     15  C   UNL     1       9.540  10.782  68.435  1.00  0.00     0.041 C 
ATOM     16  O   UNL     1       8.390  11.039  68.881  1.00  0.00    -0.550 OA
ATOM     17  O   UNL     1       9.854   9.485  68.048  1.00  0.00    -0.550 OA
ENDBRANCH  14  15
ENDBRANCH  13  14
ENDBRANCH  12  13
ENDBRANCH  11  12
ENDBRANCH  10  11
ENDBRANCH   9  10
ENDBRANCH   8   9
ENDBRANCH   7   8
ENDBRANCH   6   7
ENDBRANCH   5   6
ENDBRANCH   4   5
ENDBRANCH   3   4
ENDBRANCH   2   3
ENDBRANCH   1   2
BRANCH   1  18
ATOM     18  C   UNL     1      11.609  15.283  71.907  1.00  0.00     0.000 C 
BRANCH  18  19
ATOM     19  C   UNL     1      12.447  16.543  72.221  1.00  0.00     0.000 C 
BRANCH  19  20
ATOM     20  C   UNL     1      12.891  17.280  70.947  1.00  0.00     0.000 C 
BRANCH  20  21
ATOM     21  C   UNL     1      11.787  17.340  69.880  1.00  0.00     0.000 C 
BRANCH  21  22
ATOM     22  C   UNL     1      11.636  18.736  69.251  1.00  0.00     0.000 C 
BRANCH  22  23
ATOM     23  C   UNL     1      11.260  18.654  67.755  1.00  0.00     0.000 C 
BRANCH  23  24
ATOM     24  C   UNL     1      11.138  17.215  67.229  1.00  0.00    -0.000 C 
BRANCH  24  25
ATOM     25  C   UNL     1      12.445  16.694  66.612  1.00  0.00    -0.000 C 
BRANCH  25  26
ATOM     26  C   UNL     1      12.776  15.264  67.068  1.00  0.00    -0.000 C 
BRANCH  26  27
ATOM     27  C   UNL     1      13.881  15.230  68.139  1.00  0.00    -0.000 C 
BRANCH  27  28
ATOM     28  C   UNL     1      13.708  14.058  69.123  1.00  0.00    -0.000 C 
BRANCH  28  29
ATOM     29  C   UNL     1      14.658  14.153  70.328  1.00  0.00    -0.000 C 
BRANCH  29  30
ATOM     30  C   UNL     1      15.958  14.870  69.944  1.00  0.00    -0.000 C 
BRANCH  30  31
ATOM     31  C   UNL     1      17.143  13.898  69.921  1.00  0.00    -0.003 C 
ATOM     32  C   UNL     1      18.436  14.621  69.558  1.00  0.00     0.004 C 
ENDBRANCH  30  31
ENDBRANCH  29  30
ENDBRANCH  28  29
ENDBRANCH  27  28
ENDBRANCH  26  27
ENDBRANCH  25  26
ENDBRANCH  24  25
ENDBRANCH  23  24
ENDBRANCH  22  23
ENDBRANCH  21  22
ENDBRANCH  20  21
ENDBRANCH  19  20
ENDBRANCH  18  19
ENDBRANCH   1  18
TORSDOF 28
ENDMDL
MODEL 3
REMARK VINA RESULT:    -4.262      3.266      8.051
REMARK INTER + INTRA:         -14.841
REMARK INTER:                 -11.638
REMARK INTRA:                  -3.203
REMARK UNBOUND:                -3.603
REMARK SMILES CCCCCCCCCCCCCCCCCCCCCCCCCCCCCC(=O)[O-]
REMARK SMILES IDX 16 1 17 2 18 3 19 4 20 5 21 6 22 7 23 8 24 9 25 10 26 11
REMARK SMILES IDX 27 12 28 13 29 14 30 15 31 16 32 17 15 18 14 19 13 20 12 21
REMARK SMILES IDX 11 22 10 23 9 24 8 25 7 26 6 27 5 28 4 29 3 30 2 31 1 32
REMARK H PARENT
REMARK Flexibility Score: inf
ROOT
ATOM      1  C   UNL     1      11.376  12.520  68.756  1.00  0.00     0.000 C 
ENDROOT
BRANCH   1   2
ATOM      2  C   UNL     1      11.882  13.160  70.061  1.00  0.00     0.000 C 
BRANCH   2   3
ATOM      3  C   UNL     1      10.925  13.040  71.264  1.00  0.00     0.000 C 
BRANCH   3   4
ATOM      4  C   UNL     1      11.298  13.904  72.481  1.00  0.00     0.000 C 
BRANCH   4   5
ATOM      5  C   UNL     1      10.655  15.299  72.441  1.00  0.00     0.000 C 
BRANCH   5   6
ATOM      6  C   UNL     1      11.608  16.380  71.902  1.00  0.00     0.000 C 
BRANCH   6   7
ATOM      7  C   UNL     1      10.913  17.611  71.293  1.00  0.00     0.000 C 
BRANCH   7   8
ATOM      8  C   UNL     1       9.387  17.586  71.471  1.00  0.00     0.000 C 
BRANCH   8   9
ATOM      9  C   UNL     1       8.834  19.003  71.685  1.00  0.00     0.000 C 
BRANCH   9  10
ATOM     10  C   UNL     1       7.349  19.010  72.098  1.00  0.00     0.000 C 
BRANCH  10  11
ATOM     11  C   UNL     1       6.590  17.700  71.815  1.00  0.00     0.000 C 
BRANCH  11  12
ATOM     12  C   UNL     1       5.284  17.576  72.620  1.00  0.00     0.000 C 
BRANCH  12  13
ATOM     13  C   UNL     1       5.331  16.445  73.660  1.00  0.00     0.006 C 
BRANCH  13  14
ATOM     14  C   UNL     1       5.882  16.907  75.014  1.00  0.00     0.053 C 
BRANCH  14  15
ATOM     15  C   UNL     1       7.267  16.381  75.220  1.00  0.00     0.041 C 
ATOM     16  O   UNL     1       8.230  16.846  74.554  1.00  0.00    -0.550 OA
ATOM     17  O   UNL     1       7.501  15.402  76.178  1.00  0.00    -0.550 OA
ENDBRANCH  14  15
ENDBRANCH  13  14
ENDBRANCH  12  13
ENDBRANCH  11  12
ENDBRANCH  10  11
ENDBRANCH   9  10
ENDBRANCH   8   9
ENDBRANCH   7   8
ENDBRANCH   6   7
ENDBRANCH   5   6
ENDBRANCH   4   5
ENDBRANCH   3   4
ENDBRANCH   2   3
ENDBRANCH   1   2
BRANCH   1  18
ATOM     18  C   UNL     1      10.406  13.396  67.940  1.00  0.00     0.000 C 
BRANCH  18  19
ATOM     19  C   UNL     1       9.231  13.954  68.774  1.00  0.00     0.000 C 
BRANCH  19  20
ATOM     20  C   UNL     1       9.221  15.491  68.814  1.00  0.00     0.000 C 
BRANCH  20  21
ATOM     21  C   UNL     1       9.804  16.121  67.538  1.00  0.00     0.000 C 
BRANCH  21  22
ATOM     22  C   UNL     1      10.676  17.357  67.825  1.00  0.00     0.000 C 
BRANCH  22  23
ATOM     23  C   UNL     1      11.944  17.380  66.944  1.00  0.00     0.000 C 
BRANCH  23  24
ATOM     24  C   UNL     1      12.442  15.982  66.544  1.00  0.00    -0.000 C 
BRANCH  24  25
ATOM     25  C   UNL     1      13.432  15.389  67.559  1.00  0.00    -0.000 C 
BRANCH  25  26
ATOM     26  C   UNL     1      13.101  15.799  69.004  1.00  0.00    -0.000 C 
BRANCH  26  27
ATOM     27  C   UNL     1      14.361  15.937  69.878  1.00  0.00    -0.000 C 
BRANCH  27  28
ATOM     28  C   UNL     1      14.565  14.728  70.807  1.00  0.00    -0.000 C 
BRANCH  28  29
ATOM     29  C   UNL     1      15.805  13.899  70.434  1.00  0.00    -0.000 C 
BRANCH  29  30
ATOM     30  C   UNL     1      16.814  14.747  69.651  1.00  0.00    -0.000 C 
BRANCH  30  31
ATOM     31  C   UNL     1      18.185  14.064  69.589  1.00  0.00    -0.003 C 
ATOM     32  C   UNL     1      19.311  15.088  69.678  1.00  0.00     0.004 C 
ENDBRANCH  30  31
ENDBRANCH  29  30
ENDBRANCH  28  29
ENDBRANCH  27  28
ENDBRANCH  26  27
ENDBRANCH  25  26
ENDBRANCH  24  25
ENDBRANCH  23  24
ENDBRANCH  22  23
ENDBRANCH  21  22
ENDBRANCH  20  21
ENDBRANCH  19  20
ENDBRANCH  18  19
ENDBRANCH   1  18
TORSDOF 28
ENDMDL
MODEL 4
REMARK VINA RESULT:    -4.226      2.365      6.570
REMARK INTER + INTRA:         -14.748
REMARK INTER:                  -9.981
REMARK INTRA:                  -4.767
REMARK UNBOUND:                -3.603
REMARK SMILES CCCCCCCCCCCCCCCCCCCCCCCCCCCCCC(=O)[O-]
REMARK SMILES IDX 16 1 17 2 18 3 19 4 20 5 21 6 22 7 23 8 24 9 25 10 26 11
REMARK SMILES IDX 27 12 28 13 29 14 30 15 31 16 32 17 15 18 14 19 13 20 12 21
REMARK SMILES IDX 11 22 10 23 9 24 8 25 7 26 6 27 5 28 4 29 3 30 2 31 1 32
REMARK H PARENT
REMARK Flexibility Score: inf
ROOT
ATOM      1  C   UNL     1      10.561  14.838  72.962  1.00  0.00     0.000 C 
ENDROOT
BRANCH   1   2
ATOM      2  C   UNL     1       9.934  16.071  73.637  1.00  0.00     0.000 C 
BRANCH   2   3
ATOM      3  C   UNL     1       8.905  15.760  74.742  1.00  0.00     0.000 C 
BRANCH   3   4
ATOM      4  C   UNL     1       7.465  16.203  74.433  1.00  0.00     0.000 C 
BRANCH   4   5
ATOM      5  C   UNL     1       7.092  17.534  75.106  1.00  0.00     0.000 C 
BRANCH   5   6
ATOM      6  C   UNL     1       6.339  18.489  74.164  1.00  0.00     0.000 C 
BRANCH   6   7
ATOM      7  C   UNL     1       6.840  18.492  72.709  1.00  0.00     0.000 C 
BRANCH   7   8
ATOM      8  C   UNL     1       8.232  19.122  72.556  1.00  0.00     0.000 C 
BRANCH   8   9
ATOM      9  C   UNL     1       9.057  18.384  71.492  1.00  0.00     0.000 C 
BRANCH   9  10
ATOM     10  C   UNL     1       8.201  17.451  70.612  1.00  0.00     0.000 C 
BRANCH  10  11
ATOM     11  C   UNL     1       8.893  16.141  70.189  1.00  0.00     0.000 C 
BRANCH  11  12
ATOM     12  C   UNL     1       8.672  15.797  68.705  1.00  0.00     0.000 C 
BRANCH  12  13
ATOM     13  C   UNL     1       9.580  14.656  68.218  1.00  0.00     0.006 C 
BRANCH  13  14
ATOM     14  C   UNL     1       9.636  13.481  69.201  1.00  0.00     0.053 C 
BRANCH  14  15
ATOM     15  C   UNL     1      10.207  12.270  68.533  1.00  0.00     0.041 C 
ATOM     16  O   UNL     1      11.387  12.284  68.092  1.00  0.00    -0.550 OA
ATOM     17  O   UNL     1       9.448  11.110  68.435  1.00  0.00    -0.550 OA
ENDBRANCH  14  15
ENDBRANCH  13  14
ENDBRANCH  12  13
ENDBRANCH  11  12
ENDBRANCH  10  11
ENDBRANCH   9  10
ENDBRANCH   8   9
ENDBRANCH   7   8
ENDBRANCH   6   7
ENDBRANCH   5   6
ENDBRANCH   4   5
ENDBRANCH   3   4
ENDBRANCH   2   3
ENDBRANCH   1   2
BRANCH   1  18
ATOM     18  C   UNL     1      11.764  15.144  72.048  1.00  0.00     0.000 C 
BRANCH  18  19
ATOM     19  C   UNL     1      12.415  16.516  72.328  1.00  0.00     0.000 C 
BRANCH  19  20
ATOM     20  C   UNL     1      12.998  17.156  71.057  1.00  0.00     0.000 C 
BRANCH  20  21
ATOM     21  C   UNL     1      11.956  17.306  69.936  1.00  0.00     0.000 C 
BRANCH  21  22
ATOM     22  C   UNL     1      11.846  18.747  69.410  1.00  0.00     0.000 C 
BRANCH  22  23
ATOM     23  C   UNL     1      11.107  18.807  68.054  1.00  0.00     0.000 C 
BRANCH  23  24
ATOM     24  C   UNL     1      11.131  17.480  67.281  1.00  0.00    -0.000 C 
BRANCH  24  25
ATOM     25  C   UNL     1      12.171  17.468  66.149  1.00  0.00    -0.000 C 
BRANCH  25  26
ATOM     26  C   UNL     1      13.062  16.216  66.188  1.00  0.00    -0.000 C 
BRANCH  26  27
ATOM     27  C   UNL     1      12.792  15.342  67.427  1.00  0.00    -0.000 C 
BRANCH  27  28
ATOM     28  C   UNL     1      14.075  15.036  68.219  1.00  0.00    -0.000 C 
BRANCH  28  29
ATOM     29  C   UNL     1      13.829  14.078  69.396  1.00  0.00    -0.000 C 
BRANCH  29  30
ATOM     30  C   UNL     1      15.018  14.085  70.364  1.00  0.00    -0.000 C 
BRANCH  30  31
ATOM     31  C   UNL     1      16.155  14.971  69.843  1.00  0.00    -0.003 C 
ATOM     32  C   UNL     1      17.469  14.198  69.789  1.00  0.00     0.004 C 
ENDBRANCH  30  31
ENDBRANCH  29  30
ENDBRANCH  28  29
ENDBRANCH  27  28
ENDBRANCH  26  27
ENDBRANCH  25  26
ENDBRANCH  24  25
ENDBRANCH  23  24
ENDBRANCH  22  23
ENDBRANCH  21  22
ENDBRANCH  20  21
ENDBRANCH  19  20
ENDBRANCH  18  19
ENDBRANCH   1  18
TORSDOF 28
ENDMDL
MODEL 5
REMARK VINA RESULT:    -3.985      2.838      6.725
REMARK INTER + INTRA:         -14.113
REMARK INTER:                 -10.229
REMARK INTRA:                  -3.884
REMARK UNBOUND:                -3.603
REMARK SMILES CCCCCCCCCCCCCCCCCCCCCCCCCCCCCC(=O)[O-]
REMARK SMILES IDX 16 1 17 2 18 3 19 4 20 5 21 6 22 7 23 8 24 9 25 10 26 11
REMARK SMILES IDX 27 12 28 13 29 14 30 15 31 16 32 17 15 18 14 19 13 20 12 21
REMARK SMILES IDX 11 22 10 23 9 24 8 25 7 26 6 27 5 28 4 29 3 30 2 31 1 32
REMARK H PARENT
REMARK Flexibility Score: inf
ROOT
ATOM      1  C   UNL     1      10.284  18.002  70.544  1.00  0.00     0.000 C 
ENDROOT
BRANCH   1   2
ATOM      2  C   UNL     1       9.374  19.123  71.077  1.00  0.00     0.000 C 
BRANCH   2   3
ATOM      3  C   UNL     1       7.926  18.697  71.393  1.00  0.00     0.000 C 
BRANCH   3   4
ATOM      4  C   UNL     1       7.432  19.065  72.802  1.00  0.00     0.000 C 
BRANCH   4   5
ATOM      5  C   UNL     1       6.053  18.468  73.125  1.00  0.00     0.000 C 
BRANCH   5   6
ATOM      6  C   UNL     1       6.123  16.981  73.513  1.00  0.00     0.000 C 
BRANCH   6   7
ATOM      7  C   UNL     1       6.591  16.709  74.955  1.00  0.00     0.000 C 
BRANCH   7   8
ATOM      8  C   UNL     1       7.920  15.941  75.017  1.00  0.00     0.000 C 
BRANCH   8   9
ATOM      9  C   UNL     1       8.880  16.412  73.914  1.00  0.00     0.000 C 
BRANCH   9  10
ATOM     10  C   UNL     1      10.185  15.592  73.866  1.00  0.00     0.000 C 
BRANCH  10  11
ATOM     11  C   UNL     1      10.642  15.180  72.454  1.00  0.00     0.000 C 
BRANCH  11  12
ATOM     12  C   UNL     1      11.562  13.945  72.456  1.00  0.00     0.000 C 
BRANCH  12  13
ATOM     13  C   UNL     1      10.782  12.622  72.419  1.00  0.00     0.006 C 
BRANCH  13  14
ATOM     14  C   UNL     1      10.722  11.930  73.786  1.00  0.00     0.053 C 
BRANCH  14  15
ATOM     15  C   UNL     1      10.036  10.605  73.670  1.00  0.00     0.041 C 
ATOM     16  O   UNL     1      10.104   9.946  72.599  1.00  0.00    -0.550 OA
ATOM     17  O   UNL     1       9.356  10.079  74.761  1.00  0.00    -0.550 OA
ENDBRANCH  14  15
ENDBRANCH  13  14
ENDBRANCH  12  13
ENDBRANCH  11  12
ENDBRANCH  10  11
ENDBRANCH   9  10
ENDBRANCH   8   9
ENDBRANCH   7   8
ENDBRANCH   6   7
ENDBRANCH   5   6
ENDBRANCH   4   5
ENDBRANCH   3   4
ENDBRANCH   2   3
ENDBRANCH   1   2
BRANCH   1  18
ATOM     18  C   UNL     1      11.390  18.472  69.580  1.00  0.00     0.000 C 
BRANCH  18  19
ATOM     19  C   UNL     1      10.851  18.966  68.218  1.00  0.00     0.000 C 
BRANCH  19  20
ATOM     20  C   UNL     1      11.348  18.104  67.046  1.00  0.00     0.000 C 
BRANCH  20  21
ATOM     21  C   UNL     1      11.172  16.598  67.300  1.00  0.00     0.000 C 
BRANCH  21  22
ATOM     22  C   UNL     1       9.723  16.122  67.098  1.00  0.00     0.000 C 
BRANCH  22  23
ATOM     23  C   UNL     1       9.059  15.723  68.435  1.00  0.00     0.000 C 
BRANCH  23  24
ATOM     24  C   UNL     1       9.823  14.630  69.199  1.00  0.00    -0.000 C 
BRANCH  24  25
ATOM     25  C   UNL     1       9.850  13.288  68.451  1.00  0.00    -0.000 C 
BRANCH  25  26
ATOM     26  C   UNL     1      11.283  12.804  68.174  1.00  0.00    -0.000 C 
BRANCH  26  27
ATOM     27  C   UNL     1      12.292  13.333  69.210  1.00  0.00    -0.000 C 
BRANCH  27  28
ATOM     28  C   UNL     1      13.379  14.216  68.571  1.00  0.00    -0.000 C 
BRANCH  28  29
ATOM     29  C   UNL     1      13.625  15.513  69.358  1.00  0.00    -0.000 C 
BRANCH  29  30
ATOM     30  C   UNL     1      14.563  15.263  70.545  1.00  0.00    -0.000 C 
BRANCH  30  31
ATOM     31  C   UNL     1      15.601  14.183  70.216  1.00  0.00    -0.003 C 
ATOM     32  C   UNL     1      16.839  14.793  69.569  1.00  0.00     0.004 C 
ENDBRANCH  30  31
ENDBRANCH  29  30
ENDBRANCH  28  29
ENDBRANCH  27  28
ENDBRANCH  26  27
ENDBRANCH  25  26
ENDBRANCH  24  25
ENDBRANCH  23  24
ENDBRANCH  22  23
ENDBRANCH  21  22
ENDBRANCH  20  21
ENDBRANCH  19  20
ENDBRANCH  18  19
ENDBRANCH   1  18
TORSDOF 28
ENDMDL
MODEL 6
REMARK VINA RESULT:    -3.860      2.738      5.214
REMARK INTER + INTRA:         -13.782
REMARK INTER:                 -10.281
REMARK INTRA:                  -3.502
REMARK UNBOUND:                -3.603
REMARK SMILES CCCCCCCCCCCCCCCCCCCCCCCCCCCCCC(=O)[O-]
REMARK SMILES IDX 16 1 17 2 18 3 19 4 20 5 21 6 22 7 23 8 24 9 25 10 26 11
REMARK SMILES IDX 27 12 28 13 29 14 30 15 31 16 32 17 15 18 14 19 13 20 12 21
REMARK SMILES IDX 11 22 10 23 9 24 8 25 7 26 6 27 5 28 4 29 3 30 2 31 1 32
REMARK H PARENT
REMARK Flexibility Score: inf
ROOT
ATOM      1  C   UNL     1       6.261  17.153  72.593  1.00  0.00     0.000 C 
ENDROOT
BRANCH   1   2
ATOM      2  C   UNL     1       6.888  18.181  71.634  1.00  0.00     0.000 C 
BRANCH   2   3
ATOM      3  C   UNL     1       7.926  19.125  72.273  1.00  0.00     0.000 C 
BRANCH   3   4
ATOM      4  C   UNL     1       9.372  18.925  71.789  1.00  0.00     0.000 C 
BRANCH   4   5
ATOM      5  C   UNL     1       9.453  18.478  70.320  1.00  0.00     0.000 C 
BRANCH   5   6
ATOM      6  C   UNL     1      10.760  18.914  69.636  1.00  0.00     0.000 C 
BRANCH   6   7
ATOM      7  C   UNL     1      10.848  18.581  68.135  1.00  0.00     0.000 C 
BRANCH   7   8
ATOM      8  C   UNL     1      11.388  17.168  67.867  1.00  0.00     0.000 C 
BRANCH   8   9
ATOM      9  C   UNL     1      10.257  16.216  67.448  1.00  0.00     0.000 C 
BRANCH   9  10
ATOM     10  C   UNL     1       9.499  15.622  68.651  1.00  0.00     0.000 C 
BRANCH  10  11
ATOM     11  C   UNL     1       9.495  14.083  68.720  1.00  0.00     0.000 C 
BRANCH  11  12
ATOM     12  C   UNL     1      10.624  13.441  67.894  1.00  0.00     0.000 C 
BRANCH  12  13
ATOM     13  C   UNL     1      10.483  11.915  67.777  1.00  0.00     0.006 C 
BRANCH  13  14
ATOM     14  C   UNL     1       9.353  11.356  68.649  1.00  0.00     0.053 C 
BRANCH  14  15
ATOM     15  C   UNL     1       9.143   9.902  68.361  1.00  0.00     0.041 C 
ATOM     16  O   UNL     1       7.981   9.451  68.179  1.00  0.00    -0.550 OA
ATOM     17  O   UNL     1      10.237   9.052  68.254  1.00  0.00    -0.550 OA
ENDBRANCH  14  15
ENDBRANCH  13  14
ENDBRANCH  12  13
ENDBRANCH  11  12
ENDBRANCH  10  11
ENDBRANCH   9  10
ENDBRANCH   8   9
ENDBRANCH   7   8
ENDBRANCH   6   7
ENDBRANCH   5   6
ENDBRANCH   4   5
ENDBRANCH   3   4
ENDBRANCH   2   3
ENDBRANCH   1   2
BRANCH   1  18
ATOM     18  C   UNL     1       5.817  17.725  73.953  1.00  0.00     0.000 C 
BRANCH  18  19
ATOM     19  C   UNL     1       6.888  17.588  75.058  1.00  0.00     0.000 C 
BRANCH  19  20
ATOM     20  C   UNL     1       7.078  16.130  75.509  1.00  0.00     0.000 C 
BRANCH  20  21
ATOM     21  C   UNL     1       8.520  15.633  75.314  1.00  0.00     0.000 C 
BRANCH  21  22
ATOM     22  C   UNL     1       9.165  16.156  74.019  1.00  0.00     0.000 C 
BRANCH  22  23
ATOM     23  C   UNL     1      10.484  15.420  73.698  1.00  0.00     0.000 C 
BRANCH  23  24
ATOM     24  C   UNL     1      10.998  15.673  72.272  1.00  0.00    -0.000 C 
BRANCH  24  25
ATOM     25  C   UNL     1      11.668  14.436  71.652  1.00  0.00    -0.000 C 
BRANCH  25  26
ATOM     26  C   UNL     1      12.565  14.797  70.457  1.00  0.00    -0.000 C 
BRANCH  26  27
ATOM     27  C   UNL     1      13.309  16.130  70.661  1.00  0.00    -0.000 C 
BRANCH  27  28
ATOM     28  C   UNL     1      14.794  16.037  70.269  1.00  0.00    -0.000 C 
BRANCH  28  29
ATOM     29  C   UNL     1      15.159  14.679  69.648  1.00  0.00    -0.000 C 
BRANCH  29  30
ATOM     30  C   UNL     1      16.433  14.111  70.284  1.00  0.00    -0.000 C 
BRANCH  30  31
ATOM     31  C   UNL     1      17.583  14.056  69.271  1.00  0.00    -0.003 C 
ATOM     32  C   UNL     1      18.750  14.929  69.721  1.00  0.00     0.004 C 
ENDBRANCH  30  31
ENDBRANCH  29  30
ENDBRANCH  28  29
ENDBRANCH  27  28
ENDBRANCH  26  27
ENDBRANCH  25  26
ENDBRANCH  24  25
ENDBRANCH  23  24
ENDBRANCH  22  23
ENDBRANCH  21  22
ENDBRANCH  20  21
ENDBRANCH  19  20
ENDBRANCH  18  19
ENDBRANCH   1  18
TORSDOF 28
ENDMDL
MODEL 7
REMARK VINA RESULT:    -3.722      2.918      7.158
REMARK INTER + INTRA:         -13.418
REMARK INTER:                  -9.307
REMARK INTRA:                  -4.111
REMARK UNBOUND:                -3.603
REMARK SMILES CCCCCCCCCCCCCCCCCCCCCCCCCCCCCC(=O)[O-]
REMARK SMILES IDX 16 1 17 2 18 3 19 4 20 5 21 6 22 7 23 8 24 9 25 10 26 11
REMARK SMILES IDX 27 12 28 13 29 14 30 15 31 16 32 17 15 18 14 19 13 20 12 21
REMARK SMILES IDX 11 22 10 23 9 24 8 25 7 26 6 27 5 28 4 29 3 30 2 31 1 32
REMARK H PARENT
REMARK Flexibility Score: inf
ROOT
ATOM      1  C   UNL     1      14.143  14.278  69.841  1.00  0.00     0.000 C 
ENDROOT
BRANCH   1   2
ATOM      2  C   UNL     1      14.163  15.289  68.680  1.00  0.00     0.000 C 
BRANCH   2   3
ATOM      3  C   UNL     1      13.013  15.142  67.664  1.00  0.00     0.000 C 
BRANCH   3   4
ATOM      4  C   UNL     1      13.297  15.727  66.270  1.00  0.00     0.000 C 
BRANCH   4   5
ATOM      5  C   UNL     1      12.675  17.119  66.069  1.00  0.00     0.000 C 
BRANCH   5   6
ATOM      6  C   UNL     1      11.229  17.206  66.585  1.00  0.00     0.000 C 
BRANCH   6   7
ATOM      7  C   UNL     1      11.047  18.041  67.865  1.00  0.00     0.000 C 
BRANCH   7   8
ATOM      8  C   UNL     1      10.189  17.332  68.925  1.00  0.00     0.000 C 
BRANCH   8   9
ATOM      9  C   UNL     1       9.487  16.101  68.331  1.00  0.00     0.000 C 
BRANCH   9  10
ATOM     10  C   UNL     1       9.096  15.062  69.400  1.00  0.00     0.000 C 
BRANCH  10  11
ATOM     11  C   UNL     1       9.965  13.790  69.418  1.00  0.00     0.000 C 
BRANCH  11  12
ATOM     12  C   UNL     1      10.502  13.409  68.026  1.00  0.00     0.000 C 
BRANCH  12  13
ATOM     13  C   UNL     1      10.354  11.910  67.721  1.00  0.00     0.006 C 
BRANCH  13  14
ATOM     14  C   UNL     1       9.474  11.181  68.743  1.00  0.00     0.053 C 
BRANCH  14  15
ATOM     15  C   UNL     1       9.130   9.811  68.251  1.00  0.00     0.041 C 
ATOM     16  O   UNL     1      10.042   8.998  67.942  1.00  0.00    -0.550 OA
ATOM     17  O   UNL     1       7.800   9.416  68.172  1.00  0.00    -0.550 OA
ENDBRANCH  14  15
ENDBRANCH  13  14
ENDBRANCH  12  13
ENDBRANCH  11  12
ENDBRANCH  10  11
ENDBRANCH   9  10
ENDBRANCH   8   9
ENDBRANCH   7   8
ENDBRANCH   6   7
ENDBRANCH   5   6
ENDBRANCH   4   5
ENDBRANCH   3   4
ENDBRANCH   2   3
ENDBRANCH   1   2
BRANCH   1  18
ATOM     18  C   UNL     1      13.174  14.630  70.987  1.00  0.00     0.000 C 
BRANCH  18  19
ATOM     19  C   UNL     1      12.798  16.128  71.037  1.00  0.00     0.000 C 
BRANCH  19  20
ATOM     20  C   UNL     1      12.061  16.502  72.333  1.00  0.00     0.000 C 
BRANCH  20  21
ATOM     21  C   UNL     1      10.800  15.654  72.565  1.00  0.00     0.000 C 
BRANCH  21  22
ATOM     22  C   UNL     1       9.548  16.506  72.841  1.00  0.00     0.000 C 
BRANCH  22  23
ATOM     23  C   UNL     1       9.604  17.861  72.103  1.00  0.00     0.000 C 
BRANCH  23  24
ATOM     24  C   UNL     1       8.219  18.436  71.765  1.00  0.00    -0.000 C 
BRANCH  24  25
ATOM     25  C   UNL     1       7.149  17.347  71.589  1.00  0.00    -0.000 C 
BRANCH  25  26
ATOM     26  C   UNL     1       5.818  17.724  72.260  1.00  0.00    -0.000 C 
BRANCH  26  27
ATOM     27  C   UNL     1       5.945  18.968  73.158  1.00  0.00    -0.000 C 
BRANCH  27  28
ATOM     28  C   UNL     1       6.369  18.613  74.594  1.00  0.00    -0.000 C 
BRANCH  28  29
ATOM     29  C   UNL     1       6.050  17.155  74.962  1.00  0.00    -0.000 C 
BRANCH  29  30
ATOM     30  C   UNL     1       7.336  16.358  75.206  1.00  0.00    -0.000 C 
BRANCH  30  31
ATOM     31  C   UNL     1       7.285  15.616  76.547  1.00  0.00    -0.003 C 
ATOM     32  C   UNL     1       6.110  16.096  77.392  1.00  0.00     0.004 C 
ENDBRANCH  30  31
ENDBRANCH  29  30
ENDBRANCH  28  29
ENDBRANCH  27  28
ENDBRANCH  26  27
ENDBRANCH  25  26
ENDBRANCH  24  25
ENDBRANCH  23  24
ENDBRANCH  22  23
ENDBRANCH  21  22
ENDBRANCH  20  21
ENDBRANCH  19  20
ENDBRANCH  18  19
ENDBRANCH   1  18
TORSDOF 28
ENDMDL
MODEL 8
REMARK VINA RESULT:    -3.703      2.149      6.235
REMARK INTER + INTRA:         -13.369
REMARK INTER:                 -10.034
REMARK INTRA:                  -3.335
REMARK UNBOUND:                -3.603
REMARK SMILES CCCCCCCCCCCCCCCCCCCCCCCCCCCCCC(=O)[O-]
REMARK SMILES IDX 16 1 17 2 18 3 19 4 20 5 21 6 22 7 23 8 24 9 25 10 26 11
REMARK SMILES IDX 27 12 28 13 29 14 30 15 31 16 32 17 15 18 14 19 13 20 12 21
REMARK SMILES IDX 11 22 10 23 9 24 8 25 7 26 6 27 5 28 4 29 3 30 2 31 1 32
REMARK H PARENT
REMARK Flexibility Score: inf
ROOT
ATOM      1  C   UNL     1      13.089  13.687  68.784  1.00  0.00     0.000 C 
ENDROOT
BRANCH   1   2
ATOM      2  C   UNL     1      14.178  13.553  69.864  1.00  0.00     0.000 C 
BRANCH   2   3
ATOM      3  C   UNL     1      15.203  14.703  69.907  1.00  0.00     0.000 C 
BRANCH   3   4
ATOM      4  C   UNL     1      14.635  16.067  70.335  1.00  0.00     0.000 C 
BRANCH   4   5
ATOM      5  C   UNL     1      13.136  16.212  70.025  1.00  0.00     0.000 C 
BRANCH   5   6
ATOM      6  C   UNL     1      12.643  17.665  70.130  1.00  0.00     0.000 C 
BRANCH   6   7
ATOM      7  C   UNL     1      11.370  17.977  69.323  1.00  0.00     0.000 C 
BRANCH   7   8
ATOM      8  C   UNL     1      10.615  16.713  68.884  1.00  0.00     0.000 C 
BRANCH   8   9
ATOM      9  C   UNL     1      10.408  16.697  67.361  1.00  0.00     0.000 C 
BRANCH   9  10
ATOM     10  C   UNL     1      11.245  17.767  66.633  1.00  0.00     0.000 C 
BRANCH  10  11
ATOM     11  C   UNL     1      12.558  17.255  66.013  1.00  0.00     0.000 C 
BRANCH  11  12
ATOM     12  C   UNL     1      12.919  15.828  66.463  1.00  0.00     0.000 C 
BRANCH  12  13
ATOM     13  C   UNL     1      14.348  15.422  66.068  1.00  0.00     0.006 C 
BRANCH  13  14
ATOM     14  C   UNL     1      14.687  15.781  64.617  1.00  0.00     0.053 C 
BRANCH  14  15
ATOM     15  C   UNL     1      16.165  15.719  64.396  1.00  0.00     0.041 C 
ATOM     16  O   UNL     1      16.869  14.892  65.035  1.00  0.00    -0.550 OA
ATOM     17  O   UNL     1      16.761  16.546  63.453  1.00  0.00    -0.550 OA
ENDBRANCH  14  15
ENDBRANCH  13  14
ENDBRANCH  12  13
ENDBRANCH  11  12
ENDBRANCH  10  11
ENDBRANCH   9  10
ENDBRANCH   8   9
ENDBRANCH   7   8
ENDBRANCH   6   7
ENDBRANCH   5   6
ENDBRANCH   4   5
ENDBRANCH   3   4
ENDBRANCH   2   3
ENDBRANCH   1   2
BRANCH   1  18
ATOM     18  C   UNL     1      12.047  12.551  68.773  1.00  0.00     0.000 C 
BRANCH  18  19
ATOM     19  C   UNL     1      10.604  13.038  69.035  1.00  0.00     0.000 C 
BRANCH  19  20
ATOM     20  C   UNL     1      10.497  13.887  70.312  1.00  0.00     0.000 C 
BRANCH  20  21
ATOM     21  C   UNL     1      11.145  13.210  71.531  1.00  0.00     0.000 C 
BRANCH  21  22
ATOM     22  C   UNL     1      10.962  14.014  72.831  1.00  0.00     0.000 C 
BRANCH  22  23
ATOM     23  C   UNL     1      11.276  15.513  72.626  1.00  0.00     0.000 C 
BRANCH  23  24
ATOM     24  C   UNL     1      10.187  16.450  73.173  1.00  0.00    -0.000 C 
BRANCH  24  25
ATOM     25  C   UNL     1       9.186  16.894  72.096  1.00  0.00    -0.000 C 
BRANCH  25  26
ATOM     26  C   UNL     1       9.061  18.423  72.010  1.00  0.00    -0.000 C 
BRANCH  26  27
ATOM     27  C   UNL     1       7.594  18.894  72.017  1.00  0.00    -0.000 C 
BRANCH  27  28
ATOM     28  C   UNL     1       6.891  18.598  73.353  1.00  0.00    -0.000 C 
BRANCH  28  29
ATOM     29  C   UNL     1       5.671  17.677  73.187  1.00  0.00    -0.000 C 
BRANCH  29  30
ATOM     30  C   UNL     1       5.748  16.488  74.153  1.00  0.00    -0.000 C 
BRANCH  30  31
ATOM     31  C   UNL     1       7.080  16.475  74.913  1.00  0.00    -0.003 C 
ATOM     32  C   UNL     1       6.869  16.118  76.380  1.00  0.00     0.004 C 
ENDBRANCH  30  31
ENDBRANCH  29  30
ENDBRANCH  28  29
ENDBRANCH  27  28
ENDBRANCH  26  27
ENDBRANCH  25  26
ENDBRANCH  24  25
ENDBRANCH  23  24
ENDBRANCH  22  23
ENDBRANCH  21  22
ENDBRANCH  20  21
ENDBRANCH  19  20
ENDBRANCH  18  19
ENDBRANCH   1  18
TORSDOF 28
ENDMDL
