MODEL 1
REMARK VINA RESULT:    -3.443      0.000      0.000
REMARK INTER + INTRA:          -5.339
REMARK INTER:                  -5.054
REMARK INTRA:                  -0.286
REMARK UNBOUND:                -0.286
REMARK SMILES O=C([O-])CCCCCCCC(=O)[O-]
REMARK SMILES IDX 7 1 6 2 5 3 4 4 2 5 1 6 3 7 8 8 9 9 10 10 11 11 12 12 13 13
REMARK H PARENT
REMARK Flexibility Score: inf
ROOT
ATOM      1  C   UNL     1      44.491  34.013  49.399  1.00  0.00     0.000 C 
ENDROOT
BRANCH   1   2
ATOM      2  C   UNL     1      44.329  32.490  49.552  1.00  0.00     0.000 C 
BRANCH   2   3
ATOM      3  C   UNL     1      45.628  31.720  49.264  1.00  0.00     0.006 C 
BRANCH   3   4
ATOM      4  C   UNL     1      45.569  30.274  49.775  1.00  0.00     0.053 C 
BRANCH   4   5
ATOM      5  C   UNL     1      45.024  29.340  48.739  1.00  0.00     0.041 C 
ATOM      6  O   UNL     1      44.568  28.216  49.075  1.00  0.00    -0.550 OA
ATOM      7  O   UNL     1      45.045  29.701  47.397  1.00  0.00    -0.550 OA
ENDBRANCH   4   5
ENDBRANCH   3   4
ENDBRANCH   2   3
ENDBRANCH   1   2
BRANCH   1   8
ATOM      8  C   UNL     1      43.318  34.854  49.944  1.00  0.00     0.000 C 
BRANCH   8   9
ATOM      9  C   UNL     1      42.529  35.644  48.880  1.00  0.00     0.006 C 
BRANCH   9  10
ATOM     10  C   UNL     1      41.137  35.072  48.568  1.00  0.00     0.053 C 
BRANCH  10  11
ATOM     11  C   UNL     1      40.922  34.896  47.096  1.00  0.00     0.041 C 
ATOM     12  O   UNL     1      41.281  33.833  46.524  1.00  0.00    -0.550 OA
ATOM     13  O   UNL     1      40.293  35.894  46.362  1.00  0.00    -0.550 OA
ENDBRANCH  10  11
ENDBRANCH   9  10
ENDBRANCH   8   9
ENDBRANCH   1   8
TORSDOF 8
ENDMDL
MODEL 2
REMARK VINA RESULT:    -3.384      0.547      6.023
REMARK INTER + INTRA:          -5.252
REMARK INTER:                  -4.918
REMARK INTRA:                  -0.334
REMARK UNBOUND:                -0.286
REMARK SMILES O=C([O-])CCCCCCCC(=O)[O-]
REMARK SMILES IDX 7 1 6 2 5 3 4 4 2 5 1 6 3 7 8 8 9 9 10 10 11 11 12 12 13 13
REMARK H PARENT
REMARK Flexibility Score: inf
ROOT
ATOM      1  C   UNL     1      44.195  32.812  49.276  1.00  0.00     0.000 C 
ENDROOT
BRANCH   1   2
ATOM      2  C   UNL     1      43.599  34.091  49.891  1.00  0.00     0.000 C 
BRANCH   2   3
ATOM      3  C   UNL     1      42.928  34.999  48.848  1.00  0.00     0.006 C 
BRANCH   3   4
ATOM      4  C   UNL     1      41.450  34.645  48.638  1.00  0.00     0.053 C 
BRANCH   4   5
ATOM      5  C   UNL     1      41.029  34.838  47.214  1.00  0.00     0.041 C 
ATOM      6  O   UNL     1      41.207  33.921  46.369  1.00  0.00    -0.550 OA
ATOM      7  O   UNL     1      40.464  36.043  46.812  1.00  0.00    -0.550 OA
ENDBRANCH   4   5
ENDBRANCH   3   4
ENDBRANCH   2   3
ENDBRANCH   1   2
BRANCH   1   8
ATOM      8  C   UNL     1      45.736  32.769  49.219  1.00  0.00     0.000 C 
BRANCH   8   9
ATOM      9  C   UNL     1      46.349  31.356  49.140  1.00  0.00     0.006 C 
BRANCH   9  10
ATOM     10  C   UNL     1      45.456  30.245  49.714  1.00  0.00     0.053 C 
BRANCH  10  11
ATOM     11  C   UNL     1      45.023  29.274  48.659  1.00  0.00     0.041 C 
ATOM     12  O   UNL     1      44.635  28.120  48.978  1.00  0.00    -0.550 OA
ATOM     13  O   UNL     1      45.018  29.657  47.323  1.00  0.00    -0.550 OA
ENDBRANCH  10  11
ENDBRANCH   9  10
ENDBRANCH   8   9
ENDBRANCH   1   8
TORSDOF 8
ENDMDL
MODEL 3
REMARK VINA RESULT:    -3.297      1.569      5.941
REMARK INTER + INTRA:          -5.124
REMARK INTER:                  -4.531
REMARK INTRA:                  -0.593
REMARK UNBOUND:                -0.286
REMARK SMILES O=C([O-])CCCCCCCC(=O)[O-]
REMARK SMILES IDX 7 1 6 2 5 3 4 4 2 5 1 6 3 7 8 8 9 9 10 10 11 11 12 12 13 13
REMARK H PARENT
REMARK Flexibility Score: inf
ROOT
ATOM      1  C   UNL     1      47.040  32.478  48.829  1.00  0.00     0.000 C 
ENDROOT
BRANCH   1   2
ATOM      2  C   UNL     1      45.897  33.502  48.954  1.00  0.00     0.000 C 
BRANCH   2   3
ATOM      3  C   UNL     1      44.534  32.844  49.224  1.00  0.00     0.006 C 
BRANCH   3   4
ATOM      4  C   UNL     1      43.602  33.756  50.032  1.00  0.00     0.053 C 
BRANCH   4   5
ATOM      5  C   UNL     1      42.788  34.647  49.144  1.00  0.00     0.041 C 
ATOM      6  O   UNL     1      43.096  35.860  49.008  1.00  0.00    -0.550 OA
ATOM      7  O   UNL     1      41.672  34.142  48.487  1.00  0.00    -0.550 OA
ENDBRANCH   4   5
ENDBRANCH   3   4
ENDBRANCH   2   3
ENDBRANCH   1   2
BRANCH   1   8
ATOM      8  C   UNL     1      47.213  31.538  50.039  1.00  0.00     0.000 C 
BRANCH   8   9
ATOM      9  C   UNL     1      47.046  30.036  49.730  1.00  0.00     0.006 C 
BRANCH   9  10
ATOM     10  C   UNL     1      45.658  29.470  50.069  1.00  0.00     0.053 C 
BRANCH  10  11
ATOM     11  C   UNL     1      44.961  28.935  48.855  1.00  0.00     0.041 C 
ATOM     12  O   UNL     1      44.351  27.835  48.906  1.00  0.00    -0.550 OA
ATOM     13  O   UNL     1      44.958  29.670  47.676  1.00  0.00    -0.550 OA
ENDBRANCH  10  11
ENDBRANCH   9  10
ENDBRANCH   8   9
ENDBRANCH   1   8
TORSDOF 8
ENDMDL
MODEL 4
REMARK VINA RESULT:    -3.268      1.672      6.866
REMARK INTER + INTRA:          -5.082
REMARK INTER:                  -4.771
REMARK INTRA:                  -0.312
REMARK UNBOUND:                -0.286
REMARK SMILES O=C([O-])CCCCCCCC(=O)[O-]
REMARK SMILES IDX 7 1 6 2 5 3 4 4 2 5 1 6 3 7 8 8 9 9 10 10 11 11 12 12 13 13
REMARK H PARENT
REMARK Flexibility Score: inf
ROOT
ATOM      1  C   UNL     1      44.734  33.350  48.612  1.00  0.00     0.000 C 
ENDROOT
BRANCH   1   2
ATOM      2  C   UNL     1      43.820  33.530  49.837  1.00  0.00     0.000 C 
BRANCH   2   3
ATOM      3  C   UNL     1      42.864  34.726  49.697  1.00  0.00     0.006 C 
BRANCH   3   4
ATOM      4  C   UNL     1      41.777  34.478  48.642  1.00  0.00     0.053 C 
BRANCH   4   5
ATOM      5  C   UNL     1      41.531  35.693  47.802  1.00  0.00     0.041 C 
ATOM      6  O   UNL     1      42.341  36.656  47.827  1.00  0.00    -0.550 OA
ATOM      7  O   UNL     1      40.391  35.772  47.011  1.00  0.00    -0.550 OA
ENDBRANCH   4   5
ENDBRANCH   3   4
ENDBRANCH   2   3
ENDBRANCH   1   2
BRANCH   1   8
ATOM      8  C   UNL     1      45.312  31.932  48.429  1.00  0.00     0.000 C 
BRANCH   8   9
ATOM      9  C   UNL     1      45.366  31.076  49.712  1.00  0.00     0.006 C 
BRANCH   9  10
ATOM     10  C   UNL     1      45.469  29.564  49.461  1.00  0.00     0.053 C 
BRANCH  10  11
ATOM     11  C   UNL     1      46.379  28.895  50.445  1.00  0.00     0.041 C 
ATOM     12  O   UNL     1      47.118  29.583  51.197  1.00  0.00    -0.550 OA
ATOM     13  O   UNL     1      46.387  27.509  50.553  1.00  0.00    -0.550 OA
ENDBRANCH  10  11
ENDBRANCH   9  10
ENDBRANCH   8   9
ENDBRANCH   1   8
TORSDOF 8
ENDMDL
MODEL 5
REMARK VINA RESULT:    -3.259      1.873      2.057
REMARK INTER + INTRA:          -5.069
REMARK INTER:                  -4.825
REMARK INTRA:                  -0.244
REMARK UNBOUND:                -0.286
REMARK SMILES O=C([O-])CCCCCCCC(=O)[O-]
REMARK SMILES IDX 7 1 6 2 5 3 4 4 2 5 1 6 3 7 8 8 9 9 10 10 11 11 12 12 13 13
REMARK H PARENT
REMARK Flexibility Score: inf
ROOT
ATOM      1  C   UNL     1      44.274  33.030  48.821  1.00  0.00     0.000 C 
ENDROOT
BRANCH   1   2
ATOM      2  C   UNL     1      44.865  31.781  49.501  1.00  0.00     0.000 C 
BRANCH   2   3
ATOM      3  C   UNL     1      46.298  31.472  49.039  1.00  0.00     0.006 C 
BRANCH   3   4
ATOM      4  C   UNL     1      47.294  31.466  50.206  1.00  0.00     0.053 C 
BRANCH   4   5
ATOM      5  C   UNL     1      47.618  30.074  50.653  1.00  0.00     0.041 C 
ATOM      6  O   UNL     1      46.720  29.339  51.142  1.00  0.00    -0.550 OA
ATOM      7  O   UNL     1      48.920  29.597  50.554  1.00  0.00    -0.550 OA
ENDBRANCH   4   5
ENDBRANCH   3   4
ENDBRANCH   2   3
ENDBRANCH   1   2
BRANCH   1   8
ATOM      8  C   UNL     1      43.508  33.985  49.759  1.00  0.00     0.000 C 
BRANCH   8   9
ATOM      9  C   UNL     1      42.819  35.175  49.060  1.00  0.00     0.006 C 
BRANCH   9  10
ATOM     10  C   UNL     1      41.324  34.963  48.774  1.00  0.00     0.053 C 
BRANCH  10  11
ATOM     11  C   UNL     1      41.023  35.003  47.307  1.00  0.00     0.041 C 
ATOM     12  O   UNL     1      41.170  33.971  46.601  1.00  0.00    -0.550 OA
ATOM     13  O   UNL     1      40.547  36.172  46.727  1.00  0.00    -0.550 OA
ENDBRANCH  10  11
ENDBRANCH   9  10
ENDBRANCH   8   9
ENDBRANCH   1   8
TORSDOF 8
ENDMDL
MODEL 6
REMARK VINA RESULT:    -3.214      1.132      6.104
REMARK INTER + INTRA:          -5.002
REMARK INTER:                  -4.535
REMARK INTRA:                  -0.468
REMARK UNBOUND:                -0.286
REMARK SMILES O=C([O-])CCCCCCCC(=O)[O-]
REMARK SMILES IDX 7 1 6 2 5 3 4 4 2 5 1 6 3 7 8 8 9 9 10 10 11 11 12 12 13 13
REMARK H PARENT
REMARK Flexibility Score: inf
ROOT
ATOM      1  C   UNL     1      43.198  34.881  50.217  1.00  0.00     0.000 C 
ENDROOT
BRANCH   1   2
ATOM      2  C   UNL     1      42.708  35.494  48.894  1.00  0.00     0.000 C 
BRANCH   2   3
ATOM      3  C   UNL     1      41.208  35.264  48.648  1.00  0.00     0.006 C 
BRANCH   3   4
ATOM      4  C   UNL     1      40.940  34.576  47.303  1.00  0.00     0.053 C 
BRANCH   4   5
ATOM      5  C   UNL     1      41.018  35.541  46.160  1.00  0.00     0.041 C 
ATOM      6  O   UNL     1      41.529  35.187  45.065  1.00  0.00    -0.550 OA
ATOM      7  O   UNL     1      40.550  36.840  46.314  1.00  0.00    -0.550 OA
ENDBRANCH   4   5
ENDBRANCH   3   4
ENDBRANCH   2   3
ENDBRANCH   1   2
BRANCH   1   8
ATOM      8  C   UNL     1      43.691  33.422  50.121  1.00  0.00     0.000 C 
BRANCH   8   9
ATOM      9  C   UNL     1      44.257  33.012  48.746  1.00  0.00     0.006 C 
BRANCH   9  10
ATOM     10  C   UNL     1      45.583  32.239  48.810  1.00  0.00     0.053 C 
BRANCH  10  11
ATOM     11  C   UNL     1      45.366  30.769  49.000  1.00  0.00     0.041 C 
ATOM     12  O   UNL     1      45.549  30.240  50.127  1.00  0.00    -0.550 OA
ATOM     13  O   UNL     1      44.926  29.990  47.936  1.00  0.00    -0.550 OA
ENDBRANCH  10  11
ENDBRANCH   9  10
ENDBRANCH   8   9
ENDBRANCH   1   8
TORSDOF 8
ENDMDL
MODEL 7
REMARK VINA RESULT:    -3.212      1.970      2.813
REMARK INTER + INTRA:          -5.000
REMARK INTER:                  -4.325
REMARK INTRA:                  -0.674
REMARK UNBOUND:                -0.286
REMARK SMILES O=C([O-])CCCCCCCC(=O)[O-]
REMARK SMILES IDX 7 1 6 2 5 3 4 4 2 5 1 6 3 7 8 8 9 9 10 10 11 11 12 12 13 13
REMARK H PARENT
REMARK Flexibility Score: inf
ROOT
ATOM      1  C   UNL     1      42.552  35.267  49.388  1.00  0.00     0.000 C 
ENDROOT
BRANCH   1   2
ATOM      2  C   UNL     1      43.486  34.395  50.246  1.00  0.00     0.000 C 
BRANCH   2   3
ATOM      3  C   UNL     1      43.913  33.100  49.537  1.00  0.00     0.006 C 
BRANCH   3   4
ATOM      4  C   UNL     1      45.383  33.136  49.101  1.00  0.00     0.053 C 
BRANCH   4   5
ATOM      5  C   UNL     1      45.988  31.766  49.071  1.00  0.00     0.041 C 
ATOM      6  O   UNL     1      46.954  31.515  48.305  1.00  0.00    -0.550 OA
ATOM      7  O   UNL     1      45.464  30.757  49.870  1.00  0.00    -0.550 OA
ENDBRANCH   4   5
ENDBRANCH   3   4
ENDBRANCH   2   3
ENDBRANCH   1   2
BRANCH   1   8
ATOM      8  C   UNL     1      41.475  34.494  48.600  1.00  0.00     0.000 C 
BRANCH   8   9
ATOM      9  C   UNL     1      41.241  34.987  47.157  1.00  0.00     0.006 C 
BRANCH   9  10
ATOM     10  C   UNL     1      41.738  34.023  46.069  1.00  0.00     0.053 C 
BRANCH  10  11
ATOM     11  C   UNL     1      43.233  33.940  46.035  1.00  0.00     0.041 C 
ATOM     12  O   UNL     1      43.806  32.823  45.951  1.00  0.00    -0.550 OA
ATOM     13  O   UNL     1      43.993  35.103  46.062  1.00  0.00    -0.550 OA
ENDBRANCH  10  11
ENDBRANCH   9  10
ENDBRANCH   8   9
ENDBRANCH   1   8
TORSDOF 8
ENDMDL
MODEL 8
REMARK VINA RESULT:    -3.210      1.304      1.734
REMARK INTER + INTRA:          -4.997
REMARK INTER:                  -4.623
REMARK INTRA:                  -0.374
REMARK UNBOUND:                -0.286
REMARK SMILES O=C([O-])CCCCCCCC(=O)[O-]
REMARK SMILES IDX 7 1 6 2 5 3 4 4 2 5 1 6 3 7 8 8 9 9 10 10 11 11 12 12 13 13
REMARK H PARENT
REMARK Flexibility Score: inf
ROOT
ATOM      1  C   UNL     1      44.870  32.147  48.899  1.00  0.00     0.000 C 
ENDROOT
BRANCH   1   2
ATOM      2  C   UNL     1      46.343  32.006  49.322  1.00  0.00     0.000 C 
BRANCH   2   3
ATOM      3  C   UNL     1      46.822  30.545  49.341  1.00  0.00     0.006 C 
BRANCH   3   4
ATOM      4  C   UNL     1      45.958  29.664  50.253  1.00  0.00     0.053 C 
BRANCH   4   5
ATOM      5  C   UNL     1      45.459  28.446  49.539  1.00  0.00     0.041 C 
ATOM      6  O   UNL     1      45.915  27.309  49.830  1.00  0.00    -0.550 OA
ATOM      7  O   UNL     1      44.509  28.569  48.533  1.00  0.00    -0.550 OA
ENDBRANCH   4   5
ENDBRANCH   3   4
ENDBRANCH   2   3
ENDBRANCH   1   2
BRANCH   1   8
ATOM      8  C   UNL     1      44.001  33.013  49.832  1.00  0.00     0.000 C 
BRANCH   8   9
ATOM      9  C   UNL     1      43.543  34.361  49.236  1.00  0.00     0.006 C 
BRANCH   9  10
ATOM     10  C   UNL     1      42.982  34.265  47.809  1.00  0.00     0.053 C 
BRANCH  10  11
ATOM     11  C   UNL     1      41.555  34.717  47.738  1.00  0.00     0.041 C 
ATOM     12  O   UNL     1      40.870  34.498  46.705  1.00  0.00    -0.550 OA
ATOM     13  O   UNL     1      40.973  35.352  48.828  1.00  0.00    -0.550 OA
ENDBRANCH  10  11
ENDBRANCH   9  10
ENDBRANCH   8   9
ENDBRANCH   1   8
TORSDOF 8
ENDMDL
MODEL 9
REMARK VINA RESULT:    -3.200      2.440      7.117
REMARK INTER + INTRA:          -4.983
REMARK INTER:                  -4.630
REMARK INTRA:                  -0.353
REMARK UNBOUND:                -0.286
REMARK SMILES O=C([O-])CCCCCCCC(=O)[O-]
REMARK SMILES IDX 7 1 6 2 5 3 4 4 2 5 1 6 3 7 8 8 9 9 10 10 11 11 12 12 13 13
REMARK H PARENT
REMARK Flexibility Score: inf
ROOT
ATOM      1  C   UNL     1      46.113  32.064  49.409  1.00  0.00     0.000 C 
ENDROOT
BRANCH   1   2
ATOM      2  C   UNL     1      45.295  33.338  49.129  1.00  0.00     0.000 C 
BRANCH   2   3
ATOM      3  C   UNL     1      43.848  33.241  49.638  1.00  0.00     0.006 C 
BRANCH   3   4
ATOM      4  C   UNL     1      43.312  34.596  50.118  1.00  0.00     0.053 C 
BRANCH   4   5
ATOM      5  C   UNL     1      42.541  35.301  49.045  1.00  0.00     0.041 C 
ATOM      6  O   UNL     1      41.284  35.242  49.024  1.00  0.00    -0.550 OA
ATOM      7  O   UNL     1      43.214  36.002  48.051  1.00  0.00    -0.550 OA
ENDBRANCH   4   5
ENDBRANCH   3   4
ENDBRANCH   2   3
ENDBRANCH   1   2
BRANCH   1   8
ATOM      8  C   UNL     1      45.313  30.747  49.358  1.00  0.00     0.000 C 
BRANCH   8   9
ATOM      9  C   UNL     1      45.892  29.596  50.207  1.00  0.00     0.006 C 
BRANCH   9  10
ATOM     10  C   UNL     1      47.234  29.919  50.881  1.00  0.00     0.053 C 
BRANCH  10  11
ATOM     11  C   UNL     1      48.360  29.122  50.295  1.00  0.00     0.041 C 
ATOM     12  O   UNL     1      49.553  29.415  50.566  1.00  0.00    -0.550 OA
ATOM     13  O   UNL     1      48.087  28.033  49.477  1.00  0.00    -0.550 OA
ENDBRANCH  10  11
ENDBRANCH   9  10
ENDBRANCH   8   9
ENDBRANCH   1   8
TORSDOF 8
ENDMDL
