MODEL 1
REMARK VINA RESULT:    -3.110      0.000      0.000
REMARK INTER + INTRA:         -10.534
REMARK INTER:                  -6.746
REMARK INTRA:                  -3.788
REMARK UNBOUND:                -3.788
REMARK SMILES CCCCCCCCCCCCCCCCCCCCCC(=O)[O-]
REMARK SMILES IDX 12 1 11 2 10 3 9 4 8 5 7 6 6 7 5 8 4 9 3 10 2 11 1 12 13 13
REMARK SMILES IDX 14 14 15 15 16 16 17 17 18 18 19 19 20 20 21 21 22 22 23 23
REMARK SMILES IDX 24 24
REMARK H PARENT
REMARK Flexibility Score: inf
ROOT
ATOM      1  C   UNL     1      63.651  33.999  58.478  1.00  0.00     0.000 C 
ENDROOT
BRANCH   1   2
ATOM      2  C   UNL     1      64.143  35.342  57.914  1.00  0.00     0.000 C 
BRANCH   2   3
ATOM      3  C   UNL     1      65.460  35.812  58.554  1.00  0.00     0.000 C 
BRANCH   3   4
ATOM      4  C   UNL     1      65.280  36.925  59.608  1.00  0.00    -0.000 C 
BRANCH   4   5
ATOM      5  C   UNL     1      65.606  36.434  61.029  1.00  0.00    -0.000 C 
BRANCH   5   6
ATOM      6  C   UNL     1      64.392  35.810  61.738  1.00  0.00    -0.000 C 
BRANCH   6   7
ATOM      7  C   UNL     1      63.143  36.701  61.665  1.00  0.00    -0.000 C 
BRANCH   7   8
ATOM      8  C   UNL     1      61.975  35.961  60.995  1.00  0.00    -0.000 C 
BRANCH   8   9
ATOM      9  C   UNL     1      61.290  36.801  59.905  1.00  0.00    -0.000 C 
BRANCH   9  10
ATOM     10  C   UNL     1      59.804  36.446  59.728  1.00  0.00    -0.000 C 
BRANCH  10  11
ATOM     11  C   UNL     1      59.418  36.246  58.253  1.00  0.00    -0.003 C 
ATOM     12  C   UNL     1      60.356  35.284  57.522  1.00  0.00     0.004 C 
ENDBRANCH  10  11
ENDBRANCH   9  10
ENDBRANCH   8   9
ENDBRANCH   7   8
ENDBRANCH   6   7
ENDBRANCH   5   6
ENDBRANCH   4   5
ENDBRANCH   3   4
ENDBRANCH   2   3
ENDBRANCH   1   2
BRANCH   1  13
ATOM     13  C   UNL     1      64.792  33.135  59.047  1.00  0.00     0.000 C 
BRANCH  13  14
ATOM     14  C   UNL     1      64.437  32.316  60.307  1.00  0.00     0.000 C 
BRANCH  14  15
ATOM     15  C   UNL     1      64.962  30.869  60.325  1.00  0.00     0.000 C 
BRANCH  15  16
ATOM     16  C   UNL     1      63.862  29.838  60.633  1.00  0.00     0.000 C 
BRANCH  16  17
ATOM     17  C   UNL     1      62.946  30.279  61.788  1.00  0.00     0.000 C 
BRANCH  17  18
ATOM     18  C   UNL     1      61.455  30.228  61.421  1.00  0.00     0.000 C 
BRANCH  18  19
ATOM     19  C   UNL     1      60.770  31.569  61.727  1.00  0.00     0.000 C 
BRANCH  19  20
ATOM     20  C   UNL     1      60.741  32.511  60.512  1.00  0.00     0.006 C 
BRANCH  20  21
ATOM     21  C   UNL     1      60.793  31.756  59.178  1.00  0.00     0.053 C 
BRANCH  21  22
ATOM     22  C   UNL     1      59.407  31.447  58.700  1.00  0.00     0.041 C 
ATOM     23  O   UNL     1      58.691  32.354  58.200  1.00  0.00    -0.550 OA
ATOM     24  O   UNL     1      58.921  30.146  58.772  1.00  0.00    -0.550 OA
ENDBRANCH  21  22
ENDBRANCH  20  21
ENDBRANCH  19  20
ENDBRANCH  18  19
ENDBRANCH  17  18
ENDBRANCH  16  17
ENDBRANCH  15  16
ENDBRANCH  14  15
ENDBRANCH  13  14
ENDBRANCH   1  13
TORSDOF 20
ENDMDL
MODEL 2
REMARK VINA RESULT:    -3.107      2.844      4.444
REMARK INTER + INTRA:         -10.529
REMARK INTER:                  -6.791
REMARK INTRA:                  -3.738
REMARK UNBOUND:                -3.788
REMARK SMILES CCCCCCCCCCCCCCCCCCCCCC(=O)[O-]
REMARK SMILES IDX 12 1 11 2 10 3 9 4 8 5 7 6 6 7 5 8 4 9 3 10 2 11 1 12 13 13
REMARK SMILES IDX 14 14 15 15 16 16 17 17 18 18 19 19 20 20 21 21 22 22 23 23
REMARK SMILES IDX 24 24
REMARK H PARENT
REMARK Flexibility Score: inf
ROOT
ATOM      1  C   UNL     1      63.563  33.668  59.633  1.00  0.00     0.000 C 
ENDROOT
BRANCH   1   2
ATOM      2  C   UNL     1      64.041  33.796  61.088  1.00  0.00     0.000 C 
BRANCH   2   3
ATOM      3  C   UNL     1      64.207  35.258  61.535  1.00  0.00     0.000 C 
BRANCH   3   4
ATOM      4  C   UNL     1      63.439  36.269  60.657  1.00  0.00    -0.000 C 
BRANCH   4   5
ATOM      5  C   UNL     1      62.213  36.851  61.382  1.00  0.00    -0.000 C 
BRANCH   5   6
ATOM      6  C   UNL     1      60.914  36.697  60.574  1.00  0.00    -0.000 C 
BRANCH   6   7
ATOM      7  C   UNL     1      61.169  36.570  59.064  1.00  0.00    -0.000 C 
BRANCH   7   8
ATOM      8  C   UNL     1      60.045  35.778  58.380  1.00  0.00    -0.000 C 
BRANCH   8   9
ATOM      9  C   UNL     1      60.471  35.203  57.019  1.00  0.00    -0.000 C 
BRANCH   9  10
ATOM     10  C   UNL     1      59.907  33.794  56.767  1.00  0.00    -0.000 C 
BRANCH  10  11
ATOM     11  C   UNL     1      58.751  33.444  57.720  1.00  0.00    -0.003 C 
ATOM     12  C   UNL     1      58.747  31.970  58.128  1.00  0.00     0.004 C 
ENDBRANCH  10  11
ENDBRANCH   9  10
ENDBRANCH   8   9
ENDBRANCH   7   8
ENDBRANCH   6   7
ENDBRANCH   5   6
ENDBRANCH   4   5
ENDBRANCH   3   4
ENDBRANCH   2   3
ENDBRANCH   1   2
BRANCH   1  13
ATOM     13  C   UNL     1      62.225  32.914  59.506  1.00  0.00     0.000 C 
BRANCH  13  14
ATOM     14  C   UNL     1      61.245  33.103  60.684  1.00  0.00     0.000 C 
BRANCH  14  15
ATOM     15  C   UNL     1      60.741  31.805  61.339  1.00  0.00     0.000 C 
BRANCH  15  16
ATOM     16  C   UNL     1      61.331  30.539  60.692  1.00  0.00     0.000 C 
BRANCH  16  17
ATOM     17  C   UNL     1      62.000  29.609  61.717  1.00  0.00     0.000 C 
BRANCH  17  18
ATOM     18  C   UNL     1      63.375  29.100  61.256  1.00  0.00     0.000 C 
BRANCH  18  19
ATOM     19  C   UNL     1      64.395  30.249  61.209  1.00  0.00     0.000 C 
BRANCH  19  20
ATOM     20  C   UNL     1      65.671  29.877  60.436  1.00  0.00     0.006 C 
BRANCH  20  21
ATOM     21  C   UNL     1      65.882  30.747  59.190  1.00  0.00     0.053 C 
BRANCH  21  22
ATOM     22  C   UNL     1      67.123  30.327  58.464  1.00  0.00     0.041 C 
ATOM     23  O   UNL     1      68.238  30.823  58.775  1.00  0.00    -0.550 OA
ATOM     24  O   UNL     1      67.051  29.357  57.470  1.00  0.00    -0.550 OA
ENDBRANCH  21  22
ENDBRANCH  20  21
ENDBRANCH  19  20
ENDBRANCH  18  19
ENDBRANCH  17  18
ENDBRANCH  16  17
ENDBRANCH  15  16
ENDBRANCH  14  15
ENDBRANCH  13  14
ENDBRANCH   1  13
TORSDOF 20
ENDMDL
MODEL 3
REMARK VINA RESULT:    -3.091      2.918      5.352
REMARK INTER + INTRA:         -10.494
REMARK INTER:                  -7.576
REMARK INTRA:                  -2.918
REMARK UNBOUND:                -3.788
REMARK SMILES CCCCCCCCCCCCCCCCCCCCCC(=O)[O-]
REMARK SMILES IDX 12 1 11 2 10 3 9 4 8 5 7 6 6 7 5 8 4 9 3 10 2 11 1 12 13 13
REMARK SMILES IDX 14 14 15 15 16 16 17 17 18 18 19 19 20 20 21 21 22 22 23 23
REMARK SMILES IDX 24 24
REMARK H PARENT
REMARK Flexibility Score: inf
ROOT
ATOM      1  C   UNL     1      64.598  31.793  60.093  1.00  0.00     0.000 C 
ENDROOT
BRANCH   1   2
ATOM      2  C   UNL     1      63.747  31.792  61.373  1.00  0.00     0.000 C 
BRANCH   2   3
ATOM      3  C   UNL     1      63.195  30.400  61.721  1.00  0.00     0.000 C 
BRANCH   3   4
ATOM      4  C   UNL     1      61.655  30.311  61.676  1.00  0.00    -0.000 C 
BRANCH   4   5
ATOM      5  C   UNL     1      61.004  31.677  61.396  1.00  0.00    -0.000 C 
BRANCH   5   6
ATOM      6  C   UNL     1      60.467  31.798  59.960  1.00  0.00    -0.000 C 
BRANCH   6   7
ATOM      7  C   UNL     1      60.886  33.111  59.280  1.00  0.00    -0.000 C 
BRANCH   7   8
ATOM      8  C   UNL     1      61.139  34.213  60.320  1.00  0.00    -0.000 C 
BRANCH   8   9
ATOM      9  C   UNL     1      62.461  34.961  60.077  1.00  0.00    -0.000 C 
BRANCH   9  10
ATOM     10  C   UNL     1      62.893  35.810  61.286  1.00  0.00    -0.000 C 
BRANCH  10  11
ATOM     11  C   UNL     1      64.287  35.423  61.808  1.00  0.00    -0.003 C 
ATOM     12  C   UNL     1      65.347  36.481  61.501  1.00  0.00     0.004 C 
ENDBRANCH  10  11
ENDBRANCH   9  10
ENDBRANCH   8   9
ENDBRANCH   7   8
ENDBRANCH   6   7
ENDBRANCH   5   6
ENDBRANCH   4   5
ENDBRANCH   3   4
ENDBRANCH   2   3
ENDBRANCH   1   2
BRANCH   1  13
ATOM     13  C   UNL     1      64.093  30.792  59.037  1.00  0.00     0.000 C 
BRANCH  13  14
ATOM     14  C   UNL     1      65.172  29.872  58.427  1.00  0.00     0.000 C 
BRANCH  14  15
ATOM     15  C   UNL     1      66.302  29.452  59.384  1.00  0.00     0.000 C 
BRANCH  15  16
ATOM     16  C   UNL     1      66.262  27.955  59.737  1.00  0.00     0.000 C 
BRANCH  16  17
ATOM     17  C   UNL     1      65.016  27.574  60.553  1.00  0.00     0.000 C 
BRANCH  17  18
ATOM     18  C   UNL     1      64.325  26.304  60.032  1.00  0.00     0.000 C 
BRANCH  18  19
ATOM     19  C   UNL     1      63.375  25.724  61.092  1.00  0.00     0.000 C 
BRANCH  19  20
ATOM     20  C   UNL     1      62.012  26.435  61.120  1.00  0.00     0.006 C 
BRANCH  20  21
ATOM     21  C   UNL     1      61.527  26.728  62.546  1.00  0.00     0.053 C 
BRANCH  21  22
ATOM     22  C   UNL     1      60.317  25.906  62.864  1.00  0.00     0.041 C 
ATOM     23  O   UNL     1      59.168  26.324  62.564  1.00  0.00    -0.550 OA
ATOM     24  O   UNL     1      60.463  24.658  63.461  1.00  0.00    -0.550 OA
ENDBRANCH  21  22
ENDBRANCH  20  21
ENDBRANCH  19  20
ENDBRANCH  18  19
ENDBRANCH  17  18
ENDBRANCH  16  17
ENDBRANCH  15  16
ENDBRANCH  14  15
ENDBRANCH  13  14
ENDBRANCH   1  13
TORSDOF 20
ENDMDL
MODEL 4
REMARK VINA RESULT:    -3.046      4.185      7.300
REMARK INTER + INTRA:         -10.395
REMARK INTER:                  -7.891
REMARK INTRA:                  -2.504
REMARK UNBOUND:                -3.788
REMARK SMILES CCCCCCCCCCCCCCCCCCCCCC(=O)[O-]
REMARK SMILES IDX 12 1 11 2 10 3 9 4 8 5 7 6 6 7 5 8 4 9 3 10 2 11 1 12 13 13
REMARK SMILES IDX 14 14 15 15 16 16 17 17 18 18 19 19 20 20 21 21 22 22 23 23
REMARK SMILES IDX 24 24
REMARK H PARENT
REMARK Flexibility Score: inf
ROOT
ATOM      1  C   UNL     1      64.685  30.189  59.018  1.00  0.00     0.000 C 
ENDROOT
BRANCH   1   2
ATOM      2  C   UNL     1      65.692  30.315  60.173  1.00  0.00     0.000 C 
BRANCH   2   3
ATOM      3  C   UNL     1      65.814  29.025  61.001  1.00  0.00     0.000 C 
BRANCH   3   4
ATOM      4  C   UNL     1      67.220  28.389  60.962  1.00  0.00    -0.000 C 
BRANCH   4   5
ATOM      5  C   UNL     1      68.246  29.205  61.767  1.00  0.00    -0.000 C 
BRANCH   5   6
ATOM      6  C   UNL     1      69.545  29.466  60.987  1.00  0.00    -0.000 C 
BRANCH   6   7
ATOM      7  C   UNL     1      70.468  30.471  61.693  1.00  0.00    -0.000 C 
BRANCH   7   8
ATOM      8  C   UNL     1      71.935  30.243  61.301  1.00  0.00    -0.000 C 
BRANCH   8   9
ATOM      9  C   UNL     1      72.503  31.388  60.446  1.00  0.00    -0.000 C 
BRANCH   9  10
ATOM     10  C   UNL     1      71.675  32.680  60.560  1.00  0.00    -0.000 C 
BRANCH  10  11
ATOM     11  C   UNL     1      71.287  33.253  59.187  1.00  0.00    -0.003 C 
ATOM     12  C   UNL     1      70.104  32.519  58.553  1.00  0.00     0.004 C 
ENDBRANCH  10  11
ENDBRANCH   9  10
ENDBRANCH   8   9
ENDBRANCH   7   8
ENDBRANCH   6   7
ENDBRANCH   5   6
ENDBRANCH   4   5
ENDBRANCH   3   4
ENDBRANCH   2   3
ENDBRANCH   1   2
BRANCH   1  13
ATOM     13  C   UNL     1      64.561  28.749  58.486  1.00  0.00     0.000 C 
BRANCH  13  14
ATOM     14  C   UNL     1      63.184  28.083  58.693  1.00  0.00     0.000 C 
BRANCH  14  15
ATOM     15  C   UNL     1      61.984  29.046  58.746  1.00  0.00     0.000 C 
BRANCH  15  16
ATOM     16  C   UNL     1      61.159  28.901  60.037  1.00  0.00     0.000 C 
BRANCH  16  17
ATOM     17  C   UNL     1      62.029  28.954  61.303  1.00  0.00     0.000 C 
BRANCH  17  18
ATOM     18  C   UNL     1      62.168  30.374  61.875  1.00  0.00     0.000 C 
BRANCH  18  19
ATOM     19  C   UNL     1      60.881  31.183  61.648  1.00  0.00     0.000 C 
BRANCH  19  20
ATOM     20  C   UNL     1      61.141  32.527  60.948  1.00  0.00     0.006 C 
BRANCH  20  21
ATOM     21  C   UNL     1      62.629  32.767  60.665  1.00  0.00     0.053 C 
BRANCH  21  22
ATOM     22  C   UNL     1      62.972  34.211  60.867  1.00  0.00     0.041 C 
ATOM     23  O   UNL     1      64.150  34.549  61.158  1.00  0.00    -0.550 OA
ATOM     24  O   UNL     1      61.997  35.187  60.697  1.00  0.00    -0.550 OA
ENDBRANCH  21  22
ENDBRANCH  20  21
ENDBRANCH  19  20
ENDBRANCH  18  19
ENDBRANCH  17  18
ENDBRANCH  16  17
ENDBRANCH  15  16
ENDBRANCH  14  15
ENDBRANCH  13  14
ENDBRANCH   1  13
TORSDOF 20
ENDMDL
MODEL 5
REMARK VINA RESULT:    -2.982     10.050     12.654
REMARK INTER + INTRA:         -10.257
REMARK INTER:                  -6.565
REMARK INTRA:                  -3.692
REMARK UNBOUND:                -3.788
REMARK SMILES CCCCCCCCCCCCCCCCCCCCCC(=O)[O-]
REMARK SMILES IDX 12 1 11 2 10 3 9 4 8 5 7 6 6 7 5 8 4 9 3 10 2 11 1 12 13 13
REMARK SMILES IDX 14 14 15 15 16 16 17 17 18 18 19 19 20 20 21 21 22 22 23 23
REMARK SMILES IDX 24 24
REMARK H PARENT
REMARK Flexibility Score: inf
ROOT
ATOM      1  C   UNL     1      57.633  28.890  52.406  1.00  0.00     0.000 C 
ENDROOT
BRANCH   1   2
ATOM      2  C   UNL     1      58.124  27.513  52.881  1.00  0.00     0.000 C 
BRANCH   2   3
ATOM      3  C   UNL     1      57.030  26.434  52.814  1.00  0.00     0.000 C 
BRANCH   3   4
ATOM      4  C   UNL     1      56.682  25.986  51.378  1.00  0.00    -0.000 C 
BRANCH   4   5
ATOM      5  C   UNL     1      55.183  26.147  51.069  1.00  0.00    -0.000 C 
BRANCH   5   6
ATOM      6  C   UNL     1      54.924  26.900  49.753  1.00  0.00    -0.000 C 
BRANCH   6   7
ATOM      7  C   UNL     1      53.894  28.028  49.911  1.00  0.00    -0.000 C 
BRANCH   7   8
ATOM      8  C   UNL     1      54.551  29.304  50.458  1.00  0.00    -0.000 C 
BRANCH   8   9
ATOM      9  C   UNL     1      53.758  29.927  51.618  1.00  0.00    -0.000 C 
BRANCH   9  10
ATOM     10  C   UNL     1      53.127  28.869  52.541  1.00  0.00    -0.000 C 
BRANCH  10  11
ATOM     11  C   UNL     1      54.048  28.485  53.711  1.00  0.00    -0.003 C 
ATOM     12  C   UNL     1      54.666  29.702  54.401  1.00  0.00     0.004 C 
ENDBRANCH  10  11
ENDBRANCH   9  10
ENDBRANCH   8   9
ENDBRANCH   7   8
ENDBRANCH   6   7
ENDBRANCH   5   6
ENDBRANCH   4   5
ENDBRANCH   3   4
ENDBRANCH   2   3
ENDBRANCH   1   2
BRANCH   1  13
ATOM     13  C   UNL     1      58.547  29.516  51.336  1.00  0.00     0.000 C 
BRANCH  13  14
ATOM     14  C   UNL     1      58.099  29.301  49.874  1.00  0.00     0.000 C 
BRANCH  14  15
ATOM     15  C   UNL     1      59.118  28.589  48.967  1.00  0.00     0.000 C 
BRANCH  15  16
ATOM     16  C   UNL     1      59.345  27.119  49.361  1.00  0.00     0.000 C 
BRANCH  16  17
ATOM     17  C   UNL     1      60.743  26.875  49.953  1.00  0.00     0.000 C 
BRANCH  17  18
ATOM     18  C   UNL     1      61.797  27.860  49.423  1.00  0.00     0.000 C 
BRANCH  18  19
ATOM     19  C   UNL     1      62.414  28.672  50.573  1.00  0.00     0.000 C 
BRANCH  19  20
ATOM     20  C   UNL     1      62.882  30.069  50.129  1.00  0.00     0.006 C 
BRANCH  20  21
ATOM     21  C   UNL     1      61.718  31.054  49.960  1.00  0.00     0.053 C 
BRANCH  21  22
ATOM     22  C   UNL     1      62.239  32.442  49.742  1.00  0.00     0.041 C 
ATOM     23  O   UNL     1      63.014  32.685  48.780  1.00  0.00    -0.550 OA
ATOM     24  O   UNL     1      61.836  33.475  50.581  1.00  0.00    -0.550 OA
ENDBRANCH  21  22
ENDBRANCH  20  21
ENDBRANCH  19  20
ENDBRANCH  18  19
ENDBRANCH  17  18
ENDBRANCH  16  17
ENDBRANCH  15  16
ENDBRANCH  14  15
ENDBRANCH  13  14
ENDBRANCH   1  13
TORSDOF 20
ENDMDL
MODEL 6
REMARK VINA RESULT:    -2.979      2.778      5.114
REMARK INTER + INTRA:         -10.250
REMARK INTER:                  -6.820
REMARK INTRA:                  -3.431
REMARK UNBOUND:                -3.788
REMARK SMILES CCCCCCCCCCCCCCCCCCCCCC(=O)[O-]
REMARK SMILES IDX 12 1 11 2 10 3 9 4 8 5 7 6 6 7 5 8 4 9 3 10 2 11 1 12 13 13
REMARK SMILES IDX 14 14 15 15 16 16 17 17 18 18 19 19 20 20 21 21 22 22 23 23
REMARK SMILES IDX 24 24
REMARK H PARENT
REMARK Flexibility Score: inf
ROOT
ATOM      1  C   UNL     1      63.989  35.569  61.382  1.00  0.00     0.000 C 
ENDROOT
BRANCH   1   2
ATOM      2  C   UNL     1      63.051  36.387  60.479  1.00  0.00     0.000 C 
BRANCH   2   3
ATOM      3  C   UNL     1      61.746  36.790  61.186  1.00  0.00     0.000 C 
BRANCH   3   4
ATOM      4  C   UNL     1      60.469  36.394  60.414  1.00  0.00    -0.000 C 
BRANCH   4   5
ATOM      5  C   UNL     1      60.753  36.132  58.924  1.00  0.00    -0.000 C 
BRANCH   5   6
ATOM      6  C   UNL     1      59.482  35.796  58.126  1.00  0.00    -0.000 C 
BRANCH   6   7
ATOM      7  C   UNL     1      59.515  34.381  57.529  1.00  0.00    -0.000 C 
BRANCH   7   8
ATOM      8  C   UNL     1      58.128  33.964  57.019  1.00  0.00    -0.000 C 
BRANCH   8   9
ATOM      9  C   UNL     1      57.744  32.538  57.446  1.00  0.00    -0.000 C 
BRANCH   9  10
ATOM     10  C   UNL     1      58.790  31.896  58.374  1.00  0.00    -0.000 C 
BRANCH  10  11
ATOM     11  C   UNL     1      59.461  30.665  57.742  1.00  0.00    -0.003 C 
ATOM     12  C   UNL     1      59.348  29.415  58.617  1.00  0.00     0.004 C 
ENDBRANCH  10  11
ENDBRANCH   9  10
ENDBRANCH   8   9
ENDBRANCH   7   8
ENDBRANCH   6   7
ENDBRANCH   5   6
ENDBRANCH   4   5
ENDBRANCH   3   4
ENDBRANCH   2   3
ENDBRANCH   1   2
BRANCH   1  13
ATOM     13  C   UNL     1      63.771  34.050  61.255  1.00  0.00     0.000 C 
BRANCH  13  14
ATOM     14  C   UNL     1      63.506  33.536  59.823  1.00  0.00     0.000 C 
BRANCH  14  15
ATOM     15  C   UNL     1      62.187  32.768  59.629  1.00  0.00     0.000 C 
BRANCH  15  16
ATOM     16  C   UNL     1      61.270  32.832  60.863  1.00  0.00     0.000 C 
BRANCH  16  17
ATOM     17  C   UNL     1      60.879  31.438  61.380  1.00  0.00     0.000 C 
BRANCH  17  18
ATOM     18  C   UNL     1      62.083  30.625  61.880  1.00  0.00     0.000 C 
BRANCH  18  19
ATOM     19  C   UNL     1      62.323  29.397  60.986  1.00  0.00     0.000 C 
BRANCH  19  20
ATOM     20  C   UNL     1      63.787  28.927  61.004  1.00  0.00     0.006 C 
BRANCH  20  21
ATOM     21  C   UNL     1      64.779  30.079  60.798  1.00  0.00     0.053 C 
BRANCH  21  22
ATOM     22  C   UNL     1      66.164  29.545  60.604  1.00  0.00     0.041 C 
ATOM     23  O   UNL     1      66.728  28.895  61.524  1.00  0.00    -0.550 OA
ATOM     24  O   UNL     1      66.819  29.733  59.392  1.00  0.00    -0.550 OA
ENDBRANCH  21  22
ENDBRANCH  20  21
ENDBRANCH  19  20
ENDBRANCH  18  19
ENDBRANCH  17  18
ENDBRANCH  16  17
ENDBRANCH  15  16
ENDBRANCH  14  15
ENDBRANCH  13  14
ENDBRANCH   1  13
TORSDOF 20
ENDMDL
MODEL 7
REMARK VINA RESULT:    -2.958      9.206     12.144
REMARK INTER + INTRA:         -10.204
REMARK INTER:                  -6.324
REMARK INTRA:                  -3.880
REMARK UNBOUND:                -3.788
REMARK SMILES CCCCCCCCCCCCCCCCCCCCCC(=O)[O-]
REMARK SMILES IDX 12 1 11 2 10 3 9 4 8 5 7 6 6 7 5 8 4 9 3 10 2 11 1 12 13 13
REMARK SMILES IDX 14 14 15 15 16 16 17 17 18 18 19 19 20 20 21 21 22 22 23 23
REMARK SMILES IDX 24 24
REMARK H PARENT
REMARK Flexibility Score: inf
ROOT
ATOM      1  C   UNL     1      58.498  29.524  52.656  1.00  0.00     0.000 C 
ENDROOT
BRANCH   1   2
ATOM      2  C   UNL     1      59.214  29.892  51.347  1.00  0.00     0.000 C 
BRANCH   2   3
ATOM      3  C   UNL     1      58.369  29.589  50.099  1.00  0.00     0.000 C 
BRANCH   3   4
ATOM      4  C   UNL     1      59.167  28.942  48.946  1.00  0.00    -0.000 C 
BRANCH   4   5
ATOM      5  C   UNL     1      59.927  27.684  49.403  1.00  0.00    -0.000 C 
BRANCH   5   6
ATOM      6  C   UNL     1      59.030  26.437  49.471  1.00  0.00    -0.000 C 
BRANCH   6   7
ATOM      7  C   UNL     1      58.818  25.938  50.908  1.00  0.00    -0.000 C 
BRANCH   7   8
ATOM      8  C   UNL     1      57.327  25.939  51.278  1.00  0.00    -0.000 C 
BRANCH   8   9
ATOM      9  C   UNL     1      56.428  26.364  50.106  1.00  0.00    -0.000 C 
BRANCH   9  10
ATOM     10  C   UNL     1      55.461  27.500  50.483  1.00  0.00    -0.000 C 
BRANCH  10  11
ATOM     11  C   UNL     1      54.112  27.392  49.751  1.00  0.00    -0.003 C 
ATOM     12  C   UNL     1      53.852  25.990  49.197  1.00  0.00     0.004 C 
ENDBRANCH  10  11
ENDBRANCH   9  10
ENDBRANCH   8   9
ENDBRANCH   7   8
ENDBRANCH   6   7
ENDBRANCH   5   6
ENDBRANCH   4   5
ENDBRANCH   3   4
ENDBRANCH   2   3
ENDBRANCH   1   2
BRANCH   1  13
ATOM     13  C   UNL     1      59.447  28.925  53.711  1.00  0.00     0.000 C 
BRANCH  13  14
ATOM     14  C   UNL     1      60.887  28.651  53.227  1.00  0.00     0.000 C 
BRANCH  14  15
ATOM     15  C   UNL     1      61.260  27.167  53.063  1.00  0.00     0.000 C 
BRANCH  15  16
ATOM     16  C   UNL     1      62.435  26.949  52.094  1.00  0.00     0.000 C 
BRANCH  16  17
ATOM     17  C   UNL     1      63.054  28.271  51.609  1.00  0.00     0.000 C 
BRANCH  17  18
ATOM     18  C   UNL     1      63.323  28.286  50.096  1.00  0.00     0.000 C 
BRANCH  18  19
ATOM     19  C   UNL     1      63.444  29.727  49.576  1.00  0.00     0.000 C 
BRANCH  19  20
ATOM     20  C   UNL     1      62.685  30.739  50.452  1.00  0.00     0.006 C 
BRANCH  20  21
ATOM     21  C   UNL     1      61.848  31.723  49.625  1.00  0.00     0.053 C 
BRANCH  21  22
ATOM     22  C   UNL     1      62.509  33.066  49.587  1.00  0.00     0.041 C 
ATOM     23  O   UNL     1      63.422  33.300  48.752  1.00  0.00    -0.550 OA
ATOM     24  O   UNL     1      62.090  34.072  50.451  1.00  0.00    -0.550 OA
ENDBRANCH  21  22
ENDBRANCH  20  21
ENDBRANCH  19  20
ENDBRANCH  18  19
ENDBRANCH  17  18
ENDBRANCH  16  17
ENDBRANCH  15  16
ENDBRANCH  14  15
ENDBRANCH  13  14
ENDBRANCH   1  13
TORSDOF 20
ENDMDL
MODEL 8
REMARK VINA RESULT:    -2.944      8.866     12.094
REMARK INTER + INTRA:         -10.174
REMARK INTER:                  -6.341
REMARK INTRA:                  -3.832
REMARK UNBOUND:                -3.788
REMARK SMILES CCCCCCCCCCCCCCCCCCCCCC(=O)[O-]
REMARK SMILES IDX 12 1 11 2 10 3 9 4 8 5 7 6 6 7 5 8 4 9 3 10 2 11 1 12 13 13
REMARK SMILES IDX 14 14 15 15 16 16 17 17 18 18 19 19 20 20 21 21 22 22 23 23
REMARK SMILES IDX 24 24
REMARK H PARENT
REMARK Flexibility Score: inf
ROOT
ATOM      1  C   UNL     1      56.630  26.134  51.375  1.00  0.00     0.000 C 
ENDROOT
BRANCH   1   2
ATOM      2  C   UNL     1      56.249  26.248  49.890  1.00  0.00     0.000 C 
BRANCH   2   3
ATOM      3  C   UNL     1      54.736  26.418  49.674  1.00  0.00     0.000 C 
BRANCH   3   4
ATOM      4  C   UNL     1      54.078  27.428  50.638  1.00  0.00    -0.000 C 
BRANCH   4   5
ATOM      5  C   UNL     1      53.463  28.625  49.892  1.00  0.00    -0.000 C 
BRANCH   5   6
ATOM      6  C   UNL     1      53.937  29.979  50.445  1.00  0.00    -0.000 C 
BRANCH   6   7
ATOM      7  C   UNL     1      53.280  30.331  51.789  1.00  0.00    -0.000 C 
BRANCH   7   8
ATOM      8  C   UNL     1      53.881  31.617  52.377  1.00  0.00    -0.000 C 
BRANCH   8   9
ATOM      9  C   UNL     1      53.954  31.586  53.913  1.00  0.00    -0.000 C 
BRANCH   9  10
ATOM     10  C   UNL     1      55.226  32.258  54.459  1.00  0.00    -0.000 C 
BRANCH  10  11
ATOM     11  C   UNL     1      55.782  33.328  53.505  1.00  0.00    -0.003 C 
ATOM     12  C   UNL     1      57.285  33.178  53.260  1.00  0.00     0.004 C 
ENDBRANCH  10  11
ENDBRANCH   9  10
ENDBRANCH   8   9
ENDBRANCH   7   8
ENDBRANCH   6   7
ENDBRANCH   5   6
ENDBRANCH   4   5
ENDBRANCH   3   4
ENDBRANCH   2   3
ENDBRANCH   1   2
BRANCH   1  13
ATOM     13  C   UNL     1      58.151  26.034  51.597  1.00  0.00     0.000 C 
BRANCH  13  14
ATOM     14  C   UNL     1      58.942  25.345  50.465  1.00  0.00     0.000 C 
BRANCH  14  15
ATOM     15  C   UNL     1      59.999  26.221  49.769  1.00  0.00     0.000 C 
BRANCH  15  16
ATOM     16  C   UNL     1      59.915  27.702  50.181  1.00  0.00     0.000 C 
BRANCH  16  17
ATOM     17  C   UNL     1      59.177  28.562  49.141  1.00  0.00     0.000 C 
BRANCH  17  18
ATOM     18  C   UNL     1      57.997  29.342  49.740  1.00  0.00     0.000 C 
BRANCH  18  19
ATOM     19  C   UNL     1      58.303  29.777  51.183  1.00  0.00     0.000 C 
BRANCH  19  20
ATOM     20  C   UNL     1      57.088  29.639  52.115  1.00  0.00     0.006 C 
BRANCH  20  21
ATOM     21  C   UNL     1      57.489  29.431  53.581  1.00  0.00     0.053 C 
BRANCH  21  22
ATOM     22  C   UNL     1      56.567  28.451  54.238  1.00  0.00     0.041 C 
ATOM     23  O   UNL     1      55.377  28.337  53.845  1.00  0.00    -0.550 OA
ATOM     24  O   UNL     1      57.036  27.635  55.263  1.00  0.00    -0.550 OA
ENDBRANCH  21  22
ENDBRANCH  20  21
ENDBRANCH  19  20
ENDBRANCH  18  19
ENDBRANCH  17  18
ENDBRANCH  16  17
ENDBRANCH  15  16
ENDBRANCH  14  15
ENDBRANCH  13  14
ENDBRANCH   1  13
TORSDOF 20
ENDMDL
MODEL 9
REMARK VINA RESULT:    -2.924     10.289     12.971
REMARK INTER + INTRA:         -10.132
REMARK INTER:                  -6.925
REMARK INTRA:                  -3.207
REMARK UNBOUND:                -3.788
REMARK SMILES CCCCCCCCCCCCCCCCCCCCCC(=O)[O-]
REMARK SMILES IDX 12 1 11 2 10 3 9 4 8 5 7 6 6 7 5 8 4 9 3 10 2 11 1 12 13 13
REMARK SMILES IDX 14 14 15 15 16 16 17 17 18 18 19 19 20 20 21 21 22 22 23 23
REMARK SMILES IDX 24 24
REMARK H PARENT
REMARK Flexibility Score: inf
ROOT
ATOM      1  C   UNL     1      59.263  29.288  49.595  1.00  0.00     0.000 C 
ENDROOT
BRANCH   1   2
ATOM      2  C   UNL     1      60.116  29.806  50.764  1.00  0.00     0.000 C 
BRANCH   2   3
ATOM      3  C   UNL     1      59.290  30.067  52.035  1.00  0.00     0.000 C 
BRANCH   3   4
ATOM      4  C   UNL     1      58.728  28.785  52.687  1.00  0.00    -0.000 C 
BRANCH   4   5
ATOM      5  C   UNL     1      57.281  28.972  53.177  1.00  0.00    -0.000 C 
BRANCH   5   6
ATOM      6  C   UNL     1      56.238  28.579  52.118  1.00  0.00    -0.000 C 
BRANCH   6   7
ATOM      7  C   UNL     1      55.535  27.253  52.445  1.00  0.00    -0.000 C 
BRANCH   7   8
ATOM      8  C   UNL     1      55.792  26.207  51.349  1.00  0.00    -0.000 C 
BRANCH   8   9
ATOM      9  C   UNL     1      55.520  26.752  49.937  1.00  0.00    -0.000 C 
BRANCH   9  10
ATOM     10  C   UNL     1      54.246  26.163  49.309  1.00  0.00    -0.000 C 
BRANCH  10  11
ATOM     11  C   UNL     1      52.980  26.940  49.705  1.00  0.00    -0.003 C 
ATOM     12  C   UNL     1      53.213  28.450  49.779  1.00  0.00     0.004 C 
ENDBRANCH  10  11
ENDBRANCH   9  10
ENDBRANCH   8   9
ENDBRANCH   7   8
ENDBRANCH   6   7
ENDBRANCH   5   6
ENDBRANCH   4   5
ENDBRANCH   3   4
ENDBRANCH   2   3
ENDBRANCH   1   2
BRANCH   1  13
ATOM     13  C   UNL     1      59.776  27.951  49.026  1.00  0.00     0.000 C 
BRANCH  13  14
ATOM     14  C   UNL     1      58.934  26.710  49.389  1.00  0.00     0.000 C 
BRANCH  14  15
ATOM     15  C   UNL     1      59.456  25.880  50.576  1.00  0.00     0.000 C 
BRANCH  15  16
ATOM     16  C   UNL     1      60.362  24.716  50.138  1.00  0.00     0.000 C 
BRANCH  16  17
ATOM     17  C   UNL     1      61.857  25.065  50.233  1.00  0.00     0.000 C 
BRANCH  17  18
ATOM     18  C   UNL     1      62.183  25.987  51.418  1.00  0.00     0.000 C 
BRANCH  18  19
ATOM     19  C   UNL     1      62.922  27.248  50.943  1.00  0.00     0.000 C 
BRANCH  19  20
ATOM     20  C   UNL     1      63.654  27.038  49.606  1.00  0.00     0.006 C 
BRANCH  20  21
ATOM     21  C   UNL     1      63.439  28.200  48.627  1.00  0.00     0.053 C 
BRANCH  21  22
ATOM     22  C   UNL     1      64.511  28.205  47.581  1.00  0.00     0.041 C 
ATOM     23  O   UNL     1      64.521  29.093  46.688  1.00  0.00    -0.550 OA
ATOM     24  O   UNL     1      65.520  27.249  47.616  1.00  0.00    -0.550 OA
ENDBRANCH  21  22
ENDBRANCH  20  21
ENDBRANCH  19  20
ENDBRANCH  18  19
ENDBRANCH  17  18
ENDBRANCH  16  17
ENDBRANCH  15  16
ENDBRANCH  14  15
ENDBRANCH  13  14
ENDBRANCH   1  13
TORSDOF 20
ENDMDL
