MODEL 1
REMARK VINA RESULT:    10.041      0.000      0.000
REMARK INTER + INTRA:          20.452
REMARK INTER:                  21.780
REMARK INTRA:                  -1.328
REMARK UNBOUND:                -1.328
REMARK SMILES CCCCCCCCCCCCCCCCCCCCCC(=O)[O-]
REMARK SMILES IDX 12 1 11 2 10 3 9 4 8 5 7 6 6 7 5 8 4 9 3 10 2 11 1 12 13 13
REMARK SMILES IDX 14 14 15 15 16 16 17 17 18 18 19 19 20 20 21 21 22 22 23 23
REMARK SMILES IDX 24 24
REMARK H PARENT
REMARK Flexibility Score: inf
ROOT
ATOM      1  C   UNL     1      58.235  -6.184   1.043  1.00  0.00     0.000 C 
ENDROOT
BRANCH   1   2
ATOM      2  C   UNL     1      58.850  -6.416  -0.345  1.00  0.00     0.000 C 
BRANCH   2   3
ATOM      3  C   UNL     1      59.125  -5.079  -1.054  1.00  0.00     0.000 C 
BRANCH   3   4
ATOM      4  C   UNL     1      58.314  -4.923  -2.352  1.00  0.00    -0.000 C 
BRANCH   4   5
ATOM      5  C   UNL     1      58.716  -5.955  -3.421  1.00  0.00    -0.000 C 
BRANCH   5   6
ATOM      6  C   UNL     1      59.125  -5.292  -4.749  1.00  0.00    -0.000 C 
BRANCH   6   7
ATOM      7  C   UNL     1      58.935  -3.759  -4.762  1.00  0.00    -0.000 C 
BRANCH   7   8
ATOM      8  C   UNL     1      58.913  -3.148  -6.177  1.00  0.00    -0.000 C 
BRANCH   8   9
ATOM      9  C   UNL     1      57.581  -2.484  -6.571  1.00  0.00    -0.000 C 
BRANCH   9  10
ATOM     10  C   UNL     1      57.745  -1.001  -6.940  1.00  0.00    -0.000 C 
BRANCH  10  11
ATOM     11  C   UNL     1      58.703  -0.300  -5.969  1.00  0.00    -0.003 C 
ATOM     12  C   UNL     1      58.686   1.212  -6.170  1.00  0.00     0.004 C 
ENDBRANCH  10  11
ENDBRANCH   9  10
ENDBRANCH   8   9
ENDBRANCH   7   8
ENDBRANCH   6   7
ENDBRANCH   5   6
ENDBRANCH   4   5
ENDBRANCH   3   4
ENDBRANCH   2   3
ENDBRANCH   1   2
BRANCH   1  13
ATOM     13  C   UNL     1      57.294  -4.969   1.085  1.00  0.00     0.000 C 
BRANCH  13  14
ATOM     14  C   UNL     1      55.970  -5.265   1.807  1.00  0.00     0.000 C 
BRANCH  14  15
ATOM     15  C   UNL     1      54.757  -4.625   1.109  1.00  0.00     0.000 C 
BRANCH  15  16
ATOM     16  C   UNL     1      55.038  -3.287   0.394  1.00  0.00     0.000 C 
BRANCH  16  17
ATOM     17  C   UNL     1      53.855  -2.303   0.342  1.00  0.00     0.000 C 
BRANCH  17  18
ATOM     18  C   UNL     1      54.134  -1.081  -0.548  1.00  0.00     0.000 C 
BRANCH  18  19
ATOM     19  C   UNL     1      52.897  -0.610  -1.334  1.00  0.00     0.000 C 
BRANCH  19  20
ATOM     20  C   UNL     1      52.359  -1.610  -2.375  1.00  0.00     0.006 C 
BRANCH  20  21
ATOM     21  C   UNL     1      51.829  -0.929  -3.646  1.00  0.00     0.053 C 
BRANCH  21  22
ATOM     22  C   UNL     1      51.906  -1.858  -4.819  1.00  0.00     0.041 C 
ATOM     23  O   UNL     1      51.306  -1.579  -5.893  1.00  0.00    -0.550 OA
ATOM     24  O   UNL     1      52.636  -3.037  -4.724  1.00  0.00    -0.550 OA
ENDBRANCH  21  22
ENDBRANCH  20  21
ENDBRANCH  19  20
ENDBRANCH  18  19
ENDBRANCH  17  18
ENDBRANCH  16  17
ENDBRANCH  15  16
ENDBRANCH  14  15
ENDBRANCH  13  14
ENDBRANCH   1  13
TORSDOF 20
ENDMDL
MODEL 2
REMARK VINA RESULT:    11.864      2.517      7.611
REMARK INTER + INTRA:          24.408
REMARK INTER:                  25.508
REMARK INTRA:                  -1.100
REMARK UNBOUND:                -1.328
REMARK SMILES CCCCCCCCCCCCCCCCCCCCCC(=O)[O-]
REMARK SMILES IDX 12 1 11 2 10 3 9 4 8 5 7 6 6 7 5 8 4 9 3 10 2 11 1 12 13 13
REMARK SMILES IDX 14 14 15 15 16 16 17 17 18 18 19 19 20 20 21 21 22 22 23 23
REMARK SMILES IDX 24 24
REMARK H PARENT
REMARK Flexibility Score: inf
ROOT
ATOM      1  C   UNL     1      57.501  -0.857  -5.071  1.00  0.00     0.000 C 
ENDROOT
BRANCH   1   2
ATOM      2  C   UNL     1      57.275  -0.210  -6.446  1.00  0.00     0.000 C 
BRANCH   2   3
ATOM      3  C   UNL     1      55.782  -0.211  -6.815  1.00  0.00     0.000 C 
BRANCH   3   4
ATOM      4  C   UNL     1      55.021  -1.390  -6.184  1.00  0.00    -0.000 C 
BRANCH   4   5
ATOM      5  C   UNL     1      53.776  -0.932  -5.404  1.00  0.00    -0.000 C 
BRANCH   5   6
ATOM      6  C   UNL     1      52.700  -2.030  -5.322  1.00  0.00    -0.000 C 
BRANCH   6   7
ATOM      7  C   UNL     1      51.703  -1.836  -4.157  1.00  0.00    -0.000 C 
BRANCH   7   8
ATOM      8  C   UNL     1      52.216  -0.890  -3.053  1.00  0.00    -0.000 C 
BRANCH   8   9
ATOM      9  C   UNL     1      53.450  -1.403  -2.289  1.00  0.00    -0.000 C 
BRANCH   9  10
ATOM     10  C   UNL     1      54.026  -0.356  -1.323  1.00  0.00    -0.000 C 
BRANCH  10  11
ATOM     11  C   UNL     1      54.114  -0.918   0.101  1.00  0.00    -0.003 C 
ATOM     12  C   UNL     1      53.609  -2.357   0.160  1.00  0.00     0.004 C 
ENDBRANCH  10  11
ENDBRANCH   9  10
ENDBRANCH   8   9
ENDBRANCH   7   8
ENDBRANCH   6   7
ENDBRANCH   5   6
ENDBRANCH   4   5
ENDBRANCH   3   4
ENDBRANCH   2   3
ENDBRANCH   1   2
BRANCH   1  13
ATOM     13  C   UNL     1      58.570  -1.961  -5.097  1.00  0.00     0.000 C 
BRANCH  13  14
ATOM     14  C   UNL     1      57.976  -3.370  -4.942  1.00  0.00     0.000 C 
BRANCH  14  15
ATOM     15  C   UNL     1      58.440  -4.071  -3.653  1.00  0.00     0.000 C 
BRANCH  15  16
ATOM     16  C   UNL     1      58.925  -5.524  -3.831  1.00  0.00     0.000 C 
BRANCH  16  17
ATOM     17  C   UNL     1      59.125  -6.319  -2.528  1.00  0.00     0.000 C 
BRANCH  17  18
ATOM     18  C   UNL     1      59.000  -5.443  -1.270  1.00  0.00     0.000 C 
BRANCH  18  19
ATOM     19  C   UNL     1      59.120  -6.244   0.039  1.00  0.00     0.000 C 
BRANCH  19  20
ATOM     20  C   UNL     1      58.290  -5.704   1.219  1.00  0.00     0.006 C 
BRANCH  20  21
ATOM     21  C   UNL     1      57.120  -6.621   1.603  1.00  0.00     0.053 C 
BRANCH  21  22
ATOM     22  C   UNL     1      55.809  -5.997   1.233  1.00  0.00     0.041 C 
ATOM     23  O   UNL     1      54.772  -6.707   1.125  1.00  0.00    -0.550 OA
ATOM     24  O   UNL     1      55.733  -4.629   1.002  1.00  0.00    -0.550 OA
ENDBRANCH  21  22
ENDBRANCH  20  21
ENDBRANCH  19  20
ENDBRANCH  18  19
ENDBRANCH  17  18
ENDBRANCH  16  17
ENDBRANCH  15  16
ENDBRANCH  14  15
ENDBRANCH  13  14
ENDBRANCH   1  13
TORSDOF 20
ENDMDL
MODEL 3
REMARK VINA RESULT:    12.456      3.849      7.209
REMARK INTER + INTRA:          25.692
REMARK INTER:                  25.559
REMARK INTRA:                   0.132
REMARK UNBOUND:                -1.328
REMARK SMILES CCCCCCCCCCCCCCCCCCCCCC(=O)[O-]
REMARK SMILES IDX 12 1 11 2 10 3 9 4 8 5 7 6 6 7 5 8 4 9 3 10 2 11 1 12 13 13
REMARK SMILES IDX 14 14 15 15 16 16 17 17 18 18 19 19 20 20 21 21 22 22 23 23
REMARK SMILES IDX 24 24
REMARK H PARENT
REMARK Flexibility Score: inf
ROOT
ATOM      1  C   UNL     1      52.769  -0.815  -2.095  1.00  0.00     0.000 C 
ENDROOT
BRANCH   1   2
ATOM      2  C   UNL     1      52.480  -1.048  -3.586  1.00  0.00     0.000 C 
BRANCH   2   3
ATOM      3  C   UNL     1      53.692  -0.656  -4.448  1.00  0.00     0.000 C 
BRANCH   3   4
ATOM      4  C   UNL     1      54.558  -1.868  -4.831  1.00  0.00    -0.000 C 
BRANCH   4   5
ATOM      5  C   UNL     1      55.848  -1.457  -5.562  1.00  0.00    -0.000 C 
BRANCH   5   6
ATOM      6  C   UNL     1      55.938   0.064  -5.783  1.00  0.00    -0.000 C 
BRANCH   6   7
ATOM      7  C   UNL     1      56.936   0.473  -6.890  1.00  0.00    -0.000 C 
BRANCH   7   8
ATOM      8  C   UNL     1      58.332  -0.159  -6.730  1.00  0.00    -0.000 C 
BRANCH   8   9
ATOM      9  C   UNL     1      58.379  -1.388  -5.803  1.00  0.00    -0.000 C 
BRANCH   9  10
ATOM     10  C   UNL     1      58.949  -2.634  -6.500  1.00  0.00    -0.000 C 
BRANCH  10  11
ATOM     11  C   UNL     1      59.121  -3.786  -5.502  1.00  0.00    -0.003 C 
ATOM     12  C   UNL     1      58.543  -3.426  -4.137  1.00  0.00     0.004 C 
ENDBRANCH  10  11
ENDBRANCH   9  10
ENDBRANCH   8   9
ENDBRANCH   7   8
ENDBRANCH   6   7
ENDBRANCH   5   6
ENDBRANCH   4   5
ENDBRANCH   3   4
ENDBRANCH   2   3
ENDBRANCH   1   2
BRANCH   1  13
ATOM     13  C   UNL     1      53.952  -1.649  -1.578  1.00  0.00     0.000 C 
BRANCH  13  14
ATOM     14  C   UNL     1      54.059  -1.644  -0.045  1.00  0.00     0.000 C 
BRANCH  14  15
ATOM     15  C   UNL     1      53.844  -3.038   0.570  1.00  0.00     0.000 C 
BRANCH  15  16
ATOM     16  C   UNL     1      55.129  -3.773   1.003  1.00  0.00     0.000 C 
BRANCH  16  17
ATOM     17  C   UNL     1      55.139  -5.292   0.751  1.00  0.00     0.000 C 
BRANCH  17  18
ATOM     18  C   UNL     1      56.110  -6.044   1.677  1.00  0.00     0.000 C 
BRANCH  18  19
ATOM     19  C   UNL     1      57.587  -5.853   1.288  1.00  0.00     0.000 C 
BRANCH  19  20
ATOM     20  C   UNL     1      58.597  -6.023   2.439  1.00  0.00     0.006 C 
BRANCH  20  21
ATOM     21  C   UNL     1      58.152  -7.058   3.483  1.00  0.00     0.053 C 
BRANCH  21  22
ATOM     22  C   UNL     1      58.021  -6.428   4.836  1.00  0.00     0.041 C 
ATOM     23  O   UNL     1      57.640  -7.113   5.825  1.00  0.00    -0.550 OA
ATOM     24  O   UNL     1      58.314  -5.080   5.004  1.00  0.00    -0.550 OA
ENDBRANCH  21  22
ENDBRANCH  20  21
ENDBRANCH  19  20
ENDBRANCH  18  19
ENDBRANCH  17  18
ENDBRANCH  16  17
ENDBRANCH  15  16
ENDBRANCH  14  15
ENDBRANCH  13  14
ENDBRANCH   1  13
TORSDOF 20
ENDMDL
MODEL 4
REMARK VINA RESULT:    12.825      3.663      8.186
REMARK INTER + INTRA:          26.493
REMARK INTER:                  24.826
REMARK INTRA:                   1.667
REMARK UNBOUND:                -1.328
REMARK SMILES CCCCCCCCCCCCCCCCCCCCCC(=O)[O-]
REMARK SMILES IDX 12 1 11 2 10 3 9 4 8 5 7 6 6 7 5 8 4 9 3 10 2 11 1 12 13 13
REMARK SMILES IDX 14 14 15 15 16 16 17 17 18 18 19 19 20 20 21 21 22 22 23 23
REMARK SMILES IDX 24 24
REMARK H PARENT
REMARK Flexibility Score: inf
ROOT
ATOM      1  C   UNL     1      57.740  -0.838  -5.119  1.00  0.00     0.000 C 
ENDROOT
BRANCH   1   2
ATOM      2  C   UNL     1      57.394  -0.089  -6.414  1.00  0.00     0.000 C 
BRANCH   2   3
ATOM      3  C   UNL     1      55.877  -0.098  -6.666  1.00  0.00     0.000 C 
BRANCH   3   4
ATOM      4  C   UNL     1      55.183  -1.315  -6.032  1.00  0.00    -0.000 C 
BRANCH   4   5
ATOM      5  C   UNL     1      53.686  -1.068  -5.776  1.00  0.00    -0.000 C 
BRANCH   5   6
ATOM      6  C   UNL     1      52.834  -2.328  -6.018  1.00  0.00    -0.000 C 
BRANCH   6   7
ATOM      7  C   UNL     1      51.320  -2.104  -5.799  1.00  0.00    -0.000 C 
BRANCH   7   8
ATOM      8  C   UNL     1      50.992  -1.251  -4.559  1.00  0.00    -0.000 C 
BRANCH   8   9
ATOM      9  C   UNL     1      50.864  -2.046  -3.247  1.00  0.00    -0.000 C 
BRANCH   9  10
ATOM     10  C   UNL     1      51.964  -1.696  -2.232  1.00  0.00    -0.000 C 
BRANCH  10  11
ATOM     11  C   UNL     1      52.634  -0.365  -2.591  1.00  0.00    -0.003 C 
ATOM     12  C   UNL     1      53.827  -0.579  -3.518  1.00  0.00     0.004 C 
ENDBRANCH  10  11
ENDBRANCH   9  10
ENDBRANCH   8   9
ENDBRANCH   7   8
ENDBRANCH   6   7
ENDBRANCH   5   6
ENDBRANCH   4   5
ENDBRANCH   3   4
ENDBRANCH   2   3
ENDBRANCH   1   2
BRANCH   1  13
ATOM     13  C   UNL     1      58.649  -2.055  -5.356  1.00  0.00     0.000 C 
BRANCH  13  14
ATOM     14  C   UNL     1      57.975  -3.384  -4.978  1.00  0.00     0.000 C 
BRANCH  14  15
ATOM     15  C   UNL     1      58.853  -4.254  -4.060  1.00  0.00     0.000 C 
BRANCH  15  16
ATOM     16  C   UNL     1      58.858  -5.762  -4.388  1.00  0.00     0.000 C 
BRANCH  16  17
ATOM     17  C   UNL     1      58.920  -6.703  -3.172  1.00  0.00     0.000 C 
BRANCH  17  18
ATOM     18  C   UNL     1      59.120  -5.951  -1.845  1.00  0.00     0.000 C 
BRANCH  18  19
ATOM     19  C   UNL     1      58.367  -6.593  -0.666  1.00  0.00     0.000 C 
BRANCH  19  20
ATOM     20  C   UNL     1      58.745  -6.055   0.727  1.00  0.00     0.006 C 
BRANCH  20  21
ATOM     21  C   UNL     1      58.490  -7.068   1.853  1.00  0.00     0.053 C 
BRANCH  21  22
ATOM     22  C   UNL     1      58.014  -6.377   3.094  1.00  0.00     0.041 C 
ATOM     23  O   UNL     1      58.026  -5.117   3.167  1.00  0.00    -0.550 OA
ATOM     24  O   UNL     1      57.564  -7.125   4.175  1.00  0.00    -0.550 OA
ENDBRANCH  21  22
ENDBRANCH  20  21
ENDBRANCH  19  20
ENDBRANCH  18  19
ENDBRANCH  17  18
ENDBRANCH  16  17
ENDBRANCH  15  16
ENDBRANCH  14  15
ENDBRANCH  13  14
ENDBRANCH   1  13
TORSDOF 20
ENDMDL
