MODEL 1
REMARK VINA RESULT:    -5.077      0.000      0.000
REMARK INTER + INTRA:          -5.701
REMARK INTER:                  -5.522
REMARK INTRA:                  -0.179
REMARK UNBOUND:                -0.179
REMARK SMILES C=C(C)[C@@H]1CC[C@@H](C)C[C@@H]1O
REMARK SMILES IDX 8 1 7 2 6 3 5 4 4 5 10 6 9 7 11 8 2 10 1 11 3 12
REMARK H PARENT 11 9
REMARK Flexibility Score: inf
ROOT
ATOM      1  C   UNL     1       3.791  48.125  46.883  1.00  0.00     0.008 C 
ATOM      2  C   UNL     1       3.284  47.194  47.991  1.00  0.00    -0.012 C 
ATOM      3  C   UNL     1       2.378  46.096  47.400  1.00  0.00     0.004 C 
ATOM      4  C   UNL     1       1.840  45.173  48.501  1.00  0.00     0.011 C 
ATOM      5  C   UNL     1       1.084  45.985  49.573  1.00  0.00     0.043 C 
ATOM      6  C   UNL     1       1.983  47.086  50.183  1.00  0.00     0.121 C 
ATOM      7  C   UNL     1       2.531  48.001  49.070  1.00  0.00     0.035 C 
ENDROOT
BRANCH   6   8
ATOM      8  O   UNL     1       3.046  46.516  50.902  1.00  0.00    -0.392 OA
ATOM      9  H   UNL     1       3.787  46.374  50.256  1.00  0.00     0.210 HD
ENDBRANCH   6   8
BRANCH   5  10
ATOM     10  C   UNL     1       0.469  45.093  50.647  1.00  0.00    -0.075 C 
ATOM     11  C   UNL     1       0.851  43.809  50.748  1.00  0.00     0.008 C 
ATOM     12  C   UNL     1      -0.605  45.592  51.583  1.00  0.00     0.039 C 
ENDBRANCH   5  10
TORSDOF 2
ENDMDL
MODEL 2
REMARK VINA RESULT:    -4.909      1.267      4.284
REMARK INTER + INTRA:          -5.518
REMARK INTER:                  -5.325
REMARK INTRA:                  -0.193
REMARK UNBOUND:                -0.179
REMARK SMILES C=C(C)[C@@H]1CC[C@@H](C)C[C@@H]1O
REMARK SMILES IDX 8 1 7 2 6 3 5 4 4 5 10 6 9 7 11 8 2 10 1 11 3 12
REMARK H PARENT 11 9
REMARK Flexibility Score: inf
ROOT
ATOM      1  C   UNL     1       0.001  43.247  51.389  1.00  0.00     0.008 C 
ATOM      2  C   UNL     1       0.426  44.542  50.687  1.00  0.00    -0.012 C 
ATOM      3  C   UNL     1      -0.151  44.595  49.259  1.00  0.00     0.004 C 
ATOM      4  C   UNL     1       0.289  45.874  48.534  1.00  0.00     0.011 C 
ATOM      5  C   UNL     1       1.828  45.983  48.505  1.00  0.00     0.043 C 
ATOM      6  C   UNL     1       2.422  45.940  49.933  1.00  0.00     0.121 C 
ATOM      7  C   UNL     1       1.964  44.661  50.661  1.00  0.00     0.035 C 
ENDROOT
BRANCH   6   8
ATOM      8  O   UNL     1       2.033  47.074  50.666  1.00  0.00    -0.392 OA
ATOM      9  H   UNL     1       2.794  47.307  51.260  1.00  0.00     0.210 HD
ENDBRANCH   6   8
BRANCH   5  10
ATOM     10  C   UNL     1       2.307  47.205  47.726  1.00  0.00    -0.075 C 
ATOM     11  C   UNL     1       1.419  48.125  47.315  1.00  0.00     0.008 C 
ATOM     12  C   UNL     1       3.756  47.397  47.351  1.00  0.00     0.039 C 
ENDBRANCH   5  10
TORSDOF 2
ENDMDL
MODEL 3
REMARK VINA RESULT:    -4.709      1.356      2.034
REMARK INTER + INTRA:          -5.301
REMARK INTER:                  -5.135
REMARK INTRA:                  -0.166
REMARK UNBOUND:                -0.179
REMARK SMILES C=C(C)[C@@H]1CC[C@@H](C)C[C@@H]1O
REMARK SMILES IDX 8 1 7 2 6 3 5 4 4 5 10 6 9 7 11 8 2 10 1 11 3 12
REMARK H PARENT 11 9
REMARK Flexibility Score: inf
ROOT
ATOM      1  C   UNL     1       3.790  47.723  47.024  1.00  0.00     0.008 C 
ATOM      2  C   UNL     1       2.641  47.233  47.913  1.00  0.00    -0.012 C 
ATOM      3  C   UNL     1       2.989  47.433  49.401  1.00  0.00     0.004 C 
ATOM      4  C   UNL     1       1.859  46.921  50.305  1.00  0.00     0.011 C 
ATOM      5  C   UNL     1       1.555  45.438  50.011  1.00  0.00     0.043 C 
ATOM      6  C   UNL     1       1.195  45.222  48.522  1.00  0.00     0.121 C 
ATOM      7  C   UNL     1       2.327  45.751  47.620  1.00  0.00     0.035 C 
ENDROOT
BRANCH   6   8
ATOM      8  O   UNL     1      -0.012  45.867  48.205  1.00  0.00    -0.392 OA
ATOM      9  H   UNL     1      -0.329  46.310  49.036  1.00  0.00     0.210 HD
ENDBRANCH   6   8
BRANCH   5  10
ATOM     10  C   UNL     1       0.487  44.871  50.943  1.00  0.00    -0.075 C 
ATOM     11  C   UNL     1       0.412  43.545  51.142  1.00  0.00     0.008 C 
ATOM     12  C   UNL     1      -0.535  45.752  51.619  1.00  0.00     0.039 C 
ENDBRANCH   5  10
TORSDOF 2
ENDMDL
MODEL 4
REMARK VINA RESULT:    -3.899     24.230     25.542
REMARK INTER + INTRA:          -4.420
REMARK INTER:                  -4.288
REMARK INTRA:                  -0.132
REMARK UNBOUND:                -0.179
REMARK SMILES C=C(C)[C@@H]1CC[C@@H](C)C[C@@H]1O
REMARK SMILES IDX 8 1 7 2 6 3 5 4 4 5 10 6 9 7 11 8 2 10 1 11 3 12
REMARK H PARENT 11 9
REMARK Flexibility Score: inf
ROOT
ATOM      1  C   UNL     1      11.524  28.696  37.642  1.00  0.00     0.008 C 
ATOM      2  C   UNL     1      12.995  28.337  37.404  1.00  0.00    -0.012 C 
ATOM      3  C   UNL     1      13.746  28.224  38.745  1.00  0.00     0.004 C 
ATOM      4  C   UNL     1      15.227  27.891  38.522  1.00  0.00     0.011 C 
ATOM      5  C   UNL     1      15.892  28.945  37.613  1.00  0.00     0.043 C 
ATOM      6  C   UNL     1      15.155  29.065  36.258  1.00  0.00     0.121 C 
ATOM      7  C   UNL     1      13.665  29.384  36.490  1.00  0.00     0.035 C 
ENDROOT
BRANCH   6   8
ATOM      8  O   UNL     1      15.281  27.877  35.518  1.00  0.00    -0.392 OA
ATOM      9  H   UNL     1      16.198  27.532  35.683  1.00  0.00     0.210 HD
ENDBRANCH   6   8
BRANCH   5  10
ATOM     10  C   UNL     1      17.385  28.691  37.427  1.00  0.00    -0.075 C 
ATOM     11  C   UNL     1      18.033  27.875  38.275  1.00  0.00     0.008 C 
ATOM     12  C   UNL     1      18.184  29.371  36.342  1.00  0.00     0.039 C 
ENDBRANCH   5  10
TORSDOF 2
ENDMDL
MODEL 5
REMARK VINA RESULT:    -3.459      2.382      3.110
REMARK INTER + INTRA:          -3.941
REMARK INTER:                  -3.783
REMARK INTRA:                  -0.158
REMARK UNBOUND:                -0.179
REMARK SMILES C=C(C)[C@@H]1CC[C@@H](C)C[C@@H]1O
REMARK SMILES IDX 8 1 7 2 6 3 5 4 4 5 10 6 9 7 11 8 2 10 1 11 3 12
REMARK H PARENT 11 9
REMARK Flexibility Score: inf
ROOT
ATOM      1  C   UNL     1      -0.574  48.125  47.029  1.00  0.00     0.008 C 
ATOM      2  C   UNL     1      -0.479  46.830  47.844  1.00  0.00    -0.012 C 
ATOM      3  C   UNL     1      -0.766  47.108  49.332  1.00  0.00     0.004 C 
ATOM      4  C   UNL     1      -0.648  45.825  50.166  1.00  0.00     0.011 C 
ATOM      5  C   UNL     1       0.745  45.187  49.990  1.00  0.00     0.043 C 
ATOM      6  C   UNL     1       1.046  44.893  48.501  1.00  0.00     0.121 C 
ATOM      7  C   UNL     1       0.911  46.183  47.667  1.00  0.00     0.035 C 
ENDROOT
BRANCH   6   8
ATOM      8  O   UNL     1       0.176  43.908  48.004  1.00  0.00    -0.392 OA
ATOM      9  H   UNL     1       0.692  43.375  47.343  1.00  0.00     0.210 HD
ENDBRANCH   6   8
BRANCH   5  10
ATOM     10  C   UNL     1       0.929  43.948  50.862  1.00  0.00    -0.075 C 
ATOM     11  C   UNL     1       2.068  43.241  50.785  1.00  0.00     0.008 C 
ATOM     12  C   UNL     1      -0.157  43.451  51.784  1.00  0.00     0.039 C 
ENDBRANCH   5  10
TORSDOF 2
ENDMDL
MODEL 6
REMARK VINA RESULT:    -3.275      2.287      3.991
REMARK INTER + INTRA:          -3.740
REMARK INTER:                  -3.573
REMARK INTRA:                  -0.167
REMARK UNBOUND:                -0.179
REMARK SMILES C=C(C)[C@@H]1CC[C@@H](C)C[C@@H]1O
REMARK SMILES IDX 8 1 7 2 6 3 5 4 4 5 10 6 9 7 11 8 2 10 1 11 3 12
REMARK H PARENT 11 9
REMARK Flexibility Score: inf
ROOT
ATOM      1  C   UNL     1       2.517  42.592  50.250  1.00  0.00     0.008 C 
ATOM      2  C   UNL     1       2.018  43.995  49.886  1.00  0.00    -0.012 C 
ATOM      3  C   UNL     1       0.919  44.448  50.866  1.00  0.00     0.004 C 
ATOM      4  C   UNL     1       0.391  45.841  50.497  1.00  0.00     0.011 C 
ATOM      5  C   UNL     1      -0.132  45.859  49.046  1.00  0.00     0.043 C 
ATOM      6  C   UNL     1       0.962  45.415  48.048  1.00  0.00     0.121 C 
ATOM      7  C   UNL     1       1.499  44.022  48.432  1.00  0.00     0.035 C 
ENDROOT
BRANCH   6   8
ATOM      8  O   UNL     1       2.016  46.344  48.021  1.00  0.00    -0.392 OA
ATOM      9  H   UNL     1       1.722  47.095  47.441  1.00  0.00     0.210 HD
ENDBRANCH   6   8
BRANCH   5  10
ATOM     10  C   UNL     1      -0.736  47.208  48.666  1.00  0.00    -0.075 C 
ATOM     11  C   UNL     1      -0.978  48.123  49.619  1.00  0.00     0.008 C 
ATOM     12  C   UNL     1      -1.124  47.539  47.245  1.00  0.00     0.039 C 
ENDBRANCH   5  10
TORSDOF 2
ENDMDL
MODEL 7
REMARK VINA RESULT:    -2.872      2.492      3.838
REMARK INTER + INTRA:          -3.302
REMARK INTER:                  -3.359
REMARK INTRA:                   0.056
REMARK UNBOUND:                -0.179
REMARK SMILES C=C(C)[C@@H]1CC[C@@H](C)C[C@@H]1O
REMARK SMILES IDX 8 1 7 2 6 3 5 4 4 5 10 6 9 7 11 8 2 10 1 11 3 12
REMARK H PARENT 11 9
REMARK Flexibility Score: inf
ROOT
ATOM      1  C   UNL     1       2.644  42.699  50.346  1.00  0.00     0.008 C 
ATOM      2  C   UNL     1       1.493  43.648  49.993  1.00  0.00    -0.012 C 
ATOM      3  C   UNL     1       1.622  44.133  48.536  1.00  0.00     0.004 C 
ATOM      4  C   UNL     1       0.491  45.107  48.177  1.00  0.00     0.011 C 
ATOM      5  C   UNL     1       0.472  46.304  49.150  1.00  0.00     0.043 C 
ATOM      6  C   UNL     1       0.334  45.834  50.617  1.00  0.00     0.121 C 
ATOM      7  C   UNL     1       1.464  44.845  50.967  1.00  0.00     0.035 C 
ENDROOT
BRANCH   6   8
ATOM      8  O   UNL     1      -0.916  45.228  50.828  1.00  0.00    -0.392 OA
ATOM      9  H   UNL     1      -1.364  45.178  49.943  1.00  0.00     0.210 HD
ENDBRANCH   6   8
BRANCH   5  10
ATOM     10  C   UNL     1      -0.592  47.333  48.780  1.00  0.00    -0.075 C 
ATOM     11  C   UNL     1      -1.114  48.125  49.731  1.00  0.00     0.008 C 
ATOM     12  C   UNL     1      -1.124  47.464  47.374  1.00  0.00     0.039 C 
ENDBRANCH   5  10
TORSDOF 2
ENDMDL
