MODEL 1
REMARK VINA RESULT:    -3.924      0.000      0.000
REMARK INTER + INTRA:         -12.826
REMARK INTER:                 -10.348
REMARK INTRA:                  -2.477
REMARK UNBOUND:                -2.477
REMARK SMILES CCCCCCCCCCCCCCCCCCCCCCCCCCCCCC(=O)[O-]
REMARK SMILES IDX 16 1 17 2 18 3 19 4 20 5 21 6 22 7 23 8 24 9 25 10 26 11
REMARK SMILES IDX 27 12 28 13 29 14 30 15 31 16 32 17 15 18 14 19 13 20 12 21
REMARK SMILES IDX 11 22 10 23 9 24 8 25 7 26 6 27 5 28 4 29 3 30 2 31 1 32
REMARK H PARENT
REMARK Flexibility Score: inf
ROOT
ATOM      1  C   UNL     1       4.119  43.559   9.642  1.00  0.00     0.000 C 
ENDROOT
BRANCH   1   2
ATOM      2  C   UNL     1       3.181  42.809   8.675  1.00  0.00     0.000 C 
BRANCH   2   3
ATOM      3  C   UNL     1       1.675  42.998   8.943  1.00  0.00     0.000 C 
BRANCH   3   4
ATOM      4  C   UNL     1       1.141  44.417   8.675  1.00  0.00     0.000 C 
BRANCH   4   5
ATOM      5  C   UNL     1       0.346  44.521   7.365  1.00  0.00     0.000 C 
BRANCH   5   6
ATOM      6  C   UNL     1      -0.487  45.813   7.330  1.00  0.00     0.000 C 
BRANCH   6   7
ATOM      7  C   UNL     1      -1.086  46.171   8.705  1.00  0.00     0.000 C 
BRANCH   7   8
ATOM      8  C   UNL     1      -0.839  47.633   9.128  1.00  0.00     0.000 C 
BRANCH   8   9
ATOM      9  C   UNL     1      -0.385  48.574   7.995  1.00  0.00     0.000 C 
BRANCH   9  10
ATOM     10  C   UNL     1       1.105  48.964   8.033  1.00  0.00     0.000 C 
BRANCH  10  11
ATOM     11  C   UNL     1       1.962  47.966   8.826  1.00  0.00     0.000 C 
BRANCH  11  12
ATOM     12  C   UNL     1       3.360  47.827   8.204  1.00  0.00     0.000 C 
BRANCH  12  13
ATOM     13  C   UNL     1       4.169  46.670   8.815  1.00  0.00     0.006 C 
BRANCH  13  14
ATOM     14  C   UNL     1       5.115  47.134   9.933  1.00  0.00     0.053 C 
BRANCH  14  15
ATOM     15  C   UNL     1       6.258  47.922   9.372  1.00  0.00     0.041 C 
ATOM     16  O   UNL     1       7.446  47.555   9.579  1.00  0.00    -0.550 OA
ATOM     17  O   UNL     1       6.009  49.061   8.613  1.00  0.00    -0.550 OA
ENDBRANCH  14  15
ENDBRANCH  13  14
ENDBRANCH  12  13
ENDBRANCH  11  12
ENDBRANCH  10  11
ENDBRANCH   9  10
ENDBRANCH   8   9
ENDBRANCH   7   8
ENDBRANCH   6   7
ENDBRANCH   5   6
ENDBRANCH   4   5
ENDBRANCH   3   4
ENDBRANCH   2   3
ENDBRANCH   1   2
BRANCH   1  18
ATOM     18  C   UNL     1       4.196  42.970  11.062  1.00  0.00     0.000 C 
BRANCH  18  19
ATOM     19  C   UNL     1       4.051  44.033  12.162  1.00  0.00     0.000 C 
BRANCH  19  20
ATOM     20  C   UNL     1       2.586  44.460  12.319  1.00  0.00     0.000 C 
BRANCH  20  21
ATOM     21  C   UNL     1       1.638  43.262  12.171  1.00  0.00     0.000 C 
BRANCH  21  22
ATOM     22  C   UNL     1       0.174  43.707  12.284  1.00  0.00     0.000 C 
BRANCH  22  23
ATOM     23  C   UNL     1      -0.728  42.648  12.941  1.00  0.00     0.000 C 
BRANCH  23  24
ATOM     24  C   UNL     1      -0.064  41.917  14.128  1.00  0.00    -0.000 C 
BRANCH  24  25
ATOM     25  C   UNL     1      -0.264  40.392  14.058  1.00  0.00    -0.000 C 
BRANCH  25  26
ATOM     26  C   UNL     1       1.021  39.634  13.676  1.00  0.00    -0.000 C 
BRANCH  26  27
ATOM     27  C   UNL     1       2.135  40.502  13.062  1.00  0.00    -0.000 C 
BRANCH  27  28
ATOM     28  C   UNL     1       3.147  39.683  12.242  1.00  0.00    -0.000 C 
BRANCH  28  29
ATOM     29  C   UNL     1       3.284  38.229  12.731  1.00  0.00    -0.000 C 
BRANCH  29  30
ATOM     30  C   UNL     1       2.651  37.164  11.817  1.00  0.00    -0.000 C 
BRANCH  30  31
ATOM     31  C   UNL     1       1.151  36.961  12.076  1.00  0.00    -0.003 C 
ATOM     32  C   UNL     1       0.677  35.615  11.533  1.00  0.00     0.004 C 
ENDBRANCH  30  31
ENDBRANCH  29  30
ENDBRANCH  28  29
ENDBRANCH  27  28
ENDBRANCH  26  27
ENDBRANCH  25  26
ENDBRANCH  24  25
ENDBRANCH  23  24
ENDBRANCH  22  23
ENDBRANCH  21  22
ENDBRANCH  20  21
ENDBRANCH  19  20
ENDBRANCH  18  19
ENDBRANCH   1  18
TORSDOF 28
ENDMDL
MODEL 2
REMARK VINA RESULT:    -3.558      2.803      8.338
REMARK INTER + INTRA:         -11.859
REMARK INTER:                  -8.804
REMARK INTRA:                  -3.055
REMARK UNBOUND:                -2.477
REMARK SMILES CCCCCCCCCCCCCCCCCCCCCCCCCCCCCC(=O)[O-]
REMARK SMILES IDX 16 1 17 2 18 3 19 4 20 5 21 6 22 7 23 8 24 9 25 10 26 11
REMARK SMILES IDX 27 12 28 13 29 14 30 15 31 16 32 17 15 18 14 19 13 20 12 21
REMARK SMILES IDX 11 22 10 23 9 24 8 25 7 26 6 27 5 28 4 29 3 30 2 31 1 32
REMARK H PARENT
REMARK Flexibility Score: inf
ROOT
ATOM      1  C   UNL     1       3.179  43.364   9.122  1.00  0.00     0.000 C 
ENDROOT
BRANCH   1   2
ATOM      2  C   UNL     1       3.587  42.522  10.348  1.00  0.00     0.000 C 
BRANCH   2   3
ATOM      3  C   UNL     1       4.570  43.208  11.317  1.00  0.00     0.000 C 
BRANCH   3   4
ATOM      4  C   UNL     1       3.913  44.106  12.381  1.00  0.00     0.000 C 
BRANCH   4   5
ATOM      5  C   UNL     1       2.535  44.632  11.954  1.00  0.00     0.000 C 
BRANCH   5   6
ATOM      6  C   UNL     1       1.417  43.689  12.424  1.00  0.00     0.000 C 
BRANCH   6   7
ATOM      7  C   UNL     1       0.018  44.150  11.966  1.00  0.00     0.000 C 
BRANCH   7   8
ATOM      8  C   UNL     1      -1.125  43.673  12.883  1.00  0.00     0.000 C 
BRANCH   8   9
ATOM      9  C   UNL     1      -1.026  42.204  13.341  1.00  0.00     0.000 C 
BRANCH   9  10
ATOM     10  C   UNL     1      -0.908  42.007  14.865  1.00  0.00     0.000 C 
BRANCH  10  11
ATOM     11  C   UNL     1      -0.014  40.816  15.244  1.00  0.00     0.000 C 
BRANCH  11  12
ATOM     12  C   UNL     1       0.615  40.181  13.995  1.00  0.00     0.000 C 
BRANCH  12  13
ATOM     13  C   UNL     1       1.956  40.828  13.610  1.00  0.00     0.006 C 
BRANCH  13  14
ATOM     14  C   UNL     1       2.583  40.193  12.361  1.00  0.00     0.053 C 
BRANCH  14  15
ATOM     15  C   UNL     1       3.733  39.308  12.732  1.00  0.00     0.041 C 
ATOM     16  O   UNL     1       4.756  39.795  13.286  1.00  0.00    -0.550 OA
ATOM     17  O   UNL     1       3.671  37.944  12.473  1.00  0.00    -0.550 OA
ENDBRANCH  14  15
ENDBRANCH  13  14
ENDBRANCH  12  13
ENDBRANCH  11  12
ENDBRANCH  10  11
ENDBRANCH   9  10
ENDBRANCH   8   9
ENDBRANCH   7   8
ENDBRANCH   6   7
ENDBRANCH   5   6
ENDBRANCH   4   5
ENDBRANCH   3   4
ENDBRANCH   2   3
ENDBRANCH   1   2
BRANCH   1  18
ATOM     18  C   UNL     1       1.691  43.278   8.739  1.00  0.00     0.000 C 
BRANCH  18  19
ATOM     19  C   UNL     1       1.120  44.615   8.242  1.00  0.00     0.000 C 
BRANCH  19  20
ATOM     20  C   UNL     1       0.264  45.280   9.327  1.00  0.00     0.000 C 
BRANCH  20  21
ATOM     21  C   UNL     1      -0.835  46.156   8.712  1.00  0.00     0.000 C 
BRANCH  21  22
ATOM     22  C   UNL     1      -0.261  47.061   7.613  1.00  0.00     0.000 C 
BRANCH  22  23
ATOM     23  C   UNL     1       0.022  48.492   8.099  1.00  0.00     0.000 C 
BRANCH  23  24
ATOM     24  C   UNL     1       1.508  48.755   8.424  1.00  0.00    -0.000 C 
BRANCH  24  25
ATOM     25  C   UNL     1       2.454  48.010   7.465  1.00  0.00    -0.000 C 
BRANCH  25  26
ATOM     26  C   UNL     1       3.842  47.744   8.077  1.00  0.00    -0.000 C 
BRANCH  26  27
ATOM     27  C   UNL     1       3.847  46.821   9.310  1.00  0.00    -0.000 C 
BRANCH  27  28
ATOM     28  C   UNL     1       5.151  46.915  10.122  1.00  0.00    -0.000 C 
BRANCH  28  29
ATOM     29  C   UNL     1       6.413  46.926   9.239  1.00  0.00    -0.000 C 
BRANCH  29  30
ATOM     30  C   UNL     1       7.385  48.093   9.494  1.00  0.00    -0.000 C 
BRANCH  30  31
ATOM     31  C   UNL     1       6.675  49.397   9.883  1.00  0.00    -0.003 C 
ATOM     32  C   UNL     1       6.505  50.312   8.673  1.00  0.00     0.004 C 
ENDBRANCH  30  31
ENDBRANCH  29  30
ENDBRANCH  28  29
ENDBRANCH  27  28
ENDBRANCH  26  27
ENDBRANCH  25  26
ENDBRANCH  24  25
ENDBRANCH  23  24
ENDBRANCH  22  23
ENDBRANCH  21  22
ENDBRANCH  20  21
ENDBRANCH  19  20
ENDBRANCH  18  19
ENDBRANCH   1  18
TORSDOF 28
ENDMDL
MODEL 3
REMARK VINA RESULT:    -3.174      1.966      8.504
REMARK INTER + INTRA:         -10.848
REMARK INTER:                  -7.788
REMARK INTRA:                  -3.060
REMARK UNBOUND:                -2.477
REMARK SMILES CCCCCCCCCCCCCCCCCCCCCCCCCCCCCC(=O)[O-]
REMARK SMILES IDX 16 1 17 2 18 3 19 4 20 5 21 6 22 7 23 8 24 9 25 10 26 11
REMARK SMILES IDX 27 12 28 13 29 14 30 15 31 16 32 17 15 18 14 19 13 20 12 21
REMARK SMILES IDX 11 22 10 23 9 24 8 25 7 26 6 27 5 28 4 29 3 30 2 31 1 32
REMARK H PARENT
REMARK Flexibility Score: inf
ROOT
ATOM      1  C   UNL     1       0.503  44.236  12.405  1.00  0.00     0.000 C 
ENDROOT
BRANCH   1   2
ATOM      2  C   UNL     1       0.398  42.733  12.731  1.00  0.00     0.000 C 
BRANCH   2   3
ATOM      3  C   UNL     1      -0.873  42.315  13.497  1.00  0.00     0.000 C 
BRANCH   3   4
ATOM      4  C   UNL     1      -0.782  40.953  14.211  1.00  0.00     0.000 C 
BRANCH   4   5
ATOM      5  C   UNL     1       0.575  40.262  14.013  1.00  0.00     0.000 C 
BRANCH   5   6
ATOM      6  C   UNL     1       0.462  39.109  13.003  1.00  0.00     0.000 C 
BRANCH   6   7
ATOM      7  C   UNL     1       1.500  37.995  13.254  1.00  0.00     0.000 C 
BRANCH   7   8
ATOM      8  C   UNL     1       2.411  37.711  12.044  1.00  0.00     0.000 C 
BRANCH   8   9
ATOM      9  C   UNL     1       3.842  38.275  12.156  1.00  0.00     0.000 C 
BRANCH   9  10
ATOM     10  C   UNL     1       4.041  39.325  13.266  1.00  0.00     0.000 C 
BRANCH  10  11
ATOM     11  C   UNL     1       4.696  40.617  12.755  1.00  0.00     0.000 C 
BRANCH  11  12
ATOM     12  C   UNL     1       3.749  41.379  11.816  1.00  0.00     0.000 C 
BRANCH  12  13
ATOM     13  C   UNL     1       3.769  42.898  12.055  1.00  0.00     0.006 C 
BRANCH  13  14
ATOM     14  C   UNL     1       4.202  43.689  10.812  1.00  0.00     0.053 C 
BRANCH  14  15
ATOM     15  C   UNL     1       3.485  43.197   9.592  1.00  0.00     0.041 C 
ATOM     16  O   UNL     1       2.228  43.101   9.588  1.00  0.00    -0.550 OA
ATOM     17  O   UNL     1       4.208  42.852   8.455  1.00  0.00    -0.550 OA
ENDBRANCH  14  15
ENDBRANCH  13  14
ENDBRANCH  12  13
ENDBRANCH  11  12
ENDBRANCH  10  11
ENDBRANCH   9  10
ENDBRANCH   8   9
ENDBRANCH   7   8
ENDBRANCH   6   7
ENDBRANCH   5   6
ENDBRANCH   4   5
ENDBRANCH   3   4
ENDBRANCH   2   3
ENDBRANCH   1   2
BRANCH   1  18
ATOM     18  C   UNL     1      -0.509  44.748  11.364  1.00  0.00     0.000 C 
BRANCH  18  19
ATOM     19  C   UNL     1       0.157  45.453  10.173  1.00  0.00     0.000 C 
BRANCH  19  20
ATOM     20  C   UNL     1      -0.871  46.269   9.377  1.00  0.00     0.000 C 
BRANCH  20  21
ATOM     21  C   UNL     1      -0.546  46.262   7.878  1.00  0.00     0.000 C 
BRANCH  21  22
ATOM     22  C   UNL     1      -0.760  47.653   7.266  1.00  0.00     0.000 C 
BRANCH  22  23
ATOM     23  C   UNL     1      -0.319  48.795   8.199  1.00  0.00     0.000 C 
BRANCH  23  24
ATOM     24  C   UNL     1       1.120  48.639   8.734  1.00  0.00    -0.000 C 
BRANCH  24  25
ATOM     25  C   UNL     1       2.160  48.589   7.600  1.00  0.00    -0.000 C 
BRANCH  25  26
ATOM     26  C   UNL     1       3.411  47.768   7.967  1.00  0.00    -0.000 C 
BRANCH  26  27
ATOM     27  C   UNL     1       3.302  46.959   9.273  1.00  0.00    -0.000 C 
BRANCH  27  28
ATOM     28  C   UNL     1       4.548  47.095  10.165  1.00  0.00    -0.000 C 
BRANCH  28  29
ATOM     29  C   UNL     1       5.848  46.674   9.455  1.00  0.00    -0.000 C 
BRANCH  29  30
ATOM     30  C   UNL     1       6.905  47.783   9.302  1.00  0.00    -0.000 C 
BRANCH  30  31
ATOM     31  C   UNL     1       6.403  49.162   9.753  1.00  0.00    -0.003 C 
ATOM     32  C   UNL     1       6.671  50.220   8.686  1.00  0.00     0.004 C 
ENDBRANCH  30  31
ENDBRANCH  29  30
ENDBRANCH  28  29
ENDBRANCH  27  28
ENDBRANCH  26  27
ENDBRANCH  25  26
ENDBRANCH  24  25
ENDBRANCH  23  24
ENDBRANCH  22  23
ENDBRANCH  21  22
ENDBRANCH  20  21
ENDBRANCH  19  20
ENDBRANCH  18  19
ENDBRANCH   1  18
TORSDOF 28
ENDMDL
MODEL 4
REMARK VINA RESULT:    -3.136      1.124      2.156
REMARK INTER + INTRA:         -10.748
REMARK INTER:                  -7.259
REMARK INTRA:                  -3.489
REMARK UNBOUND:                -2.477
REMARK SMILES CCCCCCCCCCCCCCCCCCCCCCCCCCCCCC(=O)[O-]
REMARK SMILES IDX 16 1 17 2 18 3 19 4 20 5 21 6 22 7 23 8 24 9 25 10 26 11
REMARK SMILES IDX 27 12 28 13 29 14 30 15 31 16 32 17 15 18 14 19 13 20 12 21
REMARK SMILES IDX 11 22 10 23 9 24 8 25 7 26 6 27 5 28 4 29 3 30 2 31 1 32
REMARK H PARENT
REMARK Flexibility Score: inf
ROOT
ATOM      1  C   UNL     1       4.018  43.013   9.203  1.00  0.00     0.000 C 
ENDROOT
BRANCH   1   2
ATOM      2  C   UNL     1       2.918  43.317   8.167  1.00  0.00     0.000 C 
BRANCH   2   3
ATOM      3  C   UNL     1       1.545  43.694   8.757  1.00  0.00     0.000 C 
BRANCH   3   4
ATOM      4  C   UNL     1       0.669  44.578   7.851  1.00  0.00     0.000 C 
BRANCH   4   5
ATOM      5  C   UNL     1      -0.563  45.143   8.573  1.00  0.00     0.000 C 
BRANCH   5   6
ATOM      6  C   UNL     1      -0.185  46.357   9.436  1.00  0.00     0.000 C 
BRANCH   6   7
ATOM      7  C   UNL     1      -0.214  47.681   8.645  1.00  0.00     0.000 C 
BRANCH   7   8
ATOM      8  C   UNL     1       1.115  48.461   8.692  1.00  0.00     0.000 C 
BRANCH   8   9
ATOM      9  C   UNL     1       2.166  48.026   7.651  1.00  0.00     0.000 C 
BRANCH   9  10
ATOM     10  C   UNL     1       3.567  47.740   8.224  1.00  0.00     0.000 C 
BRANCH  10  11
ATOM     11  C   UNL     1       3.527  46.883   9.498  1.00  0.00     0.000 C 
BRANCH  11  12
ATOM     12  C   UNL     1       4.938  46.682  10.070  1.00  0.00     0.000 C 
BRANCH  12  13
ATOM     13  C   UNL     1       6.044  47.017   9.055  1.00  0.00     0.006 C 
BRANCH  13  14
ATOM     14  C   UNL     1       7.123  47.942   9.638  1.00  0.00     0.053 C 
BRANCH  14  15
ATOM     15  C   UNL     1       6.717  49.379   9.514  1.00  0.00     0.041 C 
ATOM     16  O   UNL     1       6.324  49.835   8.406  1.00  0.00    -0.550 OA
ATOM     17  O   UNL     1       6.765  50.212  10.626  1.00  0.00    -0.550 OA
ENDBRANCH  14  15
ENDBRANCH  13  14
ENDBRANCH  12  13
ENDBRANCH  11  12
ENDBRANCH  10  11
ENDBRANCH   9  10
ENDBRANCH   8   9
ENDBRANCH   7   8
ENDBRANCH   6   7
ENDBRANCH   5   6
ENDBRANCH   4   5
ENDBRANCH   3   4
ENDBRANCH   2   3
ENDBRANCH   1   2
BRANCH   1  18
ATOM     18  C   UNL     1       3.512  42.760  10.635  1.00  0.00     0.000 C 
BRANCH  18  19
ATOM     19  C   UNL     1       4.208  43.641  11.684  1.00  0.00     0.000 C 
BRANCH  19  20
ATOM     20  C   UNL     1       3.178  44.396  12.533  1.00  0.00     0.000 C 
BRANCH  20  21
ATOM     21  C   UNL     1       1.791  44.374  11.877  1.00  0.00     0.000 C 
BRANCH  21  22
ATOM     22  C   UNL     1       1.055  43.066  12.197  1.00  0.00     0.000 C 
BRANCH  22  23
ATOM     23  C   UNL     1      -0.409  43.286  12.612  1.00  0.00     0.000 C 
BRANCH  23  24
ATOM     24  C   UNL     1      -1.014  42.109  13.406  1.00  0.00    -0.000 C 
BRANCH  24  25
ATOM     25  C   UNL     1      -0.204  41.785  14.674  1.00  0.00    -0.000 C 
BRANCH  25  26
ATOM     26  C   UNL     1       0.320  40.337  14.700  1.00  0.00    -0.000 C 
BRANCH  26  27
ATOM     27  C   UNL     1       0.770  39.780  13.337  1.00  0.00    -0.000 C 
BRANCH  27  28
ATOM     28  C   UNL     1       1.384  38.373  13.440  1.00  0.00    -0.000 C 
BRANCH  28  29
ATOM     29  C   UNL     1       2.135  37.947  12.164  1.00  0.00    -0.000 C 
BRANCH  29  30
ATOM     30  C   UNL     1       3.616  38.365  12.101  1.00  0.00    -0.000 C 
BRANCH  30  31
ATOM     31  C   UNL     1       4.085  39.118  13.353  1.00  0.00    -0.003 C 
ATOM     32  C   UNL     1       4.855  40.382  12.978  1.00  0.00     0.004 C 
ENDBRANCH  30  31
ENDBRANCH  29  30
ENDBRANCH  28  29
ENDBRANCH  27  28
ENDBRANCH  26  27
ENDBRANCH  25  26
ENDBRANCH  24  25
ENDBRANCH  23  24
ENDBRANCH  22  23
ENDBRANCH  21  22
ENDBRANCH  20  21
ENDBRANCH  19  20
ENDBRANCH  18  19
ENDBRANCH   1  18
TORSDOF 28
ENDMDL
MODEL 5
REMARK VINA RESULT:    -3.065      1.708      8.391
REMARK INTER + INTRA:         -10.560
REMARK INTER:                  -8.209
REMARK INTRA:                  -2.350
REMARK UNBOUND:                -2.477
REMARK SMILES CCCCCCCCCCCCCCCCCCCCCCCCCCCCCC(=O)[O-]
REMARK SMILES IDX 16 1 17 2 18 3 19 4 20 5 21 6 22 7 23 8 24 9 25 10 26 11
REMARK SMILES IDX 27 12 28 13 29 14 30 15 31 16 32 17 15 18 14 19 13 20 12 21
REMARK SMILES IDX 11 22 10 23 9 24 8 25 7 26 6 27 5 28 4 29 3 30 2 31 1 32
REMARK H PARENT
REMARK Flexibility Score: inf
ROOT
ATOM      1  C   UNL     1      -0.071  42.909  12.919  1.00  0.00     0.000 C 
ENDROOT
BRANCH   1   2
ATOM      2  C   UNL     1      -1.098  42.331  13.913  1.00  0.00     0.000 C 
BRANCH   2   3
ATOM      3  C   UNL     1      -0.719  40.971  14.533  1.00  0.00     0.000 C 
BRANCH   3   4
ATOM      4  C   UNL     1       0.629  40.396  14.061  1.00  0.00     0.000 C 
BRANCH   4   5
ATOM      5  C   UNL     1       0.471  39.265  13.035  1.00  0.00     0.000 C 
BRANCH   5   6
ATOM      6  C   UNL     1       1.523  38.167  13.262  1.00  0.00     0.000 C 
BRANCH   6   7
ATOM      7  C   UNL     1       2.710  38.270  12.283  1.00  0.00     0.000 C 
BRANCH   7   8
ATOM      8  C   UNL     1       4.015  38.762  12.939  1.00  0.00     0.000 C 
BRANCH   8   9
ATOM      9  C   UNL     1       4.084  40.280  13.201  1.00  0.00     0.000 C 
BRANCH   9  10
ATOM     10  C   UNL     1       4.164  41.154  11.935  1.00  0.00     0.000 C 
BRANCH  10  11
ATOM     11  C   UNL     1       2.795  41.698  11.498  1.00  0.00     0.000 C 
BRANCH  11  12
ATOM     12  C   UNL     1       2.857  42.262  10.071  1.00  0.00     0.000 C 
BRANCH  12  13
ATOM     13  C   UNL     1       4.142  43.065   9.804  1.00  0.00     0.006 C 
BRANCH  13  14
ATOM     14  C   UNL     1       3.889  44.577   9.716  1.00  0.00     0.053 C 
BRANCH  14  15
ATOM     15  C   UNL     1       4.062  45.225  11.056  1.00  0.00     0.041 C 
ATOM     16  O   UNL     1       4.573  44.582  12.012  1.00  0.00    -0.550 OA
ATOM     17  O   UNL     1       3.666  46.544  11.244  1.00  0.00    -0.550 OA
ENDBRANCH  14  15
ENDBRANCH  13  14
ENDBRANCH  12  13
ENDBRANCH  11  12
ENDBRANCH  10  11
ENDBRANCH   9  10
ENDBRANCH   8   9
ENDBRANCH   7   8
ENDBRANCH   6   7
ENDBRANCH   5   6
ENDBRANCH   4   5
ENDBRANCH   3   4
ENDBRANCH   2   3
ENDBRANCH   1   2
BRANCH   1  18
ATOM     18  C   UNL     1      -0.545  44.151  12.142  1.00  0.00     0.000 C 
BRANCH  18  19
ATOM     19  C   UNL     1       0.517  44.695  11.173  1.00  0.00     0.000 C 
BRANCH  19  20
ATOM     20  C   UNL     1      -0.141  45.296   9.925  1.00  0.00     0.000 C 
BRANCH  20  21
ATOM     21  C   UNL     1       0.668  44.978   8.661  1.00  0.00     0.000 C 
BRANCH  21  22
ATOM     22  C   UNL     1      -0.173  45.216   7.399  1.00  0.00     0.000 C 
BRANCH  22  23
ATOM     23  C   UNL     1      -0.281  46.702   7.020  1.00  0.00     0.000 C 
BRANCH  23  24
ATOM     24  C   UNL     1      -0.125  47.662   8.219  1.00  0.00    -0.000 C 
BRANCH  24  25
ATOM     25  C   UNL     1       0.324  49.069   7.784  1.00  0.00    -0.000 C 
BRANCH  25  26
ATOM     26  C   UNL     1       1.838  49.296   7.950  1.00  0.00    -0.000 C 
BRANCH  26  27
ATOM     27  C   UNL     1       2.705  48.028   7.840  1.00  0.00    -0.000 C 
BRANCH  27  28
ATOM     28  C   UNL     1       4.205  48.340   7.702  1.00  0.00    -0.000 C 
BRANCH  28  29
ATOM     29  C   UNL     1       5.045  47.801   8.875  1.00  0.00    -0.000 C 
BRANCH  29  30
ATOM     30  C   UNL     1       6.473  48.368   8.978  1.00  0.00    -0.000 C 
BRANCH  30  31
ATOM     31  C   UNL     1       6.528  49.895   8.835  1.00  0.00    -0.003 C 
ATOM     32  C   UNL     1       6.895  50.559  10.161  1.00  0.00     0.004 C 
ENDBRANCH  30  31
ENDBRANCH  29  30
ENDBRANCH  28  29
ENDBRANCH  27  28
ENDBRANCH  26  27
ENDBRANCH  25  26
ENDBRANCH  24  25
ENDBRANCH  23  24
ENDBRANCH  22  23
ENDBRANCH  21  22
ENDBRANCH  20  21
ENDBRANCH  19  20
ENDBRANCH  18  19
ENDBRANCH   1  18
TORSDOF 28
ENDMDL
MODEL 6
REMARK VINA RESULT:    -3.035      3.220      6.748
REMARK INTER + INTRA:         -10.480
REMARK INTER:                  -8.304
REMARK INTRA:                  -2.177
REMARK UNBOUND:                -2.477
REMARK SMILES CCCCCCCCCCCCCCCCCCCCCCCCCCCCCC(=O)[O-]
REMARK SMILES IDX 16 1 17 2 18 3 19 4 20 5 21 6 22 7 23 8 24 9 25 10 26 11
REMARK SMILES IDX 27 12 28 13 29 14 30 15 31 16 32 17 15 18 14 19 13 20 12 21
REMARK SMILES IDX 11 22 10 23 9 24 8 25 7 26 6 27 5 28 4 29 3 30 2 31 1 32
REMARK H PARENT
REMARK Flexibility Score: inf
ROOT
ATOM      1  C   UNL     1       1.402  48.862   7.643  1.00  0.00     0.000 C 
ENDROOT
BRANCH   1   2
ATOM      2  C   UNL     1       0.006  49.077   8.261  1.00  0.00     0.000 C 
BRANCH   2   3
ATOM      3  C   UNL     1      -1.125  48.234   7.638  1.00  0.00     0.000 C 
BRANCH   3   4
ATOM      4  C   UNL     1      -0.780  46.751   7.413  1.00  0.00     0.000 C 
BRANCH   4   5
ATOM      5  C   UNL     1      -0.165  46.083   8.651  1.00  0.00     0.000 C 
BRANCH   5   6
ATOM      6  C   UNL     1       0.280  44.646   8.337  1.00  0.00     0.000 C 
BRANCH   6   7
ATOM      7  C   UNL     1       1.624  44.281   9.000  1.00  0.00     0.000 C 
BRANCH   7   8
ATOM      8  C   UNL     1       2.101  42.849   8.691  1.00  0.00     0.000 C 
BRANCH   8   9
ATOM      9  C   UNL     1       3.617  42.617   8.842  1.00  0.00     0.000 C 
BRANCH   9  10
ATOM     10  C   UNL     1       4.119  42.530  10.296  1.00  0.00     0.000 C 
BRANCH  10  11
ATOM     11  C   UNL     1       3.454  41.394  11.089  1.00  0.00     0.000 C 
BRANCH  11  12
ATOM     12  C   UNL     1       4.225  41.105  12.386  1.00  0.00     0.000 C 
BRANCH  12  13
ATOM     13  C   UNL     1       4.512  39.607  12.586  1.00  0.00     0.006 C 
BRANCH  13  14
ATOM     14  C   UNL     1       3.407  38.893  13.378  1.00  0.00     0.053 C 
BRANCH  14  15
ATOM     15  C   UNL     1       2.631  37.966  12.493  1.00  0.00     0.041 C 
ATOM     16  O   UNL     1       1.370  37.988  12.501  1.00  0.00    -0.550 OA
ATOM     17  O   UNL     1       3.302  37.084  11.654  1.00  0.00    -0.550 OA
ENDBRANCH  14  15
ENDBRANCH  13  14
ENDBRANCH  12  13
ENDBRANCH  11  12
ENDBRANCH  10  11
ENDBRANCH   9  10
ENDBRANCH   8   9
ENDBRANCH   7   8
ENDBRANCH   6   7
ENDBRANCH   5   6
ENDBRANCH   4   5
ENDBRANCH   3   4
ENDBRANCH   2   3
ENDBRANCH   1   2
BRANCH   1  18
ATOM     18  C   UNL     1       2.431  48.196   8.575  1.00  0.00     0.000 C 
BRANCH  18  19
ATOM     19  C   UNL     1       3.687  47.711   7.835  1.00  0.00     0.000 C 
BRANCH  19  20
ATOM     20  C   UNL     1       4.954  48.308   8.460  1.00  0.00     0.000 C 
BRANCH  20  21
ATOM     21  C   UNL     1       5.553  47.365   9.512  1.00  0.00     0.000 C 
BRANCH  21  22
ATOM     22  C   UNL     1       4.699  46.099   9.661  1.00  0.00     0.000 C 
BRANCH  22  23
ATOM     23  C   UNL     1       3.909  46.057  10.981  1.00  0.00     0.000 C 
BRANCH  23  24
ATOM     24  C   UNL     1       4.288  44.873  11.895  1.00  0.00    -0.000 C 
BRANCH  24  25
ATOM     25  C   UNL     1       3.152  44.498  12.863  1.00  0.00    -0.000 C 
BRANCH  25  26
ATOM     26  C   UNL     1       1.788  44.352  12.162  1.00  0.00    -0.000 C 
BRANCH  26  27
ATOM     27  C   UNL     1       1.114  42.976  12.322  1.00  0.00    -0.000 C 
BRANCH  27  28
ATOM     28  C   UNL     1      -0.376  43.080  12.688  1.00  0.00    -0.000 C 
BRANCH  28  29
ATOM     29  C   UNL     1      -0.875  41.890  13.530  1.00  0.00    -0.000 C 
BRANCH  29  30
ATOM     30  C   UNL     1       0.227  40.987  14.112  1.00  0.00    -0.000 C 
BRANCH  30  31
ATOM     31  C   UNL     1       0.107  40.791  15.630  1.00  0.00    -0.003 C 
ATOM     32  C   UNL     1      -0.721  41.906  16.265  1.00  0.00     0.004 C 
ENDBRANCH  30  31
ENDBRANCH  29  30
ENDBRANCH  28  29
ENDBRANCH  27  28
ENDBRANCH  26  27
ENDBRANCH  25  26
ENDBRANCH  24  25
ENDBRANCH  23  24
ENDBRANCH  22  23
ENDBRANCH  21  22
ENDBRANCH  20  21
ENDBRANCH  19  20
ENDBRANCH  18  19
ENDBRANCH   1  18
TORSDOF 28
ENDMDL
MODEL 7
REMARK VINA RESULT:    -2.864      1.321      3.342
REMARK INTER + INTRA:         -10.029
REMARK INTER:                  -6.645
REMARK INTRA:                  -3.384
REMARK UNBOUND:                -2.477
REMARK SMILES CCCCCCCCCCCCCCCCCCCCCCCCCCCCCC(=O)[O-]
REMARK SMILES IDX 16 1 17 2 18 3 19 4 20 5 21 6 22 7 23 8 24 9 25 10 26 11
REMARK SMILES IDX 27 12 28 13 29 14 30 15 31 16 32 17 15 18 14 19 13 20 12 21
REMARK SMILES IDX 11 22 10 23 9 24 8 25 7 26 6 27 5 28 4 29 3 30 2 31 1 32
REMARK H PARENT
REMARK Flexibility Score: inf
ROOT
ATOM      1  C   UNL     1       1.660  43.901  10.140  1.00  0.00     0.000 C 
ENDROOT
BRANCH   1   2
ATOM      2  C   UNL     1       0.949  43.993   8.776  1.00  0.00     0.000 C 
BRANCH   2   3
ATOM      3  C   UNL     1       0.609  45.421   8.306  1.00  0.00     0.000 C 
BRANCH   3   4
ATOM      4  C   UNL     1      -0.292  45.498   7.061  1.00  0.00     0.000 C 
BRANCH   4   5
ATOM      5  C   UNL     1      -1.107  46.798   6.988  1.00  0.00     0.000 C 
BRANCH   5   6
ATOM      6  C   UNL     1      -1.103  47.525   8.342  1.00  0.00     0.000 C 
BRANCH   6   7
ATOM      7  C   UNL     1      -0.678  49.003   8.222  1.00  0.00     0.000 C 
BRANCH   7   8
ATOM      8  C   UNL     1       0.836  49.230   8.403  1.00  0.00     0.000 C 
BRANCH   8   9
ATOM      9  C   UNL     1       1.731  48.538   7.355  1.00  0.00     0.000 C 
BRANCH   9  10
ATOM     10  C   UNL     1       3.230  48.496   7.709  1.00  0.00     0.000 C 
BRANCH  10  11
ATOM     11  C   UNL     1       3.686  47.118   8.213  1.00  0.00     0.000 C 
BRANCH  11  12
ATOM     12  C   UNL     1       3.925  47.139   9.730  1.00  0.00     0.000 C 
BRANCH  12  13
ATOM     13  C   UNL     1       5.399  46.905  10.103  1.00  0.00     0.006 C 
BRANCH  13  14
ATOM     14  C   UNL     1       6.372  47.548   9.105  1.00  0.00     0.053 C 
BRANCH  14  15
ATOM     15  C   UNL     1       6.491  49.021   9.349  1.00  0.00     0.041 C 
ATOM     16  O   UNL     1       6.389  49.835   8.391  1.00  0.00    -0.550 OA
ATOM     17  O   UNL     1       6.707  49.496  10.638  1.00  0.00    -0.550 OA
ENDBRANCH  14  15
ENDBRANCH  13  14
ENDBRANCH  12  13
ENDBRANCH  11  12
ENDBRANCH  10  11
ENDBRANCH   9  10
ENDBRANCH   8   9
ENDBRANCH   7   8
ENDBRANCH   6   7
ENDBRANCH   5   6
ENDBRANCH   4   5
ENDBRANCH   3   4
ENDBRANCH   2   3
ENDBRANCH   1   2
BRANCH   1  18
ATOM     18  C   UNL     1       1.001  44.709  11.273  1.00  0.00     0.000 C 
BRANCH  18  19
ATOM     19  C   UNL     1      -0.246  44.023  11.854  1.00  0.00     0.000 C 
BRANCH  19  20
ATOM     20  C   UNL     1       0.149  42.867  12.781  1.00  0.00     0.000 C 
BRANCH  20  21
ATOM     21  C   UNL     1      -1.032  42.427  13.656  1.00  0.00     0.000 C 
BRANCH  21  22
ATOM     22  C   UNL     1      -0.590  41.373  14.681  1.00  0.00     0.000 C 
BRANCH  22  23
ATOM     23  C   UNL     1       0.691  40.630  14.265  1.00  0.00     0.000 C 
BRANCH  23  24
ATOM     24  C   UNL     1       0.430  39.235  13.657  1.00  0.00    -0.000 C 
BRANCH  24  25
ATOM     25  C   UNL     1       1.278  38.980  12.398  1.00  0.00    -0.000 C 
BRANCH  25  26
ATOM     26  C   UNL     1       2.342  37.886  12.601  1.00  0.00    -0.000 C 
BRANCH  26  27
ATOM     27  C   UNL     1       3.799  38.344  12.400  1.00  0.00    -0.000 C 
BRANCH  27  28
ATOM     28  C   UNL     1       4.197  39.497  13.338  1.00  0.00    -0.000 C 
BRANCH  28  29
ATOM     29  C   UNL     1       4.789  40.706  12.590  1.00  0.00    -0.000 C 
BRANCH  29  30
ATOM     30  C   UNL     1       3.779  41.806  12.212  1.00  0.00    -0.000 C 
BRANCH  30  31
ATOM     31  C   UNL     1       4.420  42.980  11.458  1.00  0.00    -0.003 C 
ATOM     32  C   UNL     1       4.454  44.236  12.325  1.00  0.00     0.004 C 
ENDBRANCH  30  31
ENDBRANCH  29  30
ENDBRANCH  28  29
ENDBRANCH  27  28
ENDBRANCH  26  27
ENDBRANCH  25  26
ENDBRANCH  24  25
ENDBRANCH  23  24
ENDBRANCH  22  23
ENDBRANCH  21  22
ENDBRANCH  20  21
ENDBRANCH  19  20
ENDBRANCH  18  19
ENDBRANCH   1  18
TORSDOF 28
ENDMDL
MODEL 8
REMARK VINA RESULT:    -2.728      1.070      3.265
REMARK INTER + INTRA:          -9.670
REMARK INTER:                  -6.945
REMARK INTRA:                  -2.725
REMARK UNBOUND:                -2.477
REMARK SMILES CCCCCCCCCCCCCCCCCCCCCCCCCCCCCC(=O)[O-]
REMARK SMILES IDX 16 1 17 2 18 3 19 4 20 5 21 6 22 7 23 8 24 9 25 10 26 11
REMARK SMILES IDX 27 12 28 13 29 14 30 15 31 16 32 17 15 18 14 19 13 20 12 21
REMARK SMILES IDX 11 22 10 23 9 24 8 25 7 26 6 27 5 28 4 29 3 30 2 31 1 32
REMARK H PARENT
REMARK Flexibility Score: inf
ROOT
ATOM      1  C   UNL     1       4.358  44.694   9.870  1.00  0.00     0.000 C 
ENDROOT
BRANCH   1   2
ATOM      2  C   UNL     1       3.678  43.681   8.928  1.00  0.00     0.000 C 
BRANCH   2   3
ATOM      3  C   UNL     1       2.239  43.286   9.316  1.00  0.00     0.000 C 
BRANCH   3   4
ATOM      4  C   UNL     1       1.174  43.581   8.245  1.00  0.00     0.000 C 
BRANCH   4   5
ATOM      5  C   UNL     1       0.396  44.878   8.512  1.00  0.00     0.000 C 
BRANCH   5   6
ATOM      6  C   UNL     1      -0.083  45.512   7.197  1.00  0.00     0.000 C 
BRANCH   6   7
ATOM      7  C   UNL     1      -1.125  46.627   7.420  1.00  0.00     0.000 C 
BRANCH   7   8
ATOM      8  C   UNL     1      -0.746  47.616   8.539  1.00  0.00     0.000 C 
BRANCH   8   9
ATOM      9  C   UNL     1      -0.314  49.016   8.058  1.00  0.00     0.000 C 
BRANCH   9  10
ATOM     10  C   UNL     1       1.208  49.253   8.032  1.00  0.00     0.000 C 
BRANCH  10  11
ATOM     11  C   UNL     1       1.992  48.033   7.526  1.00  0.00     0.000 C 
BRANCH  11  12
ATOM     12  C   UNL     1       2.968  47.523   8.597  1.00  0.00     0.000 C 
BRANCH  12  13
ATOM     13  C   UNL     1       4.419  47.961   8.336  1.00  0.00     0.006 C 
BRANCH  13  14
ATOM     14  C   UNL     1       5.351  47.660   9.519  1.00  0.00     0.053 C 
BRANCH  14  15
ATOM     15  C   UNL     1       6.677  48.333   9.338  1.00  0.00     0.041 C 
ATOM     16  O   UNL     1       6.734  49.562   9.063  1.00  0.00    -0.550 OA
ATOM     17  O   UNL     1       7.851  47.602   9.480  1.00  0.00    -0.550 OA
ENDBRANCH  14  15
ENDBRANCH  13  14
ENDBRANCH  12  13
ENDBRANCH  11  12
ENDBRANCH  10  11
ENDBRANCH   9  10
ENDBRANCH   8   9
ENDBRANCH   7   8
ENDBRANCH   6   7
ENDBRANCH   5   6
ENDBRANCH   4   5
ENDBRANCH   3   4
ENDBRANCH   2   3
ENDBRANCH   1   2
BRANCH   1  18
ATOM     18  C   UNL     1       3.680  44.865  11.241  1.00  0.00     0.000 C 
BRANCH  18  19
ATOM     19  C   UNL     1       4.357  44.049  12.353  1.00  0.00     0.000 C 
BRANCH  19  20
ATOM     20  C   UNL     1       3.556  42.778  12.662  1.00  0.00     0.000 C 
BRANCH  20  21
ATOM     21  C   UNL     1       4.075  41.582  11.855  1.00  0.00     0.000 C 
BRANCH  21  22
ATOM     22  C   UNL     1       4.909  40.646  12.740  1.00  0.00     0.000 C 
BRANCH  22  23
ATOM     23  C   UNL     1       4.158  39.363  13.135  1.00  0.00     0.000 C 
BRANCH  23  24
ATOM     24  C   UNL     1       2.725  39.282  12.566  1.00  0.00    -0.000 C 
BRANCH  24  25
ATOM     25  C   UNL     1       2.244  37.829  12.406  1.00  0.00    -0.000 C 
BRANCH  25  26
ATOM     26  C   UNL     1       0.796  37.618  12.888  1.00  0.00    -0.000 C 
BRANCH  26  27
ATOM     27  C   UNL     1      -0.081  38.883  12.897  1.00  0.00    -0.000 C 
BRANCH  27  28
ATOM     28  C   UNL     1       0.099  39.726  14.172  1.00  0.00    -0.000 C 
BRANCH  28  29
ATOM     29  C   UNL     1      -0.500  41.140  14.050  1.00  0.00    -0.000 C 
BRANCH  29  30
ATOM     30  C   UNL     1       0.259  42.099  13.115  1.00  0.00    -0.000 C 
BRANCH  30  31
ATOM     31  C   UNL     1      -0.629  43.213  12.544  1.00  0.00    -0.003 C 
ATOM     32  C   UNL     1       0.215  44.354  11.980  1.00  0.00     0.004 C 
ENDBRANCH  30  31
ENDBRANCH  29  30
ENDBRANCH  28  29
ENDBRANCH  27  28
ENDBRANCH  26  27
ENDBRANCH  25  26
ENDBRANCH  24  25
ENDBRANCH  23  24
ENDBRANCH  22  23
ENDBRANCH  21  22
ENDBRANCH  20  21
ENDBRANCH  19  20
ENDBRANCH  18  19
ENDBRANCH   1  18
TORSDOF 28
ENDMDL
