MODEL 1
REMARK VINA RESULT:    -4.953      0.000      0.000
REMARK INTER + INTRA:          -7.235
REMARK INTER:                  -6.980
REMARK INTRA:                  -0.255
REMARK UNBOUND:                -0.255
REMARK SMILES CCCCCCCCC(=O)[O-]
REMARK SMILES IDX 6 1 7 2 8 3 9 4 10 5 11 6 5 7 4 8 3 9 2 10 1 11
REMARK H PARENT
REMARK Flexibility Score: inf
ROOT
ATOM      1  C   UNL     1      51.127  20.820  49.964  1.00  0.00     0.000 C 
ENDROOT
BRANCH   1   2
ATOM      2  C   UNL     1      50.277  19.679  50.544  1.00  0.00     0.006 C 
BRANCH   2   3
ATOM      3  C   UNL     1      48.881  19.599  49.911  1.00  0.00     0.053 C 
BRANCH   3   4
ATOM      4  C   UNL     1      47.987  20.653  50.485  1.00  0.00     0.041 C 
ATOM      5  O   UNL     1      46.923  20.973  49.891  1.00  0.00    -0.550 OA
ATOM      6  O   UNL     1      48.353  21.317  51.648  1.00  0.00    -0.550 OA
ENDBRANCH   3   4
ENDBRANCH   2   3
ENDBRANCH   1   2
BRANCH   1   7
ATOM      7  C   UNL     1      52.135  21.382  50.984  1.00  0.00     0.000 C 
BRANCH   7   8
ATOM      8  C   UNL     1      53.595  21.133  50.569  1.00  0.00    -0.000 C 
BRANCH   8   9
ATOM      9  C   UNL     1      53.712  20.194  49.355  1.00  0.00    -0.000 C 
BRANCH   9  10
ATOM     10  C   UNL     1      55.120  20.204  48.738  1.00  0.00    -0.003 C 
ATOM     11  C   UNL     1      55.384  21.442  47.881  1.00  0.00     0.004 C 
ENDBRANCH   9  10
ENDBRANCH   8   9
ENDBRANCH   7   8
ENDBRANCH   1   7
TORSDOF 7
ENDMDL
MODEL 2
REMARK VINA RESULT:    -4.721      1.268      1.577
REMARK INTER + INTRA:          -6.908
REMARK INTER:                  -6.538
REMARK INTRA:                  -0.369
REMARK UNBOUND:                -0.255
REMARK SMILES CCCCCCCCC(=O)[O-]
REMARK SMILES IDX 6 1 7 2 8 3 9 4 10 5 11 6 5 7 4 8 3 9 2 10 1 11
REMARK H PARENT
REMARK Flexibility Score: inf
ROOT
ATOM      1  C   UNL     1      52.227  21.654  51.760  1.00  0.00     0.000 C 
ENDROOT
BRANCH   1   2
ATOM      2  C   UNL     1      50.992  20.740  51.717  1.00  0.00     0.006 C 
BRANCH   2   3
ATOM      3  C   UNL     1      49.741  21.460  51.194  1.00  0.00     0.053 C 
BRANCH   3   4
ATOM      4  C   UNL     1      48.900  20.522  50.384  1.00  0.00     0.041 C 
ATOM      5  O   UNL     1      47.776  20.893  49.952  1.00  0.00    -0.550 OA
ATOM      6  O   UNL     1      49.336  19.225  50.148  1.00  0.00    -0.550 OA
ENDBRANCH   3   4
ENDBRANCH   2   3
ENDBRANCH   1   2
BRANCH   1   7
ATOM      7  C   UNL     1      53.364  21.152  50.853  1.00  0.00     0.000 C 
BRANCH   7   8
ATOM      8  C   UNL     1      52.850  20.591  49.516  1.00  0.00    -0.000 C 
BRANCH   8   9
ATOM      9  C   UNL     1      53.902  19.734  48.791  1.00  0.00    -0.000 C 
BRANCH   9  10
ATOM     10  C   UNL     1      55.292  20.391  48.785  1.00  0.00    -0.003 C 
ATOM     11  C   UNL     1      55.419  21.502  47.743  1.00  0.00     0.004 C 
ENDBRANCH   9  10
ENDBRANCH   8   9
ENDBRANCH   7   8
ENDBRANCH   1   7
TORSDOF 7
ENDMDL
MODEL 3
REMARK VINA RESULT:    -4.645      3.051      3.803
REMARK INTER + INTRA:          -6.801
REMARK INTER:                  -6.541
REMARK INTRA:                  -0.260
REMARK UNBOUND:                -0.255
REMARK SMILES CCCCCCCCC(=O)[O-]
REMARK SMILES IDX 6 1 7 2 8 3 9 4 10 5 11 6 5 7 4 8 3 9 2 10 1 11
REMARK H PARENT
REMARK Flexibility Score: inf
ROOT
ATOM      1  C   UNL     1      50.904  20.688  51.333  1.00  0.00     0.000 C 
ENDROOT
BRANCH   1   2
ATOM      2  C   UNL     1      51.607  21.542  52.401  1.00  0.00     0.006 C 
BRANCH   2   3
ATOM      3  C   UNL     1      51.146  21.207  53.826  1.00  0.00     0.053 C 
BRANCH   3   4
ATOM      4  C   UNL     1      52.173  20.371  54.523  1.00  0.00     0.041 C 
ATOM      5  O   UNL     1      51.863  19.240  54.984  1.00  0.00    -0.550 OA
ATOM      6  O   UNL     1      53.459  20.862  54.708  1.00  0.00    -0.550 OA
ENDBRANCH   3   4
ENDBRANCH   2   3
ENDBRANCH   1   2
BRANCH   1   7
ATOM      7  C   UNL     1      51.551  20.831  49.943  1.00  0.00     0.000 C 
BRANCH   7   8
ATOM      8  C   UNL     1      53.086  20.884  50.010  1.00  0.00    -0.000 C 
BRANCH   8   9
ATOM      9  C   UNL     1      53.754  19.871  49.064  1.00  0.00    -0.000 C 
BRANCH   9  10
ATOM     10  C   UNL     1      55.225  20.214  48.778  1.00  0.00    -0.003 C 
ATOM     11  C   UNL     1      55.385  21.463  47.912  1.00  0.00     0.004 C 
ENDBRANCH   9  10
ENDBRANCH   8   9
ENDBRANCH   7   8
ENDBRANCH   1   7
TORSDOF 7
ENDMDL
MODEL 4
REMARK VINA RESULT:    -4.562      1.331      1.576
REMARK INTER + INTRA:          -6.683
REMARK INTER:                  -6.351
REMARK INTRA:                  -0.333
REMARK UNBOUND:                -0.255
REMARK SMILES CCCCCCCCC(=O)[O-]
REMARK SMILES IDX 6 1 7 2 8 3 9 4 10 5 11 6 5 7 4 8 3 9 2 10 1 11
REMARK H PARENT
REMARK Flexibility Score: inf
ROOT
ATOM      1  C   UNL     1      50.877  20.327  50.348  1.00  0.00     0.000 C 
ENDROOT
BRANCH   1   2
ATOM      2  C   UNL     1      49.709  21.281  50.048  1.00  0.00     0.006 C 
BRANCH   2   3
ATOM      3  C   UNL     1      48.483  21.012  50.931  1.00  0.00     0.053 C 
BRANCH   3   4
ATOM      4  C   UNL     1      48.398  22.028  52.027  1.00  0.00     0.041 C 
ATOM      5  O   UNL     1      47.701  21.797  53.051  1.00  0.00    -0.550 OA
ATOM      6  O   UNL     1      49.048  23.248  51.897  1.00  0.00    -0.550 OA
ENDBRANCH   3   4
ENDBRANCH   2   3
ENDBRANCH   1   2
BRANCH   1   7
ATOM      7  C   UNL     1      51.930  20.957  51.276  1.00  0.00     0.000 C 
BRANCH   7   8
ATOM      8  C   UNL     1      53.283  21.169  50.576  1.00  0.00    -0.000 C 
BRANCH   8   9
ATOM      9  C   UNL     1      53.479  20.229  49.373  1.00  0.00    -0.000 C 
BRANCH   9  10
ATOM     10  C   UNL     1      54.935  20.200  48.881  1.00  0.00    -0.003 C 
ATOM     11  C   UNL     1      55.290  21.402  48.006  1.00  0.00     0.004 C 
ENDBRANCH   9  10
ENDBRANCH   8   9
ENDBRANCH   7   8
ENDBRANCH   1   7
TORSDOF 7
ENDMDL
MODEL 5
REMARK VINA RESULT:    -4.526      3.390      4.358
REMARK INTER + INTRA:          -6.633
REMARK INTER:                  -6.305
REMARK INTRA:                  -0.328
REMARK UNBOUND:                -0.255
REMARK SMILES CCCCCCCCC(=O)[O-]
REMARK SMILES IDX 6 1 7 2 8 3 9 4 10 5 11 6 5 7 4 8 3 9 2 10 1 11
REMARK H PARENT
REMARK Flexibility Score: inf
ROOT
ATOM      1  C   UNL     1      52.264  21.359  51.969  1.00  0.00     0.000 C 
ENDROOT
BRANCH   1   2
ATOM      2  C   UNL     1      51.364  21.110  53.191  1.00  0.00     0.006 C 
BRANCH   2   3
ATOM      3  C   UNL     1      52.158  20.682  54.433  1.00  0.00     0.053 C 
BRANCH   3   4
ATOM      4  C   UNL     1      52.962  21.830  54.958  1.00  0.00     0.041 C 
ATOM      5  O   UNL     1      52.384  22.828  55.465  1.00  0.00    -0.550 OA
ATOM      6  O   UNL     1      54.346  21.819  54.845  1.00  0.00    -0.550 OA
ENDBRANCH   3   4
ENDBRANCH   2   3
ENDBRANCH   1   2
BRANCH   1   7
ATOM      7  C   UNL     1      51.539  21.087  50.638  1.00  0.00     0.000 C 
BRANCH   7   8
ATOM      8  C   UNL     1      52.496  20.610  49.532  1.00  0.00    -0.000 C 
BRANCH   8   9
ATOM      9  C   UNL     1      53.963  20.575  49.995  1.00  0.00    -0.000 C 
BRANCH   9  10
ATOM     10  C   UNL     1      54.927  20.178  48.865  1.00  0.00    -0.003 C 
ATOM     11  C   UNL     1      55.313  21.357  47.972  1.00  0.00     0.004 C 
ENDBRANCH   9  10
ENDBRANCH   8   9
ENDBRANCH   7   8
ENDBRANCH   1   7
TORSDOF 7
ENDMDL
MODEL 6
REMARK VINA RESULT:    -4.273      1.696      2.714
REMARK INTER + INTRA:          -6.276
REMARK INTER:                  -5.947
REMARK INTRA:                  -0.328
REMARK UNBOUND:                -0.255
REMARK SMILES CCCCCCCCC(=O)[O-]
REMARK SMILES IDX 6 1 7 2 8 3 9 4 10 5 11 6 5 7 4 8 3 9 2 10 1 11
REMARK H PARENT
REMARK Flexibility Score: inf
ROOT
ATOM      1  C   UNL     1      48.723  20.573  49.891  1.00  0.00     0.000 C 
ENDROOT
BRANCH   1   2
ATOM      2  C   UNL     1      47.777  20.833  51.074  1.00  0.00     0.006 C 
BRANCH   2   3
ATOM      3  C   UNL     1      47.973  22.223  51.695  1.00  0.00     0.053 C 
BRANCH   3   4
ATOM      4  C   UNL     1      48.469  22.100  53.102  1.00  0.00     0.041 C 
ATOM      5  O   UNL     1      49.684  21.853  53.325  1.00  0.00    -0.550 OA
ATOM      6  O   UNL     1      47.581  22.210  54.164  1.00  0.00    -0.550 OA
ENDBRANCH   3   4
ENDBRANCH   2   3
ENDBRANCH   1   2
BRANCH   1   7
ATOM      7  C   UNL     1      50.042  19.909  50.326  1.00  0.00     0.000 C 
BRANCH   7   8
ATOM      8  C   UNL     1      51.254  20.843  50.168  1.00  0.00    -0.000 C 
BRANCH   8   9
ATOM      9  C   UNL     1      52.462  20.140  49.525  1.00  0.00    -0.000 C 
BRANCH   9  10
ATOM     10  C   UNL     1      53.794  20.828  49.868  1.00  0.00    -0.003 C 
ATOM     11  C   UNL     1      54.835  20.692  48.756  1.00  0.00     0.004 C 
ENDBRANCH   9  10
ENDBRANCH   8   9
ENDBRANCH   7   8
ENDBRANCH   1   7
TORSDOF 7
ENDMDL
MODEL 7
REMARK VINA RESULT:    -4.206      3.527      6.234
REMARK INTER + INTRA:          -6.182
REMARK INTER:                  -5.913
REMARK INTRA:                  -0.268
REMARK UNBOUND:                -0.255
REMARK SMILES CCCCCCCCC(=O)[O-]
REMARK SMILES IDX 6 1 7 2 8 3 9 4 10 5 11 6 5 7 4 8 3 9 2 10 1 11
REMARK H PARENT
REMARK Flexibility Score: inf
ROOT
ATOM      1  C   UNL     1      51.350  20.664  50.574  1.00  0.00     0.000 C 
ENDROOT
BRANCH   1   2
ATOM      2  C   UNL     1      52.454  20.271  49.579  1.00  0.00     0.006 C 
BRANCH   2   3
ATOM      3  C   UNL     1      53.841  20.772  50.003  1.00  0.00     0.053 C 
BRANCH   3   4
ATOM      4  C   UNL     1      54.840  20.525  48.917  1.00  0.00     0.041 C 
ATOM      5  O   UNL     1      55.650  19.564  49.008  1.00  0.00    -0.550 OA
ATOM      6  O   UNL     1      54.909  21.383  47.827  1.00  0.00    -0.550 OA
ENDBRANCH   3   4
ENDBRANCH   2   3
ENDBRANCH   1   2
BRANCH   1   7
ATOM      7  C   UNL     1      50.038  19.896  50.335  1.00  0.00     0.000 C 
BRANCH   7   8
ATOM      8  C   UNL     1      48.880  20.819  49.921  1.00  0.00    -0.000 C 
BRANCH   8   9
ATOM      9  C   UNL     1      47.688  20.742  50.891  1.00  0.00    -0.000 C 
BRANCH   9  10
ATOM     10  C   UNL     1      47.952  21.489  52.208  1.00  0.00    -0.003 C 
ATOM     11  C   UNL     1      47.934  23.009  52.042  1.00  0.00     0.004 C 
ENDBRANCH   9  10
ENDBRANCH   8   9
ENDBRANCH   7   8
ENDBRANCH   1   7
TORSDOF 7
ENDMDL
MODEL 8
REMARK VINA RESULT:    -4.128      3.757      5.454
REMARK INTER + INTRA:          -6.072
REMARK INTER:                  -5.397
REMARK INTRA:                  -0.675
REMARK UNBOUND:                -0.255
REMARK SMILES CCCCCCCCC(=O)[O-]
REMARK SMILES IDX 6 1 7 2 8 3 9 4 10 5 11 6 5 7 4 8 3 9 2 10 1 11
REMARK H PARENT
REMARK Flexibility Score: inf
ROOT
ATOM      1  C   UNL     1      51.388  21.124  50.087  1.00  0.00     0.000 C 
ENDROOT
BRANCH   1   2
ATOM      2  C   UNL     1      52.582  20.282  49.608  1.00  0.00     0.006 C 
BRANCH   2   3
ATOM      3  C   UNL     1      53.930  20.971  49.856  1.00  0.00     0.053 C 
BRANCH   3   4
ATOM      4  C   UNL     1      54.916  20.584  48.798  1.00  0.00     0.041 C 
ATOM      5  O   UNL     1      55.559  19.505  48.897  1.00  0.00    -0.550 OA
ATOM      6  O   UNL     1      55.161  21.436  47.730  1.00  0.00    -0.550 OA
ENDBRANCH   3   4
ENDBRANCH   2   3
ENDBRANCH   1   2
BRANCH   1   7
ATOM      7  C   UNL     1      50.698  20.519  51.323  1.00  0.00     0.000 C 
BRANCH   7   8
ATOM      8  C   UNL     1      50.939  21.344  52.598  1.00  0.00    -0.000 C 
BRANCH   8   9
ATOM      9  C   UNL     1      51.678  22.664  52.315  1.00  0.00    -0.000 C 
BRANCH   9  10
ATOM     10  C   UNL     1      52.939  22.828  53.179  1.00  0.00    -0.003 C 
ATOM     11  C   UNL     1      53.441  21.504  53.755  1.00  0.00     0.004 C 
ENDBRANCH   9  10
ENDBRANCH   8   9
ENDBRANCH   7   8
ENDBRANCH   1   7
TORSDOF 7
ENDMDL
MODEL 9
REMARK VINA RESULT:    -4.015      4.618      5.965
REMARK INTER + INTRA:          -5.912
REMARK INTER:                  -5.515
REMARK INTRA:                  -0.397
REMARK UNBOUND:                -0.255
REMARK SMILES CCCCCCCCC(=O)[O-]
REMARK SMILES IDX 6 1 7 2 8 3 9 4 10 5 11 6 5 7 4 8 3 9 2 10 1 11
REMARK H PARENT
REMARK Flexibility Score: inf
ROOT
ATOM      1  C   UNL     1      53.502  23.245  52.045  1.00  0.00     0.000 C 
ENDROOT
BRANCH   1   2
ATOM      2  C   UNL     1      53.923  23.688  53.455  1.00  0.00     0.006 C 
BRANCH   2   3
ATOM      3  C   UNL     1      54.103  22.507  54.418  1.00  0.00     0.053 C 
BRANCH   3   4
ATOM      4  C   UNL     1      55.275  22.743  55.320  1.00  0.00     0.041 C 
ATOM      5  O   UNL     1      56.336  23.242  54.860  1.00  0.00    -0.550 OA
ATOM      6  O   UNL     1      55.212  22.365  56.654  1.00  0.00    -0.550 OA
ENDBRANCH   3   4
ENDBRANCH   2   3
ENDBRANCH   1   2
BRANCH   1   7
ATOM      7  C   UNL     1      53.274  21.726  51.947  1.00  0.00     0.000 C 
BRANCH   7   8
ATOM      8  C   UNL     1      52.118  21.362  51.000  1.00  0.00    -0.000 C 
BRANCH   8   9
ATOM      9  C   UNL     1      52.600  20.638  49.731  1.00  0.00    -0.000 C 
BRANCH   9  10
ATOM     10  C   UNL     1      54.124  20.432  49.714  1.00  0.00    -0.003 C 
ATOM     11  C   UNL     1      54.798  21.088  48.509  1.00  0.00     0.004 C 
ENDBRANCH   9  10
ENDBRANCH   8   9
ENDBRANCH   7   8
ENDBRANCH   1   7
TORSDOF 7
ENDMDL
