MODEL 1
REMARK VINA RESULT:    -6.861      0.000      0.000
REMARK INTER + INTRA:          -8.448
REMARK INTER:                  -8.264
REMARK INTRA:                  -0.183
REMARK UNBOUND:                -0.183
REMARK SMILES O=c1c(O)c(-c2ccc(O)c(O)c2)oc2cc(O)cc(O)c12
REMARK SMILES IDX 5 1 3 2 2 3 1 4 22 5 20 6 19 7 17 8 16 9 15 10 14 11 6 12
REMARK SMILES IDX 7 13 8 14 9 15 13 16 11 17 10 18 12 20 4 22 21 24 18 26
REMARK H PARENT 10 19 12 21 4 23 21 25 18 27
REMARK Flexibility Score: inf
ROOT
ATOM      1  C   UNL     1     133.100   3.637  94.149  1.00  0.00     0.180 A 
ATOM      2  C   UNL     1     132.138   3.585  93.125  1.00  0.00     0.208 A 
ATOM      3  C   UNL     1     131.379   4.733  92.846  1.00  0.00     0.238 A 
ATOM      4  O   UNL     1     130.482   4.665  91.965  1.00  0.00    -0.285 OA
ATOM      5  C   UNL     1     131.601   5.921  93.583  1.00  0.00     0.111 A 
ATOM      6  C   UNL     1     130.917   7.154  93.358  1.00  0.00     0.134 A 
ATOM      7  C   UNL     1     131.124   8.228  94.233  1.00  0.00     0.093 A 
ATOM      8  C   UNL     1     132.036   8.135  95.283  1.00  0.00     0.123 A 
ATOM      9  C   UNL     1     132.754   6.955  95.476  1.00  0.00     0.094 A 
ATOM     10  C   UNL     1     132.542   5.854  94.642  1.00  0.00     0.146 A 
ATOM     11  O   UNL     1     133.239   4.745  94.865  1.00  0.00    -0.452 OA
ENDROOT
BRANCH   1  12
ATOM     12  C   UNL     1     133.956   2.476  94.485  1.00  0.00     0.025 A 
ATOM     13  C   UNL     1     133.414   1.303  95.040  1.00  0.00     0.016 A 
ATOM     14  C   UNL     1     134.237   0.211  95.326  1.00  0.00     0.051 A 
ATOM     15  C   UNL     1     135.610   0.270  95.050  1.00  0.00     0.157 A 
ATOM     16  C   UNL     1     135.328   2.522  94.192  1.00  0.00     0.062 A 
ATOM     17  C   UNL     1     136.156   1.426  94.479  1.00  0.00     0.158 A 
BRANCH  15  18
ATOM     18  O   UNL     1     136.434  -0.817  95.336  1.00  0.00    -0.504 OA
ATOM     19  H   UNL     1     137.356  -0.904  94.926  1.00  0.00     0.293 HD
ENDBRANCH  15  18
BRANCH  17  20
ATOM     20  O   UNL     1     137.520   1.480  94.199  1.00  0.00    -0.504 OA
ATOM     21  H   UNL     1     137.962   0.804  93.587  1.00  0.00     0.293 HD
ENDBRANCH  17  20
ENDBRANCH   1  12
BRANCH   2  22
ATOM     22  O   UNL     1     131.920   2.396  92.424  1.00  0.00    -0.502 OA
ATOM     23  H   UNL     1     131.027   2.167  92.005  1.00  0.00     0.293 HD
ENDBRANCH   2  22
BRANCH   6  24
ATOM     24  O   UNL     1     130.052   7.382  92.283  1.00  0.00    -0.507 OA
ATOM     25  H   UNL     1     129.684   8.285  92.024  1.00  0.00     0.293 HD
ENDBRANCH   6  24
BRANCH   8  26
ATOM     26  O   UNL     1     132.229   9.229  96.125  1.00  0.00    -0.508 OA
ATOM     27  H   UNL     1     131.728  10.099  95.987  1.00  0.00     0.293 HD
ENDBRANCH   8  26
TORSDOF 6
ENDMDL
MODEL 2
REMARK VINA RESULT:    -6.521      1.580      7.216
REMARK INTER + INTRA:          -8.039
REMARK INTER:                  -8.229
REMARK INTRA:                   0.191
REMARK UNBOUND:                -0.183
REMARK SMILES O=c1c(O)c(-c2ccc(O)c(O)c2)oc2cc(O)cc(O)c12
REMARK SMILES IDX 5 1 3 2 2 3 1 4 22 5 20 6 19 7 17 8 16 9 15 10 14 11 6 12
REMARK SMILES IDX 7 13 8 14 9 15 13 16 11 17 10 18 12 20 4 22 21 24 18 26
REMARK H PARENT 10 19 12 21 4 23 21 25 18 27
REMARK Flexibility Score: inf
ROOT
ATOM      1  C   UNL     1     133.506   5.004  94.458  1.00  0.00     0.180 A 
ATOM      2  C   UNL     1     134.847   5.095  94.870  1.00  0.00     0.208 A 
ATOM      3  C   UNL     1     135.613   3.922  94.960  1.00  0.00     0.238 A 
ATOM      4  O   UNL     1     136.796   4.003  95.380  1.00  0.00    -0.285 OA
ATOM      5  C   UNL     1     135.034   2.676  94.621  1.00  0.00     0.111 A 
ATOM      6  C   UNL     1     135.729   1.428  94.636  1.00  0.00     0.134 A 
ATOM      7  C   UNL     1     135.022   0.241  94.409  1.00  0.00     0.093 A 
ATOM      8  C   UNL     1     133.661   0.260  94.103  1.00  0.00     0.123 A 
ATOM      9  C   UNL     1     132.986   1.478  94.026  1.00  0.00     0.094 A 
ATOM     10  C   UNL     1     133.656   2.676  94.284  1.00  0.00     0.146 A 
ATOM     11  O   UNL     1     132.974   3.814  94.211  1.00  0.00    -0.452 OA
ENDROOT
BRANCH   1  12
ATOM     12  C   UNL     1     132.643   6.198  94.316  1.00  0.00     0.025 A 
ATOM     13  C   UNL     1     131.711   6.308  93.268  1.00  0.00     0.016 A 
ATOM     14  C   UNL     1     130.889   7.433  93.167  1.00  0.00     0.051 A 
ATOM     15  C   UNL     1     130.977   8.459  94.119  1.00  0.00     0.157 A 
ATOM     16  C   UNL     1     132.711   7.220  95.277  1.00  0.00     0.062 A 
ATOM     17  C   UNL     1     131.887   8.351  95.177  1.00  0.00     0.158 A 
BRANCH  15  18
ATOM     18  O   UNL     1     130.160   9.584  94.021  1.00  0.00    -0.504 OA
ATOM     19  H   UNL     1     129.165   9.534  94.203  1.00  0.00     0.293 HD
ENDBRANCH  15  18
BRANCH  17  20
ATOM     20  O   UNL     1     131.968   9.369  96.125  1.00  0.00    -0.504 OA
ATOM     21  H   UNL     1     131.360  10.178  96.087  1.00  0.00     0.293 HD
ENDBRANCH  17  20
ENDBRANCH   1  12
BRANCH   2  22
ATOM     22  O   UNL     1     135.392   6.334  95.220  1.00  0.00    -0.502 OA
ATOM     23  H   UNL     1     136.109   6.788  94.667  1.00  0.00     0.293 HD
ENDBRANCH   2  22
BRANCH   6  24
ATOM     24  O   UNL     1     137.107   1.305  94.841  1.00  0.00    -0.507 OA
ATOM     25  H   UNL     1     137.550   1.252  95.746  1.00  0.00     0.293 HD
ENDBRANCH   6  24
BRANCH   8  26
ATOM     26  O   UNL     1     132.993  -0.939  93.867  1.00  0.00    -0.508 OA
ATOM     27  H   UNL     1     133.463  -1.833  93.946  1.00  0.00     0.293 HD
ENDBRANCH   8  26
TORSDOF 6
ENDMDL
MODEL 3
REMARK VINA RESULT:    -6.482      1.423      6.723
REMARK INTER + INTRA:          -7.991
REMARK INTER:                  -7.694
REMARK INTRA:                  -0.297
REMARK UNBOUND:                -0.183
REMARK SMILES O=c1c(O)c(-c2ccc(O)c(O)c2)oc2cc(O)cc(O)c12
REMARK SMILES IDX 5 1 3 2 2 3 1 4 22 5 20 6 19 7 17 8 16 9 15 10 14 11 6 12
REMARK SMILES IDX 7 13 8 14 9 15 13 16 11 17 10 18 12 20 4 22 21 24 18 26
REMARK H PARENT 10 19 12 21 4 23 21 25 18 27
REMARK Flexibility Score: inf
ROOT
ATOM      1  C   UNL     1     132.209   4.810  94.310  1.00  0.00     0.180 A 
ATOM      2  C   UNL     1     131.438   3.727  93.852  1.00  0.00     0.208 A 
ATOM      3  C   UNL     1     132.034   2.460  93.754  1.00  0.00     0.238 A 
ATOM      4  O   UNL     1     131.354   1.506  93.293  1.00  0.00    -0.285 OA
ATOM      5  C   UNL     1     133.388   2.287  94.129  1.00  0.00     0.111 A 
ATOM      6  C   UNL     1     134.083   1.039  94.108  1.00  0.00     0.134 A 
ATOM      7  C   UNL     1     135.457   1.010  94.375  1.00  0.00     0.093 A 
ATOM      8  C   UNL     1     136.148   2.169  94.725  1.00  0.00     0.123 A 
ATOM      9  C   UNL     1     135.466   3.384  94.808  1.00  0.00     0.094 A 
ATOM     10  C   UNL     1     134.103   3.452  94.511  1.00  0.00     0.146 A 
ATOM     11  O   UNL     1     133.494   4.629  94.591  1.00  0.00    -0.452 OA
ENDROOT
BRANCH   1  12
ATOM     12  C   UNL     1     131.645   6.169  94.464  1.00  0.00     0.025 A 
ATOM     13  C   UNL     1     131.262   6.665  95.723  1.00  0.00     0.016 A 
ATOM     14  C   UNL     1     130.754   7.961  95.849  1.00  0.00     0.051 A 
ATOM     15  C   UNL     1     130.634   8.784  94.721  1.00  0.00     0.157 A 
ATOM     16  C   UNL     1     131.541   7.007  93.341  1.00  0.00     0.062 A 
ATOM     17  C   UNL     1     131.031   8.307  93.466  1.00  0.00     0.158 A 
BRANCH  15  18
ATOM     18  O   UNL     1     130.126  10.076  94.842  1.00  0.00    -0.504 OA
ATOM     19  H   UNL     1     130.424  10.822  94.225  1.00  0.00     0.293 HD
ENDBRANCH  15  18
BRANCH  17  20
ATOM     20  O   UNL     1     130.917   9.130  92.347  1.00  0.00    -0.504 OA
ATOM     21  H   UNL     1     130.094   9.701  92.190  1.00  0.00     0.293 HD
ENDBRANCH  17  20
ENDBRANCH   1  12
BRANCH   2  22
ATOM     22  O   UNL     1     130.109   3.924  93.467  1.00  0.00    -0.502 OA
ATOM     23  H   UNL     1     129.621   3.285  92.851  1.00  0.00     0.293 HD
ENDBRANCH   2  22
BRANCH   6  24
ATOM     24  O   UNL     1     133.468  -0.192  93.859  1.00  0.00    -0.507 OA
ATOM     25  H   UNL     1     133.948  -1.019  93.539  1.00  0.00     0.293 HD
ENDBRANCH   6  24
BRANCH   8  26
ATOM     26  O   UNL     1     137.512   2.100  95.000  1.00  0.00    -0.508 OA
ATOM     27  H   UNL     1     137.861   2.080  95.951  1.00  0.00     0.293 HD
ENDBRANCH   8  26
TORSDOF 6
ENDMDL
MODEL 4
REMARK VINA RESULT:    -6.418      1.230      2.869
REMARK INTER + INTRA:          -7.915
REMARK INTER:                  -7.710
REMARK INTRA:                  -0.204
REMARK UNBOUND:                -0.183
REMARK SMILES O=c1c(O)c(-c2ccc(O)c(O)c2)oc2cc(O)cc(O)c12
REMARK SMILES IDX 5 1 3 2 2 3 1 4 22 5 20 6 19 7 17 8 16 9 15 10 14 11 6 12
REMARK SMILES IDX 7 13 8 14 9 15 13 16 11 17 10 18 12 20 4 22 21 24 18 26
REMARK H PARENT 10 19 12 21 4 23 21 25 18 27
REMARK Flexibility Score: inf
ROOT
ATOM      1  C   UNL     1     133.458   3.989  94.447  1.00  0.00     0.180 A 
ATOM      2  C   UNL     1     133.812   5.192  95.083  1.00  0.00     0.208 A 
ATOM      3  C   UNL     1     133.078   6.354  94.797  1.00  0.00     0.238 A 
ATOM      4  O   UNL     1     133.433   7.439  95.328  1.00  0.00    -0.285 OA
ATOM      5  C   UNL     1     131.990   6.296  93.893  1.00  0.00     0.111 A 
ATOM      6  C   UNL     1     131.153   7.404  93.561  1.00  0.00     0.134 A 
ATOM      7  C   UNL     1     130.189   7.263  92.555  1.00  0.00     0.093 A 
ATOM      8  C   UNL     1     129.988   6.040  91.916  1.00  0.00     0.123 A 
ATOM      9  C   UNL     1     130.760   4.936  92.275  1.00  0.00     0.094 A 
ATOM     10  C   UNL     1     131.755   5.054  93.249  1.00  0.00     0.146 A 
ATOM     11  O   UNL     1     132.475   3.981  93.555  1.00  0.00    -0.452 OA
ENDROOT
BRANCH   1  12
ATOM     12  C   UNL     1     134.168   2.718  94.715  1.00  0.00     0.025 A 
ATOM     13  C   UNL     1     133.538   1.655  95.387  1.00  0.00     0.016 A 
ATOM     14  C   UNL     1     134.219   0.455  95.608  1.00  0.00     0.051 A 
ATOM     15  C   UNL     1     135.534   0.295  95.150  1.00  0.00     0.157 A 
ATOM     16  C   UNL     1     135.478   2.544  94.241  1.00  0.00     0.062 A 
ATOM     17  C   UNL     1     136.163   1.340  94.462  1.00  0.00     0.158 A 
BRANCH  15  18
ATOM     18  O   UNL     1     136.217  -0.899  95.370  1.00  0.00    -0.504 OA
ATOM     19  H   UNL     1     137.185  -0.909  95.669  1.00  0.00     0.293 HD
ENDBRANCH  15  18
BRANCH  17  20
ATOM     20  O   UNL     1     137.468   1.176  94.002  1.00  0.00    -0.504 OA
ATOM     21  H   UNL     1     138.102   1.962  93.913  1.00  0.00     0.293 HD
ENDBRANCH  17  20
ENDBRANCH   1  12
BRANCH   2  22
ATOM     22  O   UNL     1     134.902   5.231  95.957  1.00  0.00    -0.502 OA
ATOM     23  H   UNL     1     134.834   5.607  96.895  1.00  0.00     0.293 HD
ENDBRANCH   2  22
BRANCH   6  24
ATOM     24  O   UNL     1     131.209   8.645  94.202  1.00  0.00    -0.507 OA
ATOM     25  H   UNL     1     130.794   8.847  95.099  1.00  0.00     0.293 HD
ENDBRANCH   6  24
BRANCH   8  26
ATOM     26  O   UNL     1     129.009   5.932  90.931  1.00  0.00    -0.508 OA
ATOM     27  H   UNL     1     128.356   6.684  90.747  1.00  0.00     0.293 HD
ENDBRANCH   8  26
TORSDOF 6
ENDMDL
MODEL 5
REMARK VINA RESULT:    -6.292      3.377      5.309
REMARK INTER + INTRA:          -7.763
REMARK INTER:                  -7.440
REMARK INTRA:                  -0.323
REMARK UNBOUND:                -0.183
REMARK SMILES O=c1c(O)c(-c2ccc(O)c(O)c2)oc2cc(O)cc(O)c12
REMARK SMILES IDX 5 1 3 2 2 3 1 4 22 5 20 6 19 7 17 8 16 9 15 10 14 11 6 12
REMARK SMILES IDX 7 13 8 14 9 15 13 16 11 17 10 18 12 20 4 22 21 24 18 26
REMARK H PARENT 10 19 12 21 4 23 21 25 18 27
REMARK Flexibility Score: inf
ROOT
ATOM      1  C   UNL     1     132.579   1.283  92.637  1.00  0.00     0.180 A 
ATOM      2  C   UNL     1     131.720   2.343  92.977  1.00  0.00     0.208 A 
ATOM      3  C   UNL     1     132.213   3.392  93.769  1.00  0.00     0.238 A 
ATOM      4  O   UNL     1     131.424   4.310  94.115  1.00  0.00    -0.285 OA
ATOM      5  C   UNL     1     133.562   3.378  94.196  1.00  0.00     0.111 A 
ATOM      6  C   UNL     1     134.179   4.410  94.967  1.00  0.00     0.134 A 
ATOM      7  C   UNL     1     135.483   4.229  95.445  1.00  0.00     0.093 A 
ATOM      8  C   UNL     1     136.215   3.085  95.125  1.00  0.00     0.123 A 
ATOM      9  C   UNL     1     135.643   2.099  94.322  1.00  0.00     0.094 A 
ATOM     10  C   UNL     1     134.331   2.234  93.861  1.00  0.00     0.146 A 
ATOM     11  O   UNL     1     133.820   1.267  93.107  1.00  0.00    -0.452 OA
ENDROOT
BRANCH   1  12
ATOM     12  C   UNL     1     132.140   0.154  91.786  1.00  0.00     0.025 A 
ATOM     13  C   UNL     1     131.536  -0.988  92.340  1.00  0.00     0.016 A 
ATOM     14  C   UNL     1     131.107  -2.032  91.516  1.00  0.00     0.051 A 
ATOM     15  C   UNL     1     131.263  -1.943  90.126  1.00  0.00     0.157 A 
ATOM     16  C   UNL     1     132.274   0.246  90.391  1.00  0.00     0.062 A 
ATOM     17  C   UNL     1     131.844  -0.800  89.562  1.00  0.00     0.158 A 
BRANCH  15  18
ATOM     18  O   UNL     1     130.837  -2.982  89.300  1.00  0.00    -0.504 OA
ATOM     19  H   UNL     1     129.859  -3.235  89.228  1.00  0.00     0.293 HD
ENDBRANCH  15  18
BRANCH  17  20
ATOM     20  O   UNL     1     131.991  -0.711  88.180  1.00  0.00    -0.504 OA
ATOM     21  H   UNL     1     132.498  -1.414  87.654  1.00  0.00     0.293 HD
ENDBRANCH  17  20
ENDBRANCH   1  12
BRANCH   2  22
ATOM     22  O   UNL     1     130.385   2.326  92.562  1.00  0.00    -0.502 OA
ATOM     23  H   UNL     1     129.926   1.481  92.243  1.00  0.00     0.293 HD
ENDBRANCH   2  22
BRANCH   6  24
ATOM     24  O   UNL     1     133.568   5.631  95.267  1.00  0.00    -0.507 OA
ATOM     25  H   UNL     1     133.668   6.124  96.141  1.00  0.00     0.293 HD
ENDBRANCH   6  24
BRANCH   8  26
ATOM     26  O   UNL     1     137.516   2.946  95.604  1.00  0.00    -0.508 OA
ATOM     27  H   UNL     1     138.083   2.140  95.371  1.00  0.00     0.293 HD
ENDBRANCH   8  26
TORSDOF 6
ENDMDL
MODEL 6
REMARK VINA RESULT:    -6.116      3.308      6.259
REMARK INTER + INTRA:          -7.550
REMARK INTER:                  -7.509
REMARK INTRA:                  -0.041
REMARK UNBOUND:                -0.183
REMARK SMILES O=c1c(O)c(-c2ccc(O)c(O)c2)oc2cc(O)cc(O)c12
REMARK SMILES IDX 5 1 3 2 2 3 1 4 22 5 20 6 19 7 17 8 16 9 15 10 14 11 6 12
REMARK SMILES IDX 7 13 8 14 9 15 13 16 11 17 10 18 12 20 4 22 21 24 18 26
REMARK H PARENT 10 19 12 21 4 23 21 25 18 27
REMARK Flexibility Score: inf
ROOT
ATOM      1  C   UNL     1     133.812   1.277  93.619  1.00  0.00     0.180 A 
ATOM      2  C   UNL     1     133.580  -0.018  94.115  1.00  0.00     0.208 A 
ATOM      3  C   UNL     1     132.717  -0.873  93.411  1.00  0.00     0.238 A 
ATOM      4  O   UNL     1     132.472  -2.011  93.889  1.00  0.00    -0.285 OA
ATOM      5  C   UNL     1     132.110  -0.429  92.212  1.00  0.00     0.111 A 
ATOM      6  C   UNL     1     131.249  -1.225  91.396  1.00  0.00     0.134 A 
ATOM      7  C   UNL     1     130.600  -0.641  90.302  1.00  0.00     0.093 A 
ATOM      8  C   UNL     1     130.829   0.691  89.956  1.00  0.00     0.123 A 
ATOM      9  C   UNL     1     131.714   1.460  90.710  1.00  0.00     0.094 A 
ATOM     10  C   UNL     1     132.349   0.916  91.830  1.00  0.00     0.146 A 
ATOM     11  O   UNL     1     133.176   1.686  92.528  1.00  0.00    -0.452 OA
ENDROOT
BRANCH   1  12
ATOM     12  C   UNL     1     134.727   2.226  94.291  1.00  0.00     0.025 A 
ATOM     13  C   UNL     1     136.042   1.859  94.631  1.00  0.00     0.016 A 
ATOM     14  C   UNL     1     136.897   2.779  95.244  1.00  0.00     0.051 A 
ATOM     15  C   UNL     1     136.455   4.082  95.513  1.00  0.00     0.157 A 
ATOM     16  C   UNL     1     134.298   3.539  94.545  1.00  0.00     0.062 A 
ATOM     17  C   UNL     1     135.155   4.464  95.159  1.00  0.00     0.158 A 
BRANCH  15  18
ATOM     18  O   UNL     1     137.304   5.002  96.124  1.00  0.00    -0.504 OA
ATOM     19  H   UNL     1     137.236   5.210  97.113  1.00  0.00     0.293 HD
ENDBRANCH  15  18
BRANCH  17  20
ATOM     20  O   UNL     1     134.721   5.761  95.422  1.00  0.00    -0.504 OA
ATOM     21  H   UNL     1     133.914   6.156  94.953  1.00  0.00     0.293 HD
ENDBRANCH  17  20
ENDBRANCH   1  12
BRANCH   2  22
ATOM     22  O   UNL     1     134.174  -0.429  95.312  1.00  0.00    -0.502 OA
ATOM     23  H   UNL     1     135.100  -0.127  95.591  1.00  0.00     0.293 HD
ENDBRANCH   2  22
BRANCH   6  24
ATOM     24  O   UNL     1     131.023  -2.590  91.601  1.00  0.00    -0.507 OA
ATOM     25  H   UNL     1     131.747  -3.279  91.734  1.00  0.00     0.293 HD
ENDBRANCH   6  24
BRANCH   8  26
ATOM     26  O   UNL     1     130.179   1.235  88.850  1.00  0.00    -0.508 OA
ATOM     27  H   UNL     1     129.227   1.575  88.910  1.00  0.00     0.293 HD
ENDBRANCH   8  26
TORSDOF 6
ENDMDL
MODEL 7
REMARK VINA RESULT:    -6.109      2.688      4.847
REMARK INTER + INTRA:          -7.542
REMARK INTER:                  -7.476
REMARK INTRA:                  -0.066
REMARK UNBOUND:                -0.183
REMARK SMILES O=c1c(O)c(-c2ccc(O)c(O)c2)oc2cc(O)cc(O)c12
REMARK SMILES IDX 5 1 3 2 2 3 1 4 22 5 20 6 19 7 17 8 16 9 15 10 14 11 6 12
REMARK SMILES IDX 7 13 8 14 9 15 13 16 11 17 10 18 12 20 4 22 21 24 18 26
REMARK H PARENT 10 19 12 21 4 23 21 25 18 27
REMARK Flexibility Score: inf
ROOT
ATOM      1  C   UNL     1     134.181   1.565  93.899  1.00  0.00     0.180 A 
ATOM      2  C   UNL     1     135.518   1.445  94.316  1.00  0.00     0.208 A 
ATOM      3  C   UNL     1     136.175   2.575  94.829  1.00  0.00     0.238 A 
ATOM      4  O   UNL     1     137.388   2.475  95.150  1.00  0.00    -0.285 OA
ATOM      5  C   UNL     1     135.483   3.805  94.935  1.00  0.00     0.111 A 
ATOM      6  C   UNL     1     136.039   5.004  95.477  1.00  0.00     0.134 A 
ATOM      7  C   UNL     1     135.306   6.195  95.411  1.00  0.00     0.093 A 
ATOM      8  C   UNL     1     134.016   6.219  94.883  1.00  0.00     0.123 A 
ATOM      9  C   UNL     1     133.441   5.042  94.405  1.00  0.00     0.094 A 
ATOM     10  C   UNL     1     134.160   3.845  94.423  1.00  0.00     0.146 A 
ATOM     11  O   UNL     1     133.580   2.748  93.949  1.00  0.00    -0.452 OA
ENDROOT
BRANCH   1  12
ATOM     12  C   UNL     1     133.414   0.414  93.370  1.00  0.00     0.025 A 
ATOM     13  C   UNL     1     133.313  -0.790  94.090  1.00  0.00     0.016 A 
ATOM     14  C   UNL     1     132.563  -1.855  93.583  1.00  0.00     0.051 A 
ATOM     15  C   UNL     1     131.895  -1.728  92.358  1.00  0.00     0.157 A 
ATOM     16  C   UNL     1     132.725   0.543  92.153  1.00  0.00     0.062 A 
ATOM     17  C   UNL     1     131.973  -0.526  91.644  1.00  0.00     0.158 A 
BRANCH  15  18
ATOM     18  O   UNL     1     131.148  -2.788  91.849  1.00  0.00    -0.504 OA
ATOM     19  H   UNL     1     130.148  -2.852  91.998  1.00  0.00     0.293 HD
ENDBRANCH  15  18
BRANCH  17  20
ATOM     20  O   UNL     1     131.301  -0.400  90.429  1.00  0.00    -0.504 OA
ATOM     21  H   UNL     1     131.105   0.508  90.023  1.00  0.00     0.293 HD
ENDBRANCH  17  20
ENDBRANCH   1  12
BRANCH   2  22
ATOM     22  O   UNL     1     136.189   0.226  94.183  1.00  0.00    -0.502 OA
ATOM     23  H   UNL     1     137.181   0.129  94.363  1.00  0.00     0.293 HD
ENDBRANCH   2  22
BRANCH   6  24
ATOM     24  O   UNL     1     137.284   5.070  96.110  1.00  0.00    -0.507 OA
ATOM     25  H   UNL     1     137.422   5.292  97.084  1.00  0.00     0.293 HD
ENDBRANCH   6  24
BRANCH   8  26
ATOM     26  O   UNL     1     133.310   7.420  94.848  1.00  0.00    -0.508 OA
ATOM     27  H   UNL     1     132.780   7.747  95.647  1.00  0.00     0.293 HD
ENDBRANCH   8  26
TORSDOF 6
ENDMDL
MODEL 8
REMARK VINA RESULT:    -6.010      2.675      4.034
REMARK INTER + INTRA:          -7.423
REMARK INTER:                  -7.091
REMARK INTRA:                  -0.332
REMARK UNBOUND:                -0.183
REMARK SMILES O=c1c(O)c(-c2ccc(O)c(O)c2)oc2cc(O)cc(O)c12
REMARK SMILES IDX 5 1 3 2 2 3 1 4 22 5 20 6 19 7 17 8 16 9 15 10 14 11 6 12
REMARK SMILES IDX 7 13 8 14 9 15 13 16 11 17 10 18 12 20 4 22 21 24 18 26
REMARK H PARENT 10 19 12 21 4 23 21 25 18 27
REMARK Flexibility Score: inf
ROOT
ATOM      1  C   UNL     1     132.537   2.802  92.832  1.00  0.00     0.180 A 
ATOM      2  C   UNL     1     133.750   3.093  93.480  1.00  0.00     0.208 A 
ATOM      3  C   UNL     1     133.946   4.376  94.014  1.00  0.00     0.238 A 
ATOM      4  O   UNL     1     135.055   4.647  94.545  1.00  0.00    -0.285 OA
ATOM      5  C   UNL     1     132.922   5.347  93.909  1.00  0.00     0.111 A 
ATOM      6  C   UNL     1     132.998   6.667  94.449  1.00  0.00     0.134 A 
ATOM      7  C   UNL     1     131.978   7.586  94.171  1.00  0.00     0.093 A 
ATOM      8  C   UNL     1     130.857   7.216  93.429  1.00  0.00     0.123 A 
ATOM      9  C   UNL     1     130.745   5.911  92.948  1.00  0.00     0.094 A 
ATOM     10  C   UNL     1     131.763   4.983  93.177  1.00  0.00     0.146 A 
ATOM     11  O   UNL     1     131.622   3.754  92.692  1.00  0.00    -0.452 OA
ENDROOT
BRANCH   1  12
ATOM     12  C   UNL     1     132.246   1.465  92.266  1.00  0.00     0.025 A 
ATOM     13  C   UNL     1     131.694   0.441  93.055  1.00  0.00     0.016 A 
ATOM     14  C   UNL     1     131.405  -0.806  92.494  1.00  0.00     0.051 A 
ATOM     15  C   UNL     1     131.652  -1.042  91.134  1.00  0.00     0.157 A 
ATOM     16  C   UNL     1     132.471   1.229  90.900  1.00  0.00     0.062 A 
ATOM     17  C   UNL     1     132.182  -0.022  90.335  1.00  0.00     0.158 A 
BRANCH  15  18
ATOM     18  O   UNL     1     131.366  -2.285  90.571  1.00  0.00    -0.504 OA
ATOM     19  H   UNL     1     132.005  -2.733  89.925  1.00  0.00     0.293 HD
ENDBRANCH  15  18
BRANCH  17  20
ATOM     20  O   UNL     1     132.419  -0.257  88.983  1.00  0.00    -0.504 OA
ATOM     21  H   UNL     1     131.682  -0.173  88.292  1.00  0.00     0.293 HD
ENDBRANCH  17  20
ENDBRANCH   1  12
BRANCH   2  22
ATOM     22  O   UNL     1     134.756   2.125  93.554  1.00  0.00    -0.502 OA
ATOM     23  H   UNL     1     134.560   1.150  93.744  1.00  0.00     0.293 HD
ENDBRANCH   2  22
BRANCH   6  24
ATOM     24  O   UNL     1     134.031   7.112  95.279  1.00  0.00    -0.507 OA
ATOM     25  H   UNL     1     133.984   7.933  95.864  1.00  0.00     0.293 HD
ENDBRANCH   6  24
BRANCH   8  26
ATOM     26  O   UNL     1     129.854   8.152  93.186  1.00  0.00    -0.508 OA
ATOM     27  H   UNL     1     129.082   7.951  92.562  1.00  0.00     0.293 HD
ENDBRANCH   8  26
TORSDOF 6
ENDMDL
MODEL 9
REMARK VINA RESULT:    -5.794     13.879     15.769
REMARK INTER + INTRA:          -7.163
REMARK INTER:                  -6.831
REMARK INTRA:                  -0.332
REMARK UNBOUND:                -0.183
REMARK SMILES O=c1c(O)c(-c2ccc(O)c(O)c2)oc2cc(O)cc(O)c12
REMARK SMILES IDX 5 1 3 2 2 3 1 4 22 5 20 6 19 7 17 8 16 9 15 10 14 11 6 12
REMARK SMILES IDX 7 13 8 14 9 15 13 16 11 17 10 18 12 20 4 22 21 24 18 26
REMARK H PARENT 10 19 12 21 4 23 21 25 18 27
REMARK Flexibility Score: inf
ROOT
ATOM      1  C   UNL     1     134.313   0.379  79.948  1.00  0.00     0.180 A 
ATOM      2  C   UNL     1     134.072   0.191  78.576  1.00  0.00     0.208 A 
ATOM      3  C   UNL     1     133.271  -0.887  78.166  1.00  0.00     0.238 A 
ATOM      4  O   UNL     1     133.103  -1.082  76.934  1.00  0.00    -0.285 OA
ATOM      5  C   UNL     1     132.709  -1.754  79.133  1.00  0.00     0.111 A 
ATOM      6  C   UNL     1     131.849  -2.855  78.834  1.00  0.00     0.134 A 
ATOM      7  C   UNL     1     131.458  -3.724  79.859  1.00  0.00     0.093 A 
ATOM      8  C   UNL     1     131.839  -3.496  81.182  1.00  0.00     0.123 A 
ATOM      9  C   UNL     1     132.629  -2.390  81.494  1.00  0.00     0.094 A 
ATOM     10  C   UNL     1     133.066  -1.526  80.487  1.00  0.00     0.146 A 
ATOM     11  O   UNL     1     133.826  -0.490  80.826  1.00  0.00    -0.452 OA
ENDROOT
BRANCH   1  12
ATOM     12  C   UNL     1     135.126   1.506  80.458  1.00  0.00     0.025 A 
ATOM     13  C   UNL     1     134.552   2.764  80.716  1.00  0.00     0.016 A 
ATOM     14  C   UNL     1     135.334   3.807  81.220  1.00  0.00     0.051 A 
ATOM     15  C   UNL     1     136.695   3.604  81.487  1.00  0.00     0.157 A 
ATOM     16  C   UNL     1     136.485   1.303  80.747  1.00  0.00     0.062 A 
ATOM     17  C   UNL     1     137.270   2.350  81.253  1.00  0.00     0.158 A 
BRANCH  15  18
ATOM     18  O   UNL     1     137.477   4.643  81.988  1.00  0.00    -0.504 OA
ATOM     19  H   UNL     1     138.188   5.091  81.423  1.00  0.00     0.293 HD
ENDBRANCH  15  18
BRANCH  17  20
ATOM     20  O   UNL     1     138.622   2.149  81.525  1.00  0.00    -0.504 OA
ATOM     21  H   UNL     1     139.082   1.272  81.312  1.00  0.00     0.293 HD
ENDBRANCH  17  20
ENDBRANCH   1  12
BRANCH   2  22
ATOM     22  O   UNL     1     134.654   1.047  77.636  1.00  0.00    -0.502 OA
ATOM     23  H   UNL     1     134.186   1.311  76.778  1.00  0.00     0.293 HD
ENDBRANCH   2  22
BRANCH   6  24
ATOM     24  O   UNL     1     131.336  -3.119  77.560  1.00  0.00    -0.507 OA
ATOM     25  H   UNL     1     130.424  -3.511  77.379  1.00  0.00     0.293 HD
ENDBRANCH   6  24
BRANCH   8  26
ATOM     26  O   UNL     1     131.417  -4.373  82.179  1.00  0.00    -0.508 OA
ATOM     27  H   UNL     1     132.056  -5.027  82.615  1.00  0.00     0.293 HD
ENDBRANCH   8  26
TORSDOF 6
ENDMDL
