MODEL 1
REMARK VINA RESULT:    -3.151      0.000      0.000
REMARK INTER + INTRA:          -3.951
REMARK INTER:                  -3.888
REMARK INTRA:                  -0.063
REMARK UNBOUND:                -0.063
REMARK SMILES CCCCCC(=O)[O-]
REMARK SMILES IDX 4 1 5 2 6 3 7 4 8 5 3 6 2 7 1 8
REMARK H PARENT
REMARK Flexibility Score: inf
ROOT
ATOM      1  C   UNL     1     190.685 196.228 200.975  1.00  0.00     0.006 C 
ENDROOT
BRANCH   1   2
ATOM      2  C   UNL     1     191.882 197.159 201.206  1.00  0.00     0.053 C 
BRANCH   2   3
ATOM      3  C   UNL     1     192.417 197.705 199.918  1.00  0.00     0.041 C 
ATOM      4  O   UNL     1     191.735 197.622 198.861  1.00  0.00    -0.550 OA
ATOM      5  O   UNL     1     193.655 198.333 199.889  1.00  0.00    -0.550 OA
ENDBRANCH   2   3
ENDBRANCH   1   2
BRANCH   1   6
ATOM      6  C   UNL     1     189.516 196.537 201.922  1.00  0.00     0.000 C 
BRANCH   6   7
ATOM      7  C   UNL     1     188.191 196.025 201.345  1.00  0.00    -0.003 C 
ATOM      8  C   UNL     1     186.999 196.622 202.087  1.00  0.00     0.004 C 
ENDBRANCH   6   7
ENDBRANCH   1   6
TORSDOF 4
ENDMDL
MODEL 2
REMARK VINA RESULT:    -3.127     15.521     16.444
REMARK INTER + INTRA:          -3.921
REMARK INTER:                  -3.646
REMARK INTRA:                  -0.275
REMARK UNBOUND:                -0.063
REMARK SMILES CCCCCC(=O)[O-]
REMARK SMILES IDX 4 1 5 2 6 3 7 4 8 5 3 6 2 7 1 8
REMARK H PARENT
REMARK Flexibility Score: inf
ROOT
ATOM      1  C   UNL     1     185.487 180.420 199.860  1.00  0.00     0.006 C 
ENDROOT
BRANCH   1   2
ATOM      2  C   UNL     1     186.773 181.106 199.381  1.00  0.00     0.053 C 
BRANCH   2   3
ATOM      3  C   UNL     1     187.150 182.256 200.264  1.00  0.00     0.041 C 
ATOM      4  O   UNL     1     188.269 182.273 200.841  1.00  0.00    -0.550 OA
ATOM      5  O   UNL     1     186.277 183.325 200.426  1.00  0.00    -0.550 OA
ENDBRANCH   2   3
ENDBRANCH   1   2
BRANCH   1   6
ATOM      6  C   UNL     1     185.587 179.952 201.320  1.00  0.00     0.000 C 
BRANCH   6   7
ATOM      7  C   UNL     1     184.348 180.373 202.118  1.00  0.00    -0.003 C 
ATOM      8  C   UNL     1     183.441 181.278 201.290  1.00  0.00     0.004 C 
ENDBRANCH   6   7
ENDBRANCH   1   6
TORSDOF 4
ENDMDL
MODEL 3
REMARK VINA RESULT:    -3.054      3.215      5.299
REMARK INTER + INTRA:          -3.832
REMARK INTER:                  -3.733
REMARK INTRA:                  -0.098
REMARK UNBOUND:                -0.063
REMARK SMILES CCCCCC(=O)[O-]
REMARK SMILES IDX 4 1 5 2 6 3 7 4 8 5 3 6 2 7 1 8
REMARK H PARENT
REMARK Flexibility Score: inf
ROOT
ATOM      1  C   UNL     1     193.632 197.621 201.586  1.00  0.00     0.006 C 
ENDROOT
BRANCH   1   2
ATOM      2  C   UNL     1     193.498 197.861 200.077  1.00  0.00     0.053 C 
BRANCH   2   3
ATOM      3  C   UNL     1     192.136 197.489 199.576  1.00  0.00     0.041 C 
ATOM      4  O   UNL     1     191.855 197.608 198.354  1.00  0.00    -0.550 OA
ATOM      5  O   UNL     1     191.186 196.981 200.453  1.00  0.00    -0.550 OA
ENDBRANCH   2   3
ENDBRANCH   1   2
BRANCH   1   6
ATOM      6  C   UNL     1     195.005 198.052 202.123  1.00  0.00     0.000 C 
BRANCH   6   7
ATOM      7  C   UNL     1     195.988 196.876 202.125  1.00  0.00    -0.003 C 
ATOM      8  C   UNL     1     197.244 197.205 201.324  1.00  0.00     0.004 C 
ENDBRANCH   6   7
ENDBRANCH   1   6
TORSDOF 4
ENDMDL
MODEL 4
REMARK VINA RESULT:    -3.043     16.113     17.044
REMARK INTER + INTRA:          -3.818
REMARK INTER:                  -3.736
REMARK INTRA:                  -0.082
REMARK UNBOUND:                -0.063
REMARK SMILES CCCCCC(=O)[O-]
REMARK SMILES IDX 4 1 5 2 6 3 7 4 8 5 3 6 2 7 1 8
REMARK H PARENT
REMARK Flexibility Score: inf
ROOT
ATOM      1  C   UNL     1     187.220 183.333 190.639  1.00  0.00     0.006 C 
ENDROOT
BRANCH   1   2
ATOM      2  C   UNL     1     186.646 184.650 191.178  1.00  0.00     0.053 C 
BRANCH   2   3
ATOM      3  C   UNL     1     186.040 184.474 192.537  1.00  0.00     0.041 C 
ATOM      4  O   UNL     1     184.826 184.162 192.656  1.00  0.00    -0.550 OA
ATOM      5  O   UNL     1     186.825 184.625 193.673  1.00  0.00    -0.550 OA
ENDBRANCH   2   3
ENDBRANCH   1   2
BRANCH   1   6
ATOM      6  C   UNL     1     188.755 183.332 190.623  1.00  0.00     0.000 C 
BRANCH   6   7
ATOM      7  C   UNL     1     189.291 183.807 189.268  1.00  0.00    -0.003 C 
ATOM      8  C   UNL     1     190.817 183.783 189.239  1.00  0.00     0.004 C 
ENDBRANCH   6   7
ENDBRANCH   1   6
TORSDOF 4
ENDMDL
MODEL 5
REMARK VINA RESULT:    -3.041     16.029     17.195
REMARK INTER + INTRA:          -3.816
REMARK INTER:                  -3.626
REMARK INTRA:                  -0.190
REMARK UNBOUND:                -0.063
REMARK SMILES CCCCCC(=O)[O-]
REMARK SMILES IDX 4 1 5 2 6 3 7 4 8 5 3 6 2 7 1 8
REMARK H PARENT
REMARK Flexibility Score: inf
ROOT
ATOM      1  C   UNL     1     186.035 180.572 201.211  1.00  0.00     0.006 C 
ENDROOT
BRANCH   1   2
ATOM      2  C   UNL     1     184.719 180.334 201.962  1.00  0.00     0.053 C 
BRANCH   2   3
ATOM      3  C   UNL     1     183.896 181.582 202.046  1.00  0.00     0.041 C 
ATOM      4  O   UNL     1     184.451 182.712 202.017  1.00  0.00    -0.550 OA
ATOM      5  O   UNL     1     182.512 181.499 202.125  1.00  0.00    -0.550 OA
ENDBRANCH   2   3
ENDBRANCH   1   2
BRANCH   1   6
ATOM      6  C   UNL     1     185.944 180.162 199.733  1.00  0.00     0.000 C 
BRANCH   6   7
ATOM      7  C   UNL     1     186.760 181.112 198.849  1.00  0.00    -0.003 C 
ATOM      8  C   UNL     1     186.088 182.477 198.738  1.00  0.00     0.004 C 
ENDBRANCH   6   7
ENDBRANCH   1   6
TORSDOF 4
ENDMDL
MODEL 6
REMARK VINA RESULT:    -3.040     15.352     16.116
REMARK INTER + INTRA:          -3.814
REMARK INTER:                  -3.723
REMARK INTRA:                  -0.091
REMARK UNBOUND:                -0.063
REMARK SMILES CCCCCC(=O)[O-]
REMARK SMILES IDX 4 1 5 2 6 3 7 4 8 5 3 6 2 7 1 8
REMARK H PARENT
REMARK Flexibility Score: inf
ROOT
ATOM      1  C   UNL     1     186.026 184.248 191.496  1.00  0.00     0.006 C 
ENDROOT
BRANCH   1   2
ATOM      2  C   UNL     1     187.163 184.377 190.475  1.00  0.00     0.053 C 
BRANCH   2   3
ATOM      3  C   UNL     1     188.157 183.264 190.607  1.00  0.00     0.041 C 
ATOM      4  O   UNL     1     187.770 182.097 190.878  1.00  0.00    -0.550 OA
ATOM      5  O   UNL     1     189.508 183.509 190.400  1.00  0.00    -0.550 OA
ENDBRANCH   2   3
ENDBRANCH   1   2
BRANCH   1   6
ATOM      6  C   UNL     1     186.364 184.929 192.831  1.00  0.00     0.000 C 
BRANCH   6   7
ATOM      7  C   UNL     1     185.862 186.377 192.852  1.00  0.00    -0.003 C 
ATOM      8  C   UNL     1     185.241 186.726 194.201  1.00  0.00     0.004 C 
ENDBRANCH   6   7
ENDBRANCH   1   6
TORSDOF 4
ENDMDL
MODEL 7
REMARK VINA RESULT:    -3.022     16.276     16.764
REMARK INTER + INTRA:          -3.792
REMARK INTER:                  -3.710
REMARK INTRA:                  -0.083
REMARK UNBOUND:                -0.063
REMARK SMILES CCCCCC(=O)[O-]
REMARK SMILES IDX 4 1 5 2 6 3 7 4 8 5 3 6 2 7 1 8
REMARK H PARENT
REMARK Flexibility Score: inf
ROOT
ATOM      1  C   UNL     1     184.547 181.710 200.780  1.00  0.00     0.006 C 
ENDROOT
BRANCH   1   2
ATOM      2  C   UNL     1     185.347 180.694 199.954  1.00  0.00     0.053 C 
BRANCH   2   3
ATOM      3  C   UNL     1     186.673 181.247 199.531  1.00  0.00     0.041 C 
ATOM      4  O   UNL     1     187.521 181.596 200.394  1.00  0.00    -0.550 OA
ATOM      5  O   UNL     1     186.987 181.347 198.181  1.00  0.00    -0.550 OA
ENDBRANCH   2   3
ENDBRANCH   1   2
BRANCH   1   6
ATOM      6  C   UNL     1     183.597 181.030 201.777  1.00  0.00     0.000 C 
BRANCH   6   7
ATOM      7  C   UNL     1     182.375 181.912 202.060  1.00  0.00    -0.003 C 
ATOM      8  C   UNL     1     181.257 181.644 201.057  1.00  0.00     0.004 C 
ENDBRANCH   6   7
ENDBRANCH   1   6
TORSDOF 4
ENDMDL
MODEL 8
REMARK VINA RESULT:    -2.995     14.613     15.653
REMARK INTER + INTRA:          -3.758
REMARK INTER:                  -3.671
REMARK INTRA:                  -0.088
REMARK UNBOUND:                -0.063
REMARK SMILES CCCCCC(=O)[O-]
REMARK SMILES IDX 4 1 5 2 6 3 7 4 8 5 3 6 2 7 1 8
REMARK H PARENT
REMARK Flexibility Score: inf
ROOT
ATOM      1  C   UNL     1     185.919 185.571 191.689  1.00  0.00     0.006 C 
ENDROOT
BRANCH   1   2
ATOM      2  C   UNL     1     186.071 186.614 192.804  1.00  0.00     0.053 C 
BRANCH   2   3
ATOM      3  C   UNL     1     184.929 186.563 193.771  1.00  0.00     0.041 C 
ATOM      4  O   UNL     1     184.981 187.210 194.850  1.00  0.00    -0.550 OA
ATOM      5  O   UNL     1     183.791 185.826 193.466  1.00  0.00    -0.550 OA
ENDBRANCH   2   3
ENDBRANCH   1   2
BRANCH   1   6
ATOM      6  C   UNL     1     186.718 184.292 191.976  1.00  0.00     0.000 C 
BRANCH   6   7
ATOM      7  C   UNL     1     187.071 183.562 190.675  1.00  0.00    -0.003 C 
ATOM      8  C   UNL     1     188.576 183.338 190.558  1.00  0.00     0.004 C 
ENDBRANCH   6   7
ENDBRANCH   1   6
TORSDOF 4
ENDMDL
MODEL 9
REMARK VINA RESULT:    -2.933     16.725     17.683
REMARK INTER + INTRA:          -3.682
REMARK INTER:                  -3.469
REMARK INTRA:                  -0.213
REMARK UNBOUND:                -0.063
REMARK SMILES CCCCCC(=O)[O-]
REMARK SMILES IDX 4 1 5 2 6 3 7 4 8 5 3 6 2 7 1 8
REMARK H PARENT
REMARK Flexibility Score: inf
ROOT
ATOM      1  C   UNL     1     184.816 181.855 201.805  1.00  0.00     0.006 C 
ENDROOT
BRANCH   1   2
ATOM      2  C   UNL     1     184.683 180.332 201.935  1.00  0.00     0.053 C 
BRANCH   2   3
ATOM      3  C   UNL     1     184.687 179.660 200.596  1.00  0.00     0.041 C 
ATOM      4  O   UNL     1     183.747 178.886 200.271  1.00  0.00    -0.550 OA
ATOM      5  O   UNL     1     185.713 179.910 199.695  1.00  0.00    -0.550 OA
ENDBRANCH   2   3
ENDBRANCH   1   2
BRANCH   1   6
ATOM      6  C   UNL     1     183.537 182.507 201.260  1.00  0.00     0.000 C 
BRANCH   6   7
ATOM      7  C   UNL     1     182.300 181.999 202.008  1.00  0.00    -0.003 C 
ATOM      8  C   UNL     1     181.112 181.837 201.065  1.00  0.00     0.004 C 
ENDBRANCH   6   7
ENDBRANCH   1   6
TORSDOF 4
ENDMDL
