MODEL 1
REMARK VINA RESULT:    -3.916      0.000      0.000
REMARK INTER + INTRA:          -9.750
REMARK INTER:                  -7.120
REMARK INTRA:                  -2.630
REMARK UNBOUND:                -2.630
REMARK SMILES CCCCCCCCCCCCCC[C@@H](C)C(=O)[O-]
REMARK SMILES IDX 9 1 10 2 11 3 12 4 13 5 14 6 15 7 16 8 17 9 18 10 19 11 8 12
REMARK SMILES IDX 7 13 6 14 5 15 4 16 3 17 2 18 1 19
REMARK H PARENT
REMARK Flexibility Score: inf
ROOT
ATOM      1  C   UNL     1      -2.750  27.325  59.063  1.00  0.00     0.000 C 
ENDROOT
BRANCH   1   2
ATOM      2  C   UNL     1      -3.152  25.895  58.646  1.00  0.00     0.000 C 
BRANCH   2   3
ATOM      3  C   UNL     1      -2.943  25.564  57.156  1.00  0.00     0.000 C 
BRANCH   3   4
ATOM      4  C   UNL     1      -4.017  24.648  56.540  1.00  0.00     0.000 C 
BRANCH   4   5
ATOM      5  C   UNL     1      -4.713  25.255  55.302  1.00  0.00     0.001 C 
BRANCH   5   6
ATOM      6  C   UNL     1      -6.080  25.874  55.639  1.00  0.00     0.009 C 
BRANCH   6   7
ATOM      7  C   UNL     1      -6.568  25.476  57.047  1.00  0.00     0.032 C 
ATOM      8  C   UNL     1      -6.730  26.716  57.932  1.00  0.00     0.014 C 
BRANCH   7   9
ATOM      9  C   UNL     1      -7.872  24.726  56.984  1.00  0.00     0.044 C 
ATOM     10  O   UNL     1      -7.961  23.671  56.303  1.00  0.00    -0.550 OA
ATOM     11  O   UNL     1      -8.984  25.190  57.677  1.00  0.00    -0.550 OA
ENDBRANCH   7   9
ENDBRANCH   6   7
ENDBRANCH   5   6
ENDBRANCH   4   5
ENDBRANCH   3   4
ENDBRANCH   2   3
ENDBRANCH   1   2
BRANCH   1  12
ATOM     12  C   UNL     1      -1.586  27.945  58.268  1.00  0.00     0.000 C 
BRANCH  12  13
ATOM     13  C   UNL     1      -1.508  29.473  58.412  1.00  0.00    -0.000 C 
BRANCH  13  14
ATOM     14  C   UNL     1      -2.888  30.134  58.584  1.00  0.00    -0.000 C 
BRANCH  14  15
ATOM     15  C   UNL     1      -3.597  30.538  57.277  1.00  0.00    -0.000 C 
BRANCH  15  16
ATOM     16  C   UNL     1      -4.663  29.522  56.833  1.00  0.00    -0.000 C 
BRANCH  16  17
ATOM     17  C   UNL     1      -4.398  28.950  55.428  1.00  0.00    -0.000 C 
BRANCH  17  18
ATOM     18  C   UNL     1      -2.913  28.760  55.069  1.00  0.00    -0.003 C 
ATOM     19  C   UNL     1      -2.705  28.119  53.698  1.00  0.00     0.004 C 
ENDBRANCH  17  18
ENDBRANCH  16  17
ENDBRANCH  15  16
ENDBRANCH  14  15
ENDBRANCH  13  14
ENDBRANCH  12  13
ENDBRANCH   1  12
TORSDOF 14
ENDMDL
MODEL 2
REMARK VINA RESULT:    -3.887      2.825      4.845
REMARK INTER + INTRA:          -9.697
REMARK INTER:                  -7.369
REMARK INTRA:                  -2.328
REMARK UNBOUND:                -2.630
REMARK SMILES CCCCCCCCCCCCCC[C@@H](C)C(=O)[O-]
REMARK SMILES IDX 9 1 10 2 11 3 12 4 13 5 14 6 15 7 16 8 17 9 18 10 19 11 8 12
REMARK SMILES IDX 7 13 6 14 5 15 4 16 3 17 2 18 1 19
REMARK H PARENT
REMARK Flexibility Score: inf
ROOT
ATOM      1  C   UNL     1      -4.259  25.458  58.321  1.00  0.00     0.000 C 
ENDROOT
BRANCH   1   2
ATOM      2  C   UNL     1      -5.560  26.180  57.911  1.00  0.00     0.000 C 
BRANCH   2   3
ATOM      3  C   UNL     1      -5.366  27.581  57.301  1.00  0.00     0.000 C 
BRANCH   3   4
ATOM      4  C   UNL     1      -5.383  27.624  55.762  1.00  0.00     0.000 C 
BRANCH   4   5
ATOM      5  C   UNL     1      -5.260  29.050  55.180  1.00  0.00     0.001 C 
BRANCH   5   6
ATOM      6  C   UNL     1      -5.106  30.121  56.274  1.00  0.00     0.009 C 
BRANCH   6   7
ATOM      7  C   UNL     1      -5.520  31.522  55.780  1.00  0.00     0.032 C 
ATOM      8  C   UNL     1      -4.811  31.861  54.465  1.00  0.00     0.014 C 
BRANCH   7   9
ATOM      9  C   UNL     1      -7.011  31.619  55.591  1.00  0.00     0.044 C 
ATOM     10  O   UNL     1      -7.491  31.795  54.441  1.00  0.00    -0.550 OA
ATOM     11  O   UNL     1      -7.866  31.512  56.682  1.00  0.00    -0.550 OA
ENDBRANCH   7   9
ENDBRANCH   6   7
ENDBRANCH   5   6
ENDBRANCH   4   5
ENDBRANCH   3   4
ENDBRANCH   2   3
ENDBRANCH   1   2
BRANCH   1  12
ATOM     12  C   UNL     1      -2.979  26.310  58.256  1.00  0.00     0.000 C 
BRANCH  12  13
ATOM     13  C   UNL     1      -2.010  25.853  57.154  1.00  0.00    -0.000 C 
BRANCH  13  14
ATOM     14  C   UNL     1      -1.109  26.989  56.634  1.00  0.00    -0.000 C 
BRANCH  14  15
ATOM     15  C   UNL     1      -1.846  28.167  55.967  1.00  0.00    -0.000 C 
BRANCH  15  16
ATOM     16  C   UNL     1      -1.326  29.539  56.429  1.00  0.00    -0.000 C 
BRANCH  16  17
ATOM     17  C   UNL     1      -1.099  29.613  57.950  1.00  0.00    -0.000 C 
BRANCH  17  18
ATOM     18  C   UNL     1      -2.343  29.975  58.780  1.00  0.00    -0.003 C 
ATOM     19  C   UNL     1      -2.374  29.286  60.144  1.00  0.00     0.004 C 
ENDBRANCH  17  18
ENDBRANCH  16  17
ENDBRANCH  15  16
ENDBRANCH  14  15
ENDBRANCH  13  14
ENDBRANCH  12  13
ENDBRANCH   1  12
TORSDOF 14
ENDMDL
MODEL 3
REMARK VINA RESULT:    -3.829      1.671      3.980
REMARK INTER + INTRA:          -9.593
REMARK INTER:                  -6.996
REMARK INTRA:                  -2.597
REMARK UNBOUND:                -2.630
REMARK SMILES CCCCCCCCCCCCCC[C@@H](C)C(=O)[O-]
REMARK SMILES IDX 9 1 10 2 11 3 12 4 13 5 14 6 15 7 16 8 17 9 18 10 19 11 8 12
REMARK SMILES IDX 7 13 6 14 5 15 4 16 3 17 2 18 1 19
REMARK H PARENT
REMARK Flexibility Score: inf
ROOT
ATOM      1  C   UNL     1      -1.562  29.502  57.034  1.00  0.00     0.000 C 
ENDROOT
BRANCH   1   2
ATOM      2  C   UNL     1      -2.662  29.071  58.028  1.00  0.00     0.000 C 
BRANCH   2   3
ATOM      3  C   UNL     1      -2.225  28.034  59.078  1.00  0.00     0.000 C 
BRANCH   3   4
ATOM      4  C   UNL     1      -3.070  26.747  59.107  1.00  0.00     0.000 C 
BRANCH   4   5
ATOM      5  C   UNL     1      -4.452  26.898  58.434  1.00  0.00     0.001 C 
BRANCH   5   6
ATOM      6  C   UNL     1      -5.459  25.837  58.910  1.00  0.00     0.009 C 
BRANCH   6   7
ATOM      7  C   UNL     1      -6.597  25.615  57.892  1.00  0.00     0.032 C 
ATOM      8  C   UNL     1      -6.271  26.301  56.561  1.00  0.00     0.014 C 
BRANCH   7   9
ATOM      9  C   UNL     1      -6.845  24.149  57.658  1.00  0.00     0.044 C 
ATOM     10  O   UNL     1      -7.613  23.779  56.730  1.00  0.00    -0.550 OA
ATOM     11  O   UNL     1      -6.229  23.194  58.459  1.00  0.00    -0.550 OA
ENDBRANCH   7   9
ENDBRANCH   6   7
ENDBRANCH   5   6
ENDBRANCH   4   5
ENDBRANCH   3   4
ENDBRANCH   2   3
ENDBRANCH   1   2
BRANCH   1  12
ATOM     12  C   UNL     1      -1.414  28.616  55.784  1.00  0.00     0.000 C 
BRANCH  12  13
ATOM     13  C   UNL     1      -2.756  28.064  55.277  1.00  0.00    -0.000 C 
BRANCH  13  14
ATOM     14  C   UNL     1      -2.774  26.528  55.167  1.00  0.00    -0.000 C 
BRANCH  14  15
ATOM     15  C   UNL     1      -1.559  25.805  55.779  1.00  0.00    -0.000 C 
BRANCH  15  16
ATOM     16  C   UNL     1      -1.881  24.374  56.241  1.00  0.00    -0.000 C 
BRANCH  16  17
ATOM     17  C   UNL     1      -3.393  24.097  56.321  1.00  0.00    -0.000 C 
BRANCH  17  18
ATOM     18  C   UNL     1      -3.888  22.917  55.464  1.00  0.00    -0.003 C 
ATOM     19  C   UNL     1      -3.306  21.574  55.902  1.00  0.00     0.004 C 
ENDBRANCH  17  18
ENDBRANCH  16  17
ENDBRANCH  15  16
ENDBRANCH  14  15
ENDBRANCH  13  14
ENDBRANCH  12  13
ENDBRANCH   1  12
TORSDOF 14
ENDMDL
MODEL 4
REMARK VINA RESULT:    -3.823      3.408      6.317
REMARK INTER + INTRA:          -9.582
REMARK INTER:                  -7.882
REMARK INTRA:                  -1.700
REMARK UNBOUND:                -2.630
REMARK SMILES CCCCCCCCCCCCCC[C@@H](C)C(=O)[O-]
REMARK SMILES IDX 9 1 10 2 11 3 12 4 13 5 14 6 15 7 16 8 17 9 18 10 19 11 8 12
REMARK SMILES IDX 7 13 6 14 5 15 4 16 3 17 2 18 1 19
REMARK H PARENT
REMARK Flexibility Score: inf
ROOT
ATOM      1  C   UNL     1      -4.378  23.451  56.204  1.00  0.00     0.000 C 
ENDROOT
BRANCH   1   2
ATOM      2  C   UNL     1      -3.591  24.718  55.806  1.00  0.00     0.000 C 
BRANCH   2   3
ATOM      3  C   UNL     1      -2.196  24.850  56.443  1.00  0.00     0.000 C 
BRANCH   3   4
ATOM      4  C   UNL     1      -2.039  26.033  57.416  1.00  0.00     0.000 C 
BRANCH   4   5
ATOM      5  C   UNL     1      -2.946  25.935  58.663  1.00  0.00     0.001 C 
BRANCH   5   6
ATOM      6  C   UNL     1      -3.507  27.302  59.092  1.00  0.00     0.009 C 
BRANCH   6   7
ATOM      7  C   UNL     1      -2.977  28.451  58.210  1.00  0.00     0.032 C 
ATOM      8  C   UNL     1      -4.102  29.030  57.346  1.00  0.00     0.014 C 
BRANCH   7   9
ATOM      9  C   UNL     1      -2.365  29.546  59.044  1.00  0.00     0.044 C 
ATOM     10  O   UNL     1      -2.584  29.592  60.283  1.00  0.00    -0.550 OA
ATOM     11  O   UNL     1      -1.554  30.509  58.454  1.00  0.00    -0.550 OA
ENDBRANCH   7   9
ENDBRANCH   6   7
ENDBRANCH   5   6
ENDBRANCH   4   5
ENDBRANCH   3   4
ENDBRANCH   2   3
ENDBRANCH   1   2
BRANCH   1  12
ATOM     12  C   UNL     1      -5.397  23.635  57.344  1.00  0.00     0.000 C 
BRANCH  12  13
ATOM     13  C   UNL     1      -6.778  24.090  56.846  1.00  0.00    -0.000 C 
BRANCH  13  14
ATOM     14  C   UNL     1      -6.891  25.619  56.698  1.00  0.00    -0.000 C 
BRANCH  14  15
ATOM     15  C   UNL     1      -6.809  26.420  58.012  1.00  0.00    -0.000 C 
BRANCH  15  16
ATOM     16  C   UNL     1      -7.537  25.735  59.181  1.00  0.00    -0.000 C 
BRANCH  16  17
ATOM     17  C   UNL     1      -7.021  26.189  60.558  1.00  0.00    -0.000 C 
BRANCH  17  18
ATOM     18  C   UNL     1      -7.961  25.890  61.740  1.00  0.00    -0.003 C 
ATOM     19  C   UNL     1      -7.323  26.173  63.099  1.00  0.00     0.004 C 
ENDBRANCH  17  18
ENDBRANCH  16  17
ENDBRANCH  15  16
ENDBRANCH  14  15
ENDBRANCH  13  14
ENDBRANCH  12  13
ENDBRANCH   1  12
TORSDOF 14
ENDMDL
MODEL 5
REMARK VINA RESULT:    -3.811      1.369      3.043
REMARK INTER + INTRA:          -9.560
REMARK INTER:                  -6.907
REMARK INTRA:                  -2.653
REMARK UNBOUND:                -2.630
REMARK SMILES CCCCCCCCCCCCCC[C@@H](C)C(=O)[O-]
REMARK SMILES IDX 9 1 10 2 11 3 12 4 13 5 14 6 15 7 16 8 17 9 18 10 19 11 8 12
REMARK SMILES IDX 7 13 6 14 5 15 4 16 3 17 2 18 1 19
REMARK H PARENT
REMARK Flexibility Score: inf
ROOT
ATOM      1  C   UNL     1      -2.315  28.764  56.792  1.00  0.00     0.000 C 
ENDROOT
BRANCH   1   2
ATOM      2  C   UNL     1      -1.994  27.461  57.554  1.00  0.00     0.000 C 
BRANCH   2   3
ATOM      3  C   UNL     1      -2.537  27.394  58.993  1.00  0.00     0.000 C 
BRANCH   3   4
ATOM      4  C   UNL     1      -3.479  26.209  59.275  1.00  0.00     0.000 C 
BRANCH   4   5
ATOM      5  C   UNL     1      -4.748  26.203  58.394  1.00  0.00     0.001 C 
BRANCH   5   6
ATOM      6  C   UNL     1      -5.253  24.780  58.098  1.00  0.00     0.009 C 
BRANCH   6   7
ATOM      7  C   UNL     1      -6.775  24.647  58.308  1.00  0.00     0.032 C 
ATOM      8  C   UNL     1      -7.337  25.897  58.992  1.00  0.00     0.014 C 
BRANCH   7   9
ATOM      9  C   UNL     1      -7.491  24.419  57.003  1.00  0.00     0.044 C 
ATOM     10  O   UNL     1      -6.896  23.858  56.046  1.00  0.00    -0.550 OA
ATOM     11  O   UNL     1      -8.813  24.822  56.847  1.00  0.00    -0.550 OA
ENDBRANCH   7   9
ENDBRANCH   6   7
ENDBRANCH   5   6
ENDBRANCH   4   5
ENDBRANCH   3   4
ENDBRANCH   2   3
ENDBRANCH   1   2
BRANCH   1  12
ATOM     12  C   UNL     1      -3.466  29.605  57.372  1.00  0.00     0.000 C 
BRANCH  12  13
ATOM     13  C   UNL     1      -4.802  29.373  56.649  1.00  0.00    -0.000 C 
BRANCH  13  14
ATOM     14  C   UNL     1      -4.648  28.585  55.335  1.00  0.00    -0.000 C 
BRANCH  14  15
ATOM     15  C   UNL     1      -5.638  27.420  55.139  1.00  0.00    -0.000 C 
BRANCH  15  16
ATOM     16  C   UNL     1      -5.054  26.269  54.303  1.00  0.00    -0.000 C 
BRANCH  16  17
ATOM     17  C   UNL     1      -3.558  26.030  54.575  1.00  0.00    -0.000 C 
BRANCH  17  18
ATOM     18  C   UNL     1      -3.133  24.551  54.642  1.00  0.00    -0.003 C 
ATOM     19  C   UNL     1      -2.446  24.185  55.957  1.00  0.00     0.004 C 
ENDBRANCH  17  18
ENDBRANCH  16  17
ENDBRANCH  15  16
ENDBRANCH  14  15
ENDBRANCH  13  14
ENDBRANCH  12  13
ENDBRANCH   1  12
TORSDOF 14
ENDMDL
MODEL 6
REMARK VINA RESULT:    -3.786      3.128      5.328
REMARK INTER + INTRA:          -9.514
REMARK INTER:                  -7.148
REMARK INTRA:                  -2.366
REMARK UNBOUND:                -2.630
REMARK SMILES CCCCCCCCCCCCCC[C@@H](C)C(=O)[O-]
REMARK SMILES IDX 9 1 10 2 11 3 12 4 13 5 14 6 15 7 16 8 17 9 18 10 19 11 8 12
REMARK SMILES IDX 7 13 6 14 5 15 4 16 3 17 2 18 1 19
REMARK H PARENT
REMARK Flexibility Score: inf
ROOT
ATOM      1  C   UNL     1      -6.279  26.396  57.429  1.00  0.00     0.000 C 
ENDROOT
BRANCH   1   2
ATOM      2  C   UNL     1      -5.597  26.433  56.045  1.00  0.00     0.000 C 
BRANCH   2   3
ATOM      3  C   UNL     1      -5.170  27.832  55.563  1.00  0.00     0.000 C 
BRANCH   3   4
ATOM      4  C   UNL     1      -5.043  28.888  56.676  1.00  0.00     0.000 C 
BRANCH   4   5
ATOM      5  C   UNL     1      -4.322  30.179  56.227  1.00  0.00     0.001 C 
BRANCH   5   6
ATOM      6  C   UNL     1      -5.235  31.415  56.289  1.00  0.00     0.009 C 
BRANCH   6   7
ATOM      7  C   UNL     1      -5.381  32.100  54.914  1.00  0.00     0.032 C 
ATOM      8  C   UNL     1      -4.281  31.629  53.957  1.00  0.00     0.014 C 
BRANCH   7   9
ATOM      9  C   UNL     1      -6.732  31.828  54.306  1.00  0.00     0.044 C 
ATOM     10  O   UNL     1      -7.233  30.675  54.374  1.00  0.00    -0.550 OA
ATOM     11  O   UNL     1      -7.434  32.845  53.671  1.00  0.00    -0.550 OA
ENDBRANCH   7   9
ENDBRANCH   6   7
ENDBRANCH   5   6
ENDBRANCH   4   5
ENDBRANCH   3   4
ENDBRANCH   2   3
ENDBRANCH   1   2
BRANCH   1  12
ATOM     12  C   UNL     1      -5.613  25.479  58.471  1.00  0.00     0.000 C 
BRANCH  12  13
ATOM     13  C   UNL     1      -4.663  26.234  59.414  1.00  0.00    -0.000 C 
BRANCH  13  14
ATOM     14  C   UNL     1      -3.177  25.954  59.123  1.00  0.00    -0.000 C 
BRANCH  14  15
ATOM     15  C   UNL     1      -2.393  27.121  58.491  1.00  0.00    -0.000 C 
BRANCH  15  16
ATOM     16  C   UNL     1      -1.884  26.806  57.075  1.00  0.00    -0.000 C 
BRANCH  16  17
ATOM     17  C   UNL     1      -1.711  25.297  56.822  1.00  0.00    -0.000 C 
BRANCH  17  18
ATOM     18  C   UNL     1      -2.364  24.771  55.530  1.00  0.00    -0.003 C 
ATOM     19  C   UNL     1      -2.326  25.783  54.386  1.00  0.00     0.004 C 
ENDBRANCH  17  18
ENDBRANCH  16  17
ENDBRANCH  15  16
ENDBRANCH  14  15
ENDBRANCH  13  14
ENDBRANCH  12  13
ENDBRANCH   1  12
TORSDOF 14
ENDMDL
MODEL 7
REMARK VINA RESULT:    -3.750      1.248      2.935
REMARK INTER + INTRA:          -9.449
REMARK INTER:                  -6.784
REMARK INTRA:                  -2.665
REMARK UNBOUND:                -2.630
REMARK SMILES CCCCCCCCCCCCCC[C@@H](C)C(=O)[O-]
REMARK SMILES IDX 9 1 10 2 11 3 12 4 13 5 14 6 15 7 16 8 17 9 18 10 19 11 8 12
REMARK SMILES IDX 7 13 6 14 5 15 4 16 3 17 2 18 1 19
REMARK H PARENT
REMARK Flexibility Score: inf
ROOT
ATOM      1  C   UNL     1      -2.061  27.920  55.145  1.00  0.00     0.000 C 
ENDROOT
BRANCH   1   2
ATOM      2  C   UNL     1      -1.856  26.404  55.349  1.00  0.00     0.000 C 
BRANCH   2   3
ATOM      3  C   UNL     1      -1.576  25.970  56.799  1.00  0.00     0.000 C 
BRANCH   3   4
ATOM      4  C   UNL     1      -2.683  26.331  57.807  1.00  0.00     0.000 C 
BRANCH   4   5
ATOM      5  C   UNL     1      -3.933  25.428  57.705  1.00  0.00     0.001 C 
BRANCH   5   6
ATOM      6  C   UNL     1      -5.237  26.193  57.988  1.00  0.00     0.009 C 
BRANCH   6   7
ATOM      7  C   UNL     1      -6.295  25.966  56.889  1.00  0.00     0.032 C 
ATOM      8  C   UNL     1      -5.643  25.410  55.619  1.00  0.00     0.014 C 
BRANCH   7   9
ATOM      9  C   UNL     1      -7.378  25.029  57.355  1.00  0.00     0.044 C 
ATOM     10  O   UNL     1      -7.312  23.802  57.079  1.00  0.00    -0.550 OA
ATOM     11  O   UNL     1      -8.453  25.509  58.093  1.00  0.00    -0.550 OA
ENDBRANCH   7   9
ENDBRANCH   6   7
ENDBRANCH   5   6
ENDBRANCH   4   5
ENDBRANCH   3   4
ENDBRANCH   2   3
ENDBRANCH   1   2
BRANCH   1  12
ATOM     12  C   UNL     1      -3.497  28.354  54.800  1.00  0.00     0.000 C 
BRANCH  12  13
ATOM     13  C   UNL     1      -3.885  29.702  55.430  1.00  0.00    -0.000 C 
BRANCH  13  14
ATOM     14  C   UNL     1      -4.242  29.589  56.923  1.00  0.00    -0.000 C 
BRANCH  14  15
ATOM     15  C   UNL     1      -3.520  30.581  57.855  1.00  0.00    -0.000 C 
BRANCH  15  16
ATOM     16  C   UNL     1      -2.636  29.886  58.904  1.00  0.00    -0.000 C 
BRANCH  16  17
ATOM     17  C   UNL     1      -1.213  29.599  58.393  1.00  0.00    -0.000 C 
BRANCH  17  18
ATOM     18  C   UNL     1      -0.429  30.834  57.911  1.00  0.00    -0.003 C 
ATOM     19  C   UNL     1      -0.304  30.907  56.390  1.00  0.00     0.004 C 
ENDBRANCH  17  18
ENDBRANCH  16  17
ENDBRANCH  15  16
ENDBRANCH  14  15
ENDBRANCH  13  14
ENDBRANCH  12  13
ENDBRANCH   1  12
TORSDOF 14
ENDMDL
MODEL 8
REMARK VINA RESULT:    -3.679      3.062      5.116
REMARK INTER + INTRA:          -9.319
REMARK INTER:                  -7.338
REMARK INTRA:                  -1.981
REMARK UNBOUND:                -2.630
REMARK SMILES CCCCCCCCCCCCCC[C@@H](C)C(=O)[O-]
REMARK SMILES IDX 9 1 10 2 11 3 12 4 13 5 14 6 15 7 16 8 17 9 18 10 19 11 8 12
REMARK SMILES IDX 7 13 6 14 5 15 4 16 3 17 2 18 1 19
REMARK H PARENT
REMARK Flexibility Score: inf
ROOT
ATOM      1  C   UNL     1      -0.560  30.692  57.023  1.00  0.00     0.000 C 
ENDROOT
BRANCH   1   2
ATOM      2  C   UNL     1      -1.814  30.946  56.159  1.00  0.00     0.000 C 
BRANCH   2   3
ATOM      3  C   UNL     1      -2.108  29.869  55.099  1.00  0.00     0.000 C 
BRANCH   3   4
ATOM      4  C   UNL     1      -3.189  28.847  55.498  1.00  0.00     0.000 C 
BRANCH   4   5
ATOM      5  C   UNL     1      -4.392  29.474  56.237  1.00  0.00     0.001 C 
BRANCH   5   6
ATOM      6  C   UNL     1      -5.450  30.034  55.270  1.00  0.00     0.009 C 
BRANCH   6   7
ATOM      7  C   UNL     1      -5.800  31.504  55.578  1.00  0.00     0.032 C 
ATOM      8  C   UNL     1      -4.876  32.451  54.806  1.00  0.00     0.014 C 
BRANCH   7   9
ATOM      9  C   UNL     1      -7.235  31.809  55.239  1.00  0.00     0.044 C 
ATOM     10  O   UNL     1      -8.145  31.574  56.076  1.00  0.00    -0.550 OA
ATOM     11  O   UNL     1      -7.565  32.353  54.002  1.00  0.00    -0.550 OA
ENDBRANCH   7   9
ENDBRANCH   6   7
ENDBRANCH   5   6
ENDBRANCH   4   5
ENDBRANCH   3   4
ENDBRANCH   2   3
ENDBRANCH   1   2
BRANCH   1  12
ATOM     12  C   UNL     1      -0.831  30.353  58.500  1.00  0.00     0.000 C 
BRANCH  12  13
ATOM     13  C   UNL     1      -1.108  28.859  58.731  1.00  0.00    -0.000 C 
BRANCH  13  14
ATOM     14  C   UNL     1      -2.332  28.604  59.631  1.00  0.00    -0.000 C 
BRANCH  14  15
ATOM     15  C   UNL     1      -3.143  27.336  59.303  1.00  0.00    -0.000 C 
BRANCH  15  16
ATOM     16  C   UNL     1      -2.531  26.509  58.160  1.00  0.00    -0.000 C 
BRANCH  16  17
ATOM     17  C   UNL     1      -3.563  25.619  57.445  1.00  0.00    -0.000 C 
BRANCH  17  18
ATOM     18  C   UNL     1      -2.975  24.623  56.429  1.00  0.00    -0.003 C 
ATOM     19  C   UNL     1      -1.452  24.693  56.334  1.00  0.00     0.004 C 
ENDBRANCH  17  18
ENDBRANCH  16  17
ENDBRANCH  15  16
ENDBRANCH  14  15
ENDBRANCH  13  14
ENDBRANCH  12  13
ENDBRANCH   1  12
TORSDOF 14
ENDMDL
MODEL 9
REMARK VINA RESULT:    -3.659      1.400      2.012
REMARK INTER + INTRA:          -9.284
REMARK INTER:                  -7.148
REMARK INTRA:                  -2.136
REMARK UNBOUND:                -2.630
REMARK SMILES CCCCCCCCCCCCCC[C@@H](C)C(=O)[O-]
REMARK SMILES IDX 9 1 10 2 11 3 12 4 13 5 14 6 15 7 16 8 17 9 18 10 19 11 8 12
REMARK SMILES IDX 7 13 6 14 5 15 4 16 3 17 2 18 1 19
REMARK H PARENT
REMARK Flexibility Score: inf
ROOT
ATOM      1  C   UNL     1      -1.576  27.562  56.049  1.00  0.00     0.000 C 
ENDROOT
BRANCH   1   2
ATOM      2  C   UNL     1      -1.514  26.387  57.047  1.00  0.00     0.000 C 
BRANCH   2   3
ATOM      3  C   UNL     1      -2.876  25.773  57.420  1.00  0.00     0.000 C 
BRANCH   3   4
ATOM      4  C   UNL     1      -3.261  25.909  58.906  1.00  0.00     0.000 C 
BRANCH   4   5
ATOM      5  C   UNL     1      -4.706  26.409  59.128  1.00  0.00     0.001 C 
BRANCH   5   6
ATOM      6  C   UNL     1      -5.576  26.275  57.867  1.00  0.00     0.009 C 
BRANCH   6   7
ATOM      7  C   UNL     1      -6.764  25.314  58.078  1.00  0.00     0.032 C 
ATOM      8  C   UNL     1      -7.846  25.976  58.938  1.00  0.00     0.014 C 
BRANCH   7   9
ATOM      9  C   UNL     1      -7.357  24.878  56.765  1.00  0.00     0.044 C 
ATOM     10  O   UNL     1      -7.996  23.796  56.689  1.00  0.00    -0.550 OA
ATOM     11  O   UNL     1      -7.207  25.666  55.630  1.00  0.00    -0.550 OA
ENDBRANCH   7   9
ENDBRANCH   6   7
ENDBRANCH   5   6
ENDBRANCH   4   5
ENDBRANCH   3   4
ENDBRANCH   2   3
ENDBRANCH   1   2
BRANCH   1  12
ATOM     12  C   UNL     1      -1.050  28.909  56.579  1.00  0.00     0.000 C 
BRANCH  12  13
ATOM     13  C   UNL     1      -1.778  29.379  57.849  1.00  0.00    -0.000 C 
BRANCH  13  14
ATOM     14  C   UNL     1      -3.303  29.484  57.666  1.00  0.00    -0.000 C 
BRANCH  14  15
ATOM     15  C   UNL     1      -3.831  30.880  57.283  1.00  0.00    -0.000 C 
BRANCH  15  16
ATOM     16  C   UNL     1      -4.751  30.857  56.051  1.00  0.00    -0.000 C 
BRANCH  16  17
ATOM     17  C   UNL     1      -4.346  29.789  55.019  1.00  0.00    -0.000 C 
BRANCH  17  18
ATOM     18  C   UNL     1      -5.280  28.568  54.941  1.00  0.00    -0.003 C 
ATOM     19  C   UNL     1      -4.600  27.330  54.356  1.00  0.00     0.004 C 
ENDBRANCH  17  18
ENDBRANCH  16  17
ENDBRANCH  15  16
ENDBRANCH  14  15
ENDBRANCH  13  14
ENDBRANCH  12  13
ENDBRANCH   1  12
TORSDOF 14
ENDMDL
