MODEL 1
REMARK VINA RESULT:    -3.540      0.000      0.000
REMARK INTER + INTRA:          -4.090
REMARK INTER:                  -4.057
REMARK INTRA:                  -0.033
REMARK UNBOUND:                -0.033
REMARK SMILES CC(C)[C@H]([NH3+])C(=O)[O-]
REMARK SMILES IDX 4 1 5 2 6 6 7 7 8 8 2 9 1 10 3 11
REMARK H PARENT 5 3 5 4 5 5
REMARK Flexibility Score: inf
ROOT
ATOM      1  C   UNL     1     125.601 141.640 136.345  1.00  0.00     0.230 C 
ENDROOT
BRANCH   1   2
ATOM      2  N   UNL     1     126.155 142.840 136.986  1.00  0.00    -0.350 N 
ATOM      3  H   UNL     1     127.186 142.918 136.828  1.00  0.00     0.345 HD
ATOM      4  H   UNL     1     125.685 143.696 136.611  1.00  0.00     0.345 HD
ATOM      5  H   UNL     1     125.978 142.799 138.016  1.00  0.00     0.345 HD
ENDBRANCH   1   2
BRANCH   1   6
ATOM      6  C   UNL     1     125.078 141.966 134.965  1.00  0.00     0.099 C 
ATOM      7  O   UNL     1     125.502 141.332 133.964  1.00  0.00    -0.544 OA
ATOM      8  O   UNL     1     124.107 142.946 134.790  1.00  0.00    -0.544 OA
ENDBRANCH   1   6
BRANCH   1   9
ATOM      9  C   UNL     1     124.532 140.948 137.243  1.00  0.00     0.047 C 
ATOM     10  C   UNL     1     123.796 141.969 138.125  1.00  0.00     0.014 C 
ATOM     11  C   UNL     1     125.096 139.812 138.113  1.00  0.00     0.014 C 
ENDBRANCH   1   9
TORSDOF 3
ENDMDL
MODEL 2
REMARK VINA RESULT:    -3.487     20.915     21.693
REMARK INTER + INTRA:          -4.030
REMARK INTER:                  -3.974
REMARK INTRA:                  -0.056
REMARK UNBOUND:                -0.033
REMARK SMILES CC(C)[C@H]([NH3+])C(=O)[O-]
REMARK SMILES IDX 4 1 5 2 6 6 7 7 8 8 2 9 1 10 3 11
REMARK H PARENT 5 3 5 4 5 5
REMARK Flexibility Score: inf
ROOT
ATOM      1  C   UNL     1     133.726 126.395 124.604  1.00  0.00     0.230 C 
ENDROOT
BRANCH   1   2
ATOM      2  N   UNL     1     134.097 125.470 125.683  1.00  0.00    -0.350 N 
ATOM      3  H   UNL     1     133.472 124.631 125.701  1.00  0.00     0.345 HD
ATOM      4  H   UNL     1     135.087 125.157 125.563  1.00  0.00     0.345 HD
ATOM      5  H   UNL     1     134.022 125.960 126.604  1.00  0.00     0.345 HD
ENDBRANCH   1   2
BRANCH   1   6
ATOM      6  C   UNL     1     132.236 126.648 124.608  1.00  0.00     0.099 C 
ATOM      7  O   UNL     1     131.633 126.879 123.527  1.00  0.00    -0.544 OA
ATOM      8  O   UNL     1     131.513 126.602 125.795  1.00  0.00    -0.544 OA
ENDBRANCH   1   6
BRANCH   1   9
ATOM      9  C   UNL     1     134.247 125.904 123.219  1.00  0.00     0.047 C 
ATOM     10  C   UNL     1     134.154 124.374 123.097  1.00  0.00     0.014 C 
ATOM     11  C   UNL     1     135.675 126.372 122.894  1.00  0.00     0.014 C 
ENDBRANCH   1   9
TORSDOF 3
ENDMDL
MODEL 3
REMARK VINA RESULT:    -3.459     18.851     19.521
REMARK INTER + INTRA:          -3.998
REMARK INTER:                  -3.943
REMARK INTRA:                  -0.055
REMARK UNBOUND:                -0.033
REMARK SMILES CC(C)[C@H]([NH3+])C(=O)[O-]
REMARK SMILES IDX 4 1 5 2 6 6 7 7 8 8 2 9 1 10 3 11
REMARK H PARENT 5 3 5 4 5 5
REMARK Flexibility Score: inf
ROOT
ATOM      1  C   UNL     1     138.759 137.019 124.683  1.00  0.00     0.230 C 
ENDROOT
BRANCH   1   2
ATOM      2  N   UNL     1     139.399 137.822 125.734  1.00  0.00    -0.350 N 
ATOM      3  H   UNL     1     140.000 137.233 126.354  1.00  0.00     0.345 HD
ATOM      4  H   UNL     1     139.983 138.575 125.303  1.00  0.00     0.345 HD
ATOM      5  H   UNL     1     138.664 138.279 126.320  1.00  0.00     0.345 HD
ENDBRANCH   1   2
BRANCH   1   6
ATOM      6  C   UNL     1     139.279 135.600 124.706  1.00  0.00     0.099 C 
ATOM      7  O   UNL     1     139.631 135.076 125.795  1.00  0.00    -0.544 OA
ATOM      8  O   UNL     1     139.349 134.853 123.536  1.00  0.00    -0.544 OA
ENDBRANCH   1   6
BRANCH   1   9
ATOM      9  C   UNL     1     138.899 137.686 123.281  1.00  0.00     0.047 C 
ATOM     10  C   UNL     1     140.269 138.363 123.119  1.00  0.00     0.014 C 
ATOM     11  C   UNL     1     137.776 138.686 122.957  1.00  0.00     0.014 C 
ENDBRANCH   1   9
TORSDOF 3
ENDMDL
MODEL 4
REMARK VINA RESULT:    -3.446     12.689     13.606
REMARK INTER + INTRA:          -3.982
REMARK INTER:                  -3.926
REMARK INTRA:                  -0.056
REMARK UNBOUND:                -0.033
REMARK SMILES CC(C)[C@H]([NH3+])C(=O)[O-]
REMARK SMILES IDX 4 1 5 2 6 6 7 7 8 8 2 9 1 10 3 11
REMARK H PARENT 5 3 5 4 5 5
REMARK Flexibility Score: inf
ROOT
ATOM      1  C   UNL     1     127.022 136.032 124.640  1.00  0.00     0.230 C 
ENDROOT
BRANCH   1   2
ATOM      2  N   UNL     1     126.002 136.229 125.679  1.00  0.00    -0.350 N 
ATOM      3  H   UNL     1     125.184 135.594 125.538  1.00  0.00     0.345 HD
ATOM      4  H   UNL     1     126.414 136.054 126.624  1.00  0.00     0.345 HD
ATOM      5  H   UNL     1     125.664 137.218 125.653  1.00  0.00     0.345 HD
ENDBRANCH   1   2
BRANCH   1   6
ATOM      6  C   UNL     1     128.011 137.175 124.641  1.00  0.00     0.099 C 
ATOM      7  O   UNL     1     128.527 137.562 123.559  1.00  0.00    -0.544 OA
ATOM      8  O   UNL     1     128.338 137.827 125.824  1.00  0.00    -0.544 OA
ENDBRANCH   1   6
BRANCH   1   9
ATOM      9  C   UNL     1     126.381 135.795 123.239  1.00  0.00     0.047 C 
ATOM     10  C   UNL     1     125.107 136.636 123.058  1.00  0.00     0.014 C 
ATOM     11  C   UNL     1     126.083 134.316 122.938  1.00  0.00     0.014 C 
ENDBRANCH   1   9
TORSDOF 3
ENDMDL
MODEL 5
REMARK VINA RESULT:    -3.421     12.422     13.470
REMARK INTER + INTRA:          -3.954
REMARK INTER:                  -3.908
REMARK INTRA:                  -0.046
REMARK UNBOUND:                -0.033
REMARK SMILES CC(C)[C@H]([NH3+])C(=O)[O-]
REMARK SMILES IDX 4 1 5 2 6 6 7 7 8 8 2 9 1 10 3 11
REMARK H PARENT 5 3 5 4 5 5
REMARK Flexibility Score: inf
ROOT
ATOM      1  C   UNL     1     127.150 135.829 124.260  1.00  0.00     0.230 C 
ENDROOT
BRANCH   1   2
ATOM      2  N   UNL     1     127.895 137.094 124.202  1.00  0.00    -0.350 N 
ATOM      3  H   UNL     1     127.821 137.540 123.259  1.00  0.00     0.345 HD
ATOM      4  H   UNL     1     127.532 137.757 124.924  1.00  0.00     0.345 HD
ATOM      5  H   UNL     1     128.905 136.915 124.406  1.00  0.00     0.345 HD
ENDBRANCH   1   2
BRANCH   1   6
ATOM      6  C   UNL     1     126.168 135.737 123.115  1.00  0.00     0.099 C 
ATOM      7  O   UNL     1     125.190 136.528 123.058  1.00  0.00    -0.544 OA
ATOM      8  O   UNL     1     126.347 134.800 122.103  1.00  0.00    -0.544 OA
ENDBRANCH   1   6
BRANCH   1   9
ATOM      9  C   UNL     1     126.473 135.622 125.649  1.00  0.00     0.047 C 
ATOM     10  C   UNL     1     127.110 136.521 126.721  1.00  0.00     0.014 C 
ATOM     11  C   UNL     1     126.471 134.159 126.123  1.00  0.00     0.014 C 
ENDBRANCH   1   9
TORSDOF 3
ENDMDL
MODEL 6
REMARK VINA RESULT:    -3.396     12.533     13.804
REMARK INTER + INTRA:          -3.925
REMARK INTER:                  -3.901
REMARK INTRA:                  -0.024
REMARK UNBOUND:                -0.033
REMARK SMILES CC(C)[C@H]([NH3+])C(=O)[O-]
REMARK SMILES IDX 4 1 5 2 6 6 7 7 8 8 2 9 1 10 3 11
REMARK H PARENT 5 3 5 4 5 5
REMARK Flexibility Score: inf
ROOT
ATOM      1  C   UNL     1     127.165 135.137 124.535  1.00  0.00     0.230 C 
ENDROOT
BRANCH   1   2
ATOM      2  N   UNL     1     127.382 133.920 125.329  1.00  0.00    -0.350 N 
ATOM      3  H   UNL     1     127.779 134.142 126.270  1.00  0.00     0.345 HD
ATOM      4  H   UNL     1     126.479 133.406 125.451  1.00  0.00     0.345 HD
ATOM      5  H   UNL     1     128.047 133.289 124.827  1.00  0.00     0.345 HD
ENDBRANCH   1   2
BRANCH   1   6
ATOM      6  C   UNL     1     127.069 136.349 125.433  1.00  0.00     0.099 C 
ATOM      7  O   UNL     1     126.199 136.392 126.342  1.00  0.00    -0.544 OA
ATOM      8  O   UNL     1     127.954 137.411 125.284  1.00  0.00    -0.544 OA
ENDBRANCH   1   6
BRANCH   1   9
ATOM      9  C   UNL     1     125.937 134.995 123.586  1.00  0.00     0.047 C 
ATOM     10  C   UNL     1     126.249 134.065 122.403  1.00  0.00     0.014 C 
ATOM     11  C   UNL     1     125.396 136.339 123.070  1.00  0.00     0.014 C 
ENDBRANCH   1   9
TORSDOF 3
ENDMDL
MODEL 7
REMARK VINA RESULT:    -3.386     21.081     21.765
REMARK INTER + INTRA:          -3.914
REMARK INTER:                  -3.873
REMARK INTRA:                  -0.041
REMARK UNBOUND:                -0.033
REMARK SMILES CC(C)[C@H]([NH3+])C(=O)[O-]
REMARK SMILES IDX 4 1 5 2 6 6 7 7 8 8 2 9 1 10 3 11
REMARK H PARENT 5 3 5 4 5 5
REMARK Flexibility Score: inf
ROOT
ATOM      1  C   UNL     1     133.848 126.570 124.221  1.00  0.00     0.230 C 
ENDROOT
BRANCH   1   2
ATOM      2  N   UNL     1     132.379 126.595 124.203  1.00  0.00    -0.350 N 
ATOM      3  H   UNL     1     131.993 127.089 125.040  1.00  0.00     0.345 HD
ATOM      4  H   UNL     1     132.039 127.071 123.337  1.00  0.00     0.345 HD
ATOM      5  H   UNL     1     132.013 125.615 124.197  1.00  0.00     0.345 HD
ENDBRANCH   1   2
BRANCH   1   6
ATOM      6  C   UNL     1     134.382 125.767 123.057  1.00  0.00     0.099 C 
ATOM      7  O   UNL     1     135.032 126.339 122.143  1.00  0.00    -0.544 OA
ATOM      8  O   UNL     1     134.186 124.392 122.998  1.00  0.00    -0.544 OA
ENDBRANCH   1   6
BRANCH   1   9
ATOM      9  C   UNL     1     134.400 126.078 125.593  1.00  0.00     0.047 C 
ATOM     10  C   UNL     1     133.284 125.994 126.647  1.00  0.00     0.014 C 
ATOM     11  C   UNL     1     135.568 126.924 126.129  1.00  0.00     0.014 C 
ENDBRANCH   1   9
TORSDOF 3
ENDMDL
MODEL 8
REMARK VINA RESULT:    -3.380     20.889     21.670
REMARK INTER + INTRA:          -3.906
REMARK INTER:                  -3.874
REMARK INTRA:                  -0.032
REMARK UNBOUND:                -0.033
REMARK SMILES CC(C)[C@H]([NH3+])C(=O)[O-]
REMARK SMILES IDX 4 1 5 2 6 6 7 7 8 8 2 9 1 10 3 11
REMARK H PARENT 5 3 5 4 5 5
REMARK Flexibility Score: inf
ROOT
ATOM      1  C   UNL     1     134.290 126.925 124.557  1.00  0.00     0.230 C 
ENDROOT
BRANCH   1   2
ATOM      2  N   UNL     1     135.201 127.791 125.317  1.00  0.00    -0.350 N 
ATOM      3  H   UNL     1     135.453 128.651 124.778  1.00  0.00     0.345 HD
ATOM      4  H   UNL     1     134.757 128.071 126.222  1.00  0.00     0.345 HD
ATOM      5  H   UNL     1     136.079 127.267 125.537  1.00  0.00     0.345 HD
ENDBRANCH   1   2
BRANCH   1   6
ATOM      6  C   UNL     1     133.308 126.242 125.481  1.00  0.00     0.099 C 
ATOM      7  O   UNL     1     133.727 125.483 126.395  1.00  0.00    -0.544 OA
ATOM      8  O   UNL     1     131.942 126.466 125.352  1.00  0.00    -0.544 OA
ENDBRANCH   1   6
BRANCH   1   9
ATOM      9  C   UNL     1     135.068 125.917 123.658  1.00  0.00     0.047 C 
ATOM     10  C   UNL     1     135.773 126.634 122.495  1.00  0.00     0.014 C 
ATOM     11  C   UNL     1     134.197 124.770 123.118  1.00  0.00     0.014 C 
ENDBRANCH   1   9
TORSDOF 3
ENDMDL
MODEL 9
REMARK VINA RESULT:    -3.357     18.196     18.853
REMARK INTER + INTRA:          -3.880
REMARK INTER:                  -3.841
REMARK INTRA:                  -0.040
REMARK UNBOUND:                -0.033
REMARK SMILES CC(C)[C@H]([NH3+])C(=O)[O-]
REMARK SMILES IDX 4 1 5 2 6 6 7 7 8 8 2 9 1 10 3 11
REMARK H PARENT 5 3 5 4 5 5
REMARK Flexibility Score: inf
ROOT
ATOM      1  C   UNL     1     137.980 137.059 124.398  1.00  0.00     0.230 C 
ENDROOT
BRANCH   1   2
ATOM      2  N   UNL     1     136.720 137.293 125.116  1.00  0.00    -0.350 N 
ATOM      3  H   UNL     1     135.892 137.039 124.530  1.00  0.00     0.345 HD
ATOM      4  H   UNL     1     136.701 136.732 125.998  1.00  0.00     0.345 HD
ATOM      5  H   UNL     1     136.648 138.304 125.374  1.00  0.00     0.345 HD
ENDBRANCH   1   2
BRANCH   1   6
ATOM      6  C   UNL     1     139.042 136.539 125.340  1.00  0.00     0.099 C 
ATOM      7  O   UNL     1     139.520 135.386 125.175  1.00  0.00    -0.544 OA
ATOM      8  O   UNL     1     139.519 137.334 126.376  1.00  0.00    -0.544 OA
ENDBRANCH   1   6
BRANCH   1   9
ATOM      9  C   UNL     1     138.442 138.325 123.615  1.00  0.00     0.047 C 
ATOM     10  C   UNL     1     137.493 138.637 122.446  1.00  0.00     0.014 C 
ATOM     11  C   UNL     1     139.892 138.245 123.109  1.00  0.00     0.014 C 
ENDBRANCH   1   9
TORSDOF 3
ENDMDL
