MODEL 1
REMARK VINA RESULT:    -1.832      0.000      0.000
REMARK INTER + INTRA:          -3.066
REMARK INTER:                  -2.689
REMARK INTRA:                  -0.377
REMARK UNBOUND:                -0.377
REMARK SMILES O=C([O-])CCCCCCCC(=O)[O-]
REMARK SMILES IDX 7 1 6 2 5 3 4 4 2 5 1 6 3 7 8 8 9 9 10 10 11 11 12 12 13 13
REMARK H PARENT
REMARK Flexibility Score: inf
ROOT
ATOM      1  C   UNL     1       0.267  -1.453   1.603  1.00  0.00     0.000 C 
ENDROOT
BRANCH   1   2
ATOM      2  C   UNL     1      -0.396  -2.746   1.098  1.00  0.00     0.000 C 
BRANCH   2   3
ATOM      3  C   UNL     1       0.002  -3.086  -0.348  1.00  0.00     0.006 C 
BRANCH   3   4
ATOM      4  C   UNL     1      -1.173  -2.967  -1.328  1.00  0.00     0.053 C 
BRANCH   4   5
ATOM      5  C   UNL     1      -0.761  -2.200  -2.544  1.00  0.00     0.041 C 
ATOM      6  O   UNL     1      -1.585  -1.445  -3.125  1.00  0.00    -0.550 OA
ATOM      7  O   UNL     1       0.545  -2.282  -3.010  1.00  0.00    -0.550 OA
ENDBRANCH   4   5
ENDBRANCH   3   4
ENDBRANCH   2   3
ENDBRANCH   1   2
BRANCH   1   8
ATOM      8  C   UNL     1       1.433  -0.990   0.711  1.00  0.00     0.000 C 
BRANCH   8   9
ATOM      9  C   UNL     1       2.485  -0.106   1.412  1.00  0.00     0.006 C 
BRANCH   9  10
ATOM     10  C   UNL     1       3.679  -0.875   1.997  1.00  0.00     0.053 C 
BRANCH  10  11
ATOM     11  C   UNL     1       4.815  -0.969   1.026  1.00  0.00     0.041 C 
ATOM     12  O   UNL     1       4.729  -0.426  -0.107  1.00  0.00    -0.550 OA
ATOM     13  O   UNL     1       5.958  -1.686   1.360  1.00  0.00    -0.550 OA
ENDBRANCH  10  11
ENDBRANCH   9  10
ENDBRANCH   8   9
ENDBRANCH   1   8
TORSDOF 8
ENDMDL
MODEL 2
REMARK VINA RESULT:    -1.457      0.393      5.750
REMARK INTER + INTRA:          -2.515
REMARK INTER:                  -2.105
REMARK INTRA:                  -0.410
REMARK UNBOUND:                -0.377
REMARK SMILES O=C([O-])CCCCCCCC(=O)[O-]
REMARK SMILES IDX 7 1 6 2 5 3 4 4 2 5 1 6 3 7 8 8 9 9 10 10 11 11 12 12 13 13
REMARK H PARENT
REMARK Flexibility Score: inf
ROOT
ATOM      1  C   UNL     1       0.470  -1.292   1.522  1.00  0.00     0.000 C 
ENDROOT
BRANCH   1   2
ATOM      2  C   UNL     1       1.405  -0.928   0.356  1.00  0.00     0.000 C 
BRANCH   2   3
ATOM      3  C   UNL     1       2.605  -0.079   0.806  1.00  0.00     0.006 C 
BRANCH   3   4
ATOM      4  C   UNL     1       3.542  -0.836   1.757  1.00  0.00     0.053 C 
BRANCH   4   5
ATOM      5  C   UNL     1       4.871  -1.060   1.109  1.00  0.00     0.041 C 
ATOM      6  O   UNL     1       5.763  -1.721   1.706  1.00  0.00    -0.550 OA
ATOM      7  O   UNL     1       5.111  -0.583  -0.173  1.00  0.00    -0.550 OA
ENDBRANCH   4   5
ENDBRANCH   3   4
ENDBRANCH   2   3
ENDBRANCH   1   2
BRANCH   1   8
ATOM      8  C   UNL     1      -0.451  -2.484   1.201  1.00  0.00     0.000 C 
BRANCH   8   9
ATOM      9  C   UNL     1      -0.235  -3.125  -0.186  1.00  0.00     0.006 C 
BRANCH   9  10
ATOM     10  C   UNL     1      -1.369  -2.873  -1.191  1.00  0.00     0.053 C 
BRANCH  10  11
ATOM     11  C   UNL     1      -0.852  -2.388  -2.509  1.00  0.00     0.041 C 
ATOM     12  O   UNL     1      -1.402  -1.416  -3.089  1.00  0.00    -0.550 OA
ATOM     13  O   UNL     1       0.220  -3.034  -3.115  1.00  0.00    -0.550 OA
ENDBRANCH  10  11
ENDBRANCH   9  10
ENDBRANCH   8   9
ENDBRANCH   1   8
TORSDOF 8
ENDMDL
MODEL 3
REMARK VINA RESULT:    -0.796      0.443      5.840
REMARK INTER + INTRA:          -1.545
REMARK INTER:                  -1.113
REMARK INTRA:                  -0.431
REMARK UNBOUND:                -0.377
REMARK SMILES O=C([O-])CCCCCCCC(=O)[O-]
REMARK SMILES IDX 7 1 6 2 5 3 4 4 2 5 1 6 3 7 8 8 9 9 10 10 11 11 12 12 13 13
REMARK H PARENT
REMARK Flexibility Score: inf
ROOT
ATOM      1  C   UNL     1       0.505  -1.150   1.403  1.00  0.00     0.000 C 
ENDROOT
BRANCH   1   2
ATOM      2  C   UNL     1       1.519  -0.872   0.280  1.00  0.00     0.000 C 
BRANCH   2   3
ATOM      3  C   UNL     1       2.739  -0.076   0.771  1.00  0.00     0.006 C 
BRANCH   3   4
ATOM      4  C   UNL     1       3.594  -0.863   1.774  1.00  0.00     0.053 C 
BRANCH   4   5
ATOM      5  C   UNL     1       4.942  -1.153   1.195  1.00  0.00     0.041 C 
ATOM      6  O   UNL     1       5.193  -0.855  -0.003  1.00  0.00    -0.550 OA
ATOM      7  O   UNL     1       5.937  -1.707   1.990  1.00  0.00    -0.550 OA
ENDBRANCH   4   5
ENDBRANCH   3   4
ENDBRANCH   2   3
ENDBRANCH   1   2
BRANCH   1   8
ATOM      8  C   UNL     1      -0.249  -2.480   1.213  1.00  0.00     0.000 C 
BRANCH   8   9
ATOM      9  C   UNL     1      -0.143  -3.098  -0.197  1.00  0.00     0.006 C 
BRANCH   9  10
ATOM     10  C   UNL     1      -1.345  -2.818  -1.111  1.00  0.00     0.053 C 
BRANCH  10  11
ATOM     11  C   UNL     1      -0.919  -2.340  -2.464  1.00  0.00     0.041 C 
ATOM     12  O   UNL     1       0.130  -2.787  -2.996  1.00  0.00    -0.550 OA
ATOM     13  O   UNL     1      -1.666  -1.371  -3.125  1.00  0.00    -0.550 OA
ENDBRANCH  10  11
ENDBRANCH   9  10
ENDBRANCH   8   9
ENDBRANCH   1   8
TORSDOF 8
ENDMDL
MODEL 4
REMARK VINA RESULT:    -0.690      0.571      1.058
REMARK INTER + INTRA:          -1.389
REMARK INTER:                  -1.551
REMARK INTRA:                   0.162
REMARK UNBOUND:                -0.377
REMARK SMILES O=C([O-])CCCCCCCC(=O)[O-]
REMARK SMILES IDX 7 1 6 2 5 3 4 4 2 5 1 6 3 7 8 8 9 9 10 10 11 11 12 12 13 13
REMARK H PARENT
REMARK Flexibility Score: inf
ROOT
ATOM      1  C   UNL     1       0.429  -0.806   0.882  1.00  0.00     0.000 C 
ENDROOT
BRANCH   1   2
ATOM      2  C   UNL     1      -0.247  -2.123   1.299  1.00  0.00     0.000 C 
BRANCH   2   3
ATOM      3  C   UNL     1      -0.353  -3.125   0.136  1.00  0.00     0.006 C 
BRANCH   3   4
ATOM      4  C   UNL     1      -1.356  -2.681  -0.937  1.00  0.00     0.053 C 
BRANCH   4   5
ATOM      5  C   UNL     1      -0.634  -2.191  -2.152  1.00  0.00     0.041 C 
ATOM      6  O   UNL     1      -1.281  -1.720  -3.125  1.00  0.00    -0.550 OA
ATOM      7  O   UNL     1       0.754  -2.209  -2.193  1.00  0.00    -0.550 OA
ENDBRANCH   4   5
ENDBRANCH   3   4
ENDBRANCH   2   3
ENDBRANCH   1   2
BRANCH   1   8
ATOM      8  C   UNL     1       1.961  -0.924   0.783  1.00  0.00     0.000 C 
BRANCH   8   9
ATOM      9  C   UNL     1       2.745  -0.294   1.953  1.00  0.00     0.006 C 
BRANCH   9  10
ATOM     10  C   UNL     1       4.110  -0.941   2.232  1.00  0.00     0.053 C 
BRANCH  10  11
ATOM     11  C   UNL     1       4.944  -1.043   0.993  1.00  0.00     0.041 C 
ATOM     12  O   UNL     1       5.973  -1.768   0.978  1.00  0.00    -0.550 OA
ATOM     13  O   UNL     1       4.602  -0.310  -0.138  1.00  0.00    -0.550 OA
ENDBRANCH  10  11
ENDBRANCH   9  10
ENDBRANCH   8   9
ENDBRANCH   1   8
TORSDOF 8
ENDMDL
