MODEL 1
REMARK VINA RESULT:    -7.013      0.000      0.000
REMARK INTER + INTRA:          -8.725
REMARK INTER:                  -8.448
REMARK INTRA:                  -0.277
REMARK UNBOUND:                -0.277
REMARK SMILES O=c1c(O)c(-c2ccc(O)c(O)c2)oc2cc(O)cc(O)c12
REMARK SMILES IDX 5 1 3 2 2 3 1 4 22 5 20 6 19 7 17 8 16 9 15 10 14 11 6 12
REMARK SMILES IDX 7 13 8 14 9 15 13 16 11 17 10 18 12 20 4 22 21 24 18 26
REMARK H PARENT 10 19 12 21 4 23 21 25 18 27
REMARK Flexibility Score: inf
ROOT
ATOM      1  C   UNL     1     -37.866   5.175  79.533  1.00  0.00     0.180 A 
ATOM      2  C   UNL     1     -38.451   5.376  80.795  1.00  0.00     0.208 A 
ATOM      3  C   UNL     1     -39.767   4.939  81.013  1.00  0.00     0.238 A 
ATOM      4  O   UNL     1     -40.305   5.170  82.128  1.00  0.00    -0.285 OA
ATOM      5  C   UNL     1     -40.476   4.293  79.972  1.00  0.00     0.111 A 
ATOM      6  C   UNL     1     -41.800   3.773  80.094  1.00  0.00     0.134 A 
ATOM      7  C   UNL     1     -42.451   3.270  78.961  1.00  0.00     0.093 A 
ATOM      8  C   UNL     1     -41.805   3.208  77.727  1.00  0.00     0.123 A 
ATOM      9  C   UNL     1     -40.490   3.658  77.610  1.00  0.00     0.094 A 
ATOM     10  C   UNL     1     -39.826   4.198  78.714  1.00  0.00     0.146 A 
ATOM     11  O   UNL     1     -38.578   4.625  78.558  1.00  0.00    -0.452 OA
ENDROOT
BRANCH   1  12
ATOM     12  C   UNL     1     -36.474   5.586  79.236  1.00  0.00     0.025 A 
ATOM     13  C   UNL     1     -35.408   4.811  79.720  1.00  0.00     0.016 A 
ATOM     14  C   UNL     1     -34.087   5.190  79.470  1.00  0.00     0.051 A 
ATOM     15  C   UNL     1     -33.811   6.358  78.748  1.00  0.00     0.157 A 
ATOM     16  C   UNL     1     -36.194   6.768  78.529  1.00  0.00     0.062 A 
ATOM     17  C   UNL     1     -34.871   7.153  78.279  1.00  0.00     0.158 A 
BRANCH  15  18
ATOM     18  O   UNL     1     -32.492   6.734  78.499  1.00  0.00    -0.504 OA
ATOM     19  H   UNL     1     -31.712   6.163  78.801  1.00  0.00     0.293 HD
ENDBRANCH  15  18
BRANCH  17  20
ATOM     20  O   UNL     1     -34.631   8.329  77.569  1.00  0.00    -0.504 OA
ATOM     21  H   UNL     1     -35.190   8.597  76.768  1.00  0.00     0.293 HD
ENDBRANCH  17  20
ENDBRANCH   1  12
BRANCH   2  22
ATOM     22  O   UNL     1     -37.740   6.036  81.803  1.00  0.00    -0.502 OA
ATOM     23  H   UNL     1     -38.094   6.867  82.261  1.00  0.00     0.293 HD
ENDBRANCH   2  22
BRANCH   6  24
ATOM     24  O   UNL     1     -42.503   3.703  81.300  1.00  0.00    -0.507 OA
ATOM     25  H   UNL     1     -42.082   3.539  82.203  1.00  0.00     0.293 HD
ENDBRANCH   6  24
BRANCH   8  26
ATOM     26  O   UNL     1     -42.478   2.686  76.624  1.00  0.00    -0.508 OA
ATOM     27  H   UNL     1     -42.793   3.280  75.866  1.00  0.00     0.293 HD
ENDBRANCH   8  26
TORSDOF 6
ENDMDL
MODEL 2
REMARK VINA RESULT:    -6.622      2.012      6.855
REMARK INTER + INTRA:          -8.254
REMARK INTER:                  -8.378
REMARK INTRA:                   0.125
REMARK UNBOUND:                -0.277
REMARK SMILES O=c1c(O)c(-c2ccc(O)c(O)c2)oc2cc(O)cc(O)c12
REMARK SMILES IDX 5 1 3 2 2 3 1 4 22 5 20 6 19 7 17 8 16 9 15 10 14 11 6 12
REMARK SMILES IDX 7 13 8 14 9 15 13 16 11 17 10 18 12 20 4 22 21 24 18 26
REMARK H PARENT 10 19 12 21 4 23 21 25 18 27
REMARK Flexibility Score: inf
ROOT
ATOM      1  C   UNL     1     -38.348   3.654  80.451  1.00  0.00     0.180 A 
ATOM      2  C   UNL     1     -38.184   3.201  81.771  1.00  0.00     0.208 A 
ATOM      3  C   UNL     1     -36.956   3.413  82.416  1.00  0.00     0.238 A 
ATOM      4  O   UNL     1     -36.796   2.957  83.579  1.00  0.00    -0.285 OA
ATOM      5  C   UNL     1     -35.912   4.089  81.740  1.00  0.00     0.111 A 
ATOM      6  C   UNL     1     -34.640   4.394  82.310  1.00  0.00     0.134 A 
ATOM      7  C   UNL     1     -33.638   4.950  81.506  1.00  0.00     0.093 A 
ATOM      8  C   UNL     1     -33.881   5.272  80.172  1.00  0.00     0.123 A 
ATOM      9  C   UNL     1     -35.140   5.033  79.619  1.00  0.00     0.094 A 
ATOM     10  C   UNL     1     -36.149   4.446  80.386  1.00  0.00     0.146 A 
ATOM     11  O   UNL     1     -37.330   4.226  79.821  1.00  0.00    -0.452 OA
ENDROOT
BRANCH   1  12
ATOM     12  C   UNL     1     -39.623   3.489  79.714  1.00  0.00     0.025 A 
ATOM     13  C   UNL     1     -39.594   3.210  78.339  1.00  0.00     0.016 A 
ATOM     14  C   UNL     1     -40.783   3.071  77.620  1.00  0.00     0.051 A 
ATOM     15  C   UNL     1     -42.020   3.226  78.261  1.00  0.00     0.157 A 
ATOM     16  C   UNL     1     -40.864   3.664  80.351  1.00  0.00     0.062 A 
ATOM     17  C   UNL     1     -42.059   3.528  79.633  1.00  0.00     0.158 A 
BRANCH  15  18
ATOM     18  O   UNL     1     -43.205   3.086  77.542  1.00  0.00    -0.504 OA
ATOM     19  H   UNL     1     -43.872   2.353  77.756  1.00  0.00     0.293 HD
ENDBRANCH  15  18
BRANCH  17  20
ATOM     20  O   UNL     1     -43.272   3.703  80.298  1.00  0.00    -0.504 OA
ATOM     21  H   UNL     1     -44.147   3.365  79.917  1.00  0.00     0.293 HD
ENDBRANCH  17  20
ENDBRANCH   1  12
BRANCH   2  22
ATOM     22  O   UNL     1     -39.221   2.516  82.414  1.00  0.00    -0.502 OA
ATOM     23  H   UNL     1     -40.197   2.687  82.205  1.00  0.00     0.293 HD
ENDBRANCH   2  22
BRANCH   6  24
ATOM     24  O   UNL     1     -34.322   4.197  83.657  1.00  0.00    -0.507 OA
ATOM     25  H   UNL     1     -33.701   4.785  84.194  1.00  0.00     0.293 HD
ENDBRANCH   6  24
BRANCH   8  26
ATOM     26  O   UNL     1     -32.865   5.839  79.405  1.00  0.00    -0.508 OA
ATOM     27  H   UNL     1     -31.997   5.348  79.227  1.00  0.00     0.293 HD
ENDBRANCH   8  26
TORSDOF 6
ENDMDL
MODEL 3
REMARK VINA RESULT:    -6.486      1.665      7.153
REMARK INTER + INTRA:          -8.090
REMARK INTER:                  -7.999
REMARK INTRA:                  -0.091
REMARK UNBOUND:                -0.277
REMARK SMILES O=c1c(O)c(-c2ccc(O)c(O)c2)oc2cc(O)cc(O)c12
REMARK SMILES IDX 5 1 3 2 2 3 1 4 22 5 20 6 19 7 17 8 16 9 15 10 14 11 6 12
REMARK SMILES IDX 7 13 8 14 9 15 13 16 11 17 10 18 12 20 4 22 21 24 18 26
REMARK H PARENT 10 19 12 21 4 23 21 25 18 27
REMARK Flexibility Score: inf
ROOT
ATOM      1  C   UNL     1     -38.354   4.659  79.318  1.00  0.00     0.180 A 
ATOM      2  C   UNL     1     -37.874   5.590  78.381  1.00  0.00     0.208 A 
ATOM      3  C   UNL     1     -36.542   6.025  78.473  1.00  0.00     0.238 A 
ATOM      4  O   UNL     1     -36.134   6.900  77.665  1.00  0.00    -0.285 OA
ATOM      5  C   UNL     1     -35.702   5.511  79.490  1.00  0.00     0.111 A 
ATOM      6  C   UNL     1     -34.325   5.850  79.653  1.00  0.00     0.134 A 
ATOM      7  C   UNL     1     -33.627   5.382  80.773  1.00  0.00     0.093 A 
ATOM      8  C   UNL     1     -34.234   4.536  81.699  1.00  0.00     0.123 A 
ATOM      9  C   UNL     1     -35.563   4.149  81.517  1.00  0.00     0.094 A 
ATOM     10  C   UNL     1     -36.297   4.629  80.430  1.00  0.00     0.146 A 
ATOM     11  O   UNL     1     -37.561   4.246  80.299  1.00  0.00    -0.452 OA
ENDROOT
BRANCH   1  12
ATOM     12  C   UNL     1     -39.738   4.135  79.269  1.00  0.00     0.025 A 
ATOM     13  C   UNL     1     -40.188   3.479  78.112  1.00  0.00     0.016 A 
ATOM     14  C   UNL     1     -41.495   2.995  78.035  1.00  0.00     0.051 A 
ATOM     15  C   UNL     1     -42.380   3.175  79.107  1.00  0.00     0.157 A 
ATOM     16  C   UNL     1     -40.634   4.332  80.334  1.00  0.00     0.062 A 
ATOM     17  C   UNL     1     -41.947   3.851  80.261  1.00  0.00     0.158 A 
BRANCH  15  18
ATOM     18  O   UNL     1     -43.684   2.690  79.029  1.00  0.00    -0.504 OA
ATOM     19  H   UNL     1     -44.237   2.520  79.861  1.00  0.00     0.293 HD
ENDBRANCH  15  18
BRANCH  17  20
ATOM     20  O   UNL     1     -42.806   4.059  81.339  1.00  0.00    -0.504 OA
ATOM     21  H   UNL     1     -43.622   3.480  81.495  1.00  0.00     0.293 HD
ENDBRANCH  17  20
ENDBRANCH   1  12
BRANCH   2  22
ATOM     22  O   UNL     1     -38.726   6.102  77.397  1.00  0.00    -0.502 OA
ATOM     23  H   UNL     1     -39.732   5.986  77.436  1.00  0.00     0.293 HD
ENDBRANCH   2  22
BRANCH   6  24
ATOM     24  O   UNL     1     -33.597   6.615  78.738  1.00  0.00    -0.507 OA
ATOM     25  H   UNL     1     -33.633   7.622  78.671  1.00  0.00     0.293 HD
ENDBRANCH   6  24
BRANCH   8  26
ATOM     26  O   UNL     1     -33.504   4.075  82.792  1.00  0.00    -0.508 OA
ATOM     27  H   UNL     1     -33.887   3.393  83.436  1.00  0.00     0.293 HD
ENDBRANCH   8  26
TORSDOF 6
ENDMDL
MODEL 4
REMARK VINA RESULT:    -6.319      1.465      7.105
REMARK INTER + INTRA:          -7.889
REMARK INTER:                  -7.568
REMARK INTRA:                  -0.321
REMARK UNBOUND:                -0.277
REMARK SMILES O=c1c(O)c(-c2ccc(O)c(O)c2)oc2cc(O)cc(O)c12
REMARK SMILES IDX 5 1 3 2 2 3 1 4 22 5 20 6 19 7 17 8 16 9 15 10 14 11 6 12
REMARK SMILES IDX 7 13 8 14 9 15 13 16 11 17 10 18 12 20 4 22 21 24 18 26
REMARK H PARENT 10 19 12 21 4 23 21 25 18 27
REMARK Flexibility Score: inf
ROOT
ATOM      1  C   UNL     1     -38.648   5.539  78.474  1.00  0.00     0.180 A 
ATOM      2  C   UNL     1     -38.757   6.836  77.943  1.00  0.00     0.208 A 
ATOM      3  C   UNL     1     -37.591   7.597  77.763  1.00  0.00     0.238 A 
ATOM      4  O   UNL     1     -37.699   8.778  77.339  1.00  0.00    -0.285 OA
ATOM      5  C   UNL     1     -36.331   7.047  78.100  1.00  0.00     0.111 A 
ATOM      6  C   UNL     1     -35.081   7.713  77.920  1.00  0.00     0.134 A 
ATOM      7  C   UNL     1     -33.909   7.125  78.410  1.00  0.00     0.093 A 
ATOM      8  C   UNL     1     -33.931   5.868  79.012  1.00  0.00     0.123 A 
ATOM      9  C   UNL     1     -35.139   5.181  79.138  1.00  0.00     0.094 A 
ATOM     10  C   UNL     1     -36.331   5.758  78.693  1.00  0.00     0.146 A 
ATOM     11  O   UNL     1     -37.460   5.075  78.841  1.00  0.00    -0.452 OA
ENDROOT
BRANCH   1  12
ATOM     12  C   UNL     1     -39.830   4.667  78.669  1.00  0.00     0.025 A 
ATOM     13  C   UNL     1     -40.233   3.809  77.634  1.00  0.00     0.016 A 
ATOM     14  C   UNL     1     -41.356   2.993  77.787  1.00  0.00     0.051 A 
ATOM     15  C   UNL     1     -42.104   3.035  78.972  1.00  0.00     0.157 A 
ATOM     16  C   UNL     1     -40.593   4.721  79.848  1.00  0.00     0.062 A 
ATOM     17  C   UNL     1     -41.721   3.906  80.005  1.00  0.00     0.158 A 
BRANCH  15  18
ATOM     18  O   UNL     1     -43.223   2.219  79.123  1.00  0.00    -0.504 OA
ATOM     19  H   UNL     1     -44.064   2.365  78.578  1.00  0.00     0.293 HD
ENDBRANCH  15  18
BRANCH  17  20
ATOM     20  O   UNL     1     -42.451   3.982  81.191  1.00  0.00    -0.504 OA
ATOM     21  H   UNL     1     -43.257   3.393  81.365  1.00  0.00     0.293 HD
ENDBRANCH  17  20
ENDBRANCH   1  12
BRANCH   2  22
ATOM     22  O   UNL     1     -40.013   7.368  77.637  1.00  0.00    -0.502 OA
ATOM     23  H   UNL     1     -40.756   6.810  77.234  1.00  0.00     0.293 HD
ENDBRANCH   2  22
BRANCH   6  24
ATOM     24  O   UNL     1     -34.936   8.931  77.250  1.00  0.00    -0.507 OA
ATOM     25  H   UNL     1     -34.294   9.096  76.489  1.00  0.00     0.293 HD
ENDBRANCH   6  24
BRANCH   8  26
ATOM     26  O   UNL     1     -32.743   5.305  79.473  1.00  0.00    -0.508 OA
ATOM     27  H   UNL     1     -32.037   4.959  78.834  1.00  0.00     0.293 HD
ENDBRANCH   8  26
TORSDOF 6
ENDMDL
MODEL 5
REMARK VINA RESULT:    -6.263      1.531      6.951
REMARK INTER + INTRA:          -7.821
REMARK INTER:                  -7.491
REMARK INTRA:                  -0.330
REMARK UNBOUND:                -0.277
REMARK SMILES O=c1c(O)c(-c2ccc(O)c(O)c2)oc2cc(O)cc(O)c12
REMARK SMILES IDX 5 1 3 2 2 3 1 4 22 5 20 6 19 7 17 8 16 9 15 10 14 11 6 12
REMARK SMILES IDX 7 13 8 14 9 15 13 16 11 17 10 18 12 20 4 22 21 24 18 26
REMARK H PARENT 10 19 12 21 4 23 21 25 18 27
REMARK Flexibility Score: inf
ROOT
ATOM      1  C   UNL     1     -38.421   5.057  78.707  1.00  0.00     0.180 A 
ATOM      2  C   UNL     1     -37.247   4.417  79.143  1.00  0.00     0.208 A 
ATOM      3  C   UNL     1     -36.019   5.085  79.011  1.00  0.00     0.238 A 
ATOM      4  O   UNL     1     -34.966   4.486  79.352  1.00  0.00    -0.285 OA
ATOM      5  C   UNL     1     -35.982   6.389  78.461  1.00  0.00     0.111 A 
ATOM      6  C   UNL     1     -34.799   7.175  78.318  1.00  0.00     0.134 A 
ATOM      7  C   UNL     1     -34.860   8.399  77.641  1.00  0.00     0.093 A 
ATOM      8  C   UNL     1     -36.071   8.895  77.160  1.00  0.00     0.123 A 
ATOM      9  C   UNL     1     -37.244   8.163  77.347  1.00  0.00     0.094 A 
ATOM     10  C   UNL     1     -37.209   6.922  77.987  1.00  0.00     0.146 A 
ATOM     11  O   UNL     1     -38.345   6.252  78.136  1.00  0.00    -0.452 OA
ENDROOT
BRANCH   1  12
ATOM     12  C   UNL     1     -39.755   4.426  78.837  1.00  0.00     0.025 A 
ATOM     13  C   UNL     1     -40.309   3.752  77.738  1.00  0.00     0.016 A 
ATOM     14  C   UNL     1     -41.574   3.167  77.830  1.00  0.00     0.051 A 
ATOM     15  C   UNL     1     -42.313   3.263  79.017  1.00  0.00     0.157 A 
ATOM     16  C   UNL     1     -40.506   4.538  80.020  1.00  0.00     0.062 A 
ATOM     17  C   UNL     1     -41.776   3.956  80.116  1.00  0.00     0.158 A 
BRANCH  15  18
ATOM     18  O   UNL     1     -43.574   2.678  79.108  1.00  0.00    -0.504 OA
ATOM     19  H   UNL     1     -44.115   2.713  79.964  1.00  0.00     0.293 HD
ENDBRANCH  15  18
BRANCH  17  20
ATOM     20  O   UNL     1     -42.491   4.082  81.307  1.00  0.00    -0.504 OA
ATOM     21  H   UNL     1     -42.733   4.985  81.695  1.00  0.00     0.293 HD
ENDBRANCH  17  20
ENDBRANCH   1  12
BRANCH   2  22
ATOM     22  O   UNL     1     -37.304   3.121  79.663  1.00  0.00    -0.502 OA
ATOM     23  H   UNL     1     -36.610   2.763  80.308  1.00  0.00     0.293 HD
ENDBRANCH   2  22
BRANCH   6  24
ATOM     24  O   UNL     1     -33.554   6.813  78.841  1.00  0.00    -0.507 OA
ATOM     25  H   UNL     1     -32.679   6.881  78.344  1.00  0.00     0.293 HD
ENDBRANCH   6  24
BRANCH   8  26
ATOM     26  O   UNL     1     -36.098  10.125  76.505  1.00  0.00    -0.508 OA
ATOM     27  H   UNL     1     -36.899  10.743  76.570  1.00  0.00     0.293 HD
ENDBRANCH   8  26
TORSDOF 6
ENDMDL
MODEL 6
REMARK VINA RESULT:    -6.178      9.084     11.036
REMARK INTER + INTRA:          -7.719
REMARK INTER:                  -7.385
REMARK INTRA:                  -0.334
REMARK UNBOUND:                -0.277
REMARK SMILES O=c1c(O)c(-c2ccc(O)c(O)c2)oc2cc(O)cc(O)c12
REMARK SMILES IDX 5 1 3 2 2 3 1 4 22 5 20 6 19 7 17 8 16 9 15 10 14 11 6 12
REMARK SMILES IDX 7 13 8 14 9 15 13 16 11 17 10 18 12 20 4 22 21 24 18 26
REMARK H PARENT 10 19 12 21 4 23 21 25 18 27
REMARK Flexibility Score: inf
ROOT
ATOM      1  C   UNL     1     -41.631  -4.411  82.478  1.00  0.00     0.180 A 
ATOM      2  C   UNL     1     -42.190  -5.332  83.381  1.00  0.00     0.208 A 
ATOM      3  C   UNL     1     -42.984  -6.377  82.884  1.00  0.00     0.238 A 
ATOM      4  O   UNL     1     -43.527  -7.166  83.701  1.00  0.00    -0.285 OA
ATOM      5  C   UNL     1     -43.196  -6.499  81.489  1.00  0.00     0.111 A 
ATOM      6  C   UNL     1     -43.949  -7.542  80.871  1.00  0.00     0.134 A 
ATOM      7  C   UNL     1     -44.202  -7.490  79.495  1.00  0.00     0.093 A 
ATOM      8  C   UNL     1     -43.676  -6.469  78.705  1.00  0.00     0.123 A 
ATOM      9  C   UNL     1     -42.888  -5.476  79.289  1.00  0.00     0.094 A 
ATOM     10  C   UNL     1     -42.648  -5.481  80.665  1.00  0.00     0.146 A 
ATOM     11  O   UNL     1     -41.902  -4.513  81.183  1.00  0.00    -0.452 OA
ENDROOT
BRANCH   1  12
ATOM     12  C   UNL     1     -40.763  -3.297  82.926  1.00  0.00     0.025 A 
ATOM     13  C   UNL     1     -41.327  -2.032  83.154  1.00  0.00     0.016 A 
ATOM     14  C   UNL     1     -40.524  -0.962  83.557  1.00  0.00     0.051 A 
ATOM     15  C   UNL     1     -39.144  -1.136  83.720  1.00  0.00     0.157 A 
ATOM     16  C   UNL     1     -39.375  -3.463  83.071  1.00  0.00     0.062 A 
ATOM     17  C   UNL     1     -38.567  -2.393  83.472  1.00  0.00     0.158 A 
BRANCH  15  18
ATOM     18  O   UNL     1     -38.345  -0.067  84.123  1.00  0.00    -0.504 OA
ATOM     19  H   UNL     1     -37.458  -0.214  84.590  1.00  0.00     0.293 HD
ENDBRANCH  15  18
BRANCH  17  20
ATOM     20  O   UNL     1     -37.194  -2.596  83.611  1.00  0.00    -0.504 OA
ATOM     21  H   UNL     1     -36.757  -3.483  83.395  1.00  0.00     0.293 HD
ENDBRANCH  17  20
ENDBRANCH   1  12
BRANCH   2  22
ATOM     22  O   UNL     1     -41.987  -5.180  84.757  1.00  0.00    -0.502 OA
ATOM     23  H   UNL     1     -41.469  -4.402  85.147  1.00  0.00     0.293 HD
ENDBRANCH   2  22
BRANCH   6  24
ATOM     24  O   UNL     1     -44.443  -8.657  81.555  1.00  0.00    -0.507 OA
ATOM     25  H   UNL     1     -45.393  -8.757  81.882  1.00  0.00     0.293 HD
ENDBRANCH   6  24
BRANCH   8  26
ATOM     26  O   UNL     1     -43.934  -6.457  77.336  1.00  0.00    -0.508 OA
ATOM     27  H   UNL     1     -43.185  -6.404  76.655  1.00  0.00     0.293 HD
ENDBRANCH   8  26
TORSDOF 6
ENDMDL
MODEL 7
REMARK VINA RESULT:    -6.162      1.576      3.206
REMARK INTER + INTRA:          -7.700
REMARK INTER:                  -7.418
REMARK INTRA:                  -0.282
REMARK UNBOUND:                -0.277
REMARK SMILES O=c1c(O)c(-c2ccc(O)c(O)c2)oc2cc(O)cc(O)c12
REMARK SMILES IDX 5 1 3 2 2 3 1 4 22 5 20 6 19 7 17 8 16 9 15 10 14 11 6 12
REMARK SMILES IDX 7 13 8 14 9 15 13 16 11 17 10 18 12 20 4 22 21 24 18 26
REMARK H PARENT 10 19 12 21 4 23 21 25 18 27
REMARK Flexibility Score: inf
ROOT
ATOM      1  C   UNL     1     -37.875   5.238  80.035  1.00  0.00     0.180 A 
ATOM      2  C   UNL     1     -38.953   5.093  79.144  1.00  0.00     0.208 A 
ATOM      3  C   UNL     1     -40.194   4.665  79.642  1.00  0.00     0.238 A 
ATOM      4  O   UNL     1     -41.141   4.484  78.831  1.00  0.00    -0.285 OA
ATOM      5  C   UNL     1     -40.347   4.404  81.025  1.00  0.00     0.111 A 
ATOM      6  C   UNL     1     -41.569   4.005  81.644  1.00  0.00     0.134 A 
ATOM      7  C   UNL     1     -41.573   3.647  82.998  1.00  0.00     0.093 A 
ATOM      8  C   UNL     1     -40.415   3.737  83.769  1.00  0.00     0.123 A 
ATOM      9  C   UNL     1     -39.228   4.183  83.188  1.00  0.00     0.094 A 
ATOM     10  C   UNL     1     -39.184   4.512  81.831  1.00  0.00     0.146 A 
ATOM     11  O   UNL     1     -38.032   4.923  81.314  1.00  0.00    -0.452 OA
ENDROOT
BRANCH   1  12
ATOM     12  C   UNL     1     -36.544   5.709  79.589  1.00  0.00     0.025 A 
ATOM     13  C   UNL     1     -35.478   4.799  79.520  1.00  0.00     0.016 A 
ATOM     14  C   UNL     1     -34.208   5.224  79.122  1.00  0.00     0.051 A 
ATOM     15  C   UNL     1     -33.981   6.569  78.803  1.00  0.00     0.157 A 
ATOM     16  C   UNL     1     -36.308   7.062  79.288  1.00  0.00     0.062 A 
ATOM     17  C   UNL     1     -35.037   7.493  78.891  1.00  0.00     0.158 A 
BRANCH  15  18
ATOM     18  O   UNL     1     -32.714   6.992  78.405  1.00  0.00    -0.504 OA
ATOM     19  H   UNL     1     -32.050   7.375  79.067  1.00  0.00     0.293 HD
ENDBRANCH  15  18
BRANCH  17  20
ATOM     20  O   UNL     1     -34.840   8.842  78.594  1.00  0.00    -0.504 OA
ATOM     21  H   UNL     1     -34.350   9.143  77.761  1.00  0.00     0.293 HD
ENDBRANCH  17  20
ENDBRANCH   1  12
BRANCH   2  22
ATOM     22  O   UNL     1     -38.775   5.335  77.779  1.00  0.00    -0.502 OA
ATOM     23  H   UNL     1     -38.002   4.944  77.254  1.00  0.00     0.293 HD
ENDBRANCH   2  22
BRANCH   6  24
ATOM     24  O   UNL     1     -42.802   3.969  80.986  1.00  0.00    -0.507 OA
ATOM     25  H   UNL     1     -43.675   4.285  81.382  1.00  0.00     0.293 HD
ENDBRANCH   6  24
BRANCH   8  26
ATOM     26  O   UNL     1     -40.459   3.388  85.118  1.00  0.00    -0.508 OA
ATOM     27  H   UNL     1     -39.614   3.295  85.669  1.00  0.00     0.293 HD
ENDBRANCH   8  26
TORSDOF 6
ENDMDL
MODEL 8
REMARK VINA RESULT:    -6.063      9.130     12.280
REMARK INTER + INTRA:          -7.581
REMARK INTER:                  -7.283
REMARK INTRA:                  -0.298
REMARK UNBOUND:                -0.277
REMARK SMILES O=c1c(O)c(-c2ccc(O)c(O)c2)oc2cc(O)cc(O)c12
REMARK SMILES IDX 5 1 3 2 2 3 1 4 22 5 20 6 19 7 17 8 16 9 15 10 14 11 6 12
REMARK SMILES IDX 7 13 8 14 9 15 13 16 11 17 10 18 12 20 4 22 21 24 18 26
REMARK H PARENT 10 19 12 21 4 23 21 25 18 27
REMARK Flexibility Score: inf
ROOT
ATOM      1  C   UNL     1     -41.292  -4.729  81.874  1.00  0.00     0.180 A 
ATOM      2  C   UNL     1     -41.590  -3.479  82.442  1.00  0.00     0.208 A 
ATOM      3  C   UNL     1     -40.564  -2.751  83.064  1.00  0.00     0.238 A 
ATOM      4  O   UNL     1     -40.848  -1.658  83.620  1.00  0.00    -0.285 OA
ATOM      5  C   UNL     1     -39.249  -3.275  83.096  1.00  0.00     0.111 A 
ATOM      6  C   UNL     1     -38.123  -2.605  83.663  1.00  0.00     0.134 A 
ATOM      7  C   UNL     1     -36.896  -3.273  83.755  1.00  0.00     0.093 A 
ATOM      8  C   UNL     1     -36.737  -4.560  83.242  1.00  0.00     0.123 A 
ATOM      9  C   UNL     1     -37.815  -5.201  82.631  1.00  0.00     0.094 A 
ATOM     10  C   UNL     1     -39.061  -4.574  82.557  1.00  0.00     0.146 A 
ATOM     11  O   UNL     1     -40.064  -5.222  81.977  1.00  0.00    -0.452 OA
ENDROOT
BRANCH   1  12
ATOM     12  C   UNL     1     -42.317  -5.543  81.179  1.00  0.00     0.025 A 
ATOM     13  C   UNL     1     -43.189  -6.344  81.932  1.00  0.00     0.016 A 
ATOM     14  C   UNL     1     -44.149  -7.135  81.298  1.00  0.00     0.051 A 
ATOM     15  C   UNL     1     -44.241  -7.151  79.900  1.00  0.00     0.157 A 
ATOM     16  C   UNL     1     -42.398  -5.577  79.776  1.00  0.00     0.062 A 
ATOM     17  C   UNL     1     -43.357  -6.370  79.136  1.00  0.00     0.158 A 
BRANCH  15  18
ATOM     18  O   UNL     1     -45.201  -7.940  79.269  1.00  0.00    -0.504 OA
ATOM     19  H   UNL     1     -46.173  -7.659  79.226  1.00  0.00     0.293 HD
ENDBRANCH  15  18
BRANCH  17  20
ATOM     20  O   UNL     1     -43.412  -6.375  77.742  1.00  0.00    -0.504 OA
ATOM     21  H   UNL     1     -43.493  -5.520  77.205  1.00  0.00     0.293 HD
ENDBRANCH  17  20
ENDBRANCH   1  12
BRANCH   2  22
ATOM     22  O   UNL     1     -42.901  -2.991  82.419  1.00  0.00    -0.502 OA
ATOM     23  H   UNL     1     -43.256  -2.423  81.660  1.00  0.00     0.293 HD
ENDBRANCH   2  22
BRANCH   6  24
ATOM     24  O   UNL     1     -38.150  -1.285  84.123  1.00  0.00    -0.507 OA
ATOM     25  H   UNL     1     -38.132  -0.469  83.530  1.00  0.00     0.293 HD
ENDBRANCH   6  24
BRANCH   8  26
ATOM     26  O   UNL     1     -35.497  -5.189  83.336  1.00  0.00    -0.508 OA
ATOM     27  H   UNL     1     -35.299  -6.048  82.837  1.00  0.00     0.293 HD
ENDBRANCH   8  26
TORSDOF 6
ENDMDL
MODEL 9
REMARK VINA RESULT:    -5.997      1.908      2.605
REMARK INTER + INTRA:          -7.501
REMARK INTER:                  -7.205
REMARK INTRA:                  -0.296
REMARK UNBOUND:                -0.277
REMARK SMILES O=c1c(O)c(-c2ccc(O)c(O)c2)oc2cc(O)cc(O)c12
REMARK SMILES IDX 5 1 3 2 2 3 1 4 22 5 20 6 19 7 17 8 16 9 15 10 14 11 6 12
REMARK SMILES IDX 7 13 8 14 9 15 13 16 11 17 10 18 12 20 4 22 21 24 18 26
REMARK H PARENT 10 19 12 21 4 23 21 25 18 27
REMARK Flexibility Score: inf
ROOT
ATOM      1  C   UNL     1     -37.081   5.350  81.496  1.00  0.00     0.180 A 
ATOM      2  C   UNL     1     -37.097   5.358  82.901  1.00  0.00     0.208 A 
ATOM      3  C   UNL     1     -38.261   4.949  83.571  1.00  0.00     0.238 A 
ATOM      4  O   UNL     1     -38.288   5.011  84.829  1.00  0.00    -0.285 OA
ATOM      5  C   UNL     1     -39.388   4.523  82.829  1.00  0.00     0.111 A 
ATOM      6  C   UNL     1     -40.606   4.049  83.404  1.00  0.00     0.134 A 
ATOM      7  C   UNL     1     -41.701   3.776  82.575  1.00  0.00     0.093 A 
ATOM      8  C   UNL     1     -41.603   3.897  81.190  1.00  0.00     0.123 A 
ATOM      9  C   UNL     1     -40.398   4.302  80.612  1.00  0.00     0.094 A 
ATOM     10  C   UNL     1     -39.299   4.616  81.415  1.00  0.00     0.146 A 
ATOM     11  O   UNL     1     -38.175   5.007  80.828  1.00  0.00    -0.452 OA
ENDROOT
BRANCH   1  12
ATOM     12  C   UNL     1     -35.882   5.743  80.720  1.00  0.00     0.025 A 
ATOM     13  C   UNL     1     -34.829   4.828  80.567  1.00  0.00     0.016 A 
ATOM     14  C   UNL     1     -33.679   5.184  79.858  1.00  0.00     0.051 A 
ATOM     15  C   UNL     1     -33.558   6.465  79.304  1.00  0.00     0.157 A 
ATOM     16  C   UNL     1     -35.749   7.035  80.181  1.00  0.00     0.062 A 
ATOM     17  C   UNL     1     -34.597   7.396  79.471  1.00  0.00     0.158 A 
BRANCH  15  18
ATOM     18  O   UNL     1     -32.411   6.818  78.595  1.00  0.00    -0.504 OA
ATOM     19  H   UNL     1     -32.465   7.256  77.684  1.00  0.00     0.293 HD
ENDBRANCH  15  18
BRANCH  17  20
ATOM     20  O   UNL     1     -34.502   8.684  78.946  1.00  0.00    -0.504 OA
ATOM     21  H   UNL     1     -33.937   9.403  79.383  1.00  0.00     0.293 HD
ENDBRANCH  17  20
ENDBRANCH   1  12
BRANCH   2  22
ATOM     22  O   UNL     1     -35.980   5.804  83.615  1.00  0.00    -0.502 OA
ATOM     23  H   UNL     1     -35.756   5.464  84.542  1.00  0.00     0.293 HD
ENDBRANCH   2  22
BRANCH   6  24
ATOM     24  O   UNL     1     -40.781   3.806  84.769  1.00  0.00    -0.507 OA
ATOM     25  H   UNL     1     -40.141   3.281  85.347  1.00  0.00     0.293 HD
ENDBRANCH   6  24
BRANCH   8  26
ATOM     26  O   UNL     1     -42.708   3.602  80.394  1.00  0.00    -0.508 OA
ATOM     27  H   UNL     1     -42.784   3.945  79.443  1.00  0.00     0.293 HD
ENDBRANCH   8  26
TORSDOF 6
ENDMDL
