MODEL 1
REMARK VINA RESULT:    -3.131      0.000      0.000
REMARK INTER + INTRA:          -3.854
REMARK INTER:                  -3.771
REMARK INTRA:                  -0.083
REMARK UNBOUND:                -0.083
REMARK SMILES CC[C@H](C)[C@@H]([NH3+])C(=O)[O-]
REMARK SMILES IDX 3 1 4 2 5 3 6 4 7 8 8 9 9 10 2 11 1 12
REMARK H PARENT 6 5 6 6 6 7
REMARK Flexibility Score: inf
ROOT
ATOM      1  C   UNL     1      14.696  32.766  22.968  1.00  0.00     0.050 C 
ATOM      2  C   UNL     1      13.396  32.470  22.195  1.00  0.00     0.014 C 
ENDROOT
BRANCH   1   3
ATOM      3  C   UNL     1      15.825  33.255  22.005  1.00  0.00     0.230 C 
BRANCH   3   4
ATOM      4  N   UNL     1      15.324  33.491  20.641  1.00  0.00    -0.350 N 
ATOM      5  H   UNL     1      14.385  33.045  20.518  1.00  0.00     0.345 HD
ATOM      6  H   UNL     1      15.199  34.515  20.474  1.00  0.00     0.345 HD
ATOM      7  H   UNL     1      15.982  33.096  19.930  1.00  0.00     0.345 HD
ENDBRANCH   3   4
BRANCH   3   8
ATOM      8  C   UNL     1      16.473  34.514  22.522  1.00  0.00     0.099 C 
ATOM      9  O   UNL     1      16.006  35.102  23.534  1.00  0.00    -0.544 OA
ATOM     10  O   UNL     1      17.602  35.024  21.893  1.00  0.00    -0.544 OA
ENDBRANCH   3   8
ENDBRANCH   1   3
BRANCH   1  11
ATOM     11  C   UNL     1      15.122  31.496  23.765  1.00  0.00     0.006 C 
ATOM     12  C   UNL     1      14.428  30.224  23.272  1.00  0.00     0.004 C 
ENDBRANCH   1  11
TORSDOF 4
ENDMDL
MODEL 2
REMARK VINA RESULT:    -3.071      2.812      3.986
REMARK INTER + INTRA:          -3.782
REMARK INTER:                  -3.721
REMARK INTRA:                  -0.061
REMARK UNBOUND:                -0.083
REMARK SMILES CC[C@H](C)[C@@H]([NH3+])C(=O)[O-]
REMARK SMILES IDX 3 1 4 2 5 3 6 4 7 8 8 9 9 10 2 11 1 12
REMARK H PARENT 6 5 6 6 6 7
REMARK Flexibility Score: inf
ROOT
ATOM      1  C   UNL     1      15.385  33.904  22.695  1.00  0.00     0.050 C 
ATOM      2  C   UNL     1      15.742  34.412  24.105  1.00  0.00     0.014 C 
ENDROOT
BRANCH   1   3
ATOM      3  C   UNL     1      14.824  32.446  22.747  1.00  0.00     0.230 C 
BRANCH   3   4
ATOM      4  N   UNL     1      15.245  31.736  23.965  1.00  0.00    -0.350 N 
ATOM      5  H   UNL     1      15.567  32.419  24.689  1.00  0.00     0.345 HD
ATOM      6  H   UNL     1      14.437  31.215  24.377  1.00  0.00     0.345 HD
ATOM      7  H   UNL     1      16.024  31.070  23.757  1.00  0.00     0.345 HD
ENDBRANCH   3   4
BRANCH   3   8
ATOM      8  C   UNL     1      13.319  32.441  22.661  1.00  0.00     0.099 C 
ATOM      9  O   UNL     1      12.629  31.904  23.569  1.00  0.00    -0.544 OA
ATOM     10  O   UNL     1      12.682  33.045  21.583  1.00  0.00    -0.544 OA
ENDBRANCH   3   8
ENDBRANCH   1   3
BRANCH   1  11
ATOM     11  C   UNL     1      16.639  34.011  21.776  1.00  0.00     0.006 C 
ATOM     12  C   UNL     1      17.596  35.125  22.203  1.00  0.00     0.004 C 
ENDBRANCH   1  11
TORSDOF 4
ENDMDL
MODEL 3
REMARK VINA RESULT:    -2.981      2.598      3.688
REMARK INTER + INTRA:          -3.673
REMARK INTER:                  -3.610
REMARK INTRA:                  -0.063
REMARK UNBOUND:                -0.083
REMARK SMILES CC[C@H](C)[C@@H]([NH3+])C(=O)[O-]
REMARK SMILES IDX 3 1 4 2 5 3 6 4 7 8 8 9 9 10 2 11 1 12
REMARK H PARENT 6 5 6 6 6 7
REMARK Flexibility Score: inf
ROOT
ATOM      1  C   UNL     1      15.300  33.882  22.391  1.00  0.00     0.050 C 
ATOM      2  C   UNL     1      15.398  33.074  23.700  1.00  0.00     0.014 C 
ENDROOT
BRANCH   1   3
ATOM      3  C   UNL     1      14.216  33.282  21.439  1.00  0.00     0.230 C 
BRANCH   3   4
ATOM      4  N   UNL     1      13.717  31.984  21.918  1.00  0.00    -0.350 N 
ATOM      5  H   UNL     1      12.733  32.079  22.262  1.00  0.00     0.345 HD
ATOM      6  H   UNL     1      13.699  31.291  21.135  1.00  0.00     0.345 HD
ATOM      7  H   UNL     1      14.314  31.620  22.696  1.00  0.00     0.345 HD
ENDBRANCH   3   4
BRANCH   3   8
ATOM      8  C   UNL     1      13.057  34.231  21.269  1.00  0.00     0.099 C 
ATOM      9  O   UNL     1      12.653  34.926  22.239  1.00  0.00    -0.544 OA
ATOM     10  O   UNL     1      12.437  34.355  20.031  1.00  0.00    -0.544 OA
ENDBRANCH   3   8
ENDBRANCH   1   3
BRANCH   1  11
ATOM     11  C   UNL     1      16.703  33.937  21.714  1.00  0.00     0.006 C 
ATOM     12  C   UNL     1      17.544  35.125  22.185  1.00  0.00     0.004 C 
ENDBRANCH   1  11
TORSDOF 4
ENDMDL
MODEL 4
REMARK VINA RESULT:    -2.907      2.086      2.540
REMARK INTER + INTRA:          -3.585
REMARK INTER:                  -3.458
REMARK INTRA:                  -0.126
REMARK UNBOUND:                -0.083
REMARK SMILES CC[C@H](C)[C@@H]([NH3+])C(=O)[O-]
REMARK SMILES IDX 3 1 4 2 5 3 6 4 7 8 8 9 9 10 2 11 1 12
REMARK H PARENT 6 5 6 6 6 7
REMARK Flexibility Score: inf
ROOT
ATOM      1  C   UNL     1      15.272  32.707  23.181  1.00  0.00     0.050 C 
ATOM      2  C   UNL     1      15.556  33.892  24.125  1.00  0.00     0.014 C 
ENDROOT
BRANCH   1   3
ATOM      3  C   UNL     1      14.115  33.045  22.187  1.00  0.00     0.230 C 
BRANCH   3   4
ATOM      4  N   UNL     1      13.022  33.782  22.841  1.00  0.00    -0.350 N 
ATOM      5  H   UNL     1      13.297  34.780  22.991  1.00  0.00     0.345 HD
ATOM      6  H   UNL     1      12.174  33.789  22.229  1.00  0.00     0.345 HD
ATOM      7  H   UNL     1      12.785  33.353  23.765  1.00  0.00     0.345 HD
ENDBRANCH   3   4
BRANCH   3   8
ATOM      8  C   UNL     1      14.622  33.844  21.013  1.00  0.00     0.099 C 
ATOM      9  O   UNL     1      15.708  33.535  20.452  1.00  0.00    -0.544 OA
ATOM     10  O   UNL     1      13.884  34.919  20.533  1.00  0.00    -0.544 OA
ENDBRANCH   3   8
ENDBRANCH   1   3
BRANCH   1  11
ATOM     11  C   UNL     1      14.958  31.437  24.028  1.00  0.00     0.006 C 
ATOM     12  C   UNL     1      14.261  30.341  23.219  1.00  0.00     0.004 C 
ENDBRANCH   1  11
TORSDOF 4
ENDMDL
MODEL 5
REMARK VINA RESULT:    -2.846      2.474      3.180
REMARK INTER + INTRA:          -3.511
REMARK INTER:                  -3.479
REMARK INTRA:                  -0.032
REMARK UNBOUND:                -0.083
REMARK SMILES CC[C@H](C)[C@@H]([NH3+])C(=O)[O-]
REMARK SMILES IDX 3 1 4 2 5 3 6 4 7 8 8 9 9 10 2 11 1 12
REMARK H PARENT 6 5 6 6 6 7
REMARK Flexibility Score: inf
ROOT
ATOM      1  C   UNL     1      15.477  33.273  22.095  1.00  0.00     0.050 C 
ATOM      2  C   UNL     1      16.759  34.099  21.871  1.00  0.00     0.014 C 
ENDROOT
BRANCH   1   3
ATOM      3  C   UNL     1      14.260  33.910  21.349  1.00  0.00     0.230 C 
BRANCH   3   4
ATOM      4  N   UNL     1      14.293  33.635  19.904  1.00  0.00    -0.350 N 
ATOM      5  H   UNL     1      14.056  32.632  19.721  1.00  0.00     0.345 HD
ATOM      6  H   UNL     1      13.575  34.212  19.409  1.00  0.00     0.345 HD
ATOM      7  H   UNL     1      15.240  33.837  19.508  1.00  0.00     0.345 HD
ENDBRANCH   3   4
BRANCH   3   8
ATOM      8  C   UNL     1      12.955  33.418  21.921  1.00  0.00     0.099 C 
ATOM      9  O   UNL     1      12.178  34.213  22.514  1.00  0.00    -0.544 OA
ATOM     10  O   UNL     1      12.594  32.083  21.780  1.00  0.00    -0.544 OA
ENDBRANCH   3   8
ENDBRANCH   1   3
BRANCH   1  11
ATOM     11  C   UNL     1      15.213  33.137  23.625  1.00  0.00     0.006 C 
ATOM     12  C   UNL     1      15.244  31.685  24.106  1.00  0.00     0.004 C 
ENDBRANCH   1  11
TORSDOF 4
ENDMDL
MODEL 6
REMARK VINA RESULT:    -2.591      2.602      3.754
REMARK INTER + INTRA:          -3.204
REMARK INTER:                  -3.200
REMARK INTRA:                  -0.004
REMARK UNBOUND:                -0.083
REMARK SMILES CC[C@H](C)[C@@H]([NH3+])C(=O)[O-]
REMARK SMILES IDX 3 1 4 2 5 3 6 4 7 8 8 9 9 10 2 11 1 12
REMARK H PARENT 6 5 6 6 6 7
REMARK Flexibility Score: inf
ROOT
ATOM      1  C   UNL     1      15.610  34.528  22.085  1.00  0.00     0.050 C 
ATOM      2  C   UNL     1      17.133  34.385  21.895  1.00  0.00     0.014 C 
ENDROOT
BRANCH   1   3
ATOM      3  C   UNL     1      15.191  34.180  23.550  1.00  0.00     0.230 C 
BRANCH   3   4
ATOM      4  N   UNL     1      14.196  35.125  24.080  1.00  0.00    -0.350 N 
ATOM      5  H   UNL     1      13.612  35.510  23.301  1.00  0.00     0.345 HD
ATOM      6  H   UNL     1      13.544  34.635  24.735  1.00  0.00     0.345 HD
ATOM      7  H   UNL     1      14.664  35.918  24.577  1.00  0.00     0.345 HD
ENDBRANCH   3   4
BRANCH   3   8
ATOM      8  C   UNL     1      14.645  32.777  23.640  1.00  0.00     0.099 C 
ATOM      9  O   UNL     1      15.426  31.791  23.714  1.00  0.00    -0.544 OA
ATOM     10  O   UNL     1      13.271  32.567  23.658  1.00  0.00    -0.544 OA
ENDBRANCH   3   8
ENDBRANCH   1   3
BRANCH   1  11
ATOM     11  C   UNL     1      14.874  33.633  21.043  1.00  0.00     0.006 C 
ATOM     12  C   UNL     1      13.711  34.354  20.358  1.00  0.00     0.004 C 
ENDBRANCH   1  11
TORSDOF 4
ENDMDL
MODEL 7
REMARK VINA RESULT:    -2.480      2.754      3.946
REMARK INTER + INTRA:          -3.070
REMARK INTER:                  -3.111
REMARK INTRA:                   0.041
REMARK UNBOUND:                -0.083
REMARK SMILES CC[C@H](C)[C@@H]([NH3+])C(=O)[O-]
REMARK SMILES IDX 3 1 4 2 5 3 6 4 7 8 8 9 9 10 2 11 1 12
REMARK H PARENT 6 5 6 6 6 7
REMARK Flexibility Score: inf
ROOT
ATOM      1  C   UNL     1      15.141  33.406  23.286  1.00  0.00     0.050 C 
ATOM      2  C   UNL     1      15.201  31.914  23.670  1.00  0.00     0.014 C 
ENDROOT
BRANCH   1   3
ATOM      3  C   UNL     1      13.668  33.929  23.289  1.00  0.00     0.230 C 
BRANCH   3   4
ATOM      4  N   UNL     1      13.502  35.115  22.435  1.00  0.00    -0.350 N 
ATOM      5  H   UNL     1      13.480  35.982  23.021  1.00  0.00     0.345 HD
ATOM      6  H   UNL     1      14.314  35.210  21.783  1.00  0.00     0.345 HD
ATOM      7  H   UNL     1      12.614  35.056  21.884  1.00  0.00     0.345 HD
ENDBRANCH   3   4
BRANCH   3   8
ATOM      8  C   UNL     1      12.710  32.854  22.842  1.00  0.00     0.099 C 
ATOM      9  O   UNL     1      12.618  32.546  21.624  1.00  0.00    -0.544 OA
ATOM     10  O   UNL     1      11.931  32.185  23.779  1.00  0.00    -0.544 OA
ENDBRANCH   3   8
ENDBRANCH   1   3
BRANCH   1  11
ATOM     11  C   UNL     1      15.827  33.609  21.901  1.00  0.00     0.006 C 
ATOM     12  C   UNL     1      17.081  34.482  21.981  1.00  0.00     0.004 C 
ENDBRANCH   1  11
TORSDOF 4
ENDMDL
MODEL 8
REMARK VINA RESULT:    -2.324      2.506      3.855
REMARK INTER + INTRA:          -2.882
REMARK INTER:                  -2.823
REMARK INTRA:                  -0.059
REMARK UNBOUND:                -0.083
REMARK SMILES CC[C@H](C)[C@@H]([NH3+])C(=O)[O-]
REMARK SMILES IDX 3 1 4 2 5 3 6 4 7 8 8 9 9 10 2 11 1 12
REMARK H PARENT 6 5 6 6 6 7
REMARK Flexibility Score: inf
ROOT
ATOM      1  C   UNL     1      15.650  33.255  22.031  1.00  0.00     0.050 C 
ATOM      2  C   UNL     1      15.567  33.625  20.538  1.00  0.00     0.014 C 
ENDROOT
BRANCH   1   3
ATOM      3  C   UNL     1      14.279  32.716  22.554  1.00  0.00     0.230 C 
BRANCH   3   4
ATOM      4  N   UNL     1      13.265  32.657  21.489  1.00  0.00    -0.350 N 
ATOM      5  H   UNL     1      12.421  32.136  21.821  1.00  0.00     0.345 HD
ATOM      6  H   UNL     1      12.948  33.621  21.237  1.00  0.00     0.345 HD
ATOM      7  H   UNL     1      13.646  32.179  20.639  1.00  0.00     0.345 HD
ENDBRANCH   3   4
BRANCH   3   8
ATOM      8  C   UNL     1      14.432  31.351  23.173  1.00  0.00     0.099 C 
ATOM      9  O   UNL     1      15.238  31.168  24.125  1.00  0.00    -0.544 OA
ATOM     10  O   UNL     1      13.671  30.286  22.705  1.00  0.00    -0.544 OA
ENDBRANCH   3   8
ENDBRANCH   1   3
BRANCH   1  11
ATOM     11  C   UNL     1      16.135  34.494  22.843  1.00  0.00     0.006 C 
ATOM     12  C   UNL     1      17.402  35.125  22.264  1.00  0.00     0.004 C 
ENDBRANCH   1  11
TORSDOF 4
ENDMDL
