MODEL 1
REMARK VINA RESULT:    -5.813      0.000      0.000
REMARK INTER + INTRA:          -5.983
REMARK INTER:                  -5.983
REMARK INTRA:                   0.000
REMARK UNBOUND:                 0.000
REMARK SMILES Oc1ccc2[nH]ccc2c1
REMARK SMILES IDX 3 1 4 2 5 3 9 4 8 5 7 6 6 7 10 8 2 9 1 11
REMARK H PARENT 6 10 1 12
REMARK Flexibility Score: inf
ROOT
ATOM      1  C   UNL     1      16.202  33.828  36.074  1.00  0.00     0.048 A 
ATOM      2  C   UNL     1      15.908  32.789  36.975  1.00  0.00     0.030 A 
ATOM      3  C   UNL     1      16.484  31.542  36.741  1.00  0.00     0.046 A 
ATOM      4  C   UNL     1      17.309  31.320  35.671  1.00  0.00     0.003 A 
ATOM      5  C   UNL     1      17.706  30.002  35.723  1.00  0.00     0.028 A 
ATOM      6  C   UNL     1      17.082  29.479  36.852  1.00  0.00     0.083 A 
ATOM      7  N   UNL     1      16.337  30.424  37.470  1.00  0.00    -0.361 N 
ATOM      8  C   UNL     1      17.620  32.327  34.760  1.00  0.00     0.056 A 
ATOM      9  C   UNL     1      17.054  33.602  34.969  1.00  0.00     0.116 A 
ATOM     10  H   UNL     1      15.766  30.304  38.336  1.00  0.00     0.166 HD
ENDROOT
BRANCH   9  11
ATOM     11  O   UNL     1      17.330  34.648  34.091  1.00  0.00    -0.508 OA
ATOM     12  H   UNL     1      17.175  35.614  34.354  1.00  0.00     0.293 HD
ENDBRANCH   9  11
TORSDOF 1
ENDMDL
MODEL 2
REMARK VINA RESULT:    -5.421      3.014      4.307
REMARK INTER + INTRA:          -5.580
REMARK INTER:                  -5.580
REMARK INTRA:                   0.000
REMARK UNBOUND:                 0.000
REMARK SMILES Oc1ccc2[nH]ccc2c1
REMARK SMILES IDX 3 1 4 2 5 3 9 4 8 5 7 6 6 7 10 8 2 9 1 11
REMARK H PARENT 6 10 1 12
REMARK Flexibility Score: inf
ROOT
ATOM      1  C   UNL     1      16.366  33.402  35.853  1.00  0.00     0.048 A 
ATOM      2  C   UNL     1      15.015  33.773  35.729  1.00  0.00     0.030 A 
ATOM      3  C   UNL     1      14.564  34.184  34.476  1.00  0.00     0.046 A 
ATOM      4  C   UNL     1      15.399  34.234  33.392  1.00  0.00     0.003 A 
ATOM      5  C   UNL     1      14.656  34.676  32.320  1.00  0.00     0.028 A 
ATOM      6  C   UNL     1      13.376  34.879  32.824  1.00  0.00     0.083 A 
ATOM      7  N   UNL     1      13.325  34.577  34.142  1.00  0.00    -0.361 N 
ATOM      8  C   UNL     1      16.742  33.874  33.480  1.00  0.00     0.056 A 
ATOM      9  C   UNL     1      17.230  33.452  34.735  1.00  0.00     0.116 A 
ATOM     10  H   UNL     1      12.490  34.638  34.767  1.00  0.00     0.166 HD
ENDROOT
BRANCH   9  11
ATOM     11  O   UNL     1      18.565  33.079  34.883  1.00  0.00    -0.508 OA
ATOM     12  H   UNL     1      18.910  32.197  34.526  1.00  0.00     0.293 HD
ENDBRANCH   9  11
TORSDOF 1
ENDMDL
MODEL 3
REMARK VINA RESULT:    -5.390      3.327      4.828
REMARK INTER + INTRA:          -5.547
REMARK INTER:                  -5.547
REMARK INTRA:                   0.000
REMARK UNBOUND:                 0.000
REMARK SMILES Oc1ccc2[nH]ccc2c1
REMARK SMILES IDX 3 1 4 2 5 3 9 4 8 5 7 6 6 7 10 8 2 9 1 11
REMARK H PARENT 6 10 1 12
REMARK Flexibility Score: inf
ROOT
ATOM      1  C   UNL     1      16.922  33.277  35.106  1.00  0.00     0.048 A 
ATOM      2  C   UNL     1      16.648  33.705  33.795  1.00  0.00     0.030 A 
ATOM      3  C   UNL     1      15.370  34.192  33.522  1.00  0.00     0.046 A 
ATOM      4  C   UNL     1      14.403  34.255  34.490  1.00  0.00     0.003 A 
ATOM      5  C   UNL     1      13.270  34.776  33.907  1.00  0.00     0.028 A 
ATOM      6  C   UNL     1      13.618  35.006  32.579  1.00  0.00     0.083 A 
ATOM      7  N   UNL     1      14.902  34.648  32.350  1.00  0.00    -0.361 N 
ATOM      8  C   UNL     1      14.642  33.839  35.798  1.00  0.00     0.056 A 
ATOM      9  C   UNL     1      15.925  33.341  36.107  1.00  0.00     0.116 A 
ATOM     10  H   UNL     1      15.419  34.714  31.444  1.00  0.00     0.166 HD
ENDROOT
BRANCH   9  11
ATOM     11  O   UNL     1      16.223  32.911  37.398  1.00  0.00    -0.508 OA
ATOM     12  H   UNL     1      15.678  32.189  37.853  1.00  0.00     0.293 HD
ENDBRANCH   9  11
TORSDOF 1
ENDMDL
MODEL 4
REMARK VINA RESULT:    -5.278      2.521      3.964
REMARK INTER + INTRA:          -5.432
REMARK INTER:                  -5.432
REMARK INTRA:                   0.000
REMARK UNBOUND:                 0.000
REMARK SMILES Oc1ccc2[nH]ccc2c1
REMARK SMILES IDX 3 1 4 2 5 3 9 4 8 5 7 6 6 7 10 8 2 9 1 11
REMARK H PARENT 6 10 1 12
REMARK Flexibility Score: inf
ROOT
ATOM      1  C   UNL     1      17.043  32.444  34.280  1.00  0.00     0.048 A 
ATOM      2  C   UNL     1      16.111  33.465  34.017  1.00  0.00     0.030 A 
ATOM      3  C   UNL     1      15.297  33.890  35.065  1.00  0.00     0.046 A 
ATOM      4  C   UNL     1      15.389  33.339  36.316  1.00  0.00     0.003 A 
ATOM      5  C   UNL     1      14.459  33.971  37.113  1.00  0.00     0.028 A 
ATOM      6  C   UNL     1      13.835  34.895  36.280  1.00  0.00     0.083 A 
ATOM      7  N   UNL     1      14.350  34.841  35.030  1.00  0.00    -0.361 N 
ATOM      8  C   UNL     1      16.300  32.328  36.610  1.00  0.00     0.056 A 
ATOM      9  C   UNL     1      17.140  31.875  35.571  1.00  0.00     0.116 A 
ATOM     10  H   UNL     1      14.066  35.422  34.210  1.00  0.00     0.166 HD
ENDROOT
BRANCH   9  11
ATOM     11  O   UNL     1      18.071  30.866  35.806  1.00  0.00    -0.508 OA
ATOM     12  H   UNL     1      17.988  30.245  36.602  1.00  0.00     0.293 HD
ENDBRANCH   9  11
TORSDOF 1
ENDMDL
MODEL 5
REMARK VINA RESULT:    -5.256      2.959      4.078
REMARK INTER + INTRA:          -5.410
REMARK INTER:                  -5.410
REMARK INTRA:                   0.000
REMARK UNBOUND:                 0.000
REMARK SMILES Oc1ccc2[nH]ccc2c1
REMARK SMILES IDX 3 1 4 2 5 3 9 4 8 5 7 6 6 7 10 8 2 9 1 11
REMARK H PARENT 6 10 1 12
REMARK Flexibility Score: inf
ROOT
ATOM      1  C   UNL     1      14.981  34.597  32.349  1.00  0.00     0.048 A 
ATOM      2  C   UNL     1      16.100  34.043  32.997  1.00  0.00     0.030 A 
ATOM      3  C   UNL     1      15.983  33.736  34.352  1.00  0.00     0.046 A 
ATOM      4  C   UNL     1      14.823  33.964  35.043  1.00  0.00     0.003 A 
ATOM      5  C   UNL     1      15.031  33.559  36.343  1.00  0.00     0.028 A 
ATOM      6  C   UNL     1      16.343  33.096  36.372  1.00  0.00     0.083 A 
ATOM      7  N   UNL     1      16.920  33.207  35.154  1.00  0.00    -0.361 N 
ATOM      8  C   UNL     1      13.697  34.512  34.432  1.00  0.00     0.056 A 
ATOM      9  C   UNL     1      13.782  34.832  33.061  1.00  0.00     0.116 A 
ATOM     10  H   UNL     1      17.894  32.934  34.895  1.00  0.00     0.166 HD
ENDROOT
BRANCH   9  11
ATOM     11  O   UNL     1      12.688  35.381  32.396  1.00  0.00    -0.508 OA
ATOM     12  H   UNL     1      12.766  35.733  31.450  1.00  0.00     0.293 HD
ENDBRANCH   9  11
TORSDOF 1
ENDMDL
MODEL 6
REMARK VINA RESULT:    -5.119      2.888      4.422
REMARK INTER + INTRA:          -5.269
REMARK INTER:                  -5.269
REMARK INTRA:                   0.000
REMARK UNBOUND:                 0.000
REMARK SMILES Oc1ccc2[nH]ccc2c1
REMARK SMILES IDX 3 1 4 2 5 3 9 4 8 5 7 6 6 7 10 8 2 9 1 11
REMARK H PARENT 6 10 1 12
REMARK Flexibility Score: inf
ROOT
ATOM      1  C   UNL     1      17.657  28.494  36.397  1.00  0.00     0.048 A 
ATOM      2  C   UNL     1      17.743  29.436  35.356  1.00  0.00     0.030 A 
ATOM      3  C   UNL     1      17.247  30.716  35.593  1.00  0.00     0.046 A 
ATOM      4  C   UNL     1      16.690  31.060  36.796  1.00  0.00     0.003 A 
ATOM      5  C   UNL     1      16.303  32.379  36.709  1.00  0.00     0.028 A 
ATOM      6  C   UNL     1      16.654  32.776  35.422  1.00  0.00     0.083 A 
ATOM      7  N   UNL     1      17.230  31.757  34.745  1.00  0.00    -0.361 N 
ATOM      8  C   UNL     1      16.589  30.152  37.847  1.00  0.00     0.056 A 
ATOM      9  C   UNL     1      17.082  28.847  37.640  1.00  0.00     0.116 A 
ATOM     10  H   UNL     1      17.587  31.779  33.763  1.00  0.00     0.166 HD
ENDROOT
BRANCH   9  11
ATOM     11  O   UNL     1      17.009  27.896  38.655  1.00  0.00    -0.508 OA
ATOM     12  H   UNL     1      17.636  27.101  38.681  1.00  0.00     0.293 HD
ENDBRANCH   9  11
TORSDOF 1
ENDMDL
MODEL 7
REMARK VINA RESULT:    -5.022      1.379      2.131
REMARK INTER + INTRA:          -5.169
REMARK INTER:                  -5.169
REMARK INTRA:                   0.000
REMARK UNBOUND:                 0.000
REMARK SMILES Oc1ccc2[nH]ccc2c1
REMARK SMILES IDX 3 1 4 2 5 3 9 4 8 5 7 6 6 7 10 8 2 9 1 11
REMARK H PARENT 6 10 1 12
REMARK Flexibility Score: inf
ROOT
ATOM      1  C   UNL     1      16.592  33.792  34.811  1.00  0.00     0.048 A 
ATOM      2  C   UNL     1      17.401  32.658  34.616  1.00  0.00     0.030 A 
ATOM      3  C   UNL     1      17.296  31.617  35.538  1.00  0.00     0.046 A 
ATOM      4  C   UNL     1      16.439  31.684  36.604  1.00  0.00     0.003 A 
ATOM      5  C   UNL     1      16.573  30.512  37.314  1.00  0.00     0.028 A 
ATOM      6  C   UNL     1      17.532  29.776  36.623  1.00  0.00     0.083 A 
ATOM      7  N   UNL     1      17.970  30.456  35.539  1.00  0.00    -0.361 N 
ATOM      8  C   UNL     1      15.625  32.793  36.826  1.00  0.00     0.056 A 
ATOM      9  C   UNL     1      15.706  33.863  35.911  1.00  0.00     0.116 A 
ATOM     10  H   UNL     1      18.686  30.139  34.848  1.00  0.00     0.166 HD
ENDROOT
BRANCH   9  11
ATOM     11  O   UNL     1      14.916  34.998  36.081  1.00  0.00    -0.508 OA
ATOM     12  H   UNL     1      13.982  35.054  35.694  1.00  0.00     0.293 HD
ENDBRANCH   9  11
TORSDOF 1
ENDMDL
MODEL 8
REMARK VINA RESULT:    -4.948      2.474      3.164
REMARK INTER + INTRA:          -5.092
REMARK INTER:                  -5.092
REMARK INTRA:                   0.000
REMARK UNBOUND:                 0.000
REMARK SMILES Oc1ccc2[nH]ccc2c1
REMARK SMILES IDX 3 1 4 2 5 3 9 4 8 5 7 6 6 7 10 8 2 9 1 11
REMARK H PARENT 6 10 1 12
REMARK Flexibility Score: inf
ROOT
ATOM      1  C   UNL     1      13.896  34.765  33.436  1.00  0.00     0.048 A 
ATOM      2  C   UNL     1      13.830  34.257  34.746  1.00  0.00     0.030 A 
ATOM      3  C   UNL     1      14.971  33.648  35.267  1.00  0.00     0.046 A 
ATOM      4  C   UNL     1      16.125  33.540  34.537  1.00  0.00     0.003 A 
ATOM      5  C   UNL     1      17.052  32.896  35.327  1.00  0.00     0.028 A 
ATOM      6  C   UNL     1      16.393  32.641  36.525  1.00  0.00     0.083 A 
ATOM      7  N   UNL     1      15.123  33.102  36.483  1.00  0.00    -0.361 N 
ATOM      8  C   UNL     1      16.223  34.032  33.238  1.00  0.00     0.056 A 
ATOM      9  C   UNL     1      15.087  34.655  32.681  1.00  0.00     0.116 A 
ATOM     10  H   UNL     1      14.409  33.043  37.244  1.00  0.00     0.166 HD
ENDROOT
BRANCH   9  11
ATOM     11  O   UNL     1      15.126  35.166  31.386  1.00  0.00    -0.508 OA
ATOM     12  H   UNL     1      14.281  35.436  30.898  1.00  0.00     0.293 HD
ENDBRANCH   9  11
TORSDOF 1
ENDMDL
MODEL 9
REMARK VINA RESULT:    -4.628      2.417      3.655
REMARK INTER + INTRA:          -4.763
REMARK INTER:                  -4.763
REMARK INTRA:                   0.000
REMARK UNBOUND:                 0.000
REMARK SMILES Oc1ccc2[nH]ccc2c1
REMARK SMILES IDX 3 1 4 2 5 3 9 4 8 5 7 6 6 7 10 8 2 9 1 11
REMARK H PARENT 6 10 1 12
REMARK Flexibility Score: inf
ROOT
ATOM      1  C   UNL     1      16.954  29.394  37.442  1.00  0.00     0.048 A 
ATOM      2  C   UNL     1      16.243  30.575  37.723  1.00  0.00     0.030 A 
ATOM      3  C   UNL     1      16.370  31.639  36.832  1.00  0.00     0.046 A 
ATOM      4  C   UNL     1      17.160  31.552  35.716  1.00  0.00     0.003 A 
ATOM      5  C   UNL     1      17.071  32.756  35.054  1.00  0.00     0.028 A 
ATOM      6  C   UNL     1      16.210  33.532  35.825  1.00  0.00     0.083 A 
ATOM      7  N   UNL     1      15.785  32.844  36.910  1.00  0.00    -0.361 N 
ATOM      8  C   UNL     1      17.877  30.398  35.410  1.00  0.00     0.056 A 
ATOM      9  C   UNL     1      17.769  29.301  36.291  1.00  0.00     0.116 A 
ATOM     10  H   UNL     1      15.135  33.186  37.653  1.00  0.00     0.166 HD
ENDROOT
BRANCH   9  11
ATOM     11  O   UNL     1      18.463  28.120  36.036  1.00  0.00    -0.508 OA
ATOM     12  H   UNL     1      19.360  28.125  35.567  1.00  0.00     0.293 HD
ENDBRANCH   9  11
TORSDOF 1
ENDMDL
