MODEL 1
REMARK VINA RESULT:    -5.694      0.000      0.000
REMARK INTER + INTRA:          -6.918
REMARK INTER:                  -6.859
REMARK INTRA:                  -0.059
REMARK UNBOUND:                -0.059
REMARK SMILES O=c1c(O)c(-c2ccc(O)cc2O)oc2cc(O)cc(O)c12
REMARK SMILES IDX 5 1 3 2 2 3 1 4 22 5 20 6 19 7 17 8 16 9 15 10 14 11 6 12
REMARK SMILES IDX 8 13 7 14 9 15 11 16 12 17 10 18 13 20 4 22 21 24 18 26
REMARK H PARENT 10 19 13 21 4 23 21 25 18 27
REMARK Flexibility Score: inf
ROOT
ATOM      1  C   UNL     1     -33.904  10.299 -39.310  1.00  0.00     0.184 A 
ATOM      2  C   UNL     1     -32.720   9.552 -39.210  1.00  0.00     0.208 A 
ATOM      3  C   UNL     1     -32.036   9.520 -37.984  1.00  0.00     0.238 A 
ATOM      4  O   UNL     1     -30.944   8.898 -37.919  1.00  0.00    -0.285 OA
ATOM      5  C   UNL     1     -32.563  10.213 -36.867  1.00  0.00     0.111 A 
ATOM      6  C   UNL     1     -31.976  10.218 -35.566  1.00  0.00     0.134 A 
ATOM      7  C   UNL     1     -32.516  11.038 -34.567  1.00  0.00     0.093 A 
ATOM      8  C   UNL     1     -33.658  11.802 -34.802  1.00  0.00     0.123 A 
ATOM      9  C   UNL     1     -34.274  11.761 -36.054  1.00  0.00     0.094 A 
ATOM     10  C   UNL     1     -33.738  10.981 -37.081  1.00  0.00     0.146 A 
ATOM     11  O   UNL     1     -34.348  10.981 -38.261  1.00  0.00    -0.451 OA
ENDROOT
BRANCH   1  12
ATOM     12  C   UNL     1     -34.678  10.351 -40.569  1.00  0.00     0.063 A 
ATOM     13  C   UNL     1     -35.633   9.180 -42.476  1.00  0.00     0.047 A 
ATOM     14  C   UNL     1     -34.861   9.173 -41.313  1.00  0.00     0.020 A 
ATOM     15  C   UNL     1     -36.241  10.362 -42.908  1.00  0.00     0.119 A 
ATOM     16  C   UNL     1     -36.068  11.540 -42.173  1.00  0.00     0.093 A 
ATOM     17  C   UNL     1     -35.287  11.548 -41.011  1.00  0.00     0.130 A 
BRANCH  15  18
ATOM     18  O   UNL     1     -37.014  10.353 -44.068  1.00  0.00    -0.508 OA
ATOM     19  H   UNL     1     -36.757  10.901 -44.880  1.00  0.00     0.293 HD
ENDBRANCH  15  18
BRANCH  17  20
ATOM     20  O   UNL     1     -35.119  12.760 -40.337  1.00  0.00    -0.507 OA
ATOM     21  H   UNL     1     -34.227  13.071 -39.974  1.00  0.00     0.293 HD
ENDBRANCH  17  20
ENDBRANCH   1  12
BRANCH   2  22
ATOM     22  O   UNL     1     -32.226   8.875 -40.329  1.00  0.00    -0.502 OA
ATOM     23  H   UNL     1     -32.413   9.183 -41.275  1.00  0.00     0.293 HD
ENDBRANCH   2  22
BRANCH   6  24
ATOM     24  O   UNL     1     -30.887   9.423 -35.198  1.00  0.00    -0.507 OA
ATOM     25  H   UNL     1     -30.956   8.495 -34.809  1.00  0.00     0.293 HD
ENDBRANCH   6  24
BRANCH   8  26
ATOM     26  O   UNL     1     -34.178  12.594 -33.780  1.00  0.00    -0.508 OA
ATOM     27  H   UNL     1     -33.586  13.209 -33.233  1.00  0.00     0.293 HD
ENDBRANCH   8  26
TORSDOF 6
ENDMDL
MODEL 2
REMARK VINA RESULT:    -5.024      1.485      6.517
REMARK INTER + INTRA:          -6.111
REMARK INTER:                  -5.698
REMARK INTRA:                  -0.413
REMARK UNBOUND:                -0.059
REMARK SMILES O=c1c(O)c(-c2ccc(O)cc2O)oc2cc(O)cc(O)c12
REMARK SMILES IDX 5 1 3 2 2 3 1 4 22 5 20 6 19 7 17 8 16 9 15 10 14 11 6 12
REMARK SMILES IDX 8 13 7 14 9 15 11 16 12 17 10 18 13 20 4 22 21 24 18 26
REMARK H PARENT 10 19 13 21 4 23 21 25 18 27
REMARK Flexibility Score: inf
ROOT
ATOM      1  C   UNL     1     -33.898  10.573 -38.947  1.00  0.00     0.184 A 
ATOM      2  C   UNL     1     -32.850   9.927 -39.621  1.00  0.00     0.208 A 
ATOM      3  C   UNL     1     -33.049   9.507 -40.946  1.00  0.00     0.238 A 
ATOM      4  O   UNL     1     -32.127   8.875 -41.523  1.00  0.00    -0.285 OA
ATOM      5  C   UNL     1     -34.285   9.765 -41.587  1.00  0.00     0.111 A 
ATOM      6  C   UNL     1     -34.584   9.419 -42.939  1.00  0.00     0.134 A 
ATOM      7  C   UNL     1     -35.882   9.611 -43.431  1.00  0.00     0.093 A 
ATOM      8  C   UNL     1     -36.872  10.195 -42.642  1.00  0.00     0.123 A 
ATOM      9  C   UNL     1     -36.575  10.590 -41.336  1.00  0.00     0.094 A 
ATOM     10  C   UNL     1     -35.300  10.378 -40.806  1.00  0.00     0.146 A 
ATOM     11  O   UNL     1     -35.063  10.755 -39.555  1.00  0.00    -0.451 OA
ENDROOT
BRANCH   1  12
ATOM     12  C   UNL     1     -33.738  11.057 -37.559  1.00  0.00     0.063 A 
ATOM     13  C   UNL     1     -33.260  12.894 -36.036  1.00  0.00     0.047 A 
ATOM     14  C   UNL     1     -33.364  12.393 -37.335  1.00  0.00     0.020 A 
ATOM     15  C   UNL     1     -33.534  12.069 -34.942  1.00  0.00     0.119 A 
ATOM     16  C   UNL     1     -33.910  10.738 -35.152  1.00  0.00     0.093 A 
ATOM     17  C   UNL     1     -34.008  10.221 -36.450  1.00  0.00     0.130 A 
BRANCH  15  18
ATOM     18  O   UNL     1     -33.432  12.584 -33.650  1.00  0.00    -0.508 OA
ATOM     19  H   UNL     1     -33.849  13.472 -33.400  1.00  0.00     0.293 HD
ENDBRANCH  15  18
BRANCH  17  20
ATOM     20  O   UNL     1     -34.351   8.875 -36.601  1.00  0.00    -0.507 OA
ATOM     21  H   UNL     1     -35.173   8.568 -37.105  1.00  0.00     0.293 HD
ENDBRANCH  17  20
ENDBRANCH   1  12
BRANCH   2  22
ATOM     22  O   UNL     1     -31.639   9.690 -38.964  1.00  0.00    -0.502 OA
ATOM     23  H   UNL     1     -31.597   9.374 -38.003  1.00  0.00     0.293 HD
ENDBRANCH   2  22
BRANCH   6  24
ATOM     24  O   UNL     1     -33.645   8.912 -43.842  1.00  0.00    -0.507 OA
ATOM     25  H   UNL     1     -32.645   8.964 -43.722  1.00  0.00     0.293 HD
ENDBRANCH   6  24
BRANCH   8  26
ATOM     26  O   UNL     1     -38.147  10.387 -43.169  1.00  0.00    -0.508 OA
ATOM     27  H   UNL     1     -38.564  11.309 -43.225  1.00  0.00     0.293 HD
ENDBRANCH   8  26
TORSDOF 6
ENDMDL
MODEL 3
REMARK VINA RESULT:    -4.570      1.451      6.474
REMARK INTER + INTRA:          -5.564
REMARK INTER:                  -5.799
REMARK INTRA:                   0.235
REMARK UNBOUND:                -0.059
REMARK SMILES O=c1c(O)c(-c2ccc(O)cc2O)oc2cc(O)cc(O)c12
REMARK SMILES IDX 5 1 3 2 2 3 1 4 22 5 20 6 19 7 17 8 16 9 15 10 14 11 6 12
REMARK SMILES IDX 8 13 7 14 9 15 11 16 12 17 10 18 13 20 4 22 21 24 18 26
REMARK H PARENT 10 19 13 21 4 23 21 25 18 27
REMARK Flexibility Score: inf
ROOT
ATOM      1  C   UNL     1     -32.847  10.854 -36.749  1.00  0.00     0.184 A 
ATOM      2  C   UNL     1     -31.753  10.094 -37.191  1.00  0.00     0.208 A 
ATOM      3  C   UNL     1     -31.749   9.606 -38.507  1.00  0.00     0.238 A 
ATOM      4  O   UNL     1     -30.795   8.875 -38.877  1.00  0.00    -0.285 OA
ATOM      5  C   UNL     1     -32.828   9.911 -39.373  1.00  0.00     0.111 A 
ATOM      6  C   UNL     1     -32.912   9.503 -40.738  1.00  0.00     0.134 A 
ATOM      7  C   UNL     1     -34.082   9.757 -41.465  1.00  0.00     0.093 A 
ATOM      8  C   UNL     1     -35.144  10.459 -40.897  1.00  0.00     0.123 A 
ATOM      9  C   UNL     1     -35.051  10.913 -39.581  1.00  0.00     0.094 A 
ATOM     10  C   UNL     1     -33.911  10.643 -38.819  1.00  0.00     0.146 A 
ATOM     11  O   UNL     1     -33.868  11.081 -37.566  1.00  0.00    -0.451 OA
ENDROOT
BRANCH   1  12
ATOM     12  C   UNL     1     -32.894  11.412 -35.381  1.00  0.00     0.063 A 
ATOM     13  C   UNL     1     -32.157  11.313 -33.064  1.00  0.00     0.047 A 
ATOM     14  C   UNL     1     -32.175  10.777 -34.353  1.00  0.00     0.020 A 
ATOM     15  C   UNL     1     -32.849  12.494 -32.784  1.00  0.00     0.119 A 
ATOM     16  C   UNL     1     -33.566  13.136 -33.800  1.00  0.00     0.093 A 
ATOM     17  C   UNL     1     -33.601  12.603 -35.094  1.00  0.00     0.130 A 
BRANCH  15  18
ATOM     18  O   UNL     1     -32.816  13.020 -31.494  1.00  0.00    -0.508 OA
ATOM     19  H   UNL     1     -32.841  12.422 -30.677  1.00  0.00     0.293 HD
ENDBRANCH  15  18
BRANCH  17  20
ATOM     20  O   UNL     1     -34.362  13.266 -36.060  1.00  0.00    -0.507 OA
ATOM     21  H   UNL     1     -34.424  12.957 -37.022  1.00  0.00     0.293 HD
ENDBRANCH  17  20
ENDBRANCH   1  12
BRANCH   2  22
ATOM     22  O   UNL     1     -30.700   9.812 -36.315  1.00  0.00    -0.502 OA
ATOM     23  H   UNL     1     -30.678   8.976 -35.745  1.00  0.00     0.293 HD
ENDBRANCH   2  22
BRANCH   6  24
ATOM     24  O   UNL     1     -31.873   8.875 -41.431  1.00  0.00    -0.507 OA
ATOM     25  H   UNL     1     -31.910   8.599 -42.400  1.00  0.00     0.293 HD
ENDBRANCH   6  24
BRANCH   8  26
ATOM     26  O   UNL     1     -36.287  10.708 -41.655  1.00  0.00    -0.508 OA
ATOM     27  H   UNL     1     -36.325  11.472 -42.320  1.00  0.00     0.293 HD
ENDBRANCH   8  26
TORSDOF 6
ENDMDL
MODEL 4
REMARK VINA RESULT:    -3.985      1.632      6.769
REMARK INTER + INTRA:          -4.860
REMARK INTER:                  -4.614
REMARK INTRA:                  -0.246
REMARK UNBOUND:                -0.059
REMARK SMILES O=c1c(O)c(-c2ccc(O)cc2O)oc2cc(O)cc(O)c12
REMARK SMILES IDX 5 1 3 2 2 3 1 4 22 5 20 6 19 7 17 8 16 9 15 10 14 11 6 12
REMARK SMILES IDX 8 13 7 14 9 15 11 16 12 17 10 18 13 20 4 22 21 24 18 26
REMARK H PARENT 10 19 13 21 4 23 21 25 18 27
REMARK Flexibility Score: inf
ROOT
ATOM      1  C   UNL     1     -32.744  11.400 -36.085  1.00  0.00     0.184 A 
ATOM      2  C   UNL     1     -31.853  10.371 -36.431  1.00  0.00     0.208 A 
ATOM      3  C   UNL     1     -31.899   9.838 -37.728  1.00  0.00     0.238 A 
ATOM      4  O   UNL     1     -31.140   8.875 -38.012  1.00  0.00    -0.285 OA
ATOM      5  C   UNL     1     -32.816  10.362 -38.672  1.00  0.00     0.111 A 
ATOM      6  C   UNL     1     -32.923   9.924 -40.027  1.00  0.00     0.134 A 
ATOM      7  C   UNL     1     -33.950  10.428 -40.836  1.00  0.00     0.093 A 
ATOM      8  C   UNL     1     -34.831  11.398 -40.361  1.00  0.00     0.123 A 
ATOM      9  C   UNL     1     -34.700  11.875 -39.056  1.00  0.00     0.094 A 
ATOM     10  C   UNL     1     -33.709  11.365 -38.213  1.00  0.00     0.146 A 
ATOM     11  O   UNL     1     -33.628  11.836 -36.974  1.00  0.00    -0.451 OA
ENDROOT
BRANCH   1  12
ATOM     12  C   UNL     1     -32.726  12.014 -34.741  1.00  0.00     0.063 A 
ATOM     13  C   UNL     1     -31.485  13.171 -32.996  1.00  0.00     0.047 A 
ATOM     14  C   UNL     1     -31.521  12.535 -34.238  1.00  0.00     0.020 A 
ATOM     15  C   UNL     1     -32.653  13.304 -32.241  1.00  0.00     0.119 A 
ATOM     16  C   UNL     1     -33.860  12.792 -32.733  1.00  0.00     0.093 A 
ATOM     17  C   UNL     1     -33.906  12.143 -33.972  1.00  0.00     0.130 A 
BRANCH  15  18
ATOM     18  O   UNL     1     -32.605  13.946 -31.005  1.00  0.00    -0.508 OA
ATOM     19  H   UNL     1     -31.724  14.204 -30.577  1.00  0.00     0.293 HD
ENDBRANCH  15  18
BRANCH  17  20
ATOM     20  O   UNL     1     -35.130  11.619 -34.398  1.00  0.00    -0.507 OA
ATOM     21  H   UNL     1     -35.623  10.891 -33.898  1.00  0.00     0.293 HD
ENDBRANCH  17  20
ENDBRANCH   1  12
BRANCH   2  22
ATOM     22  O   UNL     1     -30.956   9.877 -35.479  1.00  0.00    -0.502 OA
ATOM     23  H   UNL     1     -30.911  10.242 -34.536  1.00  0.00     0.293 HD
ENDBRANCH   2  22
BRANCH   6  24
ATOM     24  O   UNL     1     -32.039   9.026 -40.630  1.00  0.00    -0.507 OA
ATOM     25  H   UNL     1     -32.272   8.416 -41.398  1.00  0.00     0.293 HD
ENDBRANCH   6  24
BRANCH   8  26
ATOM     26  O   UNL     1     -35.830  11.889 -41.199  1.00  0.00    -0.508 OA
ATOM     27  H   UNL     1     -36.347  12.731 -40.972  1.00  0.00     0.293 HD
ENDBRANCH   8  26
TORSDOF 6
ENDMDL
MODEL 5
REMARK VINA RESULT:    -2.909      1.313      1.836
REMARK INTER + INTRA:          -3.564
REMARK INTER:                  -3.541
REMARK INTRA:                  -0.023
REMARK UNBOUND:                -0.059
REMARK SMILES O=c1c(O)c(-c2ccc(O)cc2O)oc2cc(O)cc(O)c12
REMARK SMILES IDX 5 1 3 2 2 3 1 4 22 5 20 6 19 7 17 8 16 9 15 10 14 11 6 12
REMARK SMILES IDX 8 13 7 14 9 15 11 16 12 17 10 18 13 20 4 22 21 24 18 26
REMARK H PARENT 10 19 13 21 4 23 21 25 18 27
REMARK Flexibility Score: inf
ROOT
ATOM      1  C   UNL     1     -33.691  11.206 -38.425  1.00  0.00     0.184 A 
ATOM      2  C   UNL     1     -32.523  10.431 -38.358  1.00  0.00     0.208 A 
ATOM      3  C   UNL     1     -31.832  10.342 -37.139  1.00  0.00     0.238 A 
ATOM      4  O   UNL     1     -30.754   9.695 -37.102  1.00  0.00    -0.285 OA
ATOM      5  C   UNL     1     -32.337  11.008 -35.995  1.00  0.00     0.111 A 
ATOM      6  C   UNL     1     -31.741  10.956 -34.699  1.00  0.00     0.134 A 
ATOM      7  C   UNL     1     -32.257  11.753 -33.669  1.00  0.00     0.093 A 
ATOM      8  C   UNL     1     -33.384  12.549 -33.870  1.00  0.00     0.123 A 
ATOM      9  C   UNL     1     -34.009  12.564 -35.118  1.00  0.00     0.094 A 
ATOM     10  C   UNL     1     -33.496  11.808 -36.175  1.00  0.00     0.146 A 
ATOM     11  O   UNL     1     -34.113  11.861 -37.350  1.00  0.00    -0.451 OA
ENDROOT
BRANCH   1  12
ATOM     12  C   UNL     1     -34.471  11.317 -39.675  1.00  0.00     0.063 A 
ATOM     13  C   UNL     1     -35.438  12.725 -41.409  1.00  0.00     0.047 A 
ATOM     14  C   UNL     1     -34.752  12.591 -40.201  1.00  0.00     0.020 A 
ATOM     15  C   UNL     1     -35.847  11.591 -42.114  1.00  0.00     0.119 A 
ATOM     16  C   UNL     1     -35.571  10.318 -41.602  1.00  0.00     0.093 A 
ATOM     17  C   UNL     1     -34.893  10.170 -40.386  1.00  0.00     0.130 A 
BRANCH  15  18
ATOM     18  O   UNL     1     -36.526  11.740 -43.322  1.00  0.00    -0.508 OA
ATOM     19  H   UNL     1     -36.078  11.544 -44.209  1.00  0.00     0.293 HD
ENDBRANCH  15  18
BRANCH  17  20
ATOM     20  O   UNL     1     -34.676   8.876 -39.904  1.00  0.00    -0.507 OA
ATOM     21  H   UNL     1     -34.542   8.668 -38.924  1.00  0.00     0.293 HD
ENDBRANCH  17  20
ENDBRANCH   1  12
BRANCH   2  22
ATOM     22  O   UNL     1     -32.051   9.782 -39.503  1.00  0.00    -0.502 OA
ATOM     23  H   UNL     1     -32.606   9.103 -40.009  1.00  0.00     0.293 HD
ENDBRANCH   2  22
BRANCH   6  24
ATOM     24  O   UNL     1     -30.667  10.126 -34.366  1.00  0.00    -0.507 OA
ATOM     25  H   UNL     1     -30.376   9.320 -34.897  1.00  0.00     0.293 HD
ENDBRANCH   6  24
BRANCH   8  26
ATOM     26  O   UNL     1     -33.880  13.316 -32.818  1.00  0.00    -0.508 OA
ATOM     27  H   UNL     1     -34.600  12.963 -32.198  1.00  0.00     0.293 HD
ENDBRANCH   8  26
TORSDOF 6
ENDMDL
