MODEL 1
REMARK VINA RESULT:    -3.984      0.000      0.000
REMARK INTER + INTRA:          -6.222
REMARK INTER:                  -5.497
REMARK INTRA:                  -0.725
REMARK UNBOUND:                -0.725
REMARK SMILES OC[C@@H](O)C(O)[C@H](O)CO
REMARK SMILES IDX 5 1 7 2 9 3 10 4 8 6 3 8 2 9 1 10 4 12 6 14
REMARK H PARENT 10 5 8 7 1 11 4 13 6 15
REMARK Flexibility Score: inf
ROOT
ATOM      1  C   UNL     1     180.603 166.822 182.848  1.00  0.00     0.176 C 
ENDROOT
BRANCH   1   2
ATOM      2  C   UNL     1     180.887 165.296 182.798  1.00  0.00     0.171 C 
BRANCH   2   3
ATOM      3  C   UNL     1     182.091 164.890 183.671  1.00  0.00     0.190 C 
BRANCH   3   4
ATOM      4  O   UNL     1     181.718 164.770 185.017  1.00  0.00    -0.394 OA
ATOM      5  H   UNL     1     180.881 165.292 185.128  1.00  0.00     0.210 HD
ENDBRANCH   3   4
ENDBRANCH   2   3
BRANCH   2   6
ATOM      6  O   UNL     1     179.749 164.553 183.162  1.00  0.00    -0.388 OA
ATOM      7  H   UNL     1     179.380 164.141 182.337  1.00  0.00     0.211 HD
ENDBRANCH   2   6
ENDBRANCH   1   2
BRANCH   1   8
ATOM      8  C   UNL     1     179.115 167.110 183.159  1.00  0.00     0.171 C 
BRANCH   8   9
ATOM      9  C   UNL     1     178.897 168.553 183.649  1.00  0.00     0.190 C 
BRANCH   9  10
ATOM     10  O   UNL     1     179.120 168.656 185.031  1.00  0.00    -0.394 OA
ATOM     11  H   UNL     1     178.498 169.351 185.372  1.00  0.00     0.210 HD
ENDBRANCH   9  10
ENDBRANCH   8   9
BRANCH   8  12
ATOM     12  O   UNL     1     178.339 166.883 182.010  1.00  0.00    -0.388 OA
ATOM     13  H   UNL     1     177.454 167.304 182.172  1.00  0.00     0.211 HD
ENDBRANCH   8  12
ENDBRANCH   1   8
BRANCH   1  14
ATOM     14  O   UNL     1     181.409 167.430 183.827  1.00  0.00    -0.388 OA
ATOM     15  H   UNL     1     180.813 167.698 184.575  1.00  0.00     0.211 HD
ENDBRANCH   1  14
TORSDOF 9
ENDMDL
MODEL 2
REMARK VINA RESULT:    -3.981     17.670     20.051
REMARK INTER + INTRA:          -6.219
REMARK INTER:                  -5.501
REMARK INTRA:                  -0.718
REMARK UNBOUND:                -0.725
REMARK SMILES OC[C@@H](O)C(O)[C@H](O)CO
REMARK SMILES IDX 5 1 7 2 9 3 10 4 8 6 3 8 2 9 1 10 4 12 6 14
REMARK H PARENT 10 5 8 7 1 11 4 13 6 15
REMARK Flexibility Score: inf
ROOT
ATOM      1  C   UNL     1     163.761 177.583 182.858  1.00  0.00     0.176 C 
ENDROOT
BRANCH   1   2
ATOM      2  C   UNL     1     163.484 179.109 182.777  1.00  0.00     0.171 C 
BRANCH   2   3
ATOM      3  C   UNL     1     162.260 179.533 183.615  1.00  0.00     0.190 C 
BRANCH   3   4
ATOM      4  O   UNL     1     162.602 179.675 184.967  1.00  0.00    -0.394 OA
ATOM      5  H   UNL     1     161.750 179.689 185.476  1.00  0.00     0.210 HD
ENDBRANCH   3   4
ENDBRANCH   2   3
BRANCH   2   6
ATOM      6  O   UNL     1     164.616 179.853 183.157  1.00  0.00    -0.388 OA
ATOM      7  H   UNL     1     164.453 180.207 184.072  1.00  0.00     0.211 HD
ENDBRANCH   2   6
ENDBRANCH   1   2
BRANCH   1   8
ATOM      8  C   UNL     1     165.253 177.294 183.146  1.00  0.00     0.171 C 
BRANCH   8   9
ATOM      9  C   UNL     1     165.479 175.845 183.617  1.00  0.00     0.190 C 
BRANCH   9  10
ATOM     10  O   UNL     1     165.228 175.718 184.992  1.00  0.00    -0.394 OA
ATOM     11  H   UNL     1     164.838 174.815 185.132  1.00  0.00     0.210 HD
ENDBRANCH   9  10
ENDBRANCH   8   9
BRANCH   8  12
ATOM     12  O   UNL     1     166.012 177.533 181.989  1.00  0.00    -0.388 OA
ATOM     13  H   UNL     1     165.435 178.049 181.366  1.00  0.00     0.211 HD
ENDBRANCH   8  12
ENDBRANCH   1   8
BRANCH   1  14
ATOM     14  O   UNL     1     162.971 177.003 183.867  1.00  0.00    -0.388 OA
ATOM     15  H   UNL     1     162.231 177.637 184.062  1.00  0.00     0.211 HD
ENDBRANCH   1  14
TORSDOF 9
ENDMDL
MODEL 3
REMARK VINA RESULT:    -3.977      1.284      3.799
REMARK INTER + INTRA:          -6.213
REMARK INTER:                  -5.378
REMARK INTRA:                  -0.835
REMARK UNBOUND:                -0.725
REMARK SMILES OC[C@@H](O)C(O)[C@H](O)CO
REMARK SMILES IDX 5 1 7 2 9 3 10 4 8 6 3 8 2 9 1 10 4 12 6 14
REMARK H PARENT 10 5 8 7 1 11 4 13 6 15
REMARK Flexibility Score: inf
ROOT
ATOM      1  C   UNL     1     180.944 167.491 183.506  1.00  0.00     0.176 C 
ENDROOT
BRANCH   1   2
ATOM      2  C   UNL     1     179.463 167.935 183.354  1.00  0.00     0.171 C 
BRANCH   2   3
ATOM      3  C   UNL     1     178.941 167.767 181.913  1.00  0.00     0.190 C 
BRANCH   3   4
ATOM      4  O   UNL     1     178.744 166.414 181.605  1.00  0.00    -0.394 OA
ATOM      5  H   UNL     1     179.643 166.023 181.452  1.00  0.00     0.210 HD
ENDBRANCH   3   4
ENDBRANCH   2   3
BRANCH   2   6
ATOM      6  O   UNL     1     178.630 167.249 184.258  1.00  0.00    -0.388 OA
ATOM      7  H   UNL     1     177.699 167.313 183.918  1.00  0.00     0.211 HD
ENDBRANCH   2   6
ENDBRANCH   1   2
BRANCH   1   8
ATOM      8  C   UNL     1     181.050 166.087 184.146  1.00  0.00     0.171 C 
BRANCH   8   9
ATOM      9  C   UNL     1     181.768 165.085 183.222  1.00  0.00     0.190 C 
BRANCH   9  10
ATOM     10  O   UNL     1     180.862 164.479 182.337  1.00  0.00    -0.394 OA
ATOM     11  H   UNL     1     180.839 165.041 181.519  1.00  0.00     0.210 HD
ENDBRANCH   9  10
ENDBRANCH   8   9
BRANCH   8  12
ATOM     12  O   UNL     1     181.741 166.175 185.366  1.00  0.00    -0.388 OA
ATOM     13  H   UNL     1     182.011 165.251 185.612  1.00  0.00     0.211 HD
ENDBRANCH   8  12
ENDBRANCH   1   8
BRANCH   1  14
ATOM     14  O   UNL     1     181.574 167.479 182.248  1.00  0.00    -0.388 OA
ATOM     15  H   UNL     1     181.220 168.252 181.735  1.00  0.00     0.211 HD
ENDBRANCH   1  14
TORSDOF 9
ENDMDL
MODEL 4
REMARK VINA RESULT:    -3.941      1.242      3.532
REMARK INTER + INTRA:          -6.164
REMARK INTER:                  -5.209
REMARK INTRA:                  -0.955
REMARK UNBOUND:                -0.725
REMARK SMILES OC[C@@H](O)C(O)[C@H](O)CO
REMARK SMILES IDX 5 1 7 2 9 3 10 4 8 6 3 8 2 9 1 10 4 12 6 14
REMARK H PARENT 10 5 8 7 1 11 4 13 6 15
REMARK Flexibility Score: inf
ROOT
ATOM      1  C   UNL     1     180.034 166.373 182.429  1.00  0.00     0.176 C 
ENDROOT
BRANCH   1   2
ATOM      2  C   UNL     1     180.216 167.914 182.445  1.00  0.00     0.171 C 
BRANCH   2   3
ATOM      3  C   UNL     1     179.261 168.613 183.433  1.00  0.00     0.190 C 
BRANCH   3   4
ATOM      4  O   UNL     1     179.594 168.301 184.759  1.00  0.00    -0.394 OA
ATOM      5  H   UNL     1     180.482 167.860 184.733  1.00  0.00     0.210 HD
ENDBRANCH   3   4
ENDBRANCH   2   3
BRANCH   2   6
ATOM      6  O   UNL     1     181.549 168.268 182.723  1.00  0.00    -0.388 OA
ATOM      7  H   UNL     1     181.539 169.144 183.192  1.00  0.00     0.211 HD
ENDBRANCH   2   6
ENDBRANCH   1   2
BRANCH   1   8
ATOM      8  C   UNL     1     181.369 165.643 182.706  1.00  0.00     0.171 C 
BRANCH   8   9
ATOM      9  C   UNL     1     181.495 165.209 184.178  1.00  0.00     0.190 C 
BRANCH   9  10
ATOM     10  O   UNL     1     181.614 166.323 185.023  1.00  0.00    -0.394 OA
ATOM     11  H   UNL     1     181.233 167.099 184.533  1.00  0.00     0.210 HD
ENDBRANCH   9  10
ENDBRANCH   8   9
BRANCH   8  12
ATOM     12  O   UNL     1     181.472 164.514 181.875  1.00  0.00    -0.388 OA
ATOM     13  H   UNL     1     180.550 164.164 181.749  1.00  0.00     0.211 HD
ENDBRANCH   8  12
ENDBRANCH   1   8
BRANCH   1  14
ATOM     14  O   UNL     1     179.086 165.991 183.396  1.00  0.00    -0.388 OA
ATOM     15  H   UNL     1     179.552 165.970 184.273  1.00  0.00     0.211 HD
ENDBRANCH   1  14
TORSDOF 9
ENDMDL
MODEL 5
REMARK VINA RESULT:    -3.921      1.305      1.843
REMARK INTER + INTRA:          -6.136
REMARK INTER:                  -5.407
REMARK INTRA:                  -0.730
REMARK UNBOUND:                -0.725
REMARK SMILES OC[C@@H](O)C(O)[C@H](O)CO
REMARK SMILES IDX 5 1 7 2 9 3 10 4 8 6 3 8 2 9 1 10 4 12 6 14
REMARK H PARENT 10 5 8 7 1 11 4 13 6 15
REMARK Flexibility Score: inf
ROOT
ATOM      1  C   UNL     1     180.571 167.549 183.764  1.00  0.00     0.176 C 
ENDROOT
BRANCH   1   2
ATOM      2  C   UNL     1     180.893 166.680 182.518  1.00  0.00     0.171 C 
BRANCH   2   3
ATOM      3  C   UNL     1     181.180 165.209 182.880  1.00  0.00     0.190 C 
BRANCH   3   4
ATOM      4  O   UNL     1     179.992 164.522 183.168  1.00  0.00    -0.394 OA
ATOM      5  H   UNL     1     179.830 163.904 182.409  1.00  0.00     0.210 HD
ENDBRANCH   3   4
ENDBRANCH   2   3
BRANCH   2   6
ATOM      6  O   UNL     1     179.862 166.755 181.563  1.00  0.00    -0.388 OA
ATOM      7  H   UNL     1     180.125 167.432 180.886  1.00  0.00     0.211 HD
ENDBRANCH   2   6
ENDBRANCH   1   2
BRANCH   1   8
ATOM      8  C   UNL     1     179.157 168.169 183.670  1.00  0.00     0.171 C 
BRANCH   8   9
ATOM      9  C   UNL     1     178.656 168.673 185.035  1.00  0.00     0.190 C 
BRANCH   9  10
ATOM     10  O   UNL     1     177.964 167.663 185.723  1.00  0.00    -0.394 OA
ATOM     11  H   UNL     1     178.562 167.349 186.451  1.00  0.00     0.210 HD
ENDBRANCH   9  10
ENDBRANCH   8   9
BRANCH   8  12
ATOM     12  O   UNL     1     179.168 169.234 182.753  1.00  0.00    -0.388 OA
ATOM     13  H   UNL     1     180.121 169.451 182.576  1.00  0.00     0.211 HD
ENDBRANCH   8  12
ENDBRANCH   1   8
BRANCH   1  14
ATOM     14  O   UNL     1     180.659 166.768 184.931  1.00  0.00    -0.388 OA
ATOM     15  H   UNL     1     181.160 165.943 184.695  1.00  0.00     0.211 HD
ENDBRANCH   1  14
TORSDOF 9
ENDMDL
MODEL 6
REMARK VINA RESULT:    -3.914     18.711     20.221
REMARK INTER + INTRA:          -6.126
REMARK INTER:                  -5.134
REMARK INTRA:                  -0.992
REMARK UNBOUND:                -0.725
REMARK SMILES OC[C@@H](O)C(O)[C@H](O)CO
REMARK SMILES IDX 5 1 7 2 9 3 10 4 8 6 3 8 2 9 1 10 4 12 6 14
REMARK H PARENT 10 5 8 7 1 11 4 13 6 15
REMARK Flexibility Score: inf
ROOT
ATOM      1  C   UNL     1     163.693 177.241 183.282  1.00  0.00     0.176 C 
ENDROOT
BRANCH   1   2
ATOM      2  C   UNL     1     165.167 177.310 182.799  1.00  0.00     0.171 C 
BRANCH   2   3
ATOM      3  C   UNL     1     165.298 177.128 181.273  1.00  0.00     0.190 C 
BRANCH   3   4
ATOM      4  O   UNL     1     164.930 178.298 180.595  1.00  0.00    -0.394 OA
ATOM      5  H   UNL     1     164.118 178.078 180.068  1.00  0.00     0.210 HD
ENDBRANCH   3   4
ENDBRANCH   2   3
BRANCH   2   6
ATOM      6  O   UNL     1     165.780 178.511 183.201  1.00  0.00    -0.388 OA
ATOM      7  H   UNL     1     166.578 178.650 182.626  1.00  0.00     0.211 HD
ENDBRANCH   2   6
ENDBRANCH   1   2
BRANCH   1   8
ATOM      8  C   UNL     1     163.278 178.538 184.015  1.00  0.00     0.171 C 
BRANCH   8   9
ATOM      9  C   UNL     1     162.467 179.481 183.107  1.00  0.00     0.190 C 
BRANCH   9  10
ATOM     10  O   UNL     1     163.309 180.177 182.224  1.00  0.00    -0.394 OA
ATOM     11  H   UNL     1     163.555 179.542 181.500  1.00  0.00     0.210 HD
ENDBRANCH   9  10
ENDBRANCH   8   9
BRANCH   8  12
ATOM     12  O   UNL     1     162.517 178.216 185.151  1.00  0.00    -0.388 OA
ATOM     13  H   UNL     1     162.806 178.830 185.876  1.00  0.00     0.211 HD
ENDBRANCH   8  12
ENDBRANCH   1   8
BRANCH   1  14
ATOM     14  O   UNL     1     162.836 177.032 182.186  1.00  0.00    -0.388 OA
ATOM     15  H   UNL     1     163.406 176.980 181.374  1.00  0.00     0.211 HD
ENDBRANCH   1  14
TORSDOF 9
ENDMDL
MODEL 7
REMARK VINA RESULT:    -3.811     18.341     19.998
REMARK INTER + INTRA:          -5.985
REMARK INTER:                  -5.059
REMARK INTRA:                  -0.926
REMARK UNBOUND:                -0.725
REMARK SMILES OC[C@@H](O)C(O)[C@H](O)CO
REMARK SMILES IDX 5 1 7 2 9 3 10 4 8 6 3 8 2 9 1 10 4 12 6 14
REMARK H PARENT 10 5 8 7 1 11 4 13 6 15
REMARK Flexibility Score: inf
ROOT
ATOM      1  C   UNL     1     164.513 178.277 182.159  1.00  0.00     0.176 C 
ENDROOT
BRANCH   1   2
ATOM      2  C   UNL     1     164.327 176.742 182.299  1.00  0.00     0.171 C 
BRANCH   2   3
ATOM      3  C   UNL     1     165.146 176.151 183.464  1.00  0.00     0.190 C 
BRANCH   3   4
ATOM      4  O   UNL     1     164.616 176.544 184.701  1.00  0.00    -0.394 OA
ATOM      5  H   UNL     1     164.675 175.755 185.300  1.00  0.00     0.210 HD
ENDBRANCH   3   4
ENDBRANCH   2   3
BRANCH   2   6
ATOM      6  O   UNL     1     162.968 176.404 182.437  1.00  0.00    -0.388 OA
ATOM      7  H   UNL     1     162.808 175.574 181.915  1.00  0.00     0.211 HD
ENDBRANCH   2   6
ENDBRANCH   1   2
BRANCH   1   8
ATOM      8  C   UNL     1     163.156 179.019 182.211  1.00  0.00     0.171 C 
BRANCH   8   9
ATOM      9  C   UNL     1     162.848 179.559 183.620  1.00  0.00     0.190 C 
BRANCH   9  10
ATOM     10  O   UNL     1     162.678 178.508 184.536  1.00  0.00    -0.394 OA
ATOM     11  H   UNL     1     161.704 178.441 184.719  1.00  0.00     0.210 HD
ENDBRANCH   9  10
ENDBRANCH   8   9
BRANCH   8  12
ATOM     12  O   UNL     1     163.164 180.083 181.294  1.00  0.00    -0.388 OA
ATOM     13  H   UNL     1     163.760 180.783 181.669  1.00  0.00     0.211 HD
ENDBRANCH   8  12
ENDBRANCH   1   8
BRANCH   1  14
ATOM     14  O   UNL     1     165.345 178.757 183.188  1.00  0.00    -0.388 OA
ATOM     15  H   UNL     1     166.102 178.119 183.275  1.00  0.00     0.211 HD
ENDBRANCH   1  14
TORSDOF 9
ENDMDL
MODEL 8
REMARK VINA RESULT:    -3.786     13.160     15.108
REMARK INTER + INTRA:          -5.949
REMARK INTER:                  -5.258
REMARK INTRA:                  -0.692
REMARK UNBOUND:                -0.725
REMARK SMILES OC[C@@H](O)C(O)[C@H](O)CO
REMARK SMILES IDX 5 1 7 2 9 3 10 4 8 6 3 8 2 9 1 10 4 12 6 14
REMARK H PARENT 10 5 8 7 1 11 4 13 6 15
REMARK Flexibility Score: inf
ROOT
ATOM      1  C   UNL     1     167.375 173.743 184.906  1.00  0.00     0.176 C 
ENDROOT
BRANCH   1   2
ATOM      2  C   UNL     1     168.609 173.044 185.538  1.00  0.00     0.171 C 
BRANCH   2   3
ATOM      3  C   UNL     1     169.942 173.665 185.073  1.00  0.00     0.190 C 
BRANCH   3   4
ATOM      4  O   UNL     1     170.068 174.984 185.531  1.00  0.00    -0.394 OA
ATOM      5  H   UNL     1     170.289 174.931 186.497  1.00  0.00     0.210 HD
ENDBRANCH   3   4
ENDBRANCH   2   3
BRANCH   2   6
ATOM      6  O   UNL     1     168.534 173.048 186.943  1.00  0.00    -0.388 OA
ATOM      7  H   UNL     1     169.348 173.501 187.289  1.00  0.00     0.211 HD
ENDBRANCH   2   6
ENDBRANCH   1   2
BRANCH   1   8
ATOM      8  C   UNL     1     166.616 174.599 185.947  1.00  0.00     0.171 C 
BRANCH   8   9
ATOM      9  C   UNL     1     166.160 175.949 185.362  1.00  0.00     0.190 C 
BRANCH   9  10
ATOM     10  O   UNL     1     165.082 175.777 184.479  1.00  0.00    -0.394 OA
ATOM     11  H   UNL     1     164.582 176.635 184.465  1.00  0.00     0.210 HD
ENDBRANCH   9  10
ENDBRANCH   8   9
BRANCH   8  12
ATOM     12  O   UNL     1     165.496 173.891 186.414  1.00  0.00    -0.388 OA
ATOM     13  H   UNL     1     164.873 174.560 186.803  1.00  0.00     0.211 HD
ENDBRANCH   8  12
ENDBRANCH   1   8
BRANCH   1  14
ATOM     14  O   UNL     1     167.781 174.562 183.837  1.00  0.00    -0.388 OA
ATOM     15  H   UNL     1     168.301 175.314 184.224  1.00  0.00     0.211 HD
ENDBRANCH   1  14
TORSDOF 9
ENDMDL
MODEL 9
REMARK VINA RESULT:    -3.717     19.958     20.969
REMARK INTER + INTRA:          -5.855
REMARK INTER:                  -5.332
REMARK INTRA:                  -0.523
REMARK UNBOUND:                -0.725
REMARK SMILES OC[C@@H](O)C(O)[C@H](O)CO
REMARK SMILES IDX 5 1 7 2 9 3 10 4 8 6 3 8 2 9 1 10 4 12 6 14
REMARK H PARENT 10 5 8 7 1 11 4 13 6 15
REMARK Flexibility Score: inf
ROOT
ATOM      1  C   UNL     1     162.858 179.061 181.599  1.00  0.00     0.176 C 
ENDROOT
BRANCH   1   2
ATOM      2  C   UNL     1     163.658 177.903 180.944  1.00  0.00     0.171 C 
BRANCH   2   3
ATOM      3  C   UNL     1     163.026 177.421 179.622  1.00  0.00     0.190 C 
BRANCH   3   4
ATOM      4  O   UNL     1     163.317 178.306 178.574  1.00  0.00    -0.394 OA
ATOM      5  H   UNL     1     163.320 177.768 177.741  1.00  0.00     0.210 HD
ENDBRANCH   3   4
ENDBRANCH   2   3
BRANCH   2   6
ATOM      6  O   UNL     1     165.002 178.265 180.737  1.00  0.00    -0.388 OA
ATOM      7  H   UNL     1     165.509 178.026 181.557  1.00  0.00     0.211 HD
ENDBRANCH   2   6
ENDBRANCH   1   2
BRANCH   1   8
ATOM      8  C   UNL     1     163.279 179.277 183.072  1.00  0.00     0.171 C 
BRANCH   8   9
ATOM      9  C   UNL     1     163.333 177.954 183.857  1.00  0.00     0.190 C 
BRANCH   9  10
ATOM     10  O   UNL     1     162.665 178.070 185.086  1.00  0.00    -0.394 OA
ATOM     11  H   UNL     1     162.518 177.147 185.422  1.00  0.00     0.210 HD
ENDBRANCH   9  10
ENDBRANCH   8   9
BRANCH   8  12
ATOM     12  O   UNL     1     164.539 179.898 183.116  1.00  0.00    -0.388 OA
ATOM     13  H   UNL     1     164.534 180.610 182.424  1.00  0.00     0.211 HD
ENDBRANCH   8  12
ENDBRANCH   1   8
BRANCH   1  14
ATOM     14  O   UNL     1     163.058 180.253 180.878  1.00  0.00    -0.388 OA
ATOM     15  H   UNL     1     163.135 180.007 179.919  1.00  0.00     0.211 HD
ENDBRANCH   1  14
TORSDOF 9
ENDMDL
