MODEL 1
REMARK VINA RESULT:    -6.295      0.000      0.000
REMARK INTER + INTRA:         -11.266
REMARK INTER:                  -9.607
REMARK INTRA:                  -1.659
REMARK UNBOUND:                -1.659
REMARK SMILES CC(=O)CCC=C(C)CCC=C(C)CCC=C(C)C
REMARK SMILES IDX 10 1 11 2 12 3 13 4 14 5 15 6 16 7 18 8 17 9 19 10 9 11 7 12
REMARK SMILES IDX 6 13 8 14 5 15 4 16 2 17 3 18 1 19
REMARK H PARENT
REMARK Flexibility Score: inf
ROOT
ATOM      1  C   UNL     1      27.668  53.972  11.239  1.00  0.00     0.032 C 
ENDROOT
BRANCH   1   2
ATOM      2  C   UNL     1      28.569  55.075  10.738  1.00  0.00    -0.028 C 
ATOM      3  C   UNL     1      29.674  55.523  11.378  1.00  0.00    -0.077 C 
ATOM      4  C   UNL     1      30.177  54.886  12.651  1.00  0.00     0.039 C 
BRANCH   3   5
ATOM      5  C   UNL     1      30.461  56.670  10.780  1.00  0.00     0.034 C 
BRANCH   5   6
ATOM      6  C   UNL     1      29.622  57.953  10.697  1.00  0.00     0.032 C 
BRANCH   6   7
ATOM      7  C   UNL     1      29.604  58.704  12.007  1.00  0.00    -0.028 C 
ATOM      8  C   UNL     1      27.261  58.018  12.565  1.00  0.00     0.039 C 
ATOM      9  C   UNL     1      28.542  58.768  12.840  1.00  0.00    -0.080 C 
ATOM     10  C   UNL     1      28.662  59.603  14.089  1.00  0.00     0.039 C 
ENDBRANCH   6   7
ENDBRANCH   5   6
ENDBRANCH   3   5
ENDBRANCH   1   2
BRANCH   1  11
ATOM     11  C   UNL     1      27.954  52.654  10.509  1.00  0.00     0.034 C 
BRANCH  11  12
ATOM     12  C   UNL     1      27.230  52.581   9.180  1.00  0.00    -0.077 C 
ATOM     13  C   UNL     1      25.985  53.101   9.082  1.00  0.00    -0.028 C 
ATOM     14  C   UNL     1      27.933  51.962   7.995  1.00  0.00     0.039 C 
BRANCH  13  15
ATOM     15  C   UNL     1      25.151  53.089   7.826  1.00  0.00     0.035 C 
BRANCH  15  16
ATOM     16  C   UNL     1      24.915  54.513   7.316  1.00  0.00     0.079 C 
BRANCH  16  17
ATOM     17  C   UNL     1      24.351  55.384   8.409  1.00  0.00     0.130 C 
ATOM     18  O   UNL     1      23.195  55.221   8.769  1.00  0.00    -0.300 OA
ATOM     19  C   UNL     1      25.183  56.437   9.077  1.00  0.00     0.087 C 
ENDBRANCH  16  17
ENDBRANCH  15  16
ENDBRANCH  13  15
ENDBRANCH  11  12
ENDBRANCH   1  11
TORSDOF 9
ENDMDL
MODEL 2
REMARK VINA RESULT:    -6.191      7.343     10.107
REMARK INTER + INTRA:         -11.107
REMARK INTER:                  -9.416
REMARK INTRA:                  -1.692
REMARK UNBOUND:                -1.659
REMARK SMILES CC(=O)CCC=C(C)CCC=C(C)CCC=C(C)C
REMARK SMILES IDX 10 1 11 2 12 3 13 4 14 5 15 6 16 7 18 8 17 9 19 10 9 11 7 12
REMARK SMILES IDX 6 13 8 14 5 15 4 16 2 17 3 18 1 19
REMARK H PARENT
REMARK Flexibility Score: inf
ROOT
ATOM      1  C   UNL     1      27.409  53.268  16.404  1.00  0.00     0.032 C 
ENDROOT
BRANCH   1   2
ATOM      2  C   UNL     1      28.369  52.228  16.932  1.00  0.00    -0.028 C 
ATOM      3  C   UNL     1      29.436  51.743  16.256  1.00  0.00    -0.077 C 
ATOM      4  C   UNL     1      29.833  52.274  14.900  1.00  0.00     0.039 C 
BRANCH   3   5
ATOM      5  C   UNL     1      30.289  50.667  16.893  1.00  0.00     0.034 C 
BRANCH   5   6
ATOM      6  C   UNL     1      29.541  49.330  16.984  1.00  0.00     0.032 C 
BRANCH   6   7
ATOM      7  C   UNL     1      29.578  48.570  15.680  1.00  0.00    -0.028 C 
ATOM      8  C   UNL     1      27.199  49.107  15.105  1.00  0.00     0.039 C 
ATOM      9  C   UNL     1      28.526  48.435  14.842  1.00  0.00    -0.080 C 
ATOM     10  C   UNL     1      28.704  47.601  13.599  1.00  0.00     0.039 C 
ENDBRANCH   6   7
ENDBRANCH   5   6
ENDBRANCH   3   5
ENDBRANCH   1   2
BRANCH   1  11
ATOM     11  C   UNL     1      27.669  54.635  17.051  1.00  0.00     0.034 C 
BRANCH  11  12
ATOM     12  C   UNL     1      26.995  54.751  18.403  1.00  0.00    -0.077 C 
ATOM     13  C   UNL     1      25.663  54.535  18.493  1.00  0.00    -0.028 C 
ATOM     14  C   UNL     1      27.837  55.070  19.617  1.00  0.00     0.039 C 
BRANCH  13  15
ATOM     15  C   UNL     1      24.867  54.625  19.771  1.00  0.00     0.035 C 
BRANCH  15  16
ATOM     16  C   UNL     1      24.140  53.307  20.053  1.00  0.00     0.079 C 
BRANCH  16  17
ATOM     17  C   UNL     1      25.084  52.296  20.651  1.00  0.00     0.130 C 
ATOM     18  O   UNL     1      25.809  52.626  21.577  1.00  0.00    -0.300 OA
ATOM     19  C   UNL     1      25.143  50.886  20.143  1.00  0.00     0.087 C 
ENDBRANCH  16  17
ENDBRANCH  15  16
ENDBRANCH  13  15
ENDBRANCH  11  12
ENDBRANCH   1  11
TORSDOF 9
ENDMDL
MODEL 3
REMARK VINA RESULT:    -6.155      1.225      2.236
REMARK INTER + INTRA:         -11.053
REMARK INTER:                  -9.499
REMARK INTRA:                  -1.553
REMARK UNBOUND:                -1.659
REMARK SMILES CC(=O)CCC=C(C)CCC=C(C)CCC=C(C)C
REMARK SMILES IDX 10 1 11 2 12 3 13 4 14 5 15 6 16 7 18 8 17 9 19 10 9 11 7 12
REMARK SMILES IDX 6 13 8 14 5 15 4 16 2 17 3 18 1 19
REMARK H PARENT
REMARK Flexibility Score: inf
ROOT
ATOM      1  C   UNL     1      28.125  52.210   9.409  1.00  0.00     0.032 C 
ENDROOT
BRANCH   1   2
ATOM      2  C   UNL     1      27.603  53.487  10.026  1.00  0.00    -0.028 C 
ATOM      3  C   UNL     1      28.335  54.340  10.778  1.00  0.00    -0.077 C 
ATOM      4  C   UNL     1      29.813  54.138  11.010  1.00  0.00     0.039 C 
BRANCH   3   5
ATOM      5  C   UNL     1      27.667  55.562  11.371  1.00  0.00     0.034 C 
BRANCH   5   6
ATOM      6  C   UNL     1      27.912  56.814  10.518  1.00  0.00     0.032 C 
BRANCH   6   7
ATOM      7  C   UNL     1      28.469  57.957  11.334  1.00  0.00    -0.028 C 
ATOM      8  C   UNL     1      30.830  57.558  10.594  1.00  0.00     0.039 C 
ATOM      9  C   UNL     1      29.779  58.282  11.402  1.00  0.00    -0.080 C 
ATOM     10  C   UNL     1      30.188  59.420  12.303  1.00  0.00     0.039 C 
ENDBRANCH   6   7
ENDBRANCH   5   6
ENDBRANCH   3   5
ENDBRANCH   1   2
BRANCH   1  11
ATOM     11  C   UNL     1      27.579  52.022   7.988  1.00  0.00     0.034 C 
BRANCH  11  12
ATOM     12  C   UNL     1      26.225  52.677   7.818  1.00  0.00    -0.077 C 
ATOM     13  C   UNL     1      26.158  53.920   7.287  1.00  0.00    -0.028 C 
ATOM     14  C   UNL     1      24.984  51.910   8.213  1.00  0.00     0.039 C 
BRANCH  13  15
ATOM     15  C   UNL     1      24.879  54.689   7.069  1.00  0.00     0.035 C 
BRANCH  15  16
ATOM     16  C   UNL     1      24.732  55.805   8.108  1.00  0.00     0.079 C 
BRANCH  16  17
ATOM     17  C   UNL     1      23.730  55.419   9.165  1.00  0.00     0.130 C 
ATOM     18  O   UNL     1      22.544  55.642   8.976  1.00  0.00    -0.300 OA
ATOM     19  C   UNL     1      24.155  54.754  10.440  1.00  0.00     0.087 C 
ENDBRANCH  16  17
ENDBRANCH  15  16
ENDBRANCH  13  15
ENDBRANCH  11  12
ENDBRANCH   1  11
TORSDOF 9
ENDMDL
MODEL 4
REMARK VINA RESULT:    -6.100      2.252      4.124
REMARK INTER + INTRA:         -10.968
REMARK INTER:                  -9.191
REMARK INTRA:                  -1.777
REMARK UNBOUND:                -1.659
REMARK SMILES CC(=O)CCC=C(C)CCC=C(C)CCC=C(C)C
REMARK SMILES IDX 10 1 11 2 12 3 13 4 14 5 15 6 16 7 18 8 17 9 19 10 9 11 7 12
REMARK SMILES IDX 6 13 8 14 5 15 4 16 2 17 3 18 1 19
REMARK H PARENT
REMARK Flexibility Score: inf
ROOT
ATOM      1  C   UNL     1      26.179  52.363   7.640  1.00  0.00     0.032 C 
ENDROOT
BRANCH   1   2
ATOM      2  C   UNL     1      27.489  52.379   8.391  1.00  0.00    -0.028 C 
ATOM      3  C   UNL     1      27.618  52.592   9.721  1.00  0.00    -0.077 C 
ATOM      4  C   UNL     1      26.420  52.753  10.626  1.00  0.00     0.039 C 
BRANCH   3   5
ATOM      5  C   UNL     1      29.001  52.625  10.334  1.00  0.00     0.034 C 
BRANCH   5   6
ATOM      6  C   UNL     1      29.062  53.561  11.550  1.00  0.00     0.032 C 
BRANCH   6   7
ATOM      7  C   UNL     1      29.859  54.811  11.264  1.00  0.00    -0.028 C 
ATOM      8  C   UNL     1      27.831  56.197  10.771  1.00  0.00     0.039 C 
ATOM      9  C   UNL     1      29.323  55.992  10.883  1.00  0.00    -0.080 C 
ATOM     10  C   UNL     1      30.255  57.138  10.584  1.00  0.00     0.039 C 
ENDBRANCH   6   7
ENDBRANCH   5   6
ENDBRANCH   3   5
ENDBRANCH   1   2
BRANCH   1  11
ATOM     11  C   UNL     1      25.871  53.740   7.040  1.00  0.00     0.034 C 
BRANCH  11  12
ATOM     12  C   UNL     1      24.822  54.480   7.843  1.00  0.00    -0.077 C 
ATOM     13  C   UNL     1      23.715  53.815   8.247  1.00  0.00    -0.028 C 
ATOM     14  C   UNL     1      25.059  55.928   8.202  1.00  0.00     0.039 C 
BRANCH  13  15
ATOM     15  C   UNL     1      22.592  54.430   9.043  1.00  0.00     0.035 C 
BRANCH  15  16
ATOM     16  C   UNL     1      22.661  53.992  10.509  1.00  0.00     0.079 C 
BRANCH  16  17
ATOM     17  C   UNL     1      21.500  53.094  10.851  1.00  0.00     0.130 C 
ATOM     18  O   UNL     1      21.381  52.023  10.275  1.00  0.00    -0.300 OA
ATOM     19  C   UNL     1      20.494  53.480  11.894  1.00  0.00     0.087 C 
ENDBRANCH  16  17
ENDBRANCH  15  16
ENDBRANCH  13  15
ENDBRANCH  11  12
ENDBRANCH   1  11
TORSDOF 9
ENDMDL
MODEL 5
REMARK VINA RESULT:    -6.066      2.887      6.678
REMARK INTER + INTRA:         -10.916
REMARK INTER:                  -9.832
REMARK INTRA:                  -1.084
REMARK UNBOUND:                -1.659
REMARK SMILES CC(=O)CCC=C(C)CCC=C(C)CCC=C(C)C
REMARK SMILES IDX 10 1 11 2 12 3 13 4 14 5 15 6 16 7 18 8 17 9 19 10 9 11 7 12
REMARK SMILES IDX 6 13 8 14 5 15 4 16 2 17 3 18 1 19
REMARK H PARENT
REMARK Flexibility Score: inf
ROOT
ATOM      1  C   UNL     1      26.177  53.507  10.628  1.00  0.00     0.032 C 
ENDROOT
BRANCH   1   2
ATOM      2  C   UNL     1      25.432  53.449   9.316  1.00  0.00    -0.028 C 
ATOM      3  C   UNL     1      25.938  52.966   8.158  1.00  0.00    -0.077 C 
ATOM      4  C   UNL     1      27.309  52.339   8.082  1.00  0.00     0.039 C 
BRANCH   3   5
ATOM      5  C   UNL     1      25.091  53.012   6.904  1.00  0.00     0.034 C 
BRANCH   5   6
ATOM      6  C   UNL     1      25.706  53.924   5.835  1.00  0.00     0.032 C 
BRANCH   6   7
ATOM      7  C   UNL     1      25.244  55.355   5.975  1.00  0.00    -0.028 C 
ATOM      8  C   UNL     1      26.726  56.193   4.137  1.00  0.00     0.039 C 
ATOM      9  C   UNL     1      25.715  56.388   5.242  1.00  0.00    -0.080 C 
ATOM     10  C   UNL     1      25.191  57.771   5.535  1.00  0.00     0.039 C 
ENDBRANCH   6   7
ENDBRANCH   5   6
ENDBRANCH   3   5
ENDBRANCH   1   2
BRANCH   1  11
ATOM     11  C   UNL     1      25.793  54.760  11.425  1.00  0.00     0.034 C 
BRANCH  11  12
ATOM     12  C   UNL     1      26.449  56.003  10.863  1.00  0.00    -0.077 C 
ATOM     13  C   UNL     1      27.677  56.355  11.308  1.00  0.00    -0.028 C 
ATOM     14  C   UNL     1      25.730  56.794   9.795  1.00  0.00     0.039 C 
BRANCH  13  15
ATOM     15  C   UNL     1      28.440  57.569  10.840  1.00  0.00     0.035 C 
BRANCH  15  16
ATOM     16  C   UNL     1      29.889  57.205  10.501  1.00  0.00     0.079 C 
BRANCH  16  17
ATOM     17  C   UNL     1      30.850  58.011  11.336  1.00  0.00     0.130 C 
ATOM     18  O   UNL     1      32.040  57.738  11.312  1.00  0.00    -0.300 OA
ATOM     19  C   UNL     1      30.378  59.151  12.188  1.00  0.00     0.087 C 
ENDBRANCH  16  17
ENDBRANCH  15  16
ENDBRANCH  13  15
ENDBRANCH  11  12
ENDBRANCH   1  11
TORSDOF 9
ENDMDL
MODEL 6
REMARK VINA RESULT:    -6.061      1.791      2.273
REMARK INTER + INTRA:         -10.909
REMARK INTER:                  -9.658
REMARK INTRA:                  -1.251
REMARK UNBOUND:                -1.659
REMARK SMILES CC(=O)CCC=C(C)CCC=C(C)CCC=C(C)C
REMARK SMILES IDX 10 1 11 2 12 3 13 4 14 5 15 6 16 7 18 8 17 9 19 10 9 11 7 12
REMARK SMILES IDX 6 13 8 14 5 15 4 16 2 17 3 18 1 19
REMARK H PARENT
REMARK Flexibility Score: inf
ROOT
ATOM      1  C   UNL     1      27.828  52.598  10.415  1.00  0.00     0.032 C 
ENDROOT
BRANCH   1   2
ATOM      2  C   UNL     1      28.773  53.764  10.585  1.00  0.00    -0.028 C 
ATOM      3  C   UNL     1      28.394  55.043  10.810  1.00  0.00    -0.077 C 
ATOM      4  C   UNL     1      26.947  55.428  11.004  1.00  0.00     0.039 C 
BRANCH   3   5
ATOM      5  C   UNL     1      29.452  56.120  10.916  1.00  0.00     0.034 C 
BRANCH   5   6
ATOM      6  C   UNL     1      28.854  57.524  10.751  1.00  0.00     0.032 C 
BRANCH   6   7
ATOM      7  C   UNL     1      29.137  58.405  11.944  1.00  0.00    -0.028 C 
ATOM      8  C   UNL     1      26.818  58.191  12.868  1.00  0.00     0.039 C 
ATOM      9  C   UNL     1      28.226  58.738  12.885  1.00  0.00    -0.080 C 
ATOM     10  C   UNL     1      28.647  59.672  13.991  1.00  0.00     0.039 C 
ENDBRANCH   6   7
ENDBRANCH   5   6
ENDBRANCH   3   5
ENDBRANCH   1   2
BRANCH   1  11
ATOM     11  C   UNL     1      27.677  52.224   8.935  1.00  0.00     0.034 C 
BRANCH  11  12
ATOM     12  C   UNL     1      26.393  52.771   8.347  1.00  0.00    -0.077 C 
ATOM     13  C   UNL     1      26.421  53.338   7.120  1.00  0.00    -0.028 C 
ATOM     14  C   UNL     1      25.110  52.634   9.134  1.00  0.00     0.039 C 
BRANCH  13  15
ATOM     15  C   UNL     1      25.221  53.927   6.422  1.00  0.00     0.035 C 
BRANCH  15  16
ATOM     16  C   UNL     1      25.124  55.433   6.683  1.00  0.00     0.079 C 
BRANCH  16  17
ATOM     17  C   UNL     1      25.566  56.212   5.471  1.00  0.00     0.130 C 
ATOM     18  O   UNL     1      26.233  55.657   4.611  1.00  0.00    -0.300 OA
ATOM     19  C   UNL     1      25.193  57.653   5.289  1.00  0.00     0.087 C 
ENDBRANCH  16  17
ENDBRANCH  15  16
ENDBRANCH  13  15
ENDBRANCH  11  12
ENDBRANCH   1  11
TORSDOF 9
ENDMDL
MODEL 7
REMARK VINA RESULT:    -6.009      1.746      5.618
REMARK INTER + INTRA:         -10.830
REMARK INTER:                  -8.889
REMARK INTRA:                  -1.941
REMARK UNBOUND:                -1.659
REMARK SMILES CC(=O)CCC=C(C)CCC=C(C)CCC=C(C)C
REMARK SMILES IDX 10 1 11 2 12 3 13 4 14 5 15 6 16 7 18 8 17 9 19 10 9 11 7 12
REMARK SMILES IDX 6 13 8 14 5 15 4 16 2 17 3 18 1 19
REMARK H PARENT
REMARK Flexibility Score: inf
ROOT
ATOM      1  C   UNL     1      29.623  52.853  11.591  1.00  0.00     0.032 C 
ENDROOT
BRANCH   1   2
ATOM      2  C   UNL     1      29.147  52.471  10.209  1.00  0.00    -0.028 C 
ATOM      3  C   UNL     1      27.863  52.530   9.787  1.00  0.00    -0.077 C 
ATOM      4  C   UNL     1      26.759  53.082  10.657  1.00  0.00     0.039 C 
BRANCH   3   5
ATOM      5  C   UNL     1      27.524  52.072   8.385  1.00  0.00     0.034 C 
BRANCH   5   6
ATOM      6  C   UNL     1      26.077  52.421   8.008  1.00  0.00     0.032 C 
BRANCH   6   7
ATOM      7  C   UNL     1      26.009  53.330   6.803  1.00  0.00    -0.028 C 
ATOM      8  C   UNL     1      24.938  55.208   8.069  1.00  0.00     0.039 C 
ATOM      9  C   UNL     1      25.472  54.570   6.808  1.00  0.00    -0.080 C 
ATOM     10  C   UNL     1      25.430  55.337   5.512  1.00  0.00     0.039 C 
ENDBRANCH   6   7
ENDBRANCH   5   6
ENDBRANCH   3   5
ENDBRANCH   1   2
BRANCH   1  11
ATOM     11  C   UNL     1      30.391  54.181  11.561  1.00  0.00     0.034 C 
BRANCH  11  12
ATOM     12  C   UNL     1      29.482  55.360  11.839  1.00  0.00    -0.077 C 
ATOM     13  C   UNL     1      29.133  56.175  10.817  1.00  0.00    -0.028 C 
ATOM     14  C   UNL     1      28.961  55.570  13.242  1.00  0.00     0.039 C 
BRANCH  13  15
ATOM     15  C   UNL     1      28.244  57.385  10.955  1.00  0.00     0.035 C 
BRANCH  15  16
ATOM     16  C   UNL     1      26.806  57.053  10.546  1.00  0.00     0.079 C 
BRANCH  16  17
ATOM     17  C   UNL     1      25.905  57.013  11.754  1.00  0.00     0.130 C 
ATOM     18  O   UNL     1      25.277  55.995  12.000  1.00  0.00    -0.300 OA
ATOM     19  C   UNL     1      25.773  58.193  12.670  1.00  0.00     0.087 C 
ENDBRANCH  16  17
ENDBRANCH  15  16
ENDBRANCH  13  15
ENDBRANCH  11  12
ENDBRANCH   1  11
TORSDOF 9
ENDMDL
MODEL 8
REMARK VINA RESULT:    -5.934      7.494      9.585
REMARK INTER + INTRA:         -10.715
REMARK INTER:                  -9.165
REMARK INTRA:                  -1.550
REMARK UNBOUND:                -1.659
REMARK SMILES CC(=O)CCC=C(C)CCC=C(C)CCC=C(C)C
REMARK SMILES IDX 10 1 11 2 12 3 13 4 14 5 15 6 16 7 18 8 17 9 19 10 9 11 7 12
REMARK SMILES IDX 6 13 8 14 5 15 4 16 2 17 3 18 1 19
REMARK H PARENT
REMARK Flexibility Score: inf
ROOT
ATOM      1  C   UNL     1      27.041  54.476  16.707  1.00  0.00     0.032 C 
ENDROOT
BRANCH   1   2
ATOM      2  C   UNL     1      25.997  54.492  17.799  1.00  0.00    -0.028 C 
ATOM      3  C   UNL     1      26.253  54.682  19.113  1.00  0.00    -0.077 C 
ATOM      4  C   UNL     1      27.641  54.993  19.623  1.00  0.00     0.039 C 
BRANCH   3   5
ATOM      5  C   UNL     1      25.111  54.628  20.105  1.00  0.00     0.034 C 
BRANCH   5   6
ATOM      6  C   UNL     1      25.068  53.287  20.850  1.00  0.00     0.032 C 
BRANCH   6   7
ATOM      7  C   UNL     1      25.448  52.130  19.958  1.00  0.00    -0.028 C 
ATOM      8  C   UNL     1      23.168  51.948  18.936  1.00  0.00     0.039 C 
ATOM      9  C   UNL     1      24.598  51.499  19.117  1.00  0.00    -0.080 C 
ATOM     10  C   UNL     1      25.114  50.324  18.327  1.00  0.00     0.039 C 
ENDBRANCH   6   7
ENDBRANCH   5   6
ENDBRANCH   3   5
ENDBRANCH   1   2
BRANCH   1  11
ATOM     11  C   UNL     1      26.865  53.255  15.795  1.00  0.00     0.034 C 
BRANCH  11  12
ATOM     12  C   UNL     1      28.115  52.401  15.756  1.00  0.00    -0.077 C 
ATOM     13  C   UNL     1      28.416  51.629  16.825  1.00  0.00    -0.028 C 
ATOM     14  C   UNL     1      28.970  52.409  14.510  1.00  0.00     0.039 C 
BRANCH  13  15
ATOM     15  C   UNL     1      29.630  50.739  16.922  1.00  0.00     0.035 C 
BRANCH  15  16
ATOM     16  C   UNL     1      29.220  49.265  16.985  1.00  0.00     0.079 C 
BRANCH  16  17
ATOM     17  C   UNL     1      29.611  48.549  15.718  1.00  0.00     0.130 C 
ATOM     18  O   UNL     1      30.752  48.130  15.593  1.00  0.00    -0.300 OA
ATOM     19  C   UNL     1      28.625  48.327  14.610  1.00  0.00     0.087 C 
ENDBRANCH  16  17
ENDBRANCH  15  16
ENDBRANCH  13  15
ENDBRANCH  11  12
ENDBRANCH   1  11
TORSDOF 9
ENDMDL
MODEL 9
REMARK VINA RESULT:    -5.914      4.329      6.586
REMARK INTER + INTRA:         -10.684
REMARK INTER:                  -9.279
REMARK INTRA:                  -1.406
REMARK UNBOUND:                -1.659
REMARK SMILES CC(=O)CCC=C(C)CCC=C(C)CCC=C(C)C
REMARK SMILES IDX 10 1 11 2 12 3 13 4 14 5 15 6 16 7 18 8 17 9 19 10 9 11 7 12
REMARK SMILES IDX 6 13 8 14 5 15 4 16 2 17 3 18 1 19
REMARK H PARENT
REMARK Flexibility Score: inf
ROOT
ATOM      1  C   UNL     1      30.222  54.489  13.841  1.00  0.00     0.032 C 
ENDROOT
BRANCH   1   2
ATOM      2  C   UNL     1      29.117  54.999  12.946  1.00  0.00    -0.028 C 
ATOM      3  C   UNL     1      29.288  55.447  11.681  1.00  0.00    -0.077 C 
ATOM      4  C   UNL     1      30.629  55.398  10.988  1.00  0.00     0.039 C 
BRANCH   3   5
ATOM      5  C   UNL     1      28.093  55.973  10.915  1.00  0.00     0.034 C 
BRANCH   5   6
ATOM      6  C   UNL     1      28.140  57.500  10.767  1.00  0.00     0.032 C 
BRANCH   6   7
ATOM      7  C   UNL     1      27.988  58.203  12.095  1.00  0.00    -0.028 C 
ATOM      8  C   UNL     1      30.312  59.137  12.058  1.00  0.00     0.039 C 
ATOM      9  C   UNL     1      28.964  58.915  12.701  1.00  0.00    -0.080 C 
ATOM     10  C   UNL     1      28.676  59.517  14.053  1.00  0.00     0.039 C 
ENDBRANCH   6   7
ENDBRANCH   5   6
ENDBRANCH   3   5
ENDBRANCH   1   2
BRANCH   1  11
ATOM     11  C   UNL     1      30.445  52.985  13.635  1.00  0.00     0.034 C 
BRANCH  11  12
ATOM     12  C   UNL     1      29.547  52.158  14.532  1.00  0.00    -0.077 C 
ATOM     13  C   UNL     1      29.893  51.985  15.828  1.00  0.00    -0.028 C 
ATOM     14  C   UNL     1      28.273  51.581  13.961  1.00  0.00     0.039 C 
BRANCH  13  15
ATOM     15  C   UNL     1      29.097  51.181  16.825  1.00  0.00     0.035 C 
BRANCH  15  16
ATOM     16  C   UNL     1      29.791  49.851  17.130  1.00  0.00     0.079 C 
BRANCH  16  17
ATOM     17  C   UNL     1      29.330  48.779  16.176  1.00  0.00     0.130 C 
ATOM     18  O   UNL     1      28.153  48.732  15.850  1.00  0.00    -0.300 OA
ATOM     19  C   UNL     1      30.287  47.775  15.605  1.00  0.00     0.087 C 
ENDBRANCH  16  17
ENDBRANCH  15  16
ENDBRANCH  13  15
ENDBRANCH  11  12
ENDBRANCH   1  11
TORSDOF 9
ENDMDL
