MODEL 1
REMARK VINA RESULT:    -2.107      0.000      0.000
REMARK INTER + INTRA:          -3.545
REMARK INTER:                  -3.832
REMARK INTRA:                   0.287
REMARK UNBOUND:                 0.287
REMARK SMILES CCCCCCCCCCCCCCCC(=O)[O-]
REMARK SMILES IDX 9 1 10 2 11 3 12 4 13 5 14 6 15 7 16 8 17 9 18 10 8 11 7 12
REMARK SMILES IDX 6 13 5 14 4 15 3 16 2 17 1 18
REMARK H PARENT
REMARK Flexibility Score: inf
ROOT
ATOM      1  C   UNL     1      -1.061  44.784  49.190  1.00  0.00     0.000 C 
ENDROOT
BRANCH   1   2
ATOM      2  C   UNL     1      -0.686  46.052  48.410  1.00  0.00     0.000 C 
BRANCH   2   3
ATOM      3  C   UNL     1      -1.125  47.338  49.127  1.00  0.00     0.000 C 
BRANCH   3   4
ATOM      4  C   UNL     1       0.011  47.974  49.947  1.00  0.00     0.000 C 
BRANCH   4   5
ATOM      5  C   UNL     1       1.328  47.182  49.857  1.00  0.00     0.000 C 
BRANCH   5   6
ATOM      6  C   UNL     1       2.603  48.046  49.781  1.00  0.00     0.006 C 
BRANCH   6   7
ATOM      7  C   UNL     1       3.775  47.393  49.030  1.00  0.00     0.053 C 
BRANCH   7   8
ATOM      8  C   UNL     1       3.894  47.906  47.627  1.00  0.00     0.041 C 
ATOM      9  O   UNL     1       2.861  48.125  46.941  1.00  0.00    -0.550 OA
ATOM     10  O   UNL     1       5.148  48.113  47.067  1.00  0.00    -0.550 OA
ENDBRANCH   7   8
ENDBRANCH   6   7
ENDBRANCH   5   6
ENDBRANCH   4   5
ENDBRANCH   3   4
ENDBRANCH   2   3
ENDBRANCH   1   2
BRANCH   1  11
ATOM     11  C   UNL     1      -0.976  45.025  50.705  1.00  0.00     0.000 C 
BRANCH  11  12
ATOM     12  C   UNL     1      -0.763  43.730  51.508  1.00  0.00    -0.000 C 
BRANCH  12  13
ATOM     13  C   UNL     1       0.681  43.180  51.509  1.00  0.00    -0.000 C 
BRANCH  13  14
ATOM     14  C   UNL     1       1.787  44.242  51.350  1.00  0.00    -0.000 C 
BRANCH  14  15
ATOM     15  C   UNL     1       2.589  44.124  50.035  1.00  0.00    -0.000 C 
BRANCH  15  16
ATOM     16  C   UNL     1       1.976  43.136  49.024  1.00  0.00    -0.000 C 
BRANCH  16  17
ATOM     17  C   UNL     1       1.538  43.774  47.695  1.00  0.00    -0.003 C 
ATOM     18  C   UNL     1       2.226  45.113  47.424  1.00  0.00     0.004 C 
ENDBRANCH  16  17
ENDBRANCH  15  16
ENDBRANCH  14  15
ENDBRANCH  13  14
ENDBRANCH  12  13
ENDBRANCH  11  12
ENDBRANCH   1  11
TORSDOF 14
ENDMDL
MODEL 2
REMARK VINA RESULT:    -1.107      1.617      2.065
REMARK INTER + INTRA:          -1.725
REMARK INTER:                  -0.460
REMARK INTRA:                  -1.265
REMARK UNBOUND:                 0.287
REMARK SMILES CCCCCCCCCCCCCCCC(=O)[O-]
REMARK SMILES IDX 9 1 10 2 11 3 12 4 13 5 14 6 15 7 16 8 17 9 18 10 8 11 7 12
REMARK SMILES IDX 6 13 5 14 4 15 3 16 2 17 1 18
REMARK H PARENT
REMARK Flexibility Score: inf
ROOT
ATOM      1  C   UNL     1      -0.268  44.724  48.444  1.00  0.00     0.000 C 
ENDROOT
BRANCH   1   2
ATOM      2  C   UNL     1      -1.122  45.716  47.640  1.00  0.00     0.000 C 
BRANCH   2   3
ATOM      3  C   UNL     1      -0.711  47.177  47.878  1.00  0.00     0.000 C 
BRANCH   3   4
ATOM      4  C   UNL     1      -0.423  47.475  49.360  1.00  0.00     0.000 C 
BRANCH   4   5
ATOM      5  C   UNL     1       1.055  47.816  49.624  1.00  0.00     0.000 C 
BRANCH   5   6
ATOM      6  C   UNL     1       2.034  47.359  48.523  1.00  0.00     0.006 C 
BRANCH   6   7
ATOM      7  C   UNL     1       3.497  47.769  48.759  1.00  0.00     0.053 C 
BRANCH   7   8
ATOM      8  C   UNL     1       4.256  47.896  47.473  1.00  0.00     0.041 C 
ATOM      9  O   UNL     1       3.645  48.125  46.396  1.00  0.00    -0.550 OA
ATOM     10  O   UNL     1       5.634  47.730  47.461  1.00  0.00    -0.550 OA
ENDBRANCH   7   8
ENDBRANCH   6   7
ENDBRANCH   5   6
ENDBRANCH   4   5
ENDBRANCH   3   4
ENDBRANCH   2   3
ENDBRANCH   1   2
BRANCH   1  11
ATOM     11  C   UNL     1      -1.117  43.994  49.495  1.00  0.00     0.000 C 
BRANCH  11  12
ATOM     12  C   UNL     1      -0.274  43.384  50.629  1.00  0.00    -0.000 C 
BRANCH  12  13
ATOM     13  C   UNL     1       0.708  44.354  51.321  1.00  0.00    -0.000 C 
BRANCH  13  14
ATOM     14  C   UNL     1       2.125  44.398  50.713  1.00  0.00    -0.000 C 
BRANCH  14  15
ATOM     15  C   UNL     1       2.509  43.127  49.921  1.00  0.00    -0.000 C 
BRANCH  15  16
ATOM     16  C   UNL     1       3.484  42.202  50.674  1.00  0.00    -0.000 C 
BRANCH  16  17
ATOM     17  C   UNL     1       4.320  41.284  49.765  1.00  0.00    -0.003 C 
ATOM     18  C   UNL     1       5.756  41.106  50.260  1.00  0.00     0.004 C 
ENDBRANCH  16  17
ENDBRANCH  15  16
ENDBRANCH  14  15
ENDBRANCH  13  14
ENDBRANCH  12  13
ENDBRANCH  11  12
ENDBRANCH   1  11
TORSDOF 14
ENDMDL
MODEL 3
REMARK VINA RESULT:    -0.934      2.318      4.893
REMARK INTER + INTRA:          -1.412
REMARK INTER:                  -1.743
REMARK INTRA:                   0.331
REMARK UNBOUND:                 0.287
REMARK SMILES CCCCCCCCCCCCCCCC(=O)[O-]
REMARK SMILES IDX 9 1 10 2 11 3 12 4 13 5 14 6 15 7 16 8 17 9 18 10 8 11 7 12
REMARK SMILES IDX 6 13 5 14 4 15 3 16 2 17 1 18
REMARK H PARENT
REMARK Flexibility Score: inf
ROOT
ATOM      1  C   UNL     1       2.225  46.484  47.273  1.00  0.00     0.000 C 
ENDROOT
BRANCH   1   2
ATOM      2  C   UNL     1       3.720  46.817  47.159  1.00  0.00     0.000 C 
BRANCH   2   3
ATOM      3  C   UNL     1       4.194  47.786  48.253  1.00  0.00     0.000 C 
BRANCH   3   4
ATOM      4  C   UNL     1       3.085  48.124  49.264  1.00  0.00     0.000 C 
BRANCH   4   5
ATOM      5  C   UNL     1       2.983  47.095  50.404  1.00  0.00     0.000 C 
BRANCH   5   6
ATOM      6  C   UNL     1       3.261  45.635  49.990  1.00  0.00     0.006 C 
BRANCH   6   7
ATOM      7  C   UNL     1       2.400  44.590  50.716  1.00  0.00     0.053 C 
BRANCH   7   8
ATOM      8  C   UNL     1       1.983  43.477  49.804  1.00  0.00     0.041 C 
ATOM      9  O   UNL     1       2.547  42.354  49.875  1.00  0.00    -0.550 OA
ATOM     10  O   UNL     1       0.994  43.692  48.853  1.00  0.00    -0.550 OA
ENDBRANCH   7   8
ENDBRANCH   6   7
ENDBRANCH   5   6
ENDBRANCH   4   5
ENDBRANCH   3   4
ENDBRANCH   2   3
ENDBRANCH   1   2
BRANCH   1  11
ATOM     11  C   UNL     1       1.370  47.757  47.186  1.00  0.00     0.000 C 
BRANCH  11  12
ATOM     12  C   UNL     1      -0.091  47.473  46.794  1.00  0.00    -0.000 C 
BRANCH  12  13
ATOM     13  C   UNL     1      -1.125  47.632  47.929  1.00  0.00    -0.000 C 
BRANCH  13  14
ATOM     14  C   UNL     1      -0.553  48.125  49.274  1.00  0.00    -0.000 C 
BRANCH  14  15
ATOM     15  C   UNL     1      -1.109  47.375  50.506  1.00  0.00    -0.000 C 
BRANCH  15  16
ATOM     16  C   UNL     1      -0.833  45.860  50.483  1.00  0.00    -0.000 C 
BRANCH  16  17
ATOM     17  C   UNL     1      -1.029  45.157  51.837  1.00  0.00    -0.003 C 
ATOM     18  C   UNL     1      -0.872  43.639  51.747  1.00  0.00     0.004 C 
ENDBRANCH  16  17
ENDBRANCH  15  16
ENDBRANCH  14  15
ENDBRANCH  13  14
ENDBRANCH  12  13
ENDBRANCH  11  12
ENDBRANCH   1  11
TORSDOF 14
ENDMDL
MODEL 4
REMARK VINA RESULT:    -0.665      2.392      5.260
REMARK INTER + INTRA:          -0.923
REMARK INTER:                  -3.012
REMARK INTRA:                   2.089
REMARK UNBOUND:                 0.287
REMARK SMILES CCCCCCCCCCCCCCCC(=O)[O-]
REMARK SMILES IDX 9 1 10 2 11 3 12 4 13 5 14 6 15 7 16 8 17 9 18 10 8 11 7 12
REMARK SMILES IDX 6 13 5 14 4 15 3 16 2 17 1 18
REMARK H PARENT
REMARK Flexibility Score: inf
ROOT
ATOM      1  C   UNL     1       2.455  45.917  47.274  1.00  0.00     0.000 C 
ENDROOT
BRANCH   1   2
ATOM      2  C   UNL     1       1.193  46.791  47.219  1.00  0.00     0.000 C 
BRANCH   2   3
ATOM      3  C   UNL     1      -0.056  46.058  47.732  1.00  0.00     0.000 C 
BRANCH   3   4
ATOM      4  C   UNL     1       0.286  44.936  48.728  1.00  0.00     0.000 C 
BRANCH   4   5
ATOM      5  C   UNL     1      -0.847  43.905  48.876  1.00  0.00     0.000 C 
BRANCH   5   6
ATOM      6  C   UNL     1      -0.748  43.004  50.125  1.00  0.00     0.006 C 
BRANCH   6   7
ATOM      7  C   UNL     1       0.215  43.518  51.208  1.00  0.00     0.053 C 
BRANCH   7   8
ATOM      8  C   UNL     1       1.647  43.414  50.778  1.00  0.00     0.041 C 
ATOM      9  O   UNL     1       2.085  42.341  50.287  1.00  0.00    -0.550 OA
ATOM     10  O   UNL     1       2.503  44.493  50.950  1.00  0.00    -0.550 OA
ENDBRANCH   7   8
ENDBRANCH   6   7
ENDBRANCH   5   6
ENDBRANCH   4   5
ENDBRANCH   3   4
ENDBRANCH   2   3
ENDBRANCH   1   2
BRANCH   1  11
ATOM     11  C   UNL     1       3.722  46.772  47.119  1.00  0.00     0.000 C 
BRANCH  11  12
ATOM     12  C   UNL     1       3.828  47.885  48.176  1.00  0.00    -0.000 C 
BRANCH  12  13
ATOM     13  C   UNL     1       3.094  47.608  49.506  1.00  0.00    -0.000 C 
BRANCH  13  14
ATOM     14  C   UNL     1       1.637  48.109  49.568  1.00  0.00    -0.000 C 
BRANCH  14  15
ATOM     15  C   UNL     1       1.037  48.124  50.992  1.00  0.00    -0.000 C 
BRANCH  15  16
ATOM     16  C   UNL     1      -0.503  48.123  51.013  1.00  0.00    -0.000 C 
BRANCH  16  17
ATOM     17  C   UNL     1      -1.124  47.258  52.124  1.00  0.00    -0.003 C 
ATOM     18  C   UNL     1      -0.686  45.795  52.052  1.00  0.00     0.004 C 
ENDBRANCH  16  17
ENDBRANCH  15  16
ENDBRANCH  14  15
ENDBRANCH  13  14
ENDBRANCH  12  13
ENDBRANCH  11  12
ENDBRANCH   1  11
TORSDOF 14
ENDMDL
MODEL 5
REMARK VINA RESULT:    -0.502      2.691      5.168
REMARK INTER + INTRA:          -0.625
REMARK INTER:                  -1.665
REMARK INTRA:                   1.040
REMARK UNBOUND:                 0.287
REMARK SMILES CCCCCCCCCCCCCCCC(=O)[O-]
REMARK SMILES IDX 9 1 10 2 11 3 12 4 13 5 14 6 15 7 16 8 17 9 18 10 8 11 7 12
REMARK SMILES IDX 6 13 5 14 4 15 3 16 2 17 1 18
REMARK H PARENT
REMARK Flexibility Score: inf
ROOT
ATOM      1  C   UNL     1       3.277  46.587  46.591  1.00  0.00     0.000 C 
ENDROOT
BRANCH   1   2
ATOM      2  C   UNL     1       3.840  47.908  47.135  1.00  0.00     0.000 C 
BRANCH   2   3
ATOM      3  C   UNL     1       4.083  47.866  48.651  1.00  0.00     0.000 C 
BRANCH   3   4
ATOM      4  C   UNL     1       2.774  47.783  49.457  1.00  0.00     0.000 C 
BRANCH   4   5
ATOM      5  C   UNL     1       2.869  46.819  50.652  1.00  0.00     0.000 C 
BRANCH   5   6
ATOM      6  C   UNL     1       2.284  45.413  50.403  1.00  0.00     0.006 C 
BRANCH   6   7
ATOM      7  C   UNL     1       1.255  44.954  51.448  1.00  0.00     0.053 C 
BRANCH   7   8
ATOM      8  C   UNL     1       0.811  43.543  51.214  1.00  0.00     0.041 C 
ATOM      9  O   UNL     1       1.633  42.678  50.811  1.00  0.00    -0.550 OA
ATOM     10  O   UNL     1      -0.517  43.190  51.410  1.00  0.00    -0.550 OA
ENDBRANCH   7   8
ENDBRANCH   6   7
ENDBRANCH   5   6
ENDBRANCH   4   5
ENDBRANCH   3   4
ENDBRANCH   2   3
ENDBRANCH   1   2
BRANCH   1  11
ATOM     11  C   UNL     1       2.493  45.835  47.677  1.00  0.00     0.000 C 
BRANCH  11  12
ATOM     12  C   UNL     1       1.229  45.144  47.134  1.00  0.00    -0.000 C 
BRANCH  12  13
ATOM     13  C   UNL     1       0.156  44.801  48.190  1.00  0.00    -0.000 C 
BRANCH  13  14
ATOM     14  C   UNL     1      -1.045  45.768  48.243  1.00  0.00    -0.000 C 
BRANCH  14  15
ATOM     15  C   UNL     1      -0.657  47.259  48.133  1.00  0.00    -0.000 C 
BRANCH  15  16
ATOM     16  C   UNL     1      -1.124  48.109  49.330  1.00  0.00    -0.000 C 
BRANCH  16  17
ATOM     17  C   UNL     1      -1.017  47.403  50.692  1.00  0.00    -0.003 C 
ATOM     18  C   UNL     1      -0.007  48.068  51.629  1.00  0.00     0.004 C 
ENDBRANCH  16  17
ENDBRANCH  15  16
ENDBRANCH  14  15
ENDBRANCH  13  14
ENDBRANCH  12  13
ENDBRANCH  11  12
ENDBRANCH   1  11
TORSDOF 14
ENDMDL
