MODEL 1
REMARK VINA RESULT:    13.494      0.000      0.000
REMARK INTER + INTRA:          29.693
REMARK INTER:                  29.272
REMARK INTRA:                   0.421
REMARK UNBOUND:                 0.421
REMARK SMILES CCCCCCCCCCCCCCCCCCCCCC(=O)[O-]
REMARK SMILES IDX 12 1 11 2 10 3 9 4 8 5 7 6 6 7 5 8 4 9 3 10 2 11 1 12 13 13
REMARK SMILES IDX 14 14 15 15 16 16 17 17 18 18 19 19 20 20 21 21 22 22 23 23
REMARK SMILES IDX 24 24
REMARK H PARENT
REMARK Flexibility Score: inf
ROOT
ATOM      1  C   UNL     1     -13.382  30.821 -20.642  1.00  0.00     0.000 C 
ENDROOT
BRANCH   1   2
ATOM      2  C   UNL     1     -14.873  30.688 -20.307  1.00  0.00     0.000 C 
BRANCH   2   3
ATOM      3  C   UNL     1     -15.117  29.512 -19.349  1.00  0.00     0.000 C 
BRANCH   3   4
ATOM      4  C   UNL     1     -16.324  28.648 -19.757  1.00  0.00    -0.000 C 
BRANCH   4   5
ATOM      5  C   UNL     1     -16.193  27.145 -19.436  1.00  0.00    -0.000 C 
BRANCH   5   6
ATOM      6  C   UNL     1     -17.391  26.529 -18.690  1.00  0.00    -0.000 C 
BRANCH   6   7
ATOM      7  C   UNL     1     -17.048  25.333 -17.783  1.00  0.00    -0.000 C 
BRANCH   7   8
ATOM      8  C   UNL     1     -15.970  24.395 -18.371  1.00  0.00    -0.000 C 
BRANCH   8   9
ATOM      9  C   UNL     1     -16.385  23.786 -19.720  1.00  0.00    -0.000 C 
BRANCH   9  10
ATOM     10  C   UNL     1     -15.303  22.875 -20.322  1.00  0.00    -0.000 C 
BRANCH  10  11
ATOM     11  C   UNL     1     -15.210  22.963 -21.859  1.00  0.00    -0.003 C 
ATOM     12  C   UNL     1     -13.777  23.184 -22.344  1.00  0.00     0.004 C 
ENDBRANCH  10  11
ENDBRANCH   9  10
ENDBRANCH   8   9
ENDBRANCH   7   8
ENDBRANCH   6   7
ENDBRANCH   5   6
ENDBRANCH   4   5
ENDBRANCH   3   4
ENDBRANCH   2   3
ENDBRANCH   1   2
BRANCH   1  13
ATOM     13  C   UNL     1     -13.151  31.915 -21.695  1.00  0.00     0.000 C 
BRANCH  13  14
ATOM     14  C   UNL     1     -12.563  33.205 -21.097  1.00  0.00     0.000 C 
BRANCH  14  15
ATOM     15  C   UNL     1     -11.179  33.609 -21.649  1.00  0.00     0.000 C 
BRANCH  15  16
ATOM     16  C   UNL     1      -9.983  33.157 -20.795  1.00  0.00     0.000 C 
BRANCH  16  17
ATOM     17  C   UNL     1      -9.559  34.213 -19.759  1.00  0.00     0.000 C 
BRANCH  17  18
ATOM     18  C   UNL     1      -9.134  33.593 -18.418  1.00  0.00     0.000 C 
BRANCH  18  19
ATOM     19  C   UNL     1      -7.737  34.057 -17.971  1.00  0.00     0.000 C 
BRANCH  19  20
ATOM     20  C   UNL     1      -7.695  34.503 -16.498  1.00  0.00     0.006 C 
BRANCH  20  21
ATOM     21  C   UNL     1      -7.236  33.404 -15.523  1.00  0.00     0.053 C 
BRANCH  21  22
ATOM     22  C   UNL     1      -8.023  32.137 -15.673  1.00  0.00     0.041 C 
ATOM     23  O   UNL     1      -8.000  31.502 -16.760  1.00  0.00    -0.550 OA
ATOM     24  O   UNL     1      -8.807  31.672 -14.623  1.00  0.00    -0.550 OA
ENDBRANCH  21  22
ENDBRANCH  20  21
ENDBRANCH  19  20
ENDBRANCH  18  19
ENDBRANCH  17  18
ENDBRANCH  16  17
ENDBRANCH  15  16
ENDBRANCH  14  15
ENDBRANCH  13  14
ENDBRANCH   1  13
TORSDOF 20
ENDMDL
MODEL 2
REMARK VINA RESULT:    13.715      3.483     11.033
REMARK INTER + INTRA:          30.172
REMARK INTER:                  31.226
REMARK INTRA:                  -1.054
REMARK UNBOUND:                 0.421
REMARK SMILES CCCCCCCCCCCCCCCCCCCCCC(=O)[O-]
REMARK SMILES IDX 12 1 11 2 10 3 9 4 8 5 7 6 6 7 5 8 4 9 3 10 2 11 1 12 13 13
REMARK SMILES IDX 14 14 15 15 16 16 17 17 18 18 19 19 20 20 21 21 22 22 23 23
REMARK SMILES IDX 24 24
REMARK H PARENT
REMARK Flexibility Score: inf
ROOT
ATOM      1  C   UNL     1     -13.251  31.045 -20.261  1.00  0.00     0.000 C 
ENDROOT
BRANCH   1   2
ATOM      2  C   UNL     1     -13.575  32.213 -21.201  1.00  0.00     0.000 C 
BRANCH   2   3
ATOM      3  C   UNL     1     -12.307  33.012 -21.538  1.00  0.00     0.000 C 
BRANCH   3   4
ATOM      4  C   UNL     1     -11.112  32.646 -20.639  1.00  0.00    -0.000 C 
BRANCH   4   5
ATOM      5  C   UNL     1     -10.241  33.836 -20.189  1.00  0.00    -0.000 C 
BRANCH   5   6
ATOM      6  C   UNL     1      -9.068  33.474 -19.259  1.00  0.00    -0.000 C 
BRANCH   6   7
ATOM      7  C   UNL     1      -9.149  34.078 -17.845  1.00  0.00    -0.000 C 
BRANCH   7   8
ATOM      8  C   UNL     1      -8.629  33.139 -16.735  1.00  0.00    -0.000 C 
BRANCH   8   9
ATOM      9  C   UNL     1      -7.113  33.271 -16.508  1.00  0.00    -0.000 C 
BRANCH   9  10
ATOM     10  C   UNL     1      -6.679  34.716 -16.210  1.00  0.00    -0.000 C 
BRANCH  10  11
ATOM     11  C   UNL     1      -5.879  35.366 -17.358  1.00  0.00    -0.003 C 
ATOM     12  C   UNL     1      -6.217  36.846 -17.538  1.00  0.00     0.004 C 
ENDBRANCH  10  11
ENDBRANCH   9  10
ENDBRANCH   8   9
ENDBRANCH   7   8
ENDBRANCH   6   7
ENDBRANCH   5   6
ENDBRANCH   4   5
ENDBRANCH   3   4
ENDBRANCH   2   3
ENDBRANCH   1   2
BRANCH   1  13
ATOM     13  C   UNL     1     -14.038  29.786 -20.657  1.00  0.00     0.000 C 
BRANCH  13  14
ATOM     14  C   UNL     1     -15.146  29.432 -19.650  1.00  0.00     0.000 C 
BRANCH  14  15
ATOM     15  C   UNL     1     -15.926  28.138 -19.964  1.00  0.00     0.000 C 
BRANCH  15  16
ATOM     16  C   UNL     1     -17.004  27.764 -18.933  1.00  0.00     0.000 C 
BRANCH  16  17
ATOM     17  C   UNL     1     -17.429  26.288 -19.026  1.00  0.00     0.000 C 
BRANCH  17  18
ATOM     18  C   UNL     1     -16.606  25.374 -18.104  1.00  0.00     0.000 C 
BRANCH  18  19
ATOM     19  C   UNL     1     -16.202  24.057 -18.787  1.00  0.00     0.000 C 
BRANCH  19  20
ATOM     20  C   UNL     1     -16.023  24.200 -20.309  1.00  0.00     0.006 C 
BRANCH  20  21
ATOM     21  C   UNL     1     -15.534  22.918 -21.007  1.00  0.00     0.053 C 
BRANCH  21  22
ATOM     22  C   UNL     1     -14.254  23.124 -21.758  1.00  0.00     0.041 C 
ATOM     23  O   UNL     1     -13.150  23.086 -21.152  1.00  0.00    -0.550 OA
ATOM     24  O   UNL     1     -14.278  23.390 -23.123  1.00  0.00    -0.550 OA
ENDBRANCH  21  22
ENDBRANCH  20  21
ENDBRANCH  19  20
ENDBRANCH  18  19
ENDBRANCH  17  18
ENDBRANCH  16  17
ENDBRANCH  15  16
ENDBRANCH  14  15
ENDBRANCH  13  14
ENDBRANCH   1  13
TORSDOF 20
ENDMDL
MODEL 3
REMARK VINA RESULT:    13.938      0.950      2.116
REMARK INTER + INTRA:          30.657
REMARK INTER:                  31.710
REMARK INTRA:                  -1.053
REMARK UNBOUND:                 0.421
REMARK SMILES CCCCCCCCCCCCCCCCCCCCCC(=O)[O-]
REMARK SMILES IDX 12 1 11 2 10 3 9 4 8 5 7 6 6 7 5 8 4 9 3 10 2 11 1 12 13 13
REMARK SMILES IDX 14 14 15 15 16 16 17 17 18 18 19 19 20 20 21 21 22 22 23 23
REMARK SMILES IDX 24 24
REMARK H PARENT
REMARK Flexibility Score: inf
ROOT
ATOM      1  C   UNL     1     -15.643  29.770 -20.202  1.00  0.00     0.000 C 
ENDROOT
BRANCH   1   2
ATOM      2  C   UNL     1     -15.761  28.439 -19.449  1.00  0.00     0.000 C 
BRANCH   2   3
ATOM      3  C   UNL     1     -16.775  27.510 -20.133  1.00  0.00     0.000 C 
BRANCH   3   4
ATOM      4  C   UNL     1     -17.592  26.675 -19.131  1.00  0.00    -0.000 C 
BRANCH   4   5
ATOM      5  C   UNL     1     -16.779  26.056 -17.976  1.00  0.00    -0.000 C 
BRANCH   5   6
ATOM      6  C   UNL     1     -16.099  24.713 -18.301  1.00  0.00    -0.000 C 
BRANCH   6   7
ATOM      7  C   UNL     1     -17.005  23.675 -18.988  1.00  0.00    -0.000 C 
BRANCH   7   8
ATOM      8  C   UNL     1     -16.302  22.879 -20.109  1.00  0.00    -0.000 C 
BRANCH   8   9
ATOM      9  C   UNL     1     -15.015  23.561 -20.603  1.00  0.00    -0.000 C 
BRANCH   9  10
ATOM     10  C   UNL     1     -14.902  23.581 -22.136  1.00  0.00    -0.000 C 
BRANCH  10  11
ATOM     11  C   UNL     1     -13.497  23.967 -22.644  1.00  0.00    -0.003 C 
ATOM     12  C   UNL     1     -12.461  22.875 -22.377  1.00  0.00     0.004 C 
ENDBRANCH  10  11
ENDBRANCH   9  10
ENDBRANCH   8   9
ENDBRANCH   7   8
ENDBRANCH   6   7
ENDBRANCH   5   6
ENDBRANCH   4   5
ENDBRANCH   3   4
ENDBRANCH   2   3
ENDBRANCH   1   2
BRANCH   1  13
ATOM     13  C   UNL     1     -14.343  30.499 -19.830  1.00  0.00     0.000 C 
BRANCH  13  14
ATOM     14  C   UNL     1     -13.465  30.816 -21.054  1.00  0.00     0.000 C 
BRANCH  14  15
ATOM     15  C   UNL     1     -13.101  32.306 -21.229  1.00  0.00     0.000 C 
BRANCH  15  16
ATOM     16  C   UNL     1     -11.610  32.584 -21.478  1.00  0.00     0.000 C 
BRANCH  16  17
ATOM     17  C   UNL     1     -11.008  33.563 -20.454  1.00  0.00     0.000 C 
BRANCH  17  18
ATOM     18  C   UNL     1      -9.472  33.519 -20.421  1.00  0.00     0.000 C 
BRANCH  18  19
ATOM     19  C   UNL     1      -8.891  34.169 -19.155  1.00  0.00     0.000 C 
BRANCH  19  20
ATOM     20  C   UNL     1      -8.280  33.145 -18.180  1.00  0.00     0.006 C 
BRANCH  20  21
ATOM     21  C   UNL     1      -7.788  33.757 -16.856  1.00  0.00     0.053 C 
BRANCH  21  22
ATOM     22  C   UNL     1      -8.170  32.932 -15.664  1.00  0.00     0.041 C 
ATOM     23  O   UNL     1      -7.728  33.226 -14.523  1.00  0.00    -0.550 OA
ATOM     24  O   UNL     1      -8.989  31.819 -15.817  1.00  0.00    -0.550 OA
ENDBRANCH  21  22
ENDBRANCH  20  21
ENDBRANCH  19  20
ENDBRANCH  18  19
ENDBRANCH  17  18
ENDBRANCH  16  17
ENDBRANCH  15  16
ENDBRANCH  14  15
ENDBRANCH  13  14
ENDBRANCH   1  13
TORSDOF 20
ENDMDL
MODEL 4
REMARK VINA RESULT:    13.953      0.779      1.870
REMARK INTER + INTRA:          30.688
REMARK INTER:                  29.756
REMARK INTRA:                   0.931
REMARK UNBOUND:                 0.421
REMARK SMILES CCCCCCCCCCCCCCCCCCCCCC(=O)[O-]
REMARK SMILES IDX 12 1 11 2 10 3 9 4 8 5 7 6 6 7 5 8 4 9 3 10 2 11 1 12 13 13
REMARK SMILES IDX 14 14 15 15 16 16 17 17 18 18 19 19 20 20 21 21 22 22 23 23
REMARK SMILES IDX 24 24
REMARK H PARENT
REMARK Flexibility Score: inf
ROOT
ATOM      1  C   UNL     1     -12.959  32.278 -21.926  1.00  0.00     0.000 C 
ENDROOT
BRANCH   1   2
ATOM      2  C   UNL     1     -13.070  30.947 -21.173  1.00  0.00     0.000 C 
BRANCH   2   3
ATOM      3  C   UNL     1     -14.174  31.011 -20.107  1.00  0.00     0.000 C 
BRANCH   3   4
ATOM      4  C   UNL     1     -15.347  30.059 -20.404  1.00  0.00    -0.000 C 
BRANCH   4   5
ATOM      5  C   UNL     1     -15.774  29.158 -19.227  1.00  0.00    -0.000 C 
BRANCH   5   6
ATOM      6  C   UNL     1     -16.160  27.718 -19.613  1.00  0.00    -0.000 C 
BRANCH   6   7
ATOM      7  C   UNL     1     -17.278  27.093 -18.758  1.00  0.00    -0.000 C 
BRANCH   7   8
ATOM      8  C   UNL     1     -16.796  25.941 -17.848  1.00  0.00    -0.000 C 
BRANCH   8   9
ATOM      9  C   UNL     1     -16.811  24.577 -18.560  1.00  0.00    -0.000 C 
BRANCH   9  10
ATOM     10  C   UNL     1     -16.033  24.589 -19.886  1.00  0.00    -0.000 C 
BRANCH  10  11
ATOM     11  C   UNL     1     -15.671  23.179 -20.398  1.00  0.00    -0.003 C 
ATOM     12  C   UNL     1     -14.872  23.220 -21.701  1.00  0.00     0.004 C 
ENDBRANCH  10  11
ENDBRANCH   9  10
ENDBRANCH   8   9
ENDBRANCH   7   8
ENDBRANCH   6   7
ENDBRANCH   5   6
ENDBRANCH   4   5
ENDBRANCH   3   4
ENDBRANCH   2   3
ENDBRANCH   1   2
BRANCH   1  13
ATOM     13  C   UNL     1     -12.295  33.352 -21.050  1.00  0.00     0.000 C 
BRANCH  13  14
ATOM     14  C   UNL     1     -10.763  33.213 -20.992  1.00  0.00     0.000 C 
BRANCH  14  15
ATOM     15  C   UNL     1     -10.056  34.176 -20.016  1.00  0.00     0.000 C 
BRANCH  15  16
ATOM     16  C   UNL     1      -8.651  33.735 -19.572  1.00  0.00     0.000 C 
BRANCH  16  17
ATOM     17  C   UNL     1      -8.206  34.401 -18.258  1.00  0.00     0.000 C 
BRANCH  17  18
ATOM     18  C   UNL     1      -6.695  34.681 -18.217  1.00  0.00     0.000 C 
BRANCH  18  19
ATOM     19  C   UNL     1      -6.212  35.102 -16.818  1.00  0.00     0.000 C 
BRANCH  19  20
ATOM     20  C   UNL     1      -6.623  34.109 -15.717  1.00  0.00     0.006 C 
BRANCH  20  21
ATOM     21  C   UNL     1      -8.079  33.621 -15.824  1.00  0.00     0.053 C 
BRANCH  21  22
ATOM     22  C   UNL     1      -8.188  32.126 -15.809  1.00  0.00     0.041 C 
ATOM     23  O   UNL     1      -8.275  31.508 -14.716  1.00  0.00    -0.550 OA
ATOM     24  O   UNL     1      -8.161  31.411 -17.001  1.00  0.00    -0.550 OA
ENDBRANCH  21  22
ENDBRANCH  20  21
ENDBRANCH  19  20
ENDBRANCH  18  19
ENDBRANCH  17  18
ENDBRANCH  16  17
ENDBRANCH  15  16
ENDBRANCH  14  15
ENDBRANCH  13  14
ENDBRANCH   1  13
TORSDOF 20
ENDMDL
MODEL 5
REMARK VINA RESULT:    15.378      3.477     10.535
REMARK INTER + INTRA:          33.779
REMARK INTER:                  34.551
REMARK INTRA:                  -0.772
REMARK UNBOUND:                 0.421
REMARK SMILES CCCCCCCCCCCCCCCCCCCCCC(=O)[O-]
REMARK SMILES IDX 12 1 11 2 10 3 9 4 8 5 7 6 6 7 5 8 4 9 3 10 2 11 1 12 13 13
REMARK SMILES IDX 14 14 15 15 16 16 17 17 18 18 19 19 20 20 21 21 22 22 23 23
REMARK SMILES IDX 24 24
REMARK H PARENT
REMARK Flexibility Score: inf
ROOT
ATOM      1  C   UNL     1     -13.378  32.315 -20.865  1.00  0.00     0.000 C 
ENDROOT
BRANCH   1   2
ATOM      2  C   UNL     1     -12.983  32.959 -22.200  1.00  0.00     0.000 C 
BRANCH   2   3
ATOM      3  C   UNL     1     -11.501  33.363 -22.195  1.00  0.00     0.000 C 
BRANCH   3   4
ATOM      4  C   UNL     1     -10.809  33.086 -20.849  1.00  0.00    -0.000 C 
BRANCH   4   5
ATOM      5  C   UNL     1      -9.902  34.222 -20.332  1.00  0.00    -0.000 C 
BRANCH   5   6
ATOM      6  C   UNL     1      -9.552  34.149 -18.834  1.00  0.00    -0.000 C 
BRANCH   6   7
ATOM      7  C   UNL     1      -8.333  33.271 -18.492  1.00  0.00    -0.000 C 
BRANCH   7   8
ATOM      8  C   UNL     1      -7.533  33.766 -17.268  1.00  0.00    -0.000 C 
BRANCH   8   9
ATOM      9  C   UNL     1      -8.439  34.262 -16.128  1.00  0.00    -0.000 C 
BRANCH   9  10
ATOM     10  C   UNL     1      -8.069  33.653 -14.765  1.00  0.00    -0.000 C 
BRANCH  10  11
ATOM     11  C   UNL     1      -7.770  32.141 -14.828  1.00  0.00    -0.003 C 
ATOM     12  C   UNL     1      -8.891  31.353 -15.507  1.00  0.00     0.004 C 
ENDBRANCH  10  11
ENDBRANCH   9  10
ENDBRANCH   8   9
ENDBRANCH   7   8
ENDBRANCH   6   7
ENDBRANCH   5   6
ENDBRANCH   4   5
ENDBRANCH   3   4
ENDBRANCH   2   3
ENDBRANCH   1   2
BRANCH   1  13
ATOM     13  C   UNL     1     -13.586  30.801 -21.025  1.00  0.00     0.000 C 
BRANCH  13  14
ATOM     14  C   UNL     1     -14.279  30.161 -19.809  1.00  0.00     0.000 C 
BRANCH  14  15
ATOM     15  C   UNL     1     -15.544  29.339 -20.136  1.00  0.00     0.000 C 
BRANCH  15  16
ATOM     16  C   UNL     1     -16.043  28.435 -18.996  1.00  0.00     0.000 C 
BRANCH  16  17
ATOM     17  C   UNL     1     -16.617  27.101 -19.504  1.00  0.00     0.000 C 
BRANCH  17  18
ATOM     18  C   UNL     1     -16.838  26.081 -18.375  1.00  0.00     0.000 C 
BRANCH  18  19
ATOM     19  C   UNL     1     -16.543  24.638 -18.817  1.00  0.00     0.000 C 
BRANCH  19  20
ATOM     20  C   UNL     1     -15.918  24.556 -20.221  1.00  0.00     0.006 C 
BRANCH  20  21
ATOM     21  C   UNL     1     -15.587  23.124 -20.678  1.00  0.00     0.053 C 
BRANCH  21  22
ATOM     22  C   UNL     1     -14.459  23.080 -21.664  1.00  0.00     0.041 C 
ATOM     23  O   UNL     1     -13.279  22.889 -21.268  1.00  0.00    -0.550 OA
ATOM     24  O   UNL     1     -14.704  23.281 -23.017  1.00  0.00    -0.550 OA
ENDBRANCH  21  22
ENDBRANCH  20  21
ENDBRANCH  19  20
ENDBRANCH  18  19
ENDBRANCH  17  18
ENDBRANCH  16  17
ENDBRANCH  15  16
ENDBRANCH  14  15
ENDBRANCH  13  14
ENDBRANCH   1  13
TORSDOF 20
ENDMDL
MODEL 6
REMARK VINA RESULT:    15.518      3.536     10.635
REMARK INTER + INTRA:          34.083
REMARK INTER:                  34.419
REMARK INTRA:                  -0.336
REMARK UNBOUND:                 0.421
REMARK SMILES CCCCCCCCCCCCCCCCCCCCCC(=O)[O-]
REMARK SMILES IDX 12 1 11 2 10 3 9 4 8 5 7 6 6 7 5 8 4 9 3 10 2 11 1 12 13 13
REMARK SMILES IDX 14 14 15 15 16 16 17 17 18 18 19 19 20 20 21 21 22 22 23 23
REMARK SMILES IDX 24 24
REMARK H PARENT
REMARK Flexibility Score: inf
ROOT
ATOM      1  C   UNL     1     -11.394  33.398 -21.732  1.00  0.00     0.000 C 
ENDROOT
BRANCH   1   2
ATOM      2  C   UNL     1     -10.467  33.821 -20.585  1.00  0.00     0.000 C 
BRANCH   2   3
ATOM      3  C   UNL     1      -9.710  32.611 -20.018  1.00  0.00     0.000 C 
BRANCH   3   4
ATOM      4  C   UNL     1      -8.919  32.944 -18.740  1.00  0.00    -0.000 C 
BRANCH   4   5
ATOM      5  C   UNL     1      -9.080  31.933 -17.587  1.00  0.00    -0.000 C 
BRANCH   5   6
ATOM      6  C   UNL     1      -7.983  31.992 -16.507  1.00  0.00    -0.000 C 
BRANCH   6   7
ATOM      7  C   UNL     1      -8.282  32.936 -15.328  1.00  0.00    -0.000 C 
BRANCH   7   8
ATOM      8  C   UNL     1      -7.604  34.318 -15.448  1.00  0.00    -0.000 C 
BRANCH   8   9
ATOM      9  C   UNL     1      -6.212  34.241 -16.099  1.00  0.00    -0.000 C 
BRANCH   9  10
ATOM     10  C   UNL     1      -6.135  34.999 -17.434  1.00  0.00    -0.000 C 
BRANCH  10  11
ATOM     11  C   UNL     1      -5.920  36.518 -17.267  1.00  0.00    -0.003 C 
ATOM     12  C   UNL     1      -6.164  37.286 -18.566  1.00  0.00     0.004 C 
ENDBRANCH  10  11
ENDBRANCH   9  10
ENDBRANCH   8   9
ENDBRANCH   7   8
ENDBRANCH   6   7
ENDBRANCH   5   6
ENDBRANCH   4   5
ENDBRANCH   3   4
ENDBRANCH   2   3
ENDBRANCH   1   2
BRANCH   1  13
ATOM     13  C   UNL     1     -12.808  33.096 -21.213  1.00  0.00     0.000 C 
BRANCH  13  14
ATOM     14  C   UNL     1     -13.327  31.717 -21.658  1.00  0.00     0.000 C 
BRANCH  14  15
ATOM     15  C   UNL     1     -13.068  30.569 -20.660  1.00  0.00     0.000 C 
BRANCH  15  16
ATOM     16  C   UNL     1     -14.226  30.277 -19.692  1.00  0.00     0.000 C 
BRANCH  16  17
ATOM     17  C   UNL     1     -15.359  29.467 -20.347  1.00  0.00     0.000 C 
BRANCH  17  18
ATOM     18  C   UNL     1     -16.318  28.847 -19.318  1.00  0.00     0.000 C 
BRANCH  18  19
ATOM     19  C   UNL     1     -16.202  27.315 -19.252  1.00  0.00     0.000 C 
BRANCH  19  20
ATOM     20  C   UNL     1     -17.314  26.663 -18.411  1.00  0.00     0.006 C 
BRANCH  20  21
ATOM     21  C   UNL     1     -16.956  25.266 -17.873  1.00  0.00     0.053 C 
BRANCH  21  22
ATOM     22  C   UNL     1     -16.242  24.425 -18.887  1.00  0.00     0.041 C 
ATOM     23  O   UNL     1     -16.088  24.846 -20.064  1.00  0.00    -0.550 OA
ATOM     24  O   UNL     1     -15.776  23.161 -18.544  1.00  0.00    -0.550 OA
ENDBRANCH  21  22
ENDBRANCH  20  21
ENDBRANCH  19  20
ENDBRANCH  18  19
ENDBRANCH  17  18
ENDBRANCH  16  17
ENDBRANCH  15  16
ENDBRANCH  14  15
ENDBRANCH  13  14
ENDBRANCH   1  13
TORSDOF 20
ENDMDL
MODEL 7
REMARK VINA RESULT:    16.050      3.492     10.593
REMARK INTER + INTRA:          35.236
REMARK INTER:                  34.958
REMARK INTRA:                   0.278
REMARK UNBOUND:                 0.421
REMARK SMILES CCCCCCCCCCCCCCCCCCCCCC(=O)[O-]
REMARK SMILES IDX 12 1 11 2 10 3 9 4 8 5 7 6 6 7 5 8 4 9 3 10 2 11 1 12 13 13
REMARK SMILES IDX 14 14 15 15 16 16 17 17 18 18 19 19 20 20 21 21 22 22 23 23
REMARK SMILES IDX 24 24
REMARK H PARENT
REMARK Flexibility Score: inf
ROOT
ATOM      1  C   UNL     1     -12.326  33.208 -20.890  1.00  0.00     0.000 C 
ENDROOT
BRANCH   1   2
ATOM      2  C   UNL     1     -10.909  33.611 -21.318  1.00  0.00     0.000 C 
BRANCH   2   3
ATOM      3  C   UNL     1      -9.877  33.189 -20.263  1.00  0.00     0.000 C 
BRANCH   3   4
ATOM      4  C   UNL     1      -9.273  34.384 -19.504  1.00  0.00    -0.000 C 
BRANCH   4   5
ATOM      5  C   UNL     1      -7.988  34.074 -18.708  1.00  0.00    -0.000 C 
BRANCH   5   6
ATOM      6  C   UNL     1      -6.956  35.216 -18.660  1.00  0.00    -0.000 C 
BRANCH   6   7
ATOM      7  C   UNL     1      -6.363  35.499 -17.267  1.00  0.00    -0.000 C 
BRANCH   7   8
ATOM      8  C   UNL     1      -6.121  34.228 -16.424  1.00  0.00    -0.000 C 
BRANCH   8   9
ATOM      9  C   UNL     1      -7.143  34.067 -15.286  1.00  0.00    -0.000 C 
BRANCH   9  10
ATOM     10  C   UNL     1      -8.541  33.675 -15.792  1.00  0.00    -0.000 C 
BRANCH  10  11
ATOM     11  C   UNL     1      -8.716  32.157 -16.000  1.00  0.00    -0.003 C 
ATOM     12  C   UNL     1      -8.065  31.337 -14.885  1.00  0.00     0.004 C 
ENDBRANCH  10  11
ENDBRANCH   9  10
ENDBRANCH   8   9
ENDBRANCH   7   8
ENDBRANCH   6   7
ENDBRANCH   5   6
ENDBRANCH   4   5
ENDBRANCH   3   4
ENDBRANCH   2   3
ENDBRANCH   1   2
BRANCH   1  13
ATOM     13  C   UNL     1     -13.057  32.478 -22.027  1.00  0.00     0.000 C 
BRANCH  13  14
ATOM     14  C   UNL     1     -13.390  31.016 -21.682  1.00  0.00     0.000 C 
BRANCH  14  15
ATOM     15  C   UNL     1     -13.832  30.773 -20.223  1.00  0.00     0.000 C 
BRANCH  15  16
ATOM     16  C   UNL     1     -15.276  30.270 -20.057  1.00  0.00     0.000 C 
BRANCH  16  17
ATOM     17  C   UNL     1     -15.345  28.832 -19.512  1.00  0.00     0.000 C 
BRANCH  17  18
ATOM     18  C   UNL     1     -16.738  28.203 -19.672  1.00  0.00     0.000 C 
BRANCH  18  19
ATOM     19  C   UNL     1     -16.694  26.665 -19.672  1.00  0.00     0.000 C 
BRANCH  19  20
ATOM     20  C   UNL     1     -16.885  26.059 -18.270  1.00  0.00     0.006 C 
BRANCH  20  21
ATOM     21  C   UNL     1     -16.481  24.577 -18.168  1.00  0.00     0.053 C 
BRANCH  21  22
ATOM     22  C   UNL     1     -16.187  23.967 -19.505  1.00  0.00     0.041 C 
ATOM     23  O   UNL     1     -16.731  22.882 -19.839  1.00  0.00    -0.550 OA
ATOM     24  O   UNL     1     -15.286  24.578 -20.369  1.00  0.00    -0.550 OA
ENDBRANCH  21  22
ENDBRANCH  20  21
ENDBRANCH  19  20
ENDBRANCH  18  19
ENDBRANCH  17  18
ENDBRANCH  16  17
ENDBRANCH  15  16
ENDBRANCH  14  15
ENDBRANCH  13  14
ENDBRANCH   1  13
TORSDOF 20
ENDMDL
MODEL 8
REMARK VINA RESULT:    16.237      8.324     13.427
REMARK INTER + INTRA:          35.642
REMARK INTER:                  36.173
REMARK INTRA:                  -0.531
REMARK UNBOUND:                 0.421
REMARK SMILES CCCCCCCCCCCCCCCCCCCCCC(=O)[O-]
REMARK SMILES IDX 12 1 11 2 10 3 9 4 8 5 7 6 6 7 5 8 4 9 3 10 2 11 1 12 13 13
REMARK SMILES IDX 14 14 15 15 16 16 17 17 18 18 19 19 20 20 21 21 22 22 23 23
REMARK SMILES IDX 24 24
REMARK H PARENT
REMARK Flexibility Score: inf
ROOT
ATOM      1  C   UNL     1      -9.071  39.967 -14.907  1.00  0.00     0.000 C 
ENDROOT
BRANCH   1   2
ATOM      2  C   UNL     1      -8.769  41.376 -14.382  1.00  0.00     0.000 C 
BRANCH   2   3
ATOM      3  C   UNL     1      -7.256  41.592 -14.232  1.00  0.00     0.000 C 
BRANCH   3   4
ATOM      4  C   UNL     1      -6.802  41.652 -12.762  1.00  0.00    -0.000 C 
BRANCH   4   5
ATOM      5  C   UNL     1      -7.887  42.093 -11.759  1.00  0.00    -0.000 C 
BRANCH   5   6
ATOM      6  C   UNL     1      -8.987  41.051 -11.484  1.00  0.00    -0.000 C 
BRANCH   6   7
ATOM      7  C   UNL     1     -10.048  41.482 -10.454  1.00  0.00    -0.000 C 
BRANCH   7   8
ATOM      8  C   UNL     1     -11.495  41.141 -10.872  1.00  0.00    -0.000 C 
BRANCH   8   9
ATOM      9  C   UNL     1     -11.710  41.227 -12.392  1.00  0.00    -0.000 C 
BRANCH   9  10
ATOM     10  C   UNL     1     -12.663  42.364 -12.797  1.00  0.00    -0.000 C 
BRANCH  10  11
ATOM     11  C   UNL     1     -12.391  42.922 -14.209  1.00  0.00    -0.003 C 
ATOM     12  C   UNL     1     -13.511  42.587 -15.194  1.00  0.00     0.004 C 
ENDBRANCH  10  11
ENDBRANCH   9  10
ENDBRANCH   8   9
ENDBRANCH   7   8
ENDBRANCH   6   7
ENDBRANCH   5   6
ENDBRANCH   4   5
ENDBRANCH   3   4
ENDBRANCH   2   3
ENDBRANCH   1   2
BRANCH   1  13
ATOM     13  C   UNL     1      -8.346  39.709 -16.237  1.00  0.00     0.000 C 
BRANCH  13  14
ATOM     14  C   UNL     1      -7.674  38.326 -16.292  1.00  0.00     0.000 C 
BRANCH  14  15
ATOM     15  C   UNL     1      -6.921  38.017 -17.603  1.00  0.00     0.000 C 
BRANCH  15  16
ATOM     16  C   UNL     1      -6.085  36.727 -17.583  1.00  0.00     0.000 C 
BRANCH  16  17
ATOM     17  C   UNL     1      -6.003  36.093 -16.183  1.00  0.00     0.000 C 
BRANCH  17  18
ATOM     18  C   UNL     1      -5.948  34.558 -16.227  1.00  0.00     0.000 C 
BRANCH  18  19
ATOM     19  C   UNL     1      -6.556  33.983 -17.518  1.00  0.00     0.000 C 
BRANCH  19  20
ATOM     20  C   UNL     1      -8.058  33.676 -17.390  1.00  0.00     0.006 C 
BRANCH  20  21
ATOM     21  C   UNL     1      -8.628  33.909 -15.979  1.00  0.00     0.053 C 
BRANCH  21  22
ATOM     22  C   UNL     1      -8.206  32.851 -15.005  1.00  0.00     0.041 C 
ATOM     23  O   UNL     1      -7.585  33.167 -13.956  1.00  0.00    -0.550 OA
ATOM     24  O   UNL     1      -8.467  31.511 -15.271  1.00  0.00    -0.550 OA
ENDBRANCH  21  22
ENDBRANCH  20  21
ENDBRANCH  19  20
ENDBRANCH  18  19
ENDBRANCH  17  18
ENDBRANCH  16  17
ENDBRANCH  15  16
ENDBRANCH  14  15
ENDBRANCH  13  14
ENDBRANCH   1  13
TORSDOF 20
ENDMDL
