MODEL 1
REMARK VINA RESULT:    -4.618      0.000      0.000
REMARK INTER + INTRA:          -9.024
REMARK INTER:                  -7.048
REMARK INTRA:                  -1.976
REMARK UNBOUND:                -1.976
REMARK SMILES CC(=O)CCC=C(C)CCC=C(C)CCC=C(C)C
REMARK SMILES IDX 10 1 11 2 12 3 13 4 14 5 15 6 16 7 18 8 17 9 19 10 9 11 7 12
REMARK SMILES IDX 6 13 8 14 5 15 4 16 2 17 3 18 1 19
REMARK H PARENT
REMARK Flexibility Score: inf
ROOT
ATOM      1  C   UNL     1      27.879  33.839  30.733  1.00  0.00     0.032 C 
ENDROOT
BRANCH   1   2
ATOM      2  C   UNL     1      28.829  33.913  29.564  1.00  0.00    -0.028 C 
ATOM      3  C   UNL     1      30.159  33.687  29.645  1.00  0.00    -0.077 C 
ATOM      4  C   UNL     1      30.836  33.360  30.954  1.00  0.00     0.039 C 
BRANCH   3   5
ATOM      5  C   UNL     1      30.991  33.710  28.383  1.00  0.00     0.034 C 
BRANCH   5   6
ATOM      6  C   UNL     1      31.256  32.283  27.892  1.00  0.00     0.032 C 
BRANCH   6   7
ATOM      7  C   UNL     1      29.970  31.575  27.544  1.00  0.00    -0.028 C 
ATOM      8  C   UNL     1      30.205  30.012  29.480  1.00  0.00     0.039 C 
ATOM      9  C   UNL     1      29.481  30.540  28.263  1.00  0.00    -0.080 C 
ATOM     10  C   UNL     1      28.185  29.906  27.830  1.00  0.00     0.039 C 
ENDBRANCH   6   7
ENDBRANCH   5   6
ENDBRANCH   3   5
ENDBRANCH   1   2
BRANCH   1  11
ATOM     11  C   UNL     1      26.537  33.240  30.299  1.00  0.00     0.034 C 
BRANCH  11  12
ATOM     12  C   UNL     1      26.454  31.775  30.672  1.00  0.00    -0.077 C 
ATOM     13  C   UNL     1      25.472  31.018  30.131  1.00  0.00    -0.028 C 
ATOM     14  C   UNL     1      27.473  31.202  31.628  1.00  0.00     0.039 C 
BRANCH  13  15
ATOM     15  C   UNL     1      25.220  29.565  30.461  1.00  0.00     0.035 C 
BRANCH  15  16
ATOM     16  C   UNL     1      24.531  28.853  29.294  1.00  0.00     0.079 C 
BRANCH  16  17
ATOM     17  C   UNL     1      23.042  28.765  29.501  1.00  0.00     0.130 C 
ATOM     18  O   UNL     1      22.320  28.476  28.559  1.00  0.00    -0.300 OA
ATOM     19  C   UNL     1      22.429  29.005  30.848  1.00  0.00     0.087 C 
ENDBRANCH  16  17
ENDBRANCH  15  16
ENDBRANCH  13  15
ENDBRANCH  11  12
ENDBRANCH   1  11
TORSDOF 9
ENDMDL
MODEL 2
REMARK VINA RESULT:    -4.467      2.236      5.711
REMARK INTER + INTRA:          -8.794
REMARK INTER:                  -7.054
REMARK INTRA:                  -1.740
REMARK UNBOUND:                -1.976
REMARK SMILES CC(=O)CCC=C(C)CCC=C(C)CCC=C(C)C
REMARK SMILES IDX 10 1 11 2 12 3 13 4 14 5 15 6 16 7 18 8 17 9 19 10 9 11 7 12
REMARK SMILES IDX 6 13 8 14 5 15 4 16 2 17 3 18 1 19
REMARK H PARENT
REMARK Flexibility Score: inf
ROOT
ATOM      1  C   UNL     1      27.621  33.341  32.241  1.00  0.00     0.032 C 
ENDROOT
BRANCH   1   2
ATOM      2  C   UNL     1      26.451  32.392  32.179  1.00  0.00    -0.028 C 
ATOM      3  C   UNL     1      26.562  31.045  32.135  1.00  0.00    -0.077 C 
ATOM      4  C   UNL     1      27.903  30.354  32.116  1.00  0.00     0.039 C 
BRANCH   3   5
ATOM      5  C   UNL     1      25.308  30.200  32.159  1.00  0.00     0.034 C 
BRANCH   5   6
ATOM      6  C   UNL     1      24.524  30.370  30.854  1.00  0.00     0.032 C 
BRANCH   6   7
ATOM      7  C   UNL     1      25.252  29.743  29.690  1.00  0.00    -0.028 C 
ATOM      8  C   UNL     1      23.311  28.260  29.162  1.00  0.00     0.039 C 
ATOM      9  C   UNL     1      24.707  28.782  28.911  1.00  0.00    -0.080 C 
ATOM     10  C   UNL     1      25.520  28.225  27.773  1.00  0.00     0.039 C 
ENDBRANCH   6   7
ENDBRANCH   5   6
ENDBRANCH   3   5
ENDBRANCH   1   2
BRANCH   1  11
ATOM     11  C   UNL     1      27.933  33.903  30.850  1.00  0.00     0.034 C 
BRANCH  11  12
ATOM     12  C   UNL     1      29.309  33.473  30.390  1.00  0.00    -0.077 C 
ATOM     13  C   UNL     1      29.602  33.524  29.071  1.00  0.00    -0.028 C 
ATOM     14  C   UNL     1      30.315  33.011  31.417  1.00  0.00     0.039 C 
BRANCH  13  15
ATOM     15  C   UNL     1      30.903  33.063  28.456  1.00  0.00     0.035 C 
BRANCH  15  16
ATOM     16  C   UNL     1      30.683  31.831  27.573  1.00  0.00     0.079 C 
BRANCH  16  17
ATOM     17  C   UNL     1      30.061  30.700  28.348  1.00  0.00     0.130 C 
ATOM     18  O   UNL     1      30.730  30.097  29.174  1.00  0.00    -0.300 OA
ATOM     19  C   UNL     1      28.628  30.310  28.141  1.00  0.00     0.087 C 
ENDBRANCH  16  17
ENDBRANCH  15  16
ENDBRANCH  13  15
ENDBRANCH  11  12
ENDBRANCH   1  11
TORSDOF 9
ENDMDL
MODEL 3
REMARK VINA RESULT:    -4.446      2.869      6.562
REMARK INTER + INTRA:          -8.761
REMARK INTER:                  -7.013
REMARK INTRA:                  -1.747
REMARK UNBOUND:                -1.976
REMARK SMILES CC(=O)CCC=C(C)CCC=C(C)CCC=C(C)C
REMARK SMILES IDX 10 1 11 2 12 3 13 4 14 5 15 6 16 7 18 8 17 9 19 10 9 11 7 12
REMARK SMILES IDX 6 13 8 14 5 15 4 16 2 17 3 18 1 19
REMARK H PARENT
REMARK Flexibility Score: inf
ROOT
ATOM      1  C   UNL     1      26.190  33.561  32.104  1.00  0.00     0.032 C 
ENDROOT
BRANCH   1   2
ATOM      2  C   UNL     1      24.973  32.672  32.135  1.00  0.00    -0.028 C 
ATOM      3  C   UNL     1      24.082  32.561  31.125  1.00  0.00    -0.077 C 
ATOM      4  C   UNL     1      24.216  33.359  29.850  1.00  0.00     0.039 C 
BRANCH   3   5
ATOM      5  C   UNL     1      22.946  31.570  31.247  1.00  0.00     0.034 C 
BRANCH   5   6
ATOM      6  C   UNL     1      23.486  30.179  31.594  1.00  0.00     0.032 C 
BRANCH   6   7
ATOM      7  C   UNL     1      24.372  29.644  30.496  1.00  0.00    -0.028 C 
ATOM      8  C   UNL     1      22.468  28.420  29.436  1.00  0.00     0.039 C 
ATOM      9  C   UNL     1      23.917  28.844  29.506  1.00  0.00    -0.080 C 
ATOM     10  C   UNL     1      24.886  28.368  28.457  1.00  0.00     0.039 C 
ENDBRANCH   6   7
ENDBRANCH   5   6
ENDBRANCH   3   5
ENDBRANCH   1   2
BRANCH   1  11
ATOM     11  C   UNL     1      27.467  32.721  31.990  1.00  0.00     0.034 C 
BRANCH  11  12
ATOM     12  C   UNL     1      27.875  32.551  30.542  1.00  0.00    -0.077 C 
ATOM     13  C   UNL     1      28.577  33.539  29.942  1.00  0.00    -0.028 C 
ATOM     14  C   UNL     1      27.494  31.283  29.817  1.00  0.00     0.039 C 
BRANCH  13  15
ATOM     15  C   UNL     1      28.991  33.543  28.489  1.00  0.00     0.035 C 
BRANCH  15  16
ATOM     16  C   UNL     1      30.510  33.684  28.356  1.00  0.00     0.079 C 
BRANCH  16  17
ATOM     17  C   UNL     1      31.166  32.357  28.077  1.00  0.00     0.130 C 
ATOM     18  O   UNL     1      32.380  32.255  28.171  1.00  0.00    -0.300 OA
ATOM     19  C   UNL     1      30.355  31.152  27.704  1.00  0.00     0.087 C 
ENDBRANCH  16  17
ENDBRANCH  15  16
ENDBRANCH  13  15
ENDBRANCH  11  12
ENDBRANCH   1  11
TORSDOF 9
ENDMDL
MODEL 4
REMARK VINA RESULT:    -4.410      5.390      9.586
REMARK INTER + INTRA:          -8.706
REMARK INTER:                  -6.711
REMARK INTRA:                  -1.995
REMARK UNBOUND:                -1.976
REMARK SMILES CC(=O)CCC=C(C)CCC=C(C)CCC=C(C)C
REMARK SMILES IDX 10 1 11 2 12 3 13 4 14 5 15 6 16 7 18 8 17 9 19 10 9 11 7 12
REMARK SMILES IDX 6 13 8 14 5 15 4 16 2 17 3 18 1 19
REMARK H PARENT
REMARK Flexibility Score: inf
ROOT
ATOM      1  C   UNL     1      20.793  33.077  29.859  1.00  0.00     0.032 C 
ENDROOT
BRANCH   1   2
ATOM      2  C   UNL     1      19.362  33.265  29.423  1.00  0.00    -0.028 C 
ATOM      3  C   UNL     1      18.525  32.257  29.092  1.00  0.00    -0.077 C 
ATOM      4  C   UNL     1      18.969  30.814  29.102  1.00  0.00     0.039 C 
BRANCH   3   5
ATOM      5  C   UNL     1      17.086  32.572  28.751  1.00  0.00     0.034 C 
BRANCH   5   6
ATOM      6  C   UNL     1      16.312  32.963  30.014  1.00  0.00     0.032 C 
BRANCH   6   7
ATOM      7  C   UNL     1      15.669  31.759  30.658  1.00  0.00    -0.028 C 
ATOM      8  C   UNL     1      17.313  31.781  32.542  1.00  0.00     0.039 C 
ATOM      9  C   UNL     1      16.116  31.215  31.812  1.00  0.00    -0.080 C 
ATOM     10  C   UNL     1      15.399  30.014  32.371  1.00  0.00     0.039 C 
ENDBRANCH   6   7
ENDBRANCH   5   6
ENDBRANCH   3   5
ENDBRANCH   1   2
BRANCH   1  11
ATOM     11  C   UNL     1      20.866  32.816  31.367  1.00  0.00     0.034 C 
BRANCH  11  12
ATOM     12  C   UNL     1      21.505  31.473  31.653  1.00  0.00    -0.077 C 
ATOM     13  C   UNL     1      22.675  31.165  31.049  1.00  0.00    -0.028 C 
ATOM     14  C   UNL     1      20.822  30.524  32.609  1.00  0.00     0.039 C 
BRANCH  13  15
ATOM     15  C   UNL     1      23.393  29.842  31.179  1.00  0.00     0.035 C 
BRANCH  15  16
ATOM     16  C   UNL     1      23.887  29.353  29.815  1.00  0.00     0.079 C 
BRANCH  16  17
ATOM     17  C   UNL     1      23.072  28.188  29.317  1.00  0.00     0.130 C 
ATOM     18  O   UNL     1      23.573  27.396  28.533  1.00  0.00    -0.300 OA
ATOM     19  C   UNL     1      21.663  27.969  29.782  1.00  0.00     0.087 C 
ENDBRANCH  16  17
ENDBRANCH  15  16
ENDBRANCH  13  15
ENDBRANCH  11  12
ENDBRANCH   1  11
TORSDOF 9
ENDMDL
MODEL 5
REMARK VINA RESULT:    -4.354      4.679      8.655
REMARK INTER + INTRA:          -8.622
REMARK INTER:                  -7.010
REMARK INTRA:                  -1.612
REMARK UNBOUND:                -1.976
REMARK SMILES CC(=O)CCC=C(C)CCC=C(C)CCC=C(C)C
REMARK SMILES IDX 10 1 11 2 12 3 13 4 14 5 15 6 16 7 18 8 17 9 19 10 9 11 7 12
REMARK SMILES IDX 6 13 8 14 5 15 4 16 2 17 3 18 1 19
REMARK H PARENT
REMARK Flexibility Score: inf
ROOT
ATOM      1  C   UNL     1      17.890  30.174  29.437  1.00  0.00     0.032 C 
ENDROOT
BRANCH   1   2
ATOM      2  C   UNL     1      18.546  31.531  29.436  1.00  0.00    -0.028 C 
ATOM      3  C   UNL     1      17.878  32.703  29.370  1.00  0.00    -0.077 C 
ATOM      4  C   UNL     1      16.373  32.760  29.259  1.00  0.00     0.039 C 
BRANCH   3   5
ATOM      5  C   UNL     1      18.649  34.001  29.462  1.00  0.00     0.034 C 
BRANCH   5   6
ATOM      6  C   UNL     1      19.733  33.902  30.540  1.00  0.00     0.032 C 
BRANCH   6   7
ATOM      7  C   UNL     1      21.112  34.071  29.950  1.00  0.00    -0.028 C 
ATOM      8  C   UNL     1      22.126  32.559  31.663  1.00  0.00     0.039 C 
ATOM      9  C   UNL     1      22.208  33.461  30.453  1.00  0.00    -0.080 C 
ATOM     10  C   UNL     1      23.537  33.695  29.784  1.00  0.00     0.039 C 
ENDBRANCH   6   7
ENDBRANCH   5   6
ENDBRANCH   3   5
ENDBRANCH   1   2
BRANCH   1  11
ATOM     11  C   UNL     1      18.006  29.520  30.818  1.00  0.00     0.034 C 
BRANCH  11  12
ATOM     12  C   UNL     1      19.448  29.477  31.276  1.00  0.00    -0.077 C 
ATOM     13  C   UNL     1      20.382  28.969  30.441  1.00  0.00    -0.028 C 
ATOM     14  C   UNL     1      19.801  30.010  32.644  1.00  0.00     0.039 C 
BRANCH  13  15
ATOM     15  C   UNL     1      21.844  28.795  30.782  1.00  0.00     0.035 C 
BRANCH  15  16
ATOM     16  C   UNL     1      22.665  28.490  29.526  1.00  0.00     0.079 C 
BRANCH  16  17
ATOM     17  C   UNL     1      24.129  28.769  29.741  1.00  0.00     0.130 C 
ATOM     18  O   UNL     1      24.960  27.985  29.309  1.00  0.00    -0.300 OA
ATOM     19  C   UNL     1      24.589  30.003  30.459  1.00  0.00     0.087 C 
ENDBRANCH  16  17
ENDBRANCH  15  16
ENDBRANCH  13  15
ENDBRANCH  11  12
ENDBRANCH   1  11
TORSDOF 9
ENDMDL
MODEL 6
REMARK VINA RESULT:    -4.340      3.607      8.397
REMARK INTER + INTRA:          -8.599
REMARK INTER:                  -7.670
REMARK INTRA:                  -0.929
REMARK UNBOUND:                -1.976
REMARK SMILES CC(=O)CCC=C(C)CCC=C(C)CCC=C(C)C
REMARK SMILES IDX 10 1 11 2 12 3 13 4 14 5 15 6 16 7 18 8 17 9 19 10 9 11 7 12
REMARK SMILES IDX 6 13 8 14 5 15 4 16 2 17 3 18 1 19
REMARK H PARENT
REMARK Flexibility Score: inf
ROOT
ATOM      1  C   UNL     1      24.485  29.638  30.707  1.00  0.00     0.032 C 
ENDROOT
BRANCH   1   2
ATOM      2  C   UNL     1      23.133  30.303  30.764  1.00  0.00    -0.028 C 
ATOM      3  C   UNL     1      21.992  29.756  30.292  1.00  0.00    -0.077 C 
ATOM      4  C   UNL     1      21.972  28.404  29.620  1.00  0.00     0.039 C 
BRANCH   3   5
ATOM      5  C   UNL     1      20.684  30.490  30.485  1.00  0.00     0.034 C 
BRANCH   5   6
ATOM      6  C   UNL     1      20.012  30.749  29.133  1.00  0.00     0.032 C 
BRANCH   6   7
ATOM      7  C   UNL     1      18.509  30.765  29.261  1.00  0.00    -0.028 C 
ATOM      8  C   UNL     1      18.447  33.263  29.267  1.00  0.00     0.039 C 
ATOM      9  C   UNL     1      17.786  31.905  29.320  1.00  0.00    -0.080 C 
ATOM     10  C   UNL     1      16.288  31.807  29.445  1.00  0.00     0.039 C 
ENDBRANCH   6   7
ENDBRANCH   5   6
ENDBRANCH   3   5
ENDBRANCH   1   2
BRANCH   1  11
ATOM     11  C   UNL     1      25.315  29.998  31.944  1.00  0.00     0.034 C 
BRANCH  11  12
ATOM     12  C   UNL     1      26.633  30.628  31.545  1.00  0.00    -0.077 C 
ATOM     13  C   UNL     1      26.733  31.220  30.333  1.00  0.00    -0.028 C 
ATOM     14  C   UNL     1      27.790  30.585  32.514  1.00  0.00     0.039 C 
BRANCH  13  15
ATOM     15  C   UNL     1      27.997  31.826  29.769  1.00  0.00     0.035 C 
BRANCH  15  16
ATOM     16  C   UNL     1      28.546  30.972  28.623  1.00  0.00     0.079 C 
BRANCH  16  17
ATOM     17  C   UNL     1      30.020  30.710  28.786  1.00  0.00     0.130 C 
ATOM     18  O   UNL     1      30.744  30.711  27.801  1.00  0.00    -0.300 OA
ATOM     19  C   UNL     1      30.623  30.468  30.138  1.00  0.00     0.087 C 
ENDBRANCH  16  17
ENDBRANCH  15  16
ENDBRANCH  13  15
ENDBRANCH  11  12
ENDBRANCH   1  11
TORSDOF 9
ENDMDL
MODEL 7
REMARK VINA RESULT:    -4.322      3.143      5.357
REMARK INTER + INTRA:          -8.572
REMARK INTER:                  -7.008
REMARK INTRA:                  -1.565
REMARK UNBOUND:                -1.976
REMARK SMILES CC(=O)CCC=C(C)CCC=C(C)CCC=C(C)C
REMARK SMILES IDX 10 1 11 2 12 3 13 4 14 5 15 6 16 7 18 8 17 9 19 10 9 11 7 12
REMARK SMILES IDX 6 13 8 14 5 15 4 16 2 17 3 18 1 19
REMARK H PARENT
REMARK Flexibility Score: inf
ROOT
ATOM      1  C   UNL     1      24.086  29.365  29.500  1.00  0.00     0.032 C 
ENDROOT
BRANCH   1   2
ATOM      2  C   UNL     1      25.189  29.662  30.484  1.00  0.00    -0.028 C 
ATOM      3  C   UNL     1      25.555  30.905  30.868  1.00  0.00    -0.077 C 
ATOM      4  C   UNL     1      24.894  32.142  30.310  1.00  0.00     0.039 C 
BRANCH   3   5
ATOM      5  C   UNL     1      26.623  31.067  31.927  1.00  0.00     0.034 C 
BRANCH   5   6
ATOM      6  C   UNL     1      28.015  30.899  31.311  1.00  0.00     0.032 C 
BRANCH   6   7
ATOM      7  C   UNL     1      28.450  32.150  30.588  1.00  0.00    -0.028 C 
ATOM      8  C   UNL     1      28.519  30.961  28.391  1.00  0.00     0.039 C 
ATOM      9  C   UNL     1      28.680  32.189  29.256  1.00  0.00    -0.080 C 
ATOM     10  C   UNL     1      29.107  33.492  28.633  1.00  0.00     0.039 C 
ENDBRANCH   6   7
ENDBRANCH   5   6
ENDBRANCH   3   5
ENDBRANCH   1   2
BRANCH   1  11
ATOM     11  C   UNL     1      22.833  28.868  30.230  1.00  0.00     0.034 C 
BRANCH  11  12
ATOM     12  C   UNL     1      21.909  30.020  30.562  1.00  0.00    -0.077 C 
ATOM     13  C   UNL     1      21.144  30.548  29.579  1.00  0.00    -0.028 C 
ATOM     14  C   UNL     1      21.861  30.538  31.979  1.00  0.00     0.039 C 
BRANCH  13  15
ATOM     15  C   UNL     1      20.230  31.740  29.741  1.00  0.00     0.035 C 
BRANCH  15  16
ATOM     16  C   UNL     1      18.800  31.392  29.317  1.00  0.00     0.079 C 
BRANCH  16  17
ATOM     17  C   UNL     1      17.975  32.630  29.088  1.00  0.00     0.130 C 
ATOM     18  O   UNL     1      18.535  33.700  28.903  1.00  0.00    -0.300 OA
ATOM     19  C   UNL     1      16.476  32.573  29.062  1.00  0.00     0.087 C 
ENDBRANCH  16  17
ENDBRANCH  15  16
ENDBRANCH  13  15
ENDBRANCH  11  12
ENDBRANCH   1  11
TORSDOF 9
ENDMDL
MODEL 8
REMARK VINA RESULT:    -4.295      5.011      7.357
REMARK INTER + INTRA:          -8.531
REMARK INTER:                  -7.182
REMARK INTRA:                  -1.349
REMARK UNBOUND:                -1.976
REMARK SMILES CC(=O)CCC=C(C)CCC=C(C)CCC=C(C)C
REMARK SMILES IDX 10 1 11 2 12 3 13 4 14 5 15 6 16 7 18 8 17 9 19 10 9 11 7 12
REMARK SMILES IDX 6 13 8 14 5 15 4 16 2 17 3 18 1 19
REMARK H PARENT
REMARK Flexibility Score: inf
ROOT
ATOM      1  C   UNL     1      21.208  34.037  29.823  1.00  0.00     0.032 C 
ENDROOT
BRANCH   1   2
ATOM      2  C   UNL     1      22.664  33.654  29.751  1.00  0.00    -0.028 C 
ATOM      3  C   UNL     1      23.308  32.922  30.687  1.00  0.00    -0.077 C 
ATOM      4  C   UNL     1      22.615  32.433  31.936  1.00  0.00     0.039 C 
BRANCH   3   5
ATOM      5  C   UNL     1      24.751  32.533  30.456  1.00  0.00     0.034 C 
BRANCH   5   6
ATOM      6  C   UNL     1      25.054  31.186  31.121  1.00  0.00     0.032 C 
BRANCH   6   7
ATOM      7  C   UNL     1      25.376  30.128  30.094  1.00  0.00    -0.028 C 
ATOM      8  C   UNL     1      23.089  29.134  30.274  1.00  0.00     0.039 C 
ATOM      9  C   UNL     1      24.486  29.189  29.699  1.00  0.00    -0.080 C 
ATOM     10  C   UNL     1      24.910  28.180  28.665  1.00  0.00     0.039 C 
ENDBRANCH   6   7
ENDBRANCH   5   6
ENDBRANCH   3   5
ENDBRANCH   1   2
BRANCH   1  11
ATOM     11  C   UNL     1      20.322  32.880  29.349  1.00  0.00     0.034 C 
BRANCH  11  12
ATOM     12  C   UNL     1      18.885  33.089  29.778  1.00  0.00    -0.077 C 
ATOM     13  C   UNL     1      17.893  32.675  28.958  1.00  0.00    -0.028 C 
ATOM     14  C   UNL     1      18.605  33.742  31.110  1.00  0.00     0.039 C 
BRANCH  13  15
ATOM     15  C   UNL     1      16.418  32.878  29.217  1.00  0.00     0.035 C 
BRANCH  15  16
ATOM     16  C   UNL     1      15.762  31.574  29.679  1.00  0.00     0.079 C 
BRANCH  16  17
ATOM     17  C   UNL     1      15.636  31.520  31.179  1.00  0.00     0.130 C 
ATOM     18  O   UNL     1      15.147  32.468  31.776  1.00  0.00    -0.300 OA
ATOM     19  C   UNL     1      16.081  30.316  31.955  1.00  0.00     0.087 C 
ENDBRANCH  16  17
ENDBRANCH  15  16
ENDBRANCH  13  15
ENDBRANCH  11  12
ENDBRANCH   1  11
TORSDOF 9
ENDMDL
MODEL 9
REMARK VINA RESULT:    -4.274      2.810      7.833
REMARK INTER + INTRA:          -8.499
REMARK INTER:                  -7.438
REMARK INTRA:                  -1.060
REMARK UNBOUND:                -1.976
REMARK SMILES CC(=O)CCC=C(C)CCC=C(C)CCC=C(C)C
REMARK SMILES IDX 10 1 11 2 12 3 13 4 14 5 15 6 16 7 18 8 17 9 19 10 9 11 7 12
REMARK SMILES IDX 6 13 8 14 5 15 4 16 2 17 3 18 1 19
REMARK H PARENT
REMARK Flexibility Score: inf
ROOT
ATOM      1  C   UNL     1      25.739  30.037  30.916  1.00  0.00     0.032 C 
ENDROOT
BRANCH   1   2
ATOM      2  C   UNL     1      24.340  29.572  30.601  1.00  0.00    -0.028 C 
ATOM      3  C   UNL     1      24.002  28.849  29.510  1.00  0.00    -0.077 C 
ATOM      4  C   UNL     1      25.019  28.456  28.466  1.00  0.00     0.039 C 
BRANCH   3   5
ATOM      5  C   UNL     1      22.576  28.372  29.352  1.00  0.00     0.034 C 
BRANCH   5   6
ATOM      6  C   UNL     1      21.669  29.050  30.384  1.00  0.00     0.032 C 
BRANCH   6   7
ATOM      7  C   UNL     1      20.715  30.016  29.725  1.00  0.00    -0.028 C 
ATOM      8  C   UNL     1      18.742  28.973  30.850  1.00  0.00     0.039 C 
ATOM      9  C   UNL     1      19.380  29.991  29.933  1.00  0.00    -0.080 C 
ATOM     10  C   UNL     1      18.518  31.005  29.228  1.00  0.00     0.039 C 
ENDBRANCH   6   7
ENDBRANCH   5   6
ENDBRANCH   3   5
ENDBRANCH   1   2
BRANCH   1  11
ATOM     11  C   UNL     1      25.890  31.532  30.613  1.00  0.00     0.034 C 
BRANCH  11  12
ATOM     12  C   UNL     1      27.350  31.915  30.497  1.00  0.00    -0.077 C 
ATOM     13  C   UNL     1      27.679  33.034  29.813  1.00  0.00    -0.028 C 
ATOM     14  C   UNL     1      28.392  31.042  31.154  1.00  0.00     0.039 C 
BRANCH  13  15
ATOM     15  C   UNL     1      29.091  33.504  29.553  1.00  0.00     0.035 C 
BRANCH  15  16
ATOM     16  C   UNL     1      29.606  32.968  28.215  1.00  0.00     0.079 C 
BRANCH  16  17
ATOM     17  C   UNL     1      30.789  32.055  28.404  1.00  0.00     0.130 C 
ATOM     18  O   UNL     1      31.016  31.186  27.575  1.00  0.00    -0.300 OA
ATOM     19  C   UNL     1      31.707  32.204  29.580  1.00  0.00     0.087 C 
ENDBRANCH  16  17
ENDBRANCH  15  16
ENDBRANCH  13  15
ENDBRANCH  11  12
ENDBRANCH   1  11
TORSDOF 9
ENDMDL
