MODEL 1
REMARK VINA RESULT:    -4.211      0.000      0.000
REMARK INTER + INTRA:          -8.667
REMARK INTER:                  -7.658
REMARK INTRA:                  -1.009
REMARK UNBOUND:                -1.009
REMARK SMILES CCCCCCCCCCCCCCCC(=O)[O-]
REMARK SMILES IDX 9 1 10 2 11 3 12 4 13 5 14 6 15 7 16 8 17 9 18 10 8 11 7 12
REMARK SMILES IDX 6 13 5 14 4 15 3 16 2 17 1 18
REMARK H PARENT
REMARK Flexibility Score: inf
ROOT
ATOM      1  C   UNL     1      33.373  48.867  25.188  1.00  0.00     0.000 C 
ENDROOT
BRANCH   1   2
ATOM      2  C   UNL     1      34.293  47.687  25.545  1.00  0.00     0.000 C 
BRANCH   2   3
ATOM      3  C   UNL     1      33.606  46.309  25.441  1.00  0.00     0.000 C 
BRANCH   3   4
ATOM      4  C   UNL     1      34.487  45.172  25.987  1.00  0.00     0.000 C 
BRANCH   4   5
ATOM      5  C   UNL     1      35.985  45.543  26.000  1.00  0.00     0.000 C 
BRANCH   5   6
ATOM      6  C   UNL     1      36.925  44.327  25.920  1.00  0.00     0.006 C 
BRANCH   6   7
ATOM      7  C   UNL     1      36.775  43.540  24.613  1.00  0.00     0.053 C 
BRANCH   7   8
ATOM      8  C   UNL     1      37.706  42.369  24.598  1.00  0.00     0.041 C 
ATOM      9  O   UNL     1      38.397  42.096  25.615  1.00  0.00    -0.550 OA
ATOM     10  O   UNL     1      37.847  41.607  23.446  1.00  0.00    -0.550 OA
ENDBRANCH   7   8
ENDBRANCH   6   7
ENDBRANCH   5   6
ENDBRANCH   4   5
ENDBRANCH   3   4
ENDBRANCH   2   3
ENDBRANCH   1   2
BRANCH   1  11
ATOM     11  C   UNL     1      34.134  50.189  25.017  1.00  0.00     0.000 C 
BRANCH  11  12
ATOM     12  C   UNL     1      33.704  51.214  26.073  1.00  0.00    -0.000 C 
BRANCH  12  13
ATOM     13  C   UNL     1      33.466  52.591  25.433  1.00  0.00    -0.000 C 
BRANCH  13  14
ATOM     14  C   UNL     1      32.275  53.337  26.055  1.00  0.00    -0.000 C 
BRANCH  14  15
ATOM     15  C   UNL     1      31.165  53.631  25.031  1.00  0.00    -0.000 C 
BRANCH  15  16
ATOM     16  C   UNL     1      29.846  52.918  25.372  1.00  0.00    -0.000 C 
BRANCH  16  17
ATOM     17  C   UNL     1      29.827  51.454  24.907  1.00  0.00    -0.003 C 
ATOM     18  C   UNL     1      30.539  51.294  23.567  1.00  0.00     0.004 C 
ENDBRANCH  16  17
ENDBRANCH  15  16
ENDBRANCH  14  15
ENDBRANCH  13  14
ENDBRANCH  12  13
ENDBRANCH  11  12
ENDBRANCH   1  11
TORSDOF 14
ENDMDL
MODEL 2
REMARK VINA RESULT:    -3.925     17.617     19.143
REMARK INTER + INTRA:          -8.147
REMARK INTER:                  -6.011
REMARK INTRA:                  -2.136
REMARK UNBOUND:                -1.009
REMARK SMILES CCCCCCCCCCCCCCCC(=O)[O-]
REMARK SMILES IDX 9 1 10 2 11 3 12 4 13 5 14 6 15 7 16 8 17 9 18 10 8 11 7 12
REMARK SMILES IDX 6 13 5 14 4 15 3 16 2 17 1 18
REMARK H PARENT
REMARK Flexibility Score: inf
ROOT
ATOM      1  C   UNL     1      31.334  45.944   8.186  1.00  0.00     0.000 C 
ENDROOT
BRANCH   1   2
ATOM      2  C   UNL     1      31.097  47.414   8.574  1.00  0.00     0.000 C 
BRANCH   2   3
ATOM      3  C   UNL     1      31.988  48.412   7.805  1.00  0.00     0.000 C 
BRANCH   3   4
ATOM      4  C   UNL     1      31.682  48.429   6.298  1.00  0.00     0.000 C 
BRANCH   4   5
ATOM      5  C   UNL     1      30.603  49.469   5.928  1.00  0.00     0.000 C 
BRANCH   5   6
ATOM      6  C   UNL     1      30.581  50.696   6.857  1.00  0.00     0.006 C 
BRANCH   6   7
ATOM      7  C   UNL     1      29.202  51.359   6.941  1.00  0.00     0.053 C 
BRANCH   7   8
ATOM      8  C   UNL     1      28.771  51.491   8.368  1.00  0.00     0.041 C 
ATOM      9  O   UNL     1      29.379  50.861   9.274  1.00  0.00    -0.550 OA
ATOM     10  O   UNL     1      27.669  52.271   8.692  1.00  0.00    -0.550 OA
ENDBRANCH   7   8
ENDBRANCH   6   7
ENDBRANCH   5   6
ENDBRANCH   4   5
ENDBRANCH   3   4
ENDBRANCH   2   3
ENDBRANCH   1   2
BRANCH   1  11
ATOM     11  C   UNL     1      30.230  45.379   7.282  1.00  0.00     0.000 C 
BRANCH  11  12
ATOM     12  C   UNL     1      28.839  45.738   7.819  1.00  0.00    -0.000 C 
BRANCH  12  13
ATOM     13  C   UNL     1      28.075  46.613   6.815  1.00  0.00    -0.000 C 
BRANCH  13  14
ATOM     14  C   UNL     1      27.624  47.953   7.417  1.00  0.00    -0.000 C 
BRANCH  14  15
ATOM     15  C   UNL     1      27.390  47.868   8.935  1.00  0.00    -0.000 C 
BRANCH  15  16
ATOM     16  C   UNL     1      25.897  47.803   9.299  1.00  0.00    -0.000 C 
BRANCH  16  17
ATOM     17  C   UNL     1      25.578  46.674  10.290  1.00  0.00    -0.003 C 
ATOM     18  C   UNL     1      25.761  45.305   9.641  1.00  0.00     0.004 C 
ENDBRANCH  16  17
ENDBRANCH  15  16
ENDBRANCH  14  15
ENDBRANCH  13  14
ENDBRANCH  12  13
ENDBRANCH  11  12
ENDBRANCH   1  11
TORSDOF 14
ENDMDL
MODEL 3
REMARK VINA RESULT:    -3.918     17.325     18.776
REMARK INTER + INTRA:          -8.133
REMARK INTER:                  -6.931
REMARK INTRA:                  -1.202
REMARK UNBOUND:                -1.009
REMARK SMILES CCCCCCCCCCCCCCCC(=O)[O-]
REMARK SMILES IDX 9 1 10 2 11 3 12 4 13 5 14 6 15 7 16 8 17 9 18 10 8 11 7 12
REMARK SMILES IDX 6 13 5 14 4 15 3 16 2 17 1 18
REMARK H PARENT
REMARK Flexibility Score: inf
ROOT
ATOM      1  C   UNL     1      31.458  46.824   8.658  1.00  0.00     0.000 C 
ENDROOT
BRANCH   1   2
ATOM      2  C   UNL     1      29.928  46.719   8.528  1.00  0.00     0.000 C 
BRANCH   2   3
ATOM      3  C   UNL     1      29.160  47.753   9.378  1.00  0.00     0.000 C 
BRANCH   3   4
ATOM      4  C   UNL     1      27.938  48.326   8.639  1.00  0.00     0.000 C 
BRANCH   4   5
ATOM      5  C   UNL     1      26.605  47.904   9.292  1.00  0.00     0.000 C 
BRANCH   5   6
ATOM      6  C   UNL     1      25.888  46.760   8.552  1.00  0.00     0.006 C 
BRANCH   6   7
ATOM      7  C   UNL     1      25.975  45.421   9.293  1.00  0.00     0.053 C 
BRANCH   7   8
ATOM      8  C   UNL     1      26.724  44.418   8.474  1.00  0.00     0.041 C 
ATOM      9  O   UNL     1      26.871  43.240   8.894  1.00  0.00    -0.550 OA
ATOM     10  O   UNL     1      27.301  44.797   7.269  1.00  0.00    -0.550 OA
ENDBRANCH   7   8
ENDBRANCH   6   7
ENDBRANCH   5   6
ENDBRANCH   4   5
ENDBRANCH   3   4
ENDBRANCH   2   3
ENDBRANCH   1   2
BRANCH   1  11
ATOM     11  C   UNL     1      32.041  48.037   7.920  1.00  0.00     0.000 C 
BRANCH  11  12
ATOM     12  C   UNL     1      31.537  48.096   6.473  1.00  0.00    -0.000 C 
BRANCH  12  13
ATOM     13  C   UNL     1      31.381  49.552   6.008  1.00  0.00    -0.000 C 
BRANCH  13  14
ATOM     14  C   UNL     1      31.355  50.550   7.177  1.00  0.00    -0.000 C 
BRANCH  14  15
ATOM     15  C   UNL     1      32.605  51.448   7.212  1.00  0.00    -0.000 C 
BRANCH  15  16
ATOM     16  C   UNL     1      32.388  52.788   6.489  1.00  0.00    -0.000 C 
BRANCH  16  17
ATOM     17  C   UNL     1      33.667  53.636   6.418  1.00  0.00    -0.003 C 
ATOM     18  C   UNL     1      33.699  54.674   7.537  1.00  0.00     0.004 C 
ENDBRANCH  16  17
ENDBRANCH  15  16
ENDBRANCH  14  15
ENDBRANCH  13  14
ENDBRANCH  12  13
ENDBRANCH  11  12
ENDBRANCH   1  11
TORSDOF 14
ENDMDL
MODEL 4
REMARK VINA RESULT:    -3.896     17.602     19.421
REMARK INTER + INTRA:          -8.094
REMARK INTER:                  -6.152
REMARK INTRA:                  -1.942
REMARK UNBOUND:                -1.009
REMARK SMILES CCCCCCCCCCCCCCCC(=O)[O-]
REMARK SMILES IDX 9 1 10 2 11 3 12 4 13 5 14 6 15 7 16 8 17 9 18 10 8 11 7 12
REMARK SMILES IDX 6 13 5 14 4 15 3 16 2 17 1 18
REMARK H PARENT
REMARK Flexibility Score: inf
ROOT
ATOM      1  C   UNL     1      31.537  48.148   6.722  1.00  0.00     0.000 C 
ENDROOT
BRANCH   1   2
ATOM      2  C   UNL     1      31.794  49.664   6.656  1.00  0.00     0.000 C 
BRANCH   2   3
ATOM      3  C   UNL     1      31.437  50.412   7.957  1.00  0.00     0.000 C 
BRANCH   3   4
ATOM      4  C   UNL     1      30.010  50.986   7.930  1.00  0.00     0.000 C 
BRANCH   4   5
ATOM      5  C   UNL     1      29.059  50.245   8.894  1.00  0.00     0.000 C 
BRANCH   5   6
ATOM      6  C   UNL     1      28.248  49.122   8.223  1.00  0.00     0.006 C 
BRANCH   6   7
ATOM      7  C   UNL     1      27.859  48.002   9.196  1.00  0.00     0.053 C 
BRANCH   7   8
ATOM      8  C   UNL     1      26.400  47.693   9.080  1.00  0.00     0.041 C 
ATOM      9  O   UNL     1      25.772  47.219  10.063  1.00  0.00    -0.550 OA
ATOM     10  O   UNL     1      25.743  47.884   7.871  1.00  0.00    -0.550 OA
ENDBRANCH   7   8
ENDBRANCH   6   7
ENDBRANCH   5   6
ENDBRANCH   4   5
ENDBRANCH   3   4
ENDBRANCH   2   3
ENDBRANCH   1   2
BRANCH   1  11
ATOM     11  C   UNL     1      31.724  47.570   8.132  1.00  0.00     0.000 C 
BRANCH  11  12
ATOM     12  C   UNL     1      31.110  46.169   8.240  1.00  0.00    -0.000 C 
BRANCH  12  13
ATOM     13  C   UNL     1      30.095  45.928   7.112  1.00  0.00    -0.000 C 
BRANCH  13  14
ATOM     14  C   UNL     1      30.066  44.465   6.641  1.00  0.00    -0.000 C 
BRANCH  14  15
ATOM     15  C   UNL     1      28.637  43.901   6.561  1.00  0.00    -0.000 C 
BRANCH  15  16
ATOM     16  C   UNL     1      27.629  44.730   7.375  1.00  0.00    -0.000 C 
BRANCH  16  17
ATOM     17  C   UNL     1      26.835  43.878   8.377  1.00  0.00    -0.003 C 
ATOM     18  C   UNL     1      27.104  42.390   8.167  1.00  0.00     0.004 C 
ENDBRANCH  16  17
ENDBRANCH  15  16
ENDBRANCH  14  15
ENDBRANCH  13  14
ENDBRANCH  12  13
ENDBRANCH  11  12
ENDBRANCH   1  11
TORSDOF 14
ENDMDL
MODEL 5
REMARK VINA RESULT:    -3.881     17.231     18.601
REMARK INTER + INTRA:          -8.067
REMARK INTER:                  -5.836
REMARK INTRA:                  -2.231
REMARK UNBOUND:                -1.009
REMARK SMILES CCCCCCCCCCCCCCCC(=O)[O-]
REMARK SMILES IDX 9 1 10 2 11 3 12 4 13 5 14 6 15 7 16 8 17 9 18 10 8 11 7 12
REMARK SMILES IDX 6 13 5 14 4 15 3 16 2 17 1 18
REMARK H PARENT
REMARK Flexibility Score: inf
ROOT
ATOM      1  C   UNL     1      31.409  48.486   6.605  1.00  0.00     0.000 C 
ENDROOT
BRANCH   1   2
ATOM      2  C   UNL     1      30.144  47.741   7.069  1.00  0.00     0.000 C 
BRANCH   2   3
ATOM      3  C   UNL     1      30.285  47.083   8.458  1.00  0.00     0.000 C 
BRANCH   3   4
ATOM      4  C   UNL     1      29.237  47.599   9.459  1.00  0.00     0.000 C 
BRANCH   4   5
ATOM      5  C   UNL     1      27.831  47.717   8.831  1.00  0.00     0.000 C 
BRANCH   5   6
ATOM      6  C   UNL     1      26.839  46.653   9.331  1.00  0.00     0.006 C 
BRANCH   6   7
ATOM      7  C   UNL     1      26.323  45.742   8.211  1.00  0.00     0.053 C 
BRANCH   7   8
ATOM      8  C   UNL     1      27.157  44.504   8.119  1.00  0.00     0.041 C 
ATOM      9  O   UNL     1      26.864  43.489   8.805  1.00  0.00    -0.550 OA
ATOM     10  O   UNL     1      28.288  44.486   7.312  1.00  0.00    -0.550 OA
ENDBRANCH   7   8
ENDBRANCH   6   7
ENDBRANCH   5   6
ENDBRANCH   4   5
ENDBRANCH   3   4
ENDBRANCH   2   3
ENDBRANCH   1   2
BRANCH   1  11
ATOM     11  C   UNL     1      32.160  49.165   7.758  1.00  0.00     0.000 C 
BRANCH  11  12
ATOM     12  C   UNL     1      32.508  50.617   7.410  1.00  0.00    -0.000 C 
BRANCH  12  13
ATOM     13  C   UNL     1      31.642  51.124   6.248  1.00  0.00    -0.000 C 
BRANCH  13  14
ATOM     14  C   UNL     1      31.196  52.584   6.431  1.00  0.00    -0.000 C 
BRANCH  14  15
ATOM     15  C   UNL     1      29.665  52.732   6.460  1.00  0.00    -0.000 C 
BRANCH  15  16
ATOM     16  C   UNL     1      28.944  51.382   6.611  1.00  0.00    -0.000 C 
BRANCH  16  17
ATOM     17  C   UNL     1      28.216  51.247   7.956  1.00  0.00    -0.003 C 
ATOM     18  C   UNL     1      29.208  51.189   9.114  1.00  0.00     0.004 C 
ENDBRANCH  16  17
ENDBRANCH  15  16
ENDBRANCH  14  15
ENDBRANCH  13  14
ENDBRANCH  12  13
ENDBRANCH  11  12
ENDBRANCH   1  11
TORSDOF 14
ENDMDL
MODEL 6
REMARK VINA RESULT:    -3.880     17.542     19.164
REMARK INTER + INTRA:          -8.065
REMARK INTER:                  -5.780
REMARK INTRA:                  -2.285
REMARK UNBOUND:                -1.009
REMARK SMILES CCCCCCCCCCCCCCCC(=O)[O-]
REMARK SMILES IDX 9 1 10 2 11 3 12 4 13 5 14 6 15 7 16 8 17 9 18 10 8 11 7 12
REMARK SMILES IDX 6 13 5 14 4 15 3 16 2 17 1 18
REMARK H PARENT
REMARK Flexibility Score: inf
ROOT
ATOM      1  C   UNL     1      29.320  47.625   9.518  1.00  0.00     0.000 C 
ENDROOT
BRANCH   1   2
ATOM      2  C   UNL     1      29.729  46.563   8.483  1.00  0.00     0.000 C 
BRANCH   2   3
ATOM      3  C   UNL     1      31.252  46.477   8.249  1.00  0.00     0.000 C 
BRANCH   3   4
ATOM      4  C   UNL     1      31.885  47.857   8.003  1.00  0.00     0.000 C 
BRANCH   4   5
ATOM      5  C   UNL     1      31.625  48.378   6.574  1.00  0.00     0.000 C 
BRANCH   5   6
ATOM      6  C   UNL     1      31.616  49.913   6.466  1.00  0.00     0.006 C 
BRANCH   6   7
ATOM      7  C   UNL     1      31.092  50.599   7.733  1.00  0.00     0.053 C 
BRANCH   7   8
ATOM      8  C   UNL     1      30.187  51.735   7.375  1.00  0.00     0.041 C 
ATOM      9  O   UNL     1      29.020  51.788   7.846  1.00  0.00    -0.550 OA
ATOM     10  O   UNL     1      30.614  52.710   6.483  1.00  0.00    -0.550 OA
ENDBRANCH   7   8
ENDBRANCH   6   7
ENDBRANCH   5   6
ENDBRANCH   4   5
ENDBRANCH   3   4
ENDBRANCH   2   3
ENDBRANCH   1   2
BRANCH   1  11
ATOM     11  C   UNL     1      28.265  48.605   8.986  1.00  0.00     0.000 C 
BRANCH  11  12
ATOM     12  C   UNL     1      28.011  48.383   7.490  1.00  0.00    -0.000 C 
BRANCH  12  13
ATOM     13  C   UNL     1      26.541  48.019   7.233  1.00  0.00    -0.000 C 
BRANCH  13  14
ATOM     14  C   UNL     1      25.648  48.251   8.463  1.00  0.00    -0.000 C 
BRANCH  14  15
ATOM     15  C   UNL     1      24.894  46.980   8.892  1.00  0.00    -0.000 C 
BRANCH  15  16
ATOM     16  C   UNL     1      25.389  45.724   8.155  1.00  0.00    -0.000 C 
BRANCH  16  17
ATOM     17  C   UNL     1      26.374  44.895   8.993  1.00  0.00    -0.003 C 
ATOM     18  C   UNL     1      27.124  43.890   8.124  1.00  0.00     0.004 C 
ENDBRANCH  16  17
ENDBRANCH  15  16
ENDBRANCH  14  15
ENDBRANCH  13  14
ENDBRANCH  12  13
ENDBRANCH  11  12
ENDBRANCH   1  11
TORSDOF 14
ENDMDL
MODEL 7
REMARK VINA RESULT:    -3.868     17.253     18.628
REMARK INTER + INTRA:          -8.043
REMARK INTER:                  -5.871
REMARK INTRA:                  -2.173
REMARK UNBOUND:                -1.009
REMARK SMILES CCCCCCCCCCCCCCCC(=O)[O-]
REMARK SMILES IDX 9 1 10 2 11 3 12 4 13 5 14 6 15 7 16 8 17 9 18 10 8 11 7 12
REMARK SMILES IDX 6 13 5 14 4 15 3 16 2 17 1 18
REMARK H PARENT
REMARK Flexibility Score: inf
ROOT
ATOM      1  C   UNL     1      29.538  47.652   9.529  1.00  0.00     0.000 C 
ENDROOT
BRANCH   1   2
ATOM      2  C   UNL     1      28.078  47.986   9.176  1.00  0.00     0.000 C 
BRANCH   2   3
ATOM      3  C   UNL     1      27.749  47.826   7.677  1.00  0.00     0.000 C 
BRANCH   3   4
ATOM      4  C   UNL     1      26.234  47.783   7.412  1.00  0.00     0.000 C 
BRANCH   4   5
ATOM      5  C   UNL     1      25.453  47.112   8.562  1.00  0.00     0.000 C 
BRANCH   5   6
ATOM      6  C   UNL     1      25.242  45.600   8.369  1.00  0.00     0.006 C 
BRANCH   6   7
ATOM      7  C   UNL     1      26.233  44.750   9.171  1.00  0.00     0.053 C 
BRANCH   7   8
ATOM      8  C   UNL     1      26.995  43.838   8.262  1.00  0.00     0.041 C 
ATOM      9  O   UNL     1      26.891  42.589   8.386  1.00  0.00    -0.550 OA
ATOM     10  O   UNL     1      27.856  44.366   7.310  1.00  0.00    -0.550 OA
ENDBRANCH   7   8
ENDBRANCH   6   7
ENDBRANCH   5   6
ENDBRANCH   4   5
ENDBRANCH   3   4
ENDBRANCH   2   3
ENDBRANCH   1   2
BRANCH   1  11
ATOM     11  C   UNL     1      30.219  46.765   8.478  1.00  0.00     0.000 C 
BRANCH  11  12
ATOM     12  C   UNL     1      31.656  47.229   8.212  1.00  0.00    -0.000 C 
BRANCH  12  13
ATOM     13  C   UNL     1      31.676  48.406   7.225  1.00  0.00    -0.000 C 
BRANCH  13  14
ATOM     14  C   UNL     1      32.304  49.674   7.825  1.00  0.00    -0.000 C 
BRANCH  14  15
ATOM     15  C   UNL     1      31.543  50.952   7.427  1.00  0.00    -0.000 C 
BRANCH  15  16
ATOM     16  C   UNL     1      30.032  50.713   7.272  1.00  0.00    -0.000 C 
BRANCH  16  17
ATOM     17  C   UNL     1      29.214  51.332   8.416  1.00  0.00    -0.003 C 
ATOM     18  C   UNL     1      27.761  51.545   7.998  1.00  0.00     0.004 C 
ENDBRANCH  16  17
ENDBRANCH  15  16
ENDBRANCH  14  15
ENDBRANCH  13  14
ENDBRANCH  12  13
ENDBRANCH  11  12
ENDBRANCH   1  11
TORSDOF 14
ENDMDL
MODEL 8
REMARK VINA RESULT:    -3.861     17.454     18.961
REMARK INTER + INTRA:          -8.030
REMARK INTER:                  -5.543
REMARK INTRA:                  -2.488
REMARK UNBOUND:                -1.009
REMARK SMILES CCCCCCCCCCCCCCCC(=O)[O-]
REMARK SMILES IDX 9 1 10 2 11 3 12 4 13 5 14 6 15 7 16 8 17 9 18 10 8 11 7 12
REMARK SMILES IDX 6 13 5 14 4 15 3 16 2 17 1 18
REMARK H PARENT
REMARK Flexibility Score: inf
ROOT
ATOM      1  C   UNL     1      32.309  49.567   8.041  1.00  0.00     0.000 C 
ENDROOT
BRANCH   1   2
ATOM      2  C   UNL     1      32.002  48.179   7.451  1.00  0.00     0.000 C 
BRANCH   2   3
ATOM      3  C   UNL     1      31.656  47.115   8.513  1.00  0.00     0.000 C 
BRANCH   3   4
ATOM      4  C   UNL     1      30.787  45.980   7.944  1.00  0.00     0.000 C 
BRANCH   4   5
ATOM      5  C   UNL     1      30.126  46.361   6.602  1.00  0.00     0.000 C 
BRANCH   5   6
ATOM      6  C   UNL     1      29.110  45.322   6.095  1.00  0.00     0.006 C 
BRANCH   6   7
ATOM      7  C   UNL     1      27.661  45.816   6.171  1.00  0.00     0.053 C 
BRANCH   7   8
ATOM      8  C   UNL     1      26.872  44.975   7.124  1.00  0.00     0.041 C 
ATOM      9  O   UNL     1      25.619  44.910   7.025  1.00  0.00    -0.550 OA
ATOM     10  O   UNL     1      27.517  44.301   8.154  1.00  0.00    -0.550 OA
ENDBRANCH   7   8
ENDBRANCH   6   7
ENDBRANCH   5   6
ENDBRANCH   4   5
ENDBRANCH   3   4
ENDBRANCH   2   3
ENDBRANCH   1   2
BRANCH   1  11
ATOM     11  C   UNL     1      32.062  50.708   7.045  1.00  0.00     0.000 C 
BRANCH  11  12
ATOM     12  C   UNL     1      31.137  50.259   5.908  1.00  0.00    -0.000 C 
BRANCH  12  13
ATOM     13  C   UNL     1      29.713  50.795   6.117  1.00  0.00    -0.000 C 
BRANCH  13  14
ATOM     14  C   UNL     1      28.757  49.737   6.692  1.00  0.00    -0.000 C 
BRANCH  14  15
ATOM     15  C   UNL     1      28.283  50.083   8.115  1.00  0.00    -0.000 C 
BRANCH  15  16
ATOM     16  C   UNL     1      28.744  49.051   9.157  1.00  0.00    -0.000 C 
BRANCH  16  17
ATOM     17  C   UNL     1      27.803  47.841   9.249  1.00  0.00    -0.003 C 
ATOM     18  C   UNL     1      26.372  48.230   8.887  1.00  0.00     0.004 C 
ENDBRANCH  16  17
ENDBRANCH  15  16
ENDBRANCH  14  15
ENDBRANCH  13  14
ENDBRANCH  12  13
ENDBRANCH  11  12
ENDBRANCH   1  11
TORSDOF 14
ENDMDL
MODEL 9
REMARK VINA RESULT:    -3.834     17.342     18.757
REMARK INTER + INTRA:          -7.980
REMARK INTER:                  -5.721
REMARK INTRA:                  -2.259
REMARK UNBOUND:                -1.009
REMARK SMILES CCCCCCCCCCCCCCCC(=O)[O-]
REMARK SMILES IDX 9 1 10 2 11 3 12 4 13 5 14 6 15 7 16 8 17 9 18 10 8 11 7 12
REMARK SMILES IDX 6 13 5 14 4 15 3 16 2 17 1 18
REMARK H PARENT
REMARK Flexibility Score: inf
ROOT
ATOM      1  C   UNL     1      29.391  47.622   9.476  1.00  0.00     0.000 C 
ENDROOT
BRANCH   1   2
ATOM      2  C   UNL     1      27.901  47.862   9.177  1.00  0.00     0.000 C 
BRANCH   2   3
ATOM      3  C   UNL     1      27.542  47.751   7.681  1.00  0.00     0.000 C 
BRANCH   3   4
ATOM      4  C   UNL     1      26.518  46.636   7.406  1.00  0.00     0.000 C 
BRANCH   4   5
ATOM      5  C   UNL     1      26.519  45.551   8.504  1.00  0.00     0.000 C 
BRANCH   5   6
ATOM      6  C   UNL     1      27.170  44.227   8.065  1.00  0.00     0.006 C 
BRANCH   6   7
ATOM      7  C   UNL     1      27.743  44.283   6.644  1.00  0.00     0.053 C 
BRANCH   7   8
ATOM      8  C   UNL     1      28.921  43.370   6.519  1.00  0.00     0.041 C 
ATOM      9  O   UNL     1      28.771  42.124   6.623  1.00  0.00    -0.550 OA
ATOM     10  O   UNL     1      30.193  43.898   6.337  1.00  0.00    -0.550 OA
ENDBRANCH   7   8
ENDBRANCH   6   7
ENDBRANCH   5   6
ENDBRANCH   4   5
ENDBRANCH   3   4
ENDBRANCH   2   3
ENDBRANCH   1   2
BRANCH   1  11
ATOM     11  C   UNL     1      30.058  46.672   8.472  1.00  0.00     0.000 C 
BRANCH  11  12
ATOM     12  C   UNL     1      31.583  46.831   8.491  1.00  0.00    -0.000 C 
BRANCH  12  13
ATOM     13  C   UNL     1      31.997  48.200   7.932  1.00  0.00    -0.000 C 
BRANCH  13  14
ATOM     14  C   UNL     1      31.383  48.489   6.552  1.00  0.00    -0.000 C 
BRANCH  14  15
ATOM     15  C   UNL     1      30.593  49.810   6.525  1.00  0.00    -0.000 C 
BRANCH  15  16
ATOM     16  C   UNL     1      30.921  50.717   7.723  1.00  0.00    -0.000 C 
BRANCH  16  17
ATOM     17  C   UNL     1      29.686  51.035   8.580  1.00  0.00    -0.003 C 
ATOM     18  C   UNL     1      28.512  51.474   7.709  1.00  0.00     0.004 C 
ENDBRANCH  16  17
ENDBRANCH  15  16
ENDBRANCH  14  15
ENDBRANCH  13  14
ENDBRANCH  12  13
ENDBRANCH  11  12
ENDBRANCH   1  11
TORSDOF 14
ENDMDL
