MODEL 1
REMARK VINA RESULT:    -5.632      0.000      0.000
REMARK INTER + INTRA:          -8.589
REMARK INTER:                  -7.608
REMARK INTRA:                  -0.981
REMARK UNBOUND:                -0.981
REMARK SMILES O=c1c(-c2ccc(O)cc2)coc2c([C@H]3O[C@H](CO)[C@@H](O)[C@@H](O)[C@@H]3O)c(O)ccc12
REMARK SMILES IDX 3 1 11 2 12 3 13 4 30 5 2 6 1 7 29 8 28 9 26 10 14 11 4 12
REMARK SMILES IDX 5 13 6 14 7 15 10 16 9 17 8 18 15 20 24 21 16 22 22 23 17 24
REMARK SMILES IDX 20 25 25 26 23 28 18 30 19 31 21 33 27 35
REMARK H PARENT 8 19 25 27 23 29 19 32 21 34 27 36
REMARK Flexibility Score: inf
ROOT
ATOM      1  C   UNL     1      -5.246  91.120 -15.016  1.00  0.00     0.065 A 
ATOM      2  C   UNL     1      -5.632  89.823 -14.648  1.00  0.00     0.208 A 
ATOM      3  O   UNL     1      -5.793  89.496 -13.372  1.00  0.00    -0.463 OA
ATOM      4  C   UNL     1      -5.604  90.352 -12.369  1.00  0.00     0.147 A 
ATOM      5  C   UNL     1      -5.214  91.681 -12.651  1.00  0.00     0.066 A 
ATOM      6  C   UNL     1      -5.026  92.061 -13.993  1.00  0.00     0.200 A 
ATOM      7  O   UNL     1      -4.645  93.231 -14.277  1.00  0.00    -0.288 OA
ATOM      8  C   UNL     1      -5.024  92.587 -11.595  1.00  0.00     0.020 A 
ATOM      9  C   UNL     1      -5.232  92.182 -10.278  1.00  0.00     0.047 A 
ATOM     10  C   UNL     1      -5.624  90.870  -9.988  1.00  0.00     0.125 A 
ATOM     11  C   UNL     1      -5.797  89.932 -11.032  1.00  0.00     0.069 A 
ENDROOT
BRANCH   1  12
ATOM     12  C   UNL     1      -5.077  91.464 -16.450  1.00  0.00    -0.011 A 
ATOM     13  C   UNL     1      -6.188  91.844 -17.223  1.00  0.00     0.013 A 
ATOM     14  C   UNL     1      -6.030  92.177 -18.572  1.00  0.00     0.047 A 
ATOM     15  C   UNL     1      -4.764  92.141 -19.162  1.00  0.00     0.115 A 
ATOM     16  C   UNL     1      -3.805  91.437 -17.048  1.00  0.00     0.013 A 
ATOM     17  C   UNL     1      -3.650  91.771 -18.397  1.00  0.00     0.047 A 
BRANCH  15  18
ATOM     18  O   UNL     1      -4.622  92.475 -20.508  1.00  0.00    -0.508 OA
ATOM     19  H   UNL     1      -4.553  91.765 -21.226  1.00  0.00     0.293 HD
ENDBRANCH  15  18
ENDBRANCH   1  12
BRANCH  11  20
ATOM     20  C   UNL     1      -6.242  88.508 -10.727  1.00  0.00     0.188 C 
ATOM     21  C   UNL     1      -7.779  88.456 -10.587  1.00  0.00     0.179 C 
ATOM     22  O   UNL     1      -5.589  88.064  -9.545  1.00  0.00    -0.362 OA
ATOM     23  C   UNL     1      -8.219  87.027 -10.232  1.00  0.00     0.177 C 
ATOM     24  C   UNL     1      -5.917  86.725  -9.195  1.00  0.00     0.176 C 
ATOM     25  C   UNL     1      -7.440  86.526  -9.004  1.00  0.00     0.177 C 
BRANCH  21  26
ATOM     26  O   UNL     1      -8.369  88.845 -11.802  1.00  0.00    -0.387 OA
ATOM     27  H   UNL     1      -9.288  89.157 -11.592  1.00  0.00     0.211 HD
ENDBRANCH  21  26
BRANCH  23  28
ATOM     28  O   UNL     1      -9.597  86.996  -9.957  1.00  0.00    -0.387 OA
ATOM     29  H   UNL     1     -10.069  87.110 -10.822  1.00  0.00     0.211 HD
ENDBRANCH  23  28
BRANCH  24  30
ATOM     30  C   UNL     1      -5.265  85.693 -10.143  1.00  0.00     0.191 C 
BRANCH  30  31
ATOM     31  O   UNL     1      -3.977  85.357  -9.698  1.00  0.00    -0.394 OA
ATOM     32  H   UNL     1      -4.056  85.147  -8.731  1.00  0.00     0.210 HD
ENDBRANCH  30  31
ENDBRANCH  24  30
BRANCH  25  33
ATOM     33  O   UNL     1      -7.844  87.233  -7.856  1.00  0.00    -0.388 OA
ATOM     34  H   UNL     1      -7.891  88.193  -8.105  1.00  0.00     0.211 HD
ENDBRANCH  25  33
ENDBRANCH  11  20
BRANCH  10  35
ATOM     35  O   UNL     1      -5.845  90.498  -8.661  1.00  0.00    -0.507 OA
ATOM     36  H   UNL     1      -6.742  90.146  -8.350  1.00  0.00     0.293 HD
ENDBRANCH  10  35
TORSDOF 9
ENDMDL
MODEL 2
REMARK VINA RESULT:    -5.521      6.041      9.652
REMARK INTER + INTRA:          -8.439
REMARK INTER:                  -8.494
REMARK INTRA:                   0.056
REMARK UNBOUND:                -0.981
REMARK SMILES O=c1c(-c2ccc(O)cc2)coc2c([C@H]3O[C@H](CO)[C@@H](O)[C@@H](O)[C@@H]3O)c(O)ccc12
REMARK SMILES IDX 3 1 11 2 12 3 13 4 30 5 2 6 1 7 29 8 28 9 26 10 14 11 4 12
REMARK SMILES IDX 5 13 6 14 7 15 10 16 9 17 8 18 15 20 24 21 16 22 22 23 17 24
REMARK SMILES IDX 20 25 25 26 23 28 18 30 19 31 21 33 27 35
REMARK H PARENT 8 19 25 27 23 29 19 32 21 34 27 36
REMARK Flexibility Score: inf
ROOT
ATOM      1  C   UNL     1      -4.576  94.362 -23.109  1.00  0.00     0.065 A 
ATOM      2  C   UNL     1      -5.053  94.429 -21.792  1.00  0.00     0.208 A 
ATOM      3  O   UNL     1      -4.635  93.570 -20.871  1.00  0.00    -0.463 OA
ATOM      4  C   UNL     1      -3.755  92.603 -21.121  1.00  0.00     0.147 A 
ATOM      5  C   UNL     1      -3.222  92.463 -22.423  1.00  0.00     0.066 A 
ATOM      6  C   UNL     1      -3.649  93.351 -23.427  1.00  0.00     0.200 A 
ATOM      7  O   UNL     1      -3.219  93.233 -24.608  1.00  0.00    -0.288 OA
ATOM      8  C   UNL     1      -2.287  91.449 -22.684  1.00  0.00     0.020 A 
ATOM      9  C   UNL     1      -1.875  90.595 -21.664  1.00  0.00     0.047 A 
ATOM     10  C   UNL     1      -2.392  90.728 -20.370  1.00  0.00     0.125 A 
ATOM     11  C   UNL     1      -3.354  91.724 -20.087  1.00  0.00     0.069 A 
ENDROOT
BRANCH   1  12
ATOM     12  C   UNL     1      -5.054  95.337 -24.121  1.00  0.00    -0.011 A 
ATOM     13  C   UNL     1      -4.414  96.581 -24.265  1.00  0.00     0.013 A 
ATOM     14  C   UNL     1      -4.857  97.497 -25.223  1.00  0.00     0.047 A 
ATOM     15  C   UNL     1      -5.937  97.182 -26.052  1.00  0.00     0.115 A 
ATOM     16  C   UNL     1      -6.135  95.024 -24.963  1.00  0.00     0.013 A 
ATOM     17  C   UNL     1      -6.576  95.942 -25.921  1.00  0.00     0.047 A 
BRANCH  15  18
ATOM     18  O   UNL     1      -6.368  98.106 -27.003  1.00  0.00    -0.508 OA
ATOM     19  H   UNL     1      -6.735  99.010 -26.735  1.00  0.00     0.293 HD
ENDBRANCH  15  18
ENDBRANCH   1  12
BRANCH  11  20
ATOM     20  C   UNL     1      -3.906  91.889 -18.677  1.00  0.00     0.188 C 
ATOM     21  C   UNL     1      -5.305  92.539 -18.732  1.00  0.00     0.179 C 
ATOM     22  O   UNL     1      -2.992  92.667 -17.913  1.00  0.00    -0.362 OA
ATOM     23  C   UNL     1      -5.837  92.747 -17.305  1.00  0.00     0.177 C 
ATOM     24  C   UNL     1      -3.407  92.848 -16.564  1.00  0.00     0.176 C 
ATOM     25  C   UNL     1      -4.801  93.511 -16.464  1.00  0.00     0.177 C 
BRANCH  21  26
ATOM     26  O   UNL     1      -6.179  91.699 -19.445  1.00  0.00    -0.387 OA
ATOM     27  H   UNL     1      -7.079  92.114 -19.403  1.00  0.00     0.211 HD
ENDBRANCH  21  26
BRANCH  23  28
ATOM     28  O   UNL     1      -7.041  93.469 -17.334  1.00  0.00    -0.387 OA
ATOM     29  H   UNL     1      -7.757  92.856 -17.023  1.00  0.00     0.211 HD
ENDBRANCH  23  28
BRANCH  24  30
ATOM     30  C   UNL     1      -3.266  91.555 -15.728  1.00  0.00     0.191 C 
BRANCH  30  31
ATOM     31  O   UNL     1      -1.957  91.055 -15.806  1.00  0.00    -0.394 OA
ATOM     32  H   UNL     1      -1.784  90.859 -16.764  1.00  0.00     0.210 HD
ENDBRANCH  30  31
ENDBRANCH  24  30
BRANCH  25  33
ATOM     33  O   UNL     1      -4.698  94.840 -16.916  1.00  0.00    -0.388 OA
ATOM     34  H   UNL     1      -4.856  95.428 -16.132  1.00  0.00     0.211 HD
ENDBRANCH  25  33
ENDBRANCH  11  20
BRANCH  10  35
ATOM     35  O   UNL     1      -1.945  89.871 -19.363  1.00  0.00    -0.507 OA
ATOM     36  H   UNL     1      -1.241  89.164 -19.539  1.00  0.00     0.293 HD
ENDBRANCH  10  35
TORSDOF 9
ENDMDL
MODEL 3
REMARK VINA RESULT:    -5.501      1.789      8.161
REMARK INTER + INTRA:          -8.411
REMARK INTER:                  -7.446
REMARK INTRA:                  -0.965
REMARK UNBOUND:                -0.981
REMARK SMILES O=c1c(-c2ccc(O)cc2)coc2c([C@H]3O[C@H](CO)[C@@H](O)[C@@H](O)[C@@H]3O)c(O)ccc12
REMARK SMILES IDX 3 1 11 2 12 3 13 4 30 5 2 6 1 7 29 8 28 9 26 10 14 11 4 12
REMARK SMILES IDX 5 13 6 14 7 15 10 16 9 17 8 18 15 20 24 21 16 22 22 23 17 24
REMARK SMILES IDX 20 25 25 26 23 28 18 30 19 31 21 33 27 35
REMARK H PARENT 8 19 25 27 23 29 19 32 21 34 27 36
REMARK Flexibility Score: inf
ROOT
ATOM      1  C   UNL     1      -6.473  88.622 -11.018  1.00  0.00     0.065 A 
ATOM      2  C   UNL     1      -6.362  88.629 -12.416  1.00  0.00     0.208 A 
ATOM      3  O   UNL     1      -5.861  89.679 -13.055  1.00  0.00    -0.463 OA
ATOM      4  C   UNL     1      -5.437  90.778 -12.433  1.00  0.00     0.147 A 
ATOM      5  C   UNL     1      -5.513  90.856 -11.023  1.00  0.00     0.066 A 
ATOM      6  C   UNL     1      -6.046  89.764 -10.314  1.00  0.00     0.200 A 
ATOM      7  O   UNL     1      -6.159  89.814  -9.058  1.00  0.00    -0.288 OA
ATOM      8  C   UNL     1      -5.057  92.010 -10.367  1.00  0.00     0.020 A 
ATOM      9  C   UNL     1      -4.522  93.067 -11.099  1.00  0.00     0.047 A 
ATOM     10  C   UNL     1      -4.437  92.999 -12.495  1.00  0.00     0.125 A 
ATOM     11  C   UNL     1      -4.913  91.858 -13.181  1.00  0.00     0.069 A 
ENDROOT
BRANCH   1  12
ATOM     12  C   UNL     1      -7.031  87.434 -10.326  1.00  0.00    -0.011 A 
ATOM     13  C   UNL     1      -8.369  87.429  -9.893  1.00  0.00     0.013 A 
ATOM     14  C   UNL     1      -8.900  86.308  -9.249  1.00  0.00     0.047 A 
ATOM     15  C   UNL     1      -8.106  85.178  -9.033  1.00  0.00     0.115 A 
ATOM     16  C   UNL     1      -6.240  86.292 -10.113  1.00  0.00     0.013 A 
ATOM     17  C   UNL     1      -6.774  85.171  -9.468  1.00  0.00     0.047 A 
BRANCH  15  18
ATOM     18  O   UNL     1      -8.648  84.068  -8.389  1.00  0.00    -0.508 OA
ATOM     19  H   UNL     1      -8.061  83.374  -7.944  1.00  0.00     0.293 HD
ENDBRANCH  15  18
ENDBRANCH   1  12
BRANCH  11  20
ATOM     20  C   UNL     1      -4.806  91.767 -14.698  1.00  0.00     0.188 C 
ATOM     21  C   UNL     1      -3.352  91.443 -15.104  1.00  0.00     0.179 C 
ATOM     22  O   UNL     1      -5.253  92.992 -15.265  1.00  0.00    -0.362 OA
ATOM     23  C   UNL     1      -3.240  91.401 -16.637  1.00  0.00     0.177 C 
ATOM     24  C   UNL     1      -5.222  92.992 -16.687  1.00  0.00     0.176 C 
ATOM     25  C   UNL     1      -3.809  92.695 -17.242  1.00  0.00     0.177 C 
BRANCH  21  26
ATOM     26  O   UNL     1      -2.987  90.197 -14.568  1.00  0.00    -0.387 OA
ATOM     27  H   UNL     1      -2.023  90.251 -14.338  1.00  0.00     0.211 HD
ENDBRANCH  21  26
BRANCH  23  28
ATOM     28  O   UNL     1      -1.897  91.254 -17.023  1.00  0.00    -0.387 OA
ATOM     29  H   UNL     1      -1.576  92.149 -17.308  1.00  0.00     0.211 HD
ENDBRANCH  23  28
BRANCH  24  30
ATOM     30  C   UNL     1      -6.334  92.110 -17.299  1.00  0.00     0.191 C 
BRANCH  30  31
ATOM     31  O   UNL     1      -5.971  91.678 -18.584  1.00  0.00    -0.394 OA
ATOM     32  H   UNL     1      -5.581  92.464 -19.050  1.00  0.00     0.210 HD
ENDBRANCH  30  31
ENDBRANCH  24  30
BRANCH  25  33
ATOM     33  O   UNL     1      -2.968  93.781 -16.935  1.00  0.00    -0.388 OA
ATOM     34  H   UNL     1      -2.040  93.503 -17.151  1.00  0.00     0.211 HD
ENDBRANCH  25  33
ENDBRANCH  11  20
BRANCH  10  35
ATOM     35  O   UNL     1      -3.877  94.065 -13.200  1.00  0.00    -0.507 OA
ATOM     36  H   UNL     1      -3.387  94.817 -12.729  1.00  0.00     0.293 HD
ENDBRANCH  10  35
TORSDOF 9
ENDMDL
MODEL 4
REMARK VINA RESULT:    -5.499      9.234     11.053
REMARK INTER + INTRA:          -8.408
REMARK INTER:                  -7.345
REMARK INTRA:                  -1.063
REMARK UNBOUND:                -0.981
REMARK SMILES O=c1c(-c2ccc(O)cc2)coc2c([C@H]3O[C@H](CO)[C@@H](O)[C@@H](O)[C@@H]3O)c(O)ccc12
REMARK SMILES IDX 3 1 11 2 12 3 13 4 30 5 2 6 1 7 29 8 28 9 26 10 14 11 4 12
REMARK SMILES IDX 5 13 6 14 7 15 10 16 9 17 8 18 15 20 24 21 16 22 22 23 17 24
REMARK SMILES IDX 20 25 25 26 23 28 18 30 19 31 21 33 27 35
REMARK H PARENT 8 19 25 27 23 29 19 32 21 34 27 36
REMARK Flexibility Score: inf
ROOT
ATOM      1  C   UNL     1     -15.831  88.664 -10.062  1.00  0.00     0.065 A 
ATOM      2  C   UNL     1     -14.715  87.962 -10.536  1.00  0.00     0.208 A 
ATOM      3  O   UNL     1     -14.358  86.804  -9.994  1.00  0.00    -0.463 OA
ATOM      4  C   UNL     1     -15.015  86.236  -8.985  1.00  0.00     0.147 A 
ATOM      5  C   UNL     1     -16.154  86.877  -8.446  1.00  0.00     0.066 A 
ATOM      6  C   UNL     1     -16.557  88.111  -8.990  1.00  0.00     0.200 A 
ATOM      7  O   UNL     1     -17.549  88.726  -8.510  1.00  0.00    -0.288 OA
ATOM      8  C   UNL     1     -16.854  86.274  -7.389  1.00  0.00     0.020 A 
ATOM      9  C   UNL     1     -16.437  85.045  -6.882  1.00  0.00     0.047 A 
ATOM     10  C   UNL     1     -15.313  84.399  -7.412  1.00  0.00     0.125 A 
ATOM     11  C   UNL     1     -14.577  84.998  -8.460  1.00  0.00     0.069 A 
ENDROOT
BRANCH   1  12
ATOM     12  C   UNL     1     -16.214  89.955 -10.687  1.00  0.00    -0.011 A 
ATOM     13  C   UNL     1     -15.674  91.162 -10.210  1.00  0.00     0.013 A 
ATOM     14  C   UNL     1     -16.027  92.378 -10.803  1.00  0.00     0.047 A 
ATOM     15  C   UNL     1     -16.916  92.404 -11.881  1.00  0.00     0.115 A 
ATOM     16  C   UNL     1     -17.102  89.987 -11.777  1.00  0.00     0.013 A 
ATOM     17  C   UNL     1     -17.452  91.205 -12.368  1.00  0.00     0.047 A 
BRANCH  15  18
ATOM     18  O   UNL     1     -17.258  93.623 -12.462  1.00  0.00    -0.508 OA
ATOM     19  H   UNL     1     -17.429  94.448 -11.901  1.00  0.00     0.293 HD
ENDBRANCH  15  18
ENDBRANCH   1  12
BRANCH  11  20
ATOM     20  C   UNL     1     -13.365  84.292  -9.056  1.00  0.00     0.188 C 
ATOM     21  C   UNL     1     -13.827  83.190 -10.033  1.00  0.00     0.179 C 
ATOM     22  O   UNL     1     -12.574  83.764  -7.999  1.00  0.00    -0.362 OA
ATOM     23  C   UNL     1     -12.602  82.449 -10.594  1.00  0.00     0.177 C 
ATOM     24  C   UNL     1     -11.396  83.112  -8.456  1.00  0.00     0.176 C 
ATOM     25  C   UNL     1     -11.709  81.960  -9.441  1.00  0.00     0.177 C 
BRANCH  21  26
ATOM     26  O   UNL     1     -14.550  83.776 -11.086  1.00  0.00    -0.387 OA
ATOM     27  H   UNL     1     -14.035  84.570 -11.385  1.00  0.00     0.211 HD
ENDBRANCH  21  26
BRANCH  23  28
ATOM     28  O   UNL     1     -13.011  81.350 -11.368  1.00  0.00    -0.387 OA
ATOM     29  H   UNL     1     -12.893  80.539 -10.808  1.00  0.00     0.211 HD
ENDBRANCH  23  28
BRANCH  24  30
ATOM     30  C   UNL     1     -10.336  84.110  -8.976  1.00  0.00     0.191 C 
BRANCH  30  31
ATOM     31  O   UNL     1      -9.318  83.434  -9.667  1.00  0.00    -0.394 OA
ATOM     32  H   UNL     1      -9.689  82.552  -9.932  1.00  0.00     0.210 HD
ENDBRANCH  30  31
ENDBRANCH  24  30
BRANCH  25  33
ATOM     33  O   UNL     1     -12.355  80.929  -8.735  1.00  0.00    -0.388 OA
ATOM     34  H   UNL     1     -13.306  81.197  -8.630  1.00  0.00     0.211 HD
ENDBRANCH  25  33
ENDBRANCH  11  20
BRANCH  10  35
ATOM     35  O   UNL     1     -14.931  83.159  -6.898  1.00  0.00    -0.507 OA
ATOM     36  H   UNL     1     -14.103  82.678  -7.230  1.00  0.00     0.293 HD
ENDBRANCH  10  35
TORSDOF 9
ENDMDL
MODEL 5
REMARK VINA RESULT:    -5.474      4.016      9.590
REMARK INTER + INTRA:          -8.375
REMARK INTER:                  -7.476
REMARK INTRA:                  -0.899
REMARK UNBOUND:                -0.981
REMARK SMILES O=c1c(-c2ccc(O)cc2)coc2c([C@H]3O[C@H](CO)[C@@H](O)[C@@H](O)[C@@H]3O)c(O)ccc12
REMARK SMILES IDX 3 1 11 2 12 3 13 4 30 5 2 6 1 7 29 8 28 9 26 10 14 11 4 12
REMARK SMILES IDX 5 13 6 14 7 15 10 16 9 17 8 18 15 20 24 21 16 22 22 23 17 24
REMARK SMILES IDX 20 25 25 26 23 28 18 30 19 31 21 33 27 35
REMARK H PARENT 8 19 25 27 23 29 19 32 21 34 27 36
REMARK Flexibility Score: inf
ROOT
ATOM      1  C   UNL     1      -4.908  93.096 -14.041  1.00  0.00     0.065 A 
ATOM      2  C   UNL     1      -3.804  92.844 -14.868  1.00  0.00     0.208 A 
ATOM      3  O   UNL     1      -3.927  92.851 -16.189  1.00  0.00    -0.463 OA
ATOM      4  C   UNL     1      -5.077  93.090 -16.815  1.00  0.00     0.147 A 
ATOM      5  C   UNL     1      -6.242  93.354 -16.057  1.00  0.00     0.066 A 
ATOM      6  C   UNL     1      -6.150  93.347 -14.653  1.00  0.00     0.200 A 
ATOM      7  O   UNL     1      -7.178  93.546 -13.947  1.00  0.00    -0.288 OA
ATOM      8  C   UNL     1      -7.453  93.616 -16.717  1.00  0.00     0.020 A 
ATOM      9  C   UNL     1      -7.505  93.629 -18.109  1.00  0.00     0.047 A 
ATOM     10  C   UNL     1      -6.358  93.374 -18.869  1.00  0.00     0.125 A 
ATOM     11  C   UNL     1      -5.131  93.082 -18.228  1.00  0.00     0.069 A 
ENDROOT
BRANCH   1  12
ATOM     12  C   UNL     1      -4.746  93.088 -12.566  1.00  0.00    -0.011 A 
ATOM     13  C   UNL     1      -4.369  94.261 -11.888  1.00  0.00     0.013 A 
ATOM     14  C   UNL     1      -4.224  94.259 -10.497  1.00  0.00     0.047 A 
ATOM     15  C   UNL     1      -4.459  93.091  -9.767  1.00  0.00     0.115 A 
ATOM     16  C   UNL     1      -4.988  91.919 -11.824  1.00  0.00     0.013 A 
ATOM     17  C   UNL     1      -4.844  91.920 -10.434  1.00  0.00     0.047 A 
BRANCH  15  18
ATOM     18  O   UNL     1      -4.311  93.103  -8.382  1.00  0.00    -0.508 OA
ATOM     19  H   UNL     1      -5.106  93.215  -7.765  1.00  0.00     0.293 HD
ENDBRANCH  15  18
ENDBRANCH   1  12
BRANCH  11  20
ATOM     20  C   UNL     1      -3.873  92.824 -19.047  1.00  0.00     0.188 C 
ATOM     21  C   UNL     1      -3.472  94.103 -19.813  1.00  0.00     0.179 C 
ATOM     22  O   UNL     1      -4.113  91.734 -19.929  1.00  0.00    -0.362 OA
ATOM     23  C   UNL     1      -2.230  93.823 -20.676  1.00  0.00     0.177 C 
ATOM     24  C   UNL     1      -2.979  91.393 -20.717  1.00  0.00     0.176 C 
ATOM     25  C   UNL     1      -2.472  92.588 -21.559  1.00  0.00     0.177 C 
BRANCH  21  26
ATOM     26  O   UNL     1      -3.188  95.126 -18.892  1.00  0.00    -0.387 OA
ATOM     27  H   UNL     1      -3.819  95.869 -19.079  1.00  0.00     0.211 HD
ENDBRANCH  21  26
BRANCH  23  28
ATOM     28  O   UNL     1      -1.942  94.932 -21.489  1.00  0.00    -0.387 OA
ATOM     29  H   UNL     1      -1.521  94.584 -22.318  1.00  0.00     0.211 HD
ENDBRANCH  23  28
BRANCH  24  30
ATOM     30  C   UNL     1      -1.875  90.698 -19.888  1.00  0.00     0.191 C 
BRANCH  30  31
ATOM     31  O   UNL     1      -2.195  89.349 -19.672  1.00  0.00    -0.394 OA
ATOM     32  H   UNL     1      -2.395  89.254 -18.704  1.00  0.00     0.210 HD
ENDBRANCH  30  31
ENDBRANCH  24  30
BRANCH  25  33
ATOM     33  O   UNL     1      -3.432  92.880 -22.546  1.00  0.00    -0.388 OA
ATOM     34  H   UNL     1      -3.704  92.017 -22.953  1.00  0.00     0.211 HD
ENDBRANCH  25  33
ENDBRANCH  11  20
BRANCH  10  35
ATOM     35  O   UNL     1      -6.436  93.414 -20.261  1.00  0.00    -0.507 OA
ATOM     36  H   UNL     1      -6.447  94.291 -20.769  1.00  0.00     0.293 HD
ENDBRANCH  10  35
TORSDOF 9
ENDMDL
MODEL 6
REMARK VINA RESULT:    -5.381      3.803     11.671
REMARK INTER + INTRA:          -8.249
REMARK INTER:                  -7.563
REMARK INTRA:                  -0.686
REMARK UNBOUND:                -0.981
REMARK SMILES O=c1c(-c2ccc(O)cc2)coc2c([C@H]3O[C@H](CO)[C@@H](O)[C@@H](O)[C@@H]3O)c(O)ccc12
REMARK SMILES IDX 3 1 11 2 12 3 13 4 30 5 2 6 1 7 29 8 28 9 26 10 14 11 4 12
REMARK SMILES IDX 5 13 6 14 7 15 10 16 9 17 8 18 15 20 24 21 16 22 22 23 17 24
REMARK SMILES IDX 20 25 25 26 23 28 18 30 19 31 21 33 27 35
REMARK H PARENT 8 19 25 27 23 29 19 32 21 34 27 36
REMARK Flexibility Score: inf
ROOT
ATOM      1  C   UNL     1      -5.300  92.416 -17.711  1.00  0.00     0.065 A 
ATOM      2  C   UNL     1      -6.133  92.555 -18.830  1.00  0.00     0.208 A 
ATOM      3  O   UNL     1      -5.726  93.217 -19.906  1.00  0.00    -0.463 OA
ATOM      4  C   UNL     1      -4.526  93.785 -20.002  1.00  0.00     0.147 A 
ATOM      5  C   UNL     1      -3.621  93.694 -18.919  1.00  0.00     0.066 A 
ATOM      6  C   UNL     1      -4.023  93.006 -17.759  1.00  0.00     0.200 A 
ATOM      7  O   UNL     1      -3.252  92.934 -16.762  1.00  0.00    -0.288 OA
ATOM      8  C   UNL     1      -2.352  94.285 -19.025  1.00  0.00     0.020 A 
ATOM      9  C   UNL     1      -1.981  94.946 -20.193  1.00  0.00     0.047 A 
ATOM     10  C   UNL     1      -2.867  95.039 -21.273  1.00  0.00     0.125 A 
ATOM     11  C   UNL     1      -4.160  94.474 -21.182  1.00  0.00     0.069 A 
ENDROOT
BRANCH   1  12
ATOM     12  C   UNL     1      -5.775  91.667 -16.522  1.00  0.00    -0.011 A 
ATOM     13  C   UNL     1      -6.752  92.223 -15.677  1.00  0.00     0.013 A 
ATOM     14  C   UNL     1      -7.208  91.515 -14.561  1.00  0.00     0.047 A 
ATOM     15  C   UNL     1      -6.701  90.244 -14.278  1.00  0.00     0.115 A 
ATOM     16  C   UNL     1      -5.275  90.384 -16.236  1.00  0.00     0.013 A 
ATOM     17  C   UNL     1      -5.733  89.678 -15.119  1.00  0.00     0.047 A 
BRANCH  15  18
ATOM     18  O   UNL     1      -7.164  89.550 -13.162  1.00  0.00    -0.508 OA
ATOM     19  H   UNL     1      -7.186  88.538 -13.139  1.00  0.00     0.293 HD
ENDBRANCH  15  18
ENDBRANCH   1  12
BRANCH  11  20
ATOM     20  C   UNL     1      -5.123  94.553 -22.360  1.00  0.00     0.188 C 
ATOM     21  C   UNL     1      -4.488  93.893 -23.603  1.00  0.00     0.179 C 
ATOM     22  O   UNL     1      -5.452  95.916 -22.596  1.00  0.00    -0.362 OA
ATOM     23  C   UNL     1      -5.443  94.018 -24.801  1.00  0.00     0.177 C 
ATOM     24  C   UNL     1      -6.378  96.090 -23.662  1.00  0.00     0.176 C 
ATOM     25  C   UNL     1      -5.861  95.486 -24.990  1.00  0.00     0.177 C 
BRANCH  21  26
ATOM     26  O   UNL     1      -4.241  92.536 -23.334  1.00  0.00    -0.387 OA
ATOM     27  H   UNL     1      -3.315  92.343 -23.635  1.00  0.00     0.211 HD
ENDBRANCH  21  26
BRANCH  23  28
ATOM     28  O   UNL     1      -4.819  93.555 -25.972  1.00  0.00    -0.387 OA
ATOM     29  H   UNL     1      -4.570  92.607 -25.814  1.00  0.00     0.211 HD
ENDBRANCH  23  28
BRANCH  24  30
ATOM     30  C   UNL     1      -7.805  95.637 -23.280  1.00  0.00     0.191 C 
BRANCH  30  31
ATOM     31  O   UNL     1      -8.559  95.358 -24.431  1.00  0.00    -0.394 OA
ATOM     32  H   UNL     1      -8.935  94.447 -24.313  1.00  0.00     0.210 HD
ENDBRANCH  30  31
ENDBRANCH  24  30
BRANCH  25  33
ATOM     33  O   UNL     1      -4.764  96.247 -25.432  1.00  0.00    -0.388 OA
ATOM     34  H   UNL     1      -5.114  96.919 -26.073  1.00  0.00     0.211 HD
ENDBRANCH  25  33
ENDBRANCH  11  20
BRANCH  10  35
ATOM     35  O   UNL     1      -2.460  95.690 -22.438  1.00  0.00    -0.507 OA
ATOM     36  H   UNL     1      -2.984  96.466 -22.825  1.00  0.00     0.293 HD
ENDBRANCH  10  35
TORSDOF 9
ENDMDL
MODEL 7
REMARK VINA RESULT:    -5.296      2.758      8.904
REMARK INTER + INTRA:          -8.134
REMARK INTER:                  -7.431
REMARK INTRA:                  -0.703
REMARK UNBOUND:                -0.981
REMARK SMILES O=c1c(-c2ccc(O)cc2)coc2c([C@H]3O[C@H](CO)[C@@H](O)[C@@H](O)[C@@H]3O)c(O)ccc12
REMARK SMILES IDX 3 1 11 2 12 3 13 4 30 5 2 6 1 7 29 8 28 9 26 10 14 11 4 12
REMARK SMILES IDX 5 13 6 14 7 15 10 16 9 17 8 18 15 20 24 21 16 22 22 23 17 24
REMARK SMILES IDX 20 25 25 26 23 28 18 30 19 31 21 33 27 35
REMARK H PARENT 8 19 25 27 23 29 19 32 21 34 27 36
REMARK Flexibility Score: inf
ROOT
ATOM      1  C   UNL     1      -5.304  84.400  -9.190  1.00  0.00     0.065 A 
ATOM      2  C   UNL     1      -4.660  85.387  -9.949  1.00  0.00     0.208 A 
ATOM      3  O   UNL     1      -5.324  86.448 -10.392  1.00  0.00    -0.463 OA
ATOM      4  C   UNL     1      -6.618  86.649 -10.157  1.00  0.00     0.147 A 
ATOM      5  C   UNL     1      -7.346  85.702  -9.399  1.00  0.00     0.066 A 
ATOM      6  C   UNL     1      -6.676  84.562  -8.920  1.00  0.00     0.200 A 
ATOM      7  O   UNL     1      -7.303  83.681  -8.269  1.00  0.00    -0.288 OA
ATOM      8  C   UNL     1      -8.709  85.919  -9.143  1.00  0.00     0.020 A 
ATOM      9  C   UNL     1      -9.339  87.066  -9.621  1.00  0.00     0.047 A 
ATOM     10  C   UNL     1      -8.627  88.012 -10.368  1.00  0.00     0.125 A 
ATOM     11  C   UNL     1      -7.259  87.805 -10.661  1.00  0.00     0.069 A 
ENDROOT
BRANCH   1  12
ATOM     12  C   UNL     1      -4.539  83.226  -8.700  1.00  0.00    -0.011 A 
ATOM     13  C   UNL     1      -4.576  82.873  -7.340  1.00  0.00     0.013 A 
ATOM     14  C   UNL     1      -3.864  81.762  -6.877  1.00  0.00     0.047 A 
ATOM     15  C   UNL     1      -3.113  80.988  -7.766  1.00  0.00     0.115 A 
ATOM     16  C   UNL     1      -3.788  82.438  -9.590  1.00  0.00     0.013 A 
ATOM     17  C   UNL     1      -3.078  81.327  -9.125  1.00  0.00     0.047 A 
BRANCH  15  18
ATOM     18  O   UNL     1      -2.408  79.883  -7.292  1.00  0.00    -0.508 OA
ATOM     19  H   UNL     1      -1.399  79.834  -7.352  1.00  0.00     0.293 HD
ENDBRANCH  15  18
ENDBRANCH   1  12
BRANCH  11  20
ATOM     20  C   UNL     1      -6.473  88.839 -11.456  1.00  0.00     0.188 C 
ATOM     21  C   UNL     1      -6.057  90.005 -10.534  1.00  0.00     0.179 C 
ATOM     22  O   UNL     1      -7.270  89.286 -12.546  1.00  0.00    -0.362 OA
ATOM     23  C   UNL     1      -5.305  91.069 -11.351  1.00  0.00     0.177 C 
ATOM     24  C   UNL     1      -6.604  90.235 -13.371  1.00  0.00     0.176 C 
ATOM     25  C   UNL     1      -6.140  91.478 -12.576  1.00  0.00     0.177 C 
BRANCH  21  26
ATOM     26  O   UNL     1      -5.223  89.516  -9.514  1.00  0.00    -0.387 OA
ATOM     27  H   UNL     1      -5.725  88.796  -9.048  1.00  0.00     0.211 HD
ENDBRANCH  21  26
BRANCH  23  28
ATOM     28  O   UNL     1      -5.050  92.201 -10.558  1.00  0.00    -0.387 OA
ATOM     29  H   UNL     1      -5.208  91.937  -9.614  1.00  0.00     0.211 HD
ENDBRANCH  23  28
BRANCH  24  30
ATOM     30  C   UNL     1      -5.493  89.590 -14.230  1.00  0.00     0.191 C 
BRANCH  30  31
ATOM     31  O   UNL     1      -5.575  90.033 -15.559  1.00  0.00    -0.394 OA
ATOM     32  H   UNL     1      -5.095  89.364 -16.113  1.00  0.00     0.210 HD
ENDBRANCH  30  31
ENDBRANCH  24  30
BRANCH  25  33
ATOM     33  O   UNL     1      -7.277  92.198 -12.165  1.00  0.00    -0.388 OA
ATOM     34  H   UNL     1      -7.917  92.193 -12.925  1.00  0.00     0.211 HD
ENDBRANCH  25  33
ENDBRANCH  11  20
BRANCH  10  35
ATOM     35  O   UNL     1      -9.279  89.162 -10.816  1.00  0.00    -0.507 OA
ATOM     36  H   UNL     1      -9.632  89.860 -10.172  1.00  0.00     0.293 HD
ENDBRANCH  10  35
TORSDOF 9
ENDMDL
MODEL 8
REMARK VINA RESULT:    -5.274      2.679      5.407
REMARK INTER + INTRA:          -8.104
REMARK INTER:                  -7.438
REMARK INTRA:                  -0.666
REMARK UNBOUND:                -0.981
REMARK SMILES O=c1c(-c2ccc(O)cc2)coc2c([C@H]3O[C@H](CO)[C@@H](O)[C@@H](O)[C@@H]3O)c(O)ccc12
REMARK SMILES IDX 3 1 11 2 12 3 13 4 30 5 2 6 1 7 29 8 28 9 26 10 14 11 4 12
REMARK SMILES IDX 5 13 6 14 7 15 10 16 9 17 8 18 15 20 24 21 16 22 22 23 17 24
REMARK SMILES IDX 20 25 25 26 23 28 18 30 19 31 21 33 27 35
REMARK H PARENT 8 19 25 27 23 29 19 32 21 34 27 36
REMARK Flexibility Score: inf
ROOT
ATOM      1  C   UNL     1      -5.003  92.038 -16.166  1.00  0.00     0.065 A 
ATOM      2  C   UNL     1      -4.880  93.192 -15.380  1.00  0.00     0.208 A 
ATOM      3  O   UNL     1      -5.122  93.158 -14.075  1.00  0.00    -0.463 OA
ATOM      4  C   UNL     1      -5.493  92.054 -13.430  1.00  0.00     0.147 A 
ATOM      5  C   UNL     1      -5.641  90.844 -14.147  1.00  0.00     0.066 A 
ATOM      6  C   UNL     1      -5.400  90.845 -15.533  1.00  0.00     0.200 A 
ATOM      7  O   UNL     1      -5.556  89.790 -16.207  1.00  0.00    -0.288 OA
ATOM      8  C   UNL     1      -6.022  89.677 -13.465  1.00  0.00     0.020 A 
ATOM      9  C   UNL     1      -6.240  89.708 -12.089  1.00  0.00     0.047 A 
ATOM     10  C   UNL     1      -6.091  90.899 -11.369  1.00  0.00     0.125 A 
ATOM     11  C   UNL     1      -5.733  92.094 -12.037  1.00  0.00     0.069 A 
ENDROOT
BRANCH   1  12
ATOM     12  C   UNL     1      -4.722  92.099 -17.621  1.00  0.00    -0.011 A 
ATOM     13  C   UNL     1      -5.756  92.371 -18.533  1.00  0.00     0.013 A 
ATOM     14  C   UNL     1      -5.492  92.438 -19.905  1.00  0.00     0.047 A 
ATOM     15  C   UNL     1      -4.193  92.242 -20.381  1.00  0.00     0.115 A 
ATOM     16  C   UNL     1      -3.415  91.910 -18.107  1.00  0.00     0.013 A 
ATOM     17  C   UNL     1      -3.153  91.979 -19.479  1.00  0.00     0.047 A 
BRANCH  15  18
ATOM     18  O   UNL     1      -3.943  92.311 -21.750  1.00  0.00    -0.508 OA
ATOM     19  H   UNL     1      -4.626  91.999 -22.430  1.00  0.00     0.293 HD
ENDBRANCH  15  18
ENDBRANCH   1  12
BRANCH  11  20
ATOM     20  C   UNL     1      -5.548  93.390 -11.258  1.00  0.00     0.188 C 
ATOM     21  C   UNL     1      -4.059  93.579 -10.898  1.00  0.00     0.179 C 
ATOM     22  O   UNL     1      -6.371  93.351 -10.099  1.00  0.00    -0.362 OA
ATOM     23  C   UNL     1      -3.885  94.864 -10.071  1.00  0.00     0.177 C 
ATOM     24  C   UNL     1      -6.293  94.539  -9.320  1.00  0.00     0.176 C 
ATOM     25  C   UNL     1      -4.845  94.849  -8.870  1.00  0.00     0.177 C 
BRANCH  21  26
ATOM     26  O   UNL     1      -3.304  93.672 -12.080  1.00  0.00    -0.387 OA
ATOM     27  H   UNL     1      -2.757  94.497 -12.011  1.00  0.00     0.211 HD
ENDBRANCH  21  26
BRANCH  23  28
ATOM     28  O   UNL     1      -2.562  94.972  -9.612  1.00  0.00    -0.387 OA
ATOM     29  H   UNL     1      -2.592  94.920  -8.621  1.00  0.00     0.211 HD
ENDBRANCH  23  28
BRANCH  24  30
ATOM     30  C   UNL     1      -7.008  95.732  -9.994  1.00  0.00     0.191 C 
BRANCH  30  31
ATOM     31  O   UNL     1      -6.639  96.940  -9.381  1.00  0.00    -0.394 OA
ATOM     32  H   UNL     1      -5.959  97.362  -9.969  1.00  0.00     0.210 HD
ENDBRANCH  30  31
ENDBRANCH  24  30
BRANCH  25  33
ATOM     33  O   UNL     1      -4.444  93.869  -7.943  1.00  0.00    -0.388 OA
ATOM     34  H   UNL     1      -4.177  94.343  -7.113  1.00  0.00     0.211 HD
ENDBRANCH  25  33
ENDBRANCH  11  20
BRANCH  10  35
ATOM     35  O   UNL     1      -6.295  90.896  -9.989  1.00  0.00    -0.507 OA
ATOM     36  H   UNL     1      -6.608  91.723  -9.495  1.00  0.00     0.293 HD
ENDBRANCH  10  35
TORSDOF 9
ENDMDL
MODEL 9
REMARK VINA RESULT:    -5.224      4.173      9.424
REMARK INTER + INTRA:          -8.037
REMARK INTER:                  -6.983
REMARK INTRA:                  -1.054
REMARK UNBOUND:                -0.981
REMARK SMILES O=c1c(-c2ccc(O)cc2)coc2c([C@H]3O[C@H](CO)[C@@H](O)[C@@H](O)[C@@H]3O)c(O)ccc12
REMARK SMILES IDX 3 1 11 2 12 3 13 4 30 5 2 6 1 7 29 8 28 9 26 10 14 11 4 12
REMARK SMILES IDX 5 13 6 14 7 15 10 16 9 17 8 18 15 20 24 21 16 22 22 23 17 24
REMARK SMILES IDX 20 25 25 26 23 28 18 30 19 31 21 33 27 35
REMARK H PARENT 8 19 25 27 23 29 19 32 21 34 27 36
REMARK Flexibility Score: inf
ROOT
ATOM      1  C   UNL     1      -4.943  93.479 -12.518  1.00  0.00     0.065 A 
ATOM      2  C   UNL     1      -5.504  94.448 -13.361  1.00  0.00     0.208 A 
ATOM      3  O   UNL     1      -5.452  94.316 -14.681  1.00  0.00    -0.463 OA
ATOM      4  C   UNL     1      -4.877  93.280 -15.288  1.00  0.00     0.147 A 
ATOM      5  C   UNL     1      -4.286  92.256 -14.513  1.00  0.00     0.066 A 
ATOM      6  C   UNL     1      -4.316  92.367 -13.111  1.00  0.00     0.200 A 
ATOM      7  O   UNL     1      -3.769  91.488 -12.390  1.00  0.00    -0.288 OA
ATOM      8  C   UNL     1      -3.689  91.159 -15.154  1.00  0.00     0.020 A 
ATOM      9  C   UNL     1      -3.689  91.073 -16.544  1.00  0.00     0.047 A 
ATOM     10  C   UNL     1      -4.275  92.078 -17.321  1.00  0.00     0.125 A 
ATOM     11  C   UNL     1      -4.862  93.206 -16.701  1.00  0.00     0.069 A 
ENDROOT
BRANCH   1  12
ATOM     12  C   UNL     1      -5.018  93.646 -11.045  1.00  0.00    -0.011 A 
ATOM     13  C   UNL     1      -4.049  94.405 -10.366  1.00  0.00     0.013 A 
ATOM     14  C   UNL     1      -4.123  94.571  -8.980  1.00  0.00     0.047 A 
ATOM     15  C   UNL     1      -5.166  93.988  -8.256  1.00  0.00     0.115 A 
ATOM     16  C   UNL     1      -6.070  93.069 -10.311  1.00  0.00     0.013 A 
ATOM     17  C   UNL     1      -6.142  93.237  -8.925  1.00  0.00     0.047 A 
BRANCH  15  18
ATOM     18  O   UNL     1      -5.228  94.162  -6.875  1.00  0.00    -0.508 OA
ATOM     19  H   UNL     1      -4.409  94.416  -6.336  1.00  0.00     0.293 HD
ENDBRANCH  15  18
ENDBRANCH   1  12
BRANCH  11  20
ATOM     20  C   UNL     1      -5.520  94.295 -17.539  1.00  0.00     0.188 C 
ATOM     21  C   UNL     1      -6.931  93.844 -17.972  1.00  0.00     0.179 C 
ATOM     22  O   UNL     1      -4.690  94.580 -18.658  1.00  0.00    -0.362 OA
ATOM     23  C   UNL     1      -7.572  94.925 -18.857  1.00  0.00     0.177 C 
ATOM     24  C   UNL     1      -5.207  95.614 -19.486  1.00  0.00     0.176 C 
ATOM     25  C   UNL     1      -6.625  95.288 -20.013  1.00  0.00     0.177 C 
BRANCH  21  26
ATOM     26  O   UNL     1      -7.723  93.636 -16.830  1.00  0.00    -0.387 OA
ATOM     27  H   UNL     1      -7.103  93.528 -16.062  1.00  0.00     0.211 HD
ENDBRANCH  21  26
BRANCH  23  28
ATOM     28  O   UNL     1      -8.794  94.467 -19.378  1.00  0.00    -0.387 OA
ATOM     29  H   UNL     1      -8.943  93.556 -19.013  1.00  0.00     0.211 HD
ENDBRANCH  23  28
BRANCH  24  30
ATOM     30  C   UNL     1      -5.088  97.008 -18.830  1.00  0.00     0.191 C 
BRANCH  30  31
ATOM     31  O   UNL     1      -3.748  97.299 -18.527  1.00  0.00    -0.394 OA
ATOM     32  H   UNL     1      -3.347  96.462 -18.174  1.00  0.00     0.210 HD
ENDBRANCH  30  31
ENDBRANCH  24  30
BRANCH  25  33
ATOM     33  O   UNL     1      -6.532  94.213 -20.916  1.00  0.00    -0.388 OA
ATOM     34  H   UNL     1      -6.699  93.382 -20.398  1.00  0.00     0.211 HD
ENDBRANCH  25  33
ENDBRANCH  11  20
BRANCH  10  35
ATOM     35  O   UNL     1      -4.279  91.955 -18.711  1.00  0.00    -0.507 OA
ATOM     36  H   UNL     1      -5.133  92.036 -19.251  1.00  0.00     0.293 HD
ENDBRANCH  10  35
TORSDOF 9
ENDMDL
