MODEL 1
REMARK VINA RESULT:    -4.152      0.000      0.000
REMARK INTER + INTRA:          -4.273
REMARK INTER:                  -4.273
REMARK INTRA:                   0.000
REMARK UNBOUND:                 0.000
REMARK SMILES Cc1ccccc1O
REMARK SMILES IDX 1 1 2 2 3 3 4 4 5 5 6 6 7 7 8 8
REMARK H PARENT 8 9
REMARK Flexibility Score: inf
ROOT
ATOM      1  C   UNL     1      -4.902   4.469  -5.036  1.00  0.00     0.048 C 
ATOM      2  C   UNL     1      -5.710   3.335  -5.599  1.00  0.00    -0.009 A 
ATOM      3  C   UNL     1      -7.009   3.085  -5.123  1.00  0.00     0.007 A 
ATOM      4  C   UNL     1      -7.760   2.029  -5.648  1.00  0.00     0.001 A 
ATOM      5  C   UNL     1      -7.224   1.216  -6.649  1.00  0.00     0.004 A 
ATOM      6  C   UNL     1      -5.934   1.456  -7.128  1.00  0.00     0.046 A 
ATOM      7  C   UNL     1      -5.171   2.513  -6.608  1.00  0.00     0.118 A 
ENDROOT
BRANCH   7   8
ATOM      8  O   UNL     1      -3.884   2.749  -7.090  1.00  0.00    -0.508 OA
ATOM      9  H   UNL     1      -3.082   2.242  -6.733  1.00  0.00     0.293 HD
ENDBRANCH   7   8
TORSDOF 1
ENDMDL
MODEL 2
REMARK VINA RESULT:    -4.120     10.686     11.210
REMARK INTER + INTRA:          -4.240
REMARK INTER:                  -4.240
REMARK INTRA:                   0.000
REMARK UNBOUND:                 0.000
REMARK SMILES Cc1ccccc1O
REMARK SMILES IDX 1 1 2 2 3 3 4 4 5 5 6 6 7 7 8 8
REMARK H PARENT 8 9
REMARK Flexibility Score: inf
ROOT
ATOM      1  C   UNL     1       0.727   1.041   1.703  1.00  0.00     0.048 C 
ATOM      2  C   UNL     1      -0.154   0.110   2.487  1.00  0.00    -0.009 A 
ATOM      3  C   UNL     1      -1.512   0.415   2.682  1.00  0.00     0.007 A 
ATOM      4  C   UNL     1      -2.332  -0.451   3.411  1.00  0.00     0.001 A 
ATOM      5  C   UNL     1      -1.804  -1.626   3.951  1.00  0.00     0.004 A 
ATOM      6  C   UNL     1      -0.455  -1.938   3.764  1.00  0.00     0.046 A 
ATOM      7  C   UNL     1       0.375  -1.075   3.034  1.00  0.00     0.118 A 
ENDROOT
BRANCH   7   8
ATOM      8  O   UNL     1       1.721  -1.391   2.849  1.00  0.00    -0.508 OA
ATOM      9  H   UNL     1       2.086  -1.648   1.938  1.00  0.00     0.293 HD
ENDBRANCH   7   8
TORSDOF 1
ENDMDL
MODEL 3
REMARK VINA RESULT:    -4.058      9.133      9.878
REMARK INTER + INTRA:          -4.177
REMARK INTER:                  -4.177
REMARK INTRA:                   0.000
REMARK UNBOUND:                 0.000
REMARK SMILES Cc1ccccc1O
REMARK SMILES IDX 1 1 2 2 3 3 4 4 5 5 6 6 7 7 8 8
REMARK H PARENT 8 9
REMARK Flexibility Score: inf
ROOT
ATOM      1  C   UNL     1      -1.914   0.140   3.735  1.00  0.00     0.048 C 
ATOM      2  C   UNL     1      -1.184   0.122   2.422  1.00  0.00    -0.009 A 
ATOM      3  C   UNL     1       0.078   0.729   2.304  1.00  0.00     0.007 A 
ATOM      4  C   UNL     1       0.757   0.713   1.081  1.00  0.00     0.001 A 
ATOM      5  C   UNL     1       0.183   0.092  -0.030  1.00  0.00     0.004 A 
ATOM      6  C   UNL     1      -1.072  -0.513   0.076  1.00  0.00     0.046 A 
ATOM      7  C   UNL     1      -1.761  -0.502   1.299  1.00  0.00     0.118 A 
ENDROOT
BRANCH   7   8
ATOM      8  O   UNL     1      -3.012  -1.108   1.400  1.00  0.00    -0.508 OA
ATOM      9  H   UNL     1      -3.718  -0.994   0.681  1.00  0.00     0.293 HD
ENDBRANCH   7   8
TORSDOF 1
ENDMDL
MODEL 4
REMARK VINA RESULT:    -4.014      8.040      8.635
REMARK INTER + INTRA:          -4.131
REMARK INTER:                  -4.131
REMARK INTRA:                   0.000
REMARK UNBOUND:                 0.000
REMARK SMILES Cc1ccccc1O
REMARK SMILES IDX 1 1 2 2 3 3 4 4 5 5 6 6 7 7 8 8
REMARK H PARENT 8 9
REMARK Flexibility Score: inf
ROOT
ATOM      1  C   UNL     1      -1.718  -3.580  -0.707  1.00  0.00     0.048 C 
ATOM      2  C   UNL     1      -1.035  -2.284  -1.040  1.00  0.00    -0.009 A 
ATOM      3  C   UNL     1      -0.645  -1.404  -0.016  1.00  0.00     0.007 A 
ATOM      4  C   UNL     1      -0.009  -0.198  -0.326  1.00  0.00     0.001 A 
ATOM      5  C   UNL     1       0.241   0.140  -1.658  1.00  0.00     0.004 A 
ATOM      6  C   UNL     1      -0.144  -0.727  -2.684  1.00  0.00     0.046 A 
ATOM      7  C   UNL     1      -0.783  -1.940  -2.382  1.00  0.00     0.118 A 
ENDROOT
BRANCH   7   8
ATOM      8  O   UNL     1      -1.164  -2.803  -3.409  1.00  0.00    -0.508 OA
ATOM      9  H   UNL     1      -0.820  -2.687  -4.356  1.00  0.00     0.293 HD
ENDBRANCH   7   8
TORSDOF 1
ENDMDL
MODEL 5
REMARK VINA RESULT:    -4.004      8.896      9.641
REMARK INTER + INTRA:          -4.121
REMARK INTER:                  -4.121
REMARK INTRA:                   0.000
REMARK UNBOUND:                 0.000
REMARK SMILES Cc1ccccc1O
REMARK SMILES IDX 1 1 2 2 3 3 4 4 5 5 6 6 7 7 8 8
REMARK H PARENT 8 9
REMARK Flexibility Score: inf
ROOT
ATOM      1  C   UNL     1       0.587   0.128  -1.567  1.00  0.00     0.048 C 
ATOM      2  C   UNL     1       0.055   0.124  -0.162  1.00  0.00    -0.009 A 
ATOM      3  C   UNL     1      -1.220  -0.403   0.111  1.00  0.00     0.007 A 
ATOM      4  C   UNL     1      -1.715  -0.406   1.419  1.00  0.00     0.001 A 
ATOM      5  C   UNL     1      -0.945   0.115   2.461  1.00  0.00     0.004 A 
ATOM      6  C   UNL     1       0.322   0.642   2.200  1.00  0.00     0.046 A 
ATOM      7  C   UNL     1       0.828   0.650   0.891  1.00  0.00     0.118 A 
ENDROOT
BRANCH   7   8
ATOM      8  O   UNL     1       2.093   1.176   0.634  1.00  0.00    -0.508 OA
ATOM      9  H   UNL     1       2.708   0.766  -0.060  1.00  0.00     0.293 HD
ENDBRANCH   7   8
TORSDOF 1
ENDMDL
MODEL 6
REMARK VINA RESULT:    -3.968      9.589     10.078
REMARK INTER + INTRA:          -4.084
REMARK INTER:                  -4.084
REMARK INTRA:                   0.000
REMARK UNBOUND:                 0.000
REMARK SMILES Cc1ccccc1O
REMARK SMILES IDX 1 1 2 2 3 3 4 4 5 5 6 6 7 7 8 8
REMARK H PARENT 8 9
REMARK Flexibility Score: inf
ROOT
ATOM      1  C   UNL     1       0.344   0.075   0.203  1.00  0.00     0.048 C 
ATOM      2  C   UNL     1      -0.724  -0.342   1.173  1.00  0.00    -0.009 A 
ATOM      3  C   UNL     1      -1.806  -1.129   0.741  1.00  0.00     0.007 A 
ATOM      4  C   UNL     1      -2.801  -1.517   1.643  1.00  0.00     0.001 A 
ATOM      5  C   UNL     1      -2.725  -1.124   2.981  1.00  0.00     0.004 A 
ATOM      6  C   UNL     1      -1.654  -0.341   3.421  1.00  0.00     0.046 A 
ATOM      7  C   UNL     1      -0.651   0.053   2.522  1.00  0.00     0.118 A 
ENDROOT
BRANCH   7   8
ATOM      8  O   UNL     1       0.416   0.834   2.965  1.00  0.00    -0.508 OA
ATOM      9  H   UNL     1       1.323   0.800   2.512  1.00  0.00     0.293 HD
ENDBRANCH   7   8
TORSDOF 1
ENDMDL
MODEL 7
REMARK VINA RESULT:    -3.917      9.338     10.108
REMARK INTER + INTRA:          -4.032
REMARK INTER:                  -4.032
REMARK INTRA:                   0.000
REMARK UNBOUND:                 0.000
REMARK SMILES Cc1ccccc1O
REMARK SMILES IDX 1 1 2 2 3 3 4 4 5 5 6 6 7 7 8 8
REMARK H PARENT 8 9
REMARK Flexibility Score: inf
ROOT
ATOM      1  C   UNL     1      -3.002  -1.557   2.042  1.00  0.00     0.048 C 
ATOM      2  C   UNL     1      -1.769  -0.822   1.599  1.00  0.00    -0.009 A 
ATOM      3  C   UNL     1      -1.219  -1.063   0.328  1.00  0.00     0.007 A 
ATOM      4  C   UNL     1      -0.072  -0.379  -0.085  1.00  0.00     0.001 A 
ATOM      5  C   UNL     1       0.535   0.548   0.765  1.00  0.00     0.004 A 
ATOM      6  C   UNL     1      -0.003   0.794   2.031  1.00  0.00     0.046 A 
ATOM      7  C   UNL     1      -1.155   0.113   2.454  1.00  0.00     0.118 A 
ENDROOT
BRANCH   7   8
ATOM      8  O   UNL     1      -1.689   0.361   3.718  1.00  0.00    -0.508 OA
ATOM      9  H   UNL     1      -2.024  -0.390   4.310  1.00  0.00     0.293 HD
ENDBRANCH   7   8
TORSDOF 1
ENDMDL
MODEL 8
REMARK VINA RESULT:    -3.911      8.150      8.624
REMARK INTER + INTRA:          -4.025
REMARK INTER:                  -4.025
REMARK INTRA:                   0.000
REMARK UNBOUND:                 0.000
REMARK SMILES Cc1ccccc1O
REMARK SMILES IDX 1 1 2 2 3 3 4 4 5 5 6 6 7 7 8 8
REMARK H PARENT 8 9
REMARK Flexibility Score: inf
ROOT
ATOM      1  C   UNL     1      -0.819  -1.405   0.782  1.00  0.00     0.048 C 
ATOM      2  C   UNL     1      -0.461  -1.409  -0.677  1.00  0.00    -0.009 A 
ATOM      3  C   UNL     1      -0.763  -2.524  -1.478  1.00  0.00     0.007 A 
ATOM      4  C   UNL     1      -0.429  -2.528  -2.836  1.00  0.00     0.001 A 
ATOM      5  C   UNL     1       0.206  -1.421  -3.404  1.00  0.00     0.004 A 
ATOM      6  C   UNL     1       0.511  -0.308  -2.617  1.00  0.00     0.046 A 
ATOM      7  C   UNL     1       0.181  -0.296  -1.253  1.00  0.00     0.118 A 
ENDROOT
BRANCH   7   8
ATOM      8  O   UNL     1       0.486   0.817  -0.471  1.00  0.00    -0.508 OA
ATOM      9  H   UNL     1      -0.022   1.023   0.382  1.00  0.00     0.293 HD
ENDBRANCH   7   8
TORSDOF 1
ENDMDL
MODEL 9
REMARK VINA RESULT:    -3.906      9.368      9.954
REMARK INTER + INTRA:          -4.020
REMARK INTER:                  -4.020
REMARK INTRA:                   0.000
REMARK UNBOUND:                 0.000
REMARK SMILES Cc1ccccc1O
REMARK SMILES IDX 1 1 2 2 3 3 4 4 5 5 6 6 7 7 8 8
REMARK H PARENT 8 9
REMARK Flexibility Score: inf
ROOT
ATOM      1  C   UNL     1       1.861   1.253   1.399  1.00  0.00     0.048 C 
ATOM      2  C   UNL     1       0.696   0.382   1.025  1.00  0.00    -0.009 A 
ATOM      3  C   UNL     1       0.456   0.059  -0.322  1.00  0.00     0.007 A 
ATOM      4  C   UNL     1      -0.629  -0.751  -0.671  1.00  0.00     0.001 A 
ATOM      5  C   UNL     1      -1.481  -1.245   0.319  1.00  0.00     0.004 A 
ATOM      6  C   UNL     1      -1.252  -0.930   1.661  1.00  0.00     0.046 A 
ATOM      7  C   UNL     1      -0.166  -0.117   2.020  1.00  0.00     0.118 A 
ENDROOT
BRANCH   7   8
ATOM      8  O   UNL     1       0.059   0.195   3.361  1.00  0.00    -0.508 OA
ATOM      9  H   UNL     1      -0.668   0.090   4.060  1.00  0.00     0.293 HD
ENDBRANCH   7   8
TORSDOF 1
ENDMDL
