MODEL 1
REMARK VINA RESULT:    -3.294      0.000      0.000
REMARK INTER + INTRA:          -5.130
REMARK INTER:                  -4.643
REMARK INTRA:                  -0.488
REMARK UNBOUND:                -0.488
REMARK SMILES C=CCCCCCCC(=O)[O-]
REMARK SMILES IDX 6 1 7 2 8 3 9 4 10 5 11 6 5 7 4 8 3 9 2 10 1 11
REMARK H PARENT
REMARK Flexibility Score: inf
ROOT
ATOM      1  C   UNL     1      16.387  21.007   6.111  1.00  0.00     0.000 C 
ENDROOT
BRANCH   1   2
ATOM      2  C   UNL     1      17.001  22.289   5.518  1.00  0.00     0.006 C 
BRANCH   2   3
ATOM      3  C   UNL     1      17.544  22.114   4.088  1.00  0.00     0.053 C 
BRANCH   3   4
ATOM      4  C   UNL     1      17.321  23.325   3.234  1.00  0.00     0.041 C 
ATOM      5  O   UNL     1      16.335  23.377   2.452  1.00  0.00    -0.550 OA
ATOM      6  O   UNL     1      18.172  24.419   3.335  1.00  0.00    -0.550 OA
ENDBRANCH   3   4
ENDBRANCH   2   3
ENDBRANCH   1   2
BRANCH   1   7
ATOM      7  C   UNL     1      15.726  21.214   7.492  1.00  0.00     0.000 C 
BRANCH   7   8
ATOM      8  C   UNL     1      16.500  20.533   8.636  1.00  0.00     0.004 C 
BRANCH   8   9
ATOM      9  C   UNL     1      17.666  21.384   9.173  1.00  0.00     0.027 C 
BRANCH   9  10
ATOM     10  C   UNL     1      17.240  22.784   9.525  1.00  0.00    -0.035 C 
ATOM     11  C   UNL     1      17.912  23.855   9.093  1.00  0.00     0.004 C 
ENDBRANCH   9  10
ENDBRANCH   8   9
ENDBRANCH   7   8
ENDBRANCH   1   7
TORSDOF 7
ENDMDL
MODEL 2
REMARK VINA RESULT:    -3.256      1.561      2.473
REMARK INTER + INTRA:          -5.076
REMARK INTER:                  -4.658
REMARK INTRA:                  -0.417
REMARK UNBOUND:                -0.488
REMARK SMILES C=CCCCCCCC(=O)[O-]
REMARK SMILES IDX 6 1 7 2 8 3 9 4 10 5 11 6 5 7 4 8 3 9 2 10 1 11
REMARK H PARENT
REMARK Flexibility Score: inf
ROOT
ATOM      1  C   UNL     1      17.164  22.169   5.141  1.00  0.00     0.000 C 
ENDROOT
BRANCH   1   2
ATOM      2  C   UNL     1      17.599  22.701   3.763  1.00  0.00     0.006 C 
BRANCH   2   3
ATOM      3  C   UNL     1      16.514  23.518   3.040  1.00  0.00     0.053 C 
BRANCH   3   4
ATOM      4  C   UNL     1      16.087  22.895   1.745  1.00  0.00     0.041 C 
ATOM      5  O   UNL     1      16.200  23.534   0.667  1.00  0.00    -0.550 OA
ATOM      6  O   UNL     1      15.612  21.590   1.721  1.00  0.00    -0.550 OA
ENDBRANCH   3   4
ENDBRANCH   2   3
ENDBRANCH   1   2
BRANCH   1   7
ATOM      7  C   UNL     1      16.506  23.238   6.042  1.00  0.00     0.000 C 
BRANCH   7   8
ATOM      8  C   UNL     1      15.848  22.641   7.300  1.00  0.00     0.004 C 
BRANCH   8   9
ATOM      9  C   UNL     1      15.911  21.103   7.347  1.00  0.00     0.027 C 
BRANCH   9  10
ATOM     10  C   UNL     1      16.681  20.597   8.538  1.00  0.00    -0.035 C 
ATOM     11  C   UNL     1      17.551  21.369   9.195  1.00  0.00     0.004 C 
ENDBRANCH   9  10
ENDBRANCH   8   9
ENDBRANCH   7   8
ENDBRANCH   1   7
TORSDOF 7
ENDMDL
MODEL 3
REMARK VINA RESULT:    -3.147      2.529      4.830
REMARK INTER + INTRA:          -4.922
REMARK INTER:                  -4.580
REMARK INTRA:                  -0.343
REMARK UNBOUND:                -0.488
REMARK SMILES C=CCCCCCCC(=O)[O-]
REMARK SMILES IDX 6 1 7 2 8 3 9 4 10 5 11 6 5 7 4 8 3 9 2 10 1 11
REMARK H PARENT
REMARK Flexibility Score: inf
ROOT
ATOM      1  C   UNL     1      16.184  21.343   8.268  1.00  0.00     0.000 C 
ENDROOT
BRANCH   1   2
ATOM      2  C   UNL     1      17.513  21.712   8.953  1.00  0.00     0.006 C 
BRANCH   2   3
ATOM      3  C   UNL     1      17.431  22.974   9.830  1.00  0.00     0.053 C 
BRANCH   3   4
ATOM      4  C   UNL     1      17.750  24.227   9.071  1.00  0.00     0.041 C 
ATOM      5  O   UNL     1      16.839  24.853   8.469  1.00  0.00    -0.550 OA
ATOM      6  O   UNL     1      19.044  24.732   9.069  1.00  0.00    -0.550 OA
ENDBRANCH   3   4
ENDBRANCH   2   3
ENDBRANCH   1   2
BRANCH   1   7
ATOM      7  C   UNL     1      16.321  21.053   6.757  1.00  0.00     0.000 C 
BRANCH   7   8
ATOM      8  C   UNL     1      16.801  22.275   5.952  1.00  0.00     0.004 C 
BRANCH   8   9
ATOM      9  C   UNL     1      17.311  21.915   4.545  1.00  0.00     0.027 C 
BRANCH   9  10
ATOM     10  C   UNL     1      17.211  23.071   3.585  1.00  0.00    -0.035 C 
ATOM     11  C   UNL     1      18.052  24.107   3.639  1.00  0.00     0.004 C 
ENDBRANCH   9  10
ENDBRANCH   8   9
ENDBRANCH   7   8
ENDBRANCH   1   7
TORSDOF 7
ENDMDL
MODEL 4
REMARK VINA RESULT:    -3.082      1.332      2.576
REMARK INTER + INTRA:          -4.830
REMARK INTER:                  -4.225
REMARK INTRA:                  -0.605
REMARK UNBOUND:                -0.488
REMARK SMILES C=CCCCCCCC(=O)[O-]
REMARK SMILES IDX 6 1 7 2 8 3 9 4 10 5 11 6 5 7 4 8 3 9 2 10 1 11
REMARK H PARENT
REMARK Flexibility Score: inf
ROOT
ATOM      1  C   UNL     1      17.206  24.548   7.585  1.00  0.00     0.000 C 
ENDROOT
BRANCH   1   2
ATOM      2  C   UNL     1      16.814  24.465   6.099  1.00  0.00     0.006 C 
BRANCH   2   3
ATOM      3  C   UNL     1      16.757  23.028   5.550  1.00  0.00     0.053 C 
BRANCH   3   4
ATOM      4  C   UNL     1      17.485  22.877   4.249  1.00  0.00     0.041 C 
ATOM      5  O   UNL     1      17.436  21.788   3.618  1.00  0.00    -0.550 OA
ATOM      6  O   UNL     1      18.177  23.952   3.706  1.00  0.00    -0.550 OA
ENDBRANCH   3   4
ENDBRANCH   2   3
ENDBRANCH   1   2
BRANCH   1   7
ATOM      7  C   UNL     1      16.417  23.578   8.494  1.00  0.00     0.000 C 
BRANCH   7   8
ATOM      8  C   UNL     1      17.329  22.705   9.375  1.00  0.00     0.004 C 
BRANCH   8   9
ATOM      9  C   UNL     1      17.428  21.247   8.892  1.00  0.00     0.027 C 
BRANCH   9  10
ATOM     10  C   UNL     1      16.089  20.680   8.501  1.00  0.00    -0.035 C 
ATOM     11  C   UNL     1      15.938  19.919   7.413  1.00  0.00     0.004 C 
ENDBRANCH   9  10
ENDBRANCH   8   9
ENDBRANCH   7   8
ENDBRANCH   1   7
TORSDOF 7
ENDMDL
MODEL 5
REMARK VINA RESULT:    -3.016      2.198      3.082
REMARK INTER + INTRA:          -4.738
REMARK INTER:                  -4.381
REMARK INTRA:                  -0.357
REMARK UNBOUND:                -0.488
REMARK SMILES C=CCCCCCCC(=O)[O-]
REMARK SMILES IDX 6 1 7 2 8 3 9 4 10 5 11 6 5 7 4 8 3 9 2 10 1 11
REMARK H PARENT
REMARK Flexibility Score: inf
ROOT
ATOM      1  C   UNL     1      17.380  23.672   4.523  1.00  0.00     0.000 C 
ENDROOT
BRANCH   1   2
ATOM      2  C   UNL     1      17.532  22.223   4.025  1.00  0.00     0.006 C 
BRANCH   2   3
ATOM      3  C   UNL     1      16.598  21.866   2.854  1.00  0.00     0.053 C 
BRANCH   3   4
ATOM      4  C   UNL     1      16.095  20.456   2.926  1.00  0.00     0.041 C 
ATOM      5  O   UNL     1      15.396  19.984   1.991  1.00  0.00    -0.550 OA
ATOM      6  O   UNL     1      16.439  19.644   4.000  1.00  0.00    -0.550 OA
ENDBRANCH   3   4
ENDBRANCH   2   3
ENDBRANCH   1   2
BRANCH   1   7
ATOM      7  C   UNL     1      16.664  23.790   5.888  1.00  0.00     0.000 C 
BRANCH   7   8
ATOM      8  C   UNL     1      16.571  22.447   6.635  1.00  0.00     0.004 C 
BRANCH   8   9
ATOM      9  C   UNL     1      17.250  22.470   8.016  1.00  0.00     0.027 C 
BRANCH   9  10
ATOM     10  C   UNL     1      17.140  21.150   8.732  1.00  0.00    -0.035 C 
ATOM     11  C   UNL     1      16.229  20.236   8.389  1.00  0.00     0.004 C 
ENDBRANCH   9  10
ENDBRANCH   8   9
ENDBRANCH   7   8
ENDBRANCH   1   7
TORSDOF 7
ENDMDL
MODEL 6
REMARK VINA RESULT:    -2.974     15.705     16.876
REMARK INTER + INTRA:          -4.679
REMARK INTER:                  -4.364
REMARK INTRA:                  -0.315
REMARK UNBOUND:                -0.488
REMARK SMILES C=CCCCCCCC(=O)[O-]
REMARK SMILES IDX 6 1 7 2 8 3 9 4 10 5 11 6 5 7 4 8 3 9 2 10 1 11
REMARK H PARENT
REMARK Flexibility Score: inf
ROOT
ATOM      1  C   UNL     1      34.407  24.149   5.990  1.00  0.00     0.000 C 
ENDROOT
BRANCH   1   2
ATOM      2  C   UNL     1      33.113  24.960   6.191  1.00  0.00     0.006 C 
BRANCH   2   3
ATOM      3  C   UNL     1      32.173  24.376   7.260  1.00  0.00     0.053 C 
BRANCH   3   4
ATOM      4  C   UNL     1      30.912  23.815   6.675  1.00  0.00     0.041 C 
ATOM      5  O   UNL     1      29.816  23.951   7.281  1.00  0.00    -0.550 OA
ATOM      6  O   UNL     1      30.935  23.185   5.437  1.00  0.00    -0.550 OA
ENDBRANCH   3   4
ENDBRANCH   2   3
ENDBRANCH   1   2
BRANCH   1   7
ATOM      7  C   UNL     1      34.750  23.881   4.507  1.00  0.00     0.000 C 
BRANCH   7   8
ATOM      8  C   UNL     1      33.953  22.706   3.909  1.00  0.00     0.004 C 
BRANCH   8   9
ATOM      9  C   UNL     1      34.844  21.648   3.234  1.00  0.00     0.027 C 
BRANCH   9  10
ATOM     10  C   UNL     1      35.125  20.474   4.134  1.00  0.00    -0.035 C 
ATOM     11  C   UNL     1      34.842  19.221   3.767  1.00  0.00     0.004 C 
ENDBRANCH   9  10
ENDBRANCH   8   9
ENDBRANCH   7   8
ENDBRANCH   1   7
TORSDOF 7
ENDMDL
MODEL 7
REMARK VINA RESULT:    -2.964      3.134      5.790
REMARK INTER + INTRA:          -4.664
REMARK INTER:                  -4.227
REMARK INTRA:                  -0.438
REMARK UNBOUND:                -0.488
REMARK SMILES C=CCCCCCCC(=O)[O-]
REMARK SMILES IDX 6 1 7 2 8 3 9 4 10 5 11 6 5 7 4 8 3 9 2 10 1 11
REMARK H PARENT
REMARK Flexibility Score: inf
ROOT
ATOM      1  C   UNL     1      16.831  21.597   5.184  1.00  0.00     0.000 C 
ENDROOT
BRANCH   1   2
ATOM      2  C   UNL     1      16.765  22.662   6.294  1.00  0.00     0.006 C 
BRANCH   2   3
ATOM      3  C   UNL     1      15.896  22.254   7.496  1.00  0.00     0.053 C 
BRANCH   3   4
ATOM      4  C   UNL     1      16.528  21.180   8.328  1.00  0.00     0.041 C 
ATOM      5  O   UNL     1      16.080  20.003   8.290  1.00  0.00    -0.550 OA
ATOM      6  O   UNL     1      17.643  21.463   9.107  1.00  0.00    -0.550 OA
ENDBRANCH   3   4
ENDBRANCH   2   3
ENDBRANCH   1   2
BRANCH   1   7
ATOM      7  C   UNL     1      17.557  22.073   3.905  1.00  0.00     0.000 C 
BRANCH   7   8
ATOM      8  C   UNL     1      17.812  23.591   3.889  1.00  0.00     0.004 C 
BRANCH   8   9
ATOM      9  C   UNL     1      17.176  24.303   2.681  1.00  0.00     0.027 C 
BRANCH   9  10
ATOM     10  C   UNL     1      16.075  23.491   2.051  1.00  0.00    -0.035 C 
ATOM     11  C   UNL     1      15.991  23.326   0.728  1.00  0.00     0.004 C 
ENDBRANCH   9  10
ENDBRANCH   8   9
ENDBRANCH   7   8
ENDBRANCH   1   7
TORSDOF 7
ENDMDL
MODEL 8
REMARK VINA RESULT:    -2.873      3.178      5.204
REMARK INTER + INTRA:          -4.536
REMARK INTER:                  -3.966
REMARK INTRA:                  -0.570
REMARK UNBOUND:                -0.488
REMARK SMILES C=CCCCCCCC(=O)[O-]
REMARK SMILES IDX 6 1 7 2 8 3 9 4 10 5 11 6 5 7 4 8 3 9 2 10 1 11
REMARK H PARENT
REMARK Flexibility Score: inf
ROOT
ATOM      1  C   UNL     1      16.594  23.802   7.908  1.00  0.00     0.000 C 
ENDROOT
BRANCH   1   2
ATOM      2  C   UNL     1      16.577  22.339   8.388  1.00  0.00     0.006 C 
BRANCH   2   3
ATOM      3  C   UNL     1      16.552  21.309   7.244  1.00  0.00     0.053 C 
BRANCH   3   4
ATOM      4  C   UNL     1      15.865  20.034   7.629  1.00  0.00     0.041 C 
ATOM      5  O   UNL     1      15.129  19.994   8.650  1.00  0.00    -0.550 OA
ATOM      6  O   UNL     1      15.994  18.902   6.834  1.00  0.00    -0.550 OA
ENDBRANCH   3   4
ENDBRANCH   2   3
ENDBRANCH   1   2
BRANCH   1   7
ATOM      7  C   UNL     1      16.111  23.986   6.451  1.00  0.00     0.000 C 
BRANCH   7   8
ATOM      8  C   UNL     1      17.133  24.727   5.569  1.00  0.00     0.004 C 
BRANCH   8   9
ATOM      9  C   UNL     1      17.190  24.195   4.126  1.00  0.00     0.027 C 
BRANCH   9  10
ATOM     10  C   UNL     1      17.801  22.822   4.042  1.00  0.00    -0.035 C 
ATOM     11  C   UNL     1      17.119  21.774   3.570  1.00  0.00     0.004 C 
ENDBRANCH   9  10
ENDBRANCH   8   9
ENDBRANCH   7   8
ENDBRANCH   1   7
TORSDOF 7
ENDMDL
MODEL 9
REMARK VINA RESULT:    -2.819      3.146      5.857
REMARK INTER + INTRA:          -4.460
REMARK INTER:                  -4.107
REMARK INTRA:                  -0.353
REMARK UNBOUND:                -0.488
REMARK SMILES C=CCCCCCCC(=O)[O-]
REMARK SMILES IDX 6 1 7 2 8 3 9 4 10 5 11 6 5 7 4 8 3 9 2 10 1 11
REMARK H PARENT
REMARK Flexibility Score: inf
ROOT
ATOM      1  C   UNL     1      16.735  23.557   5.421  1.00  0.00     0.000 C 
ENDROOT
BRANCH   1   2
ATOM      2  C   UNL     1      16.144  23.473   6.841  1.00  0.00     0.006 C 
BRANCH   2   3
ATOM      3  C   UNL     1      16.091  22.044   7.409  1.00  0.00     0.053 C 
BRANCH   3   4
ATOM      4  C   UNL     1      17.064  21.833   8.530  1.00  0.00     0.041 C 
ATOM      5  O   UNL     1      17.290  20.672   8.963  1.00  0.00    -0.550 OA
ATOM      6  O   UNL     1      17.759  22.910   9.065  1.00  0.00    -0.550 OA
ENDBRANCH   3   4
ENDBRANCH   2   3
ENDBRANCH   1   2
BRANCH   1   7
ATOM      7  C   UNL     1      17.150  22.188   4.837  1.00  0.00     0.000 C 
BRANCH   7   8
ATOM      8  C   UNL     1      17.135  22.163   3.297  1.00  0.00     0.004 C 
BRANCH   8   9
ATOM      9  C   UNL     1      16.400  23.365   2.676  1.00  0.00     0.027 C 
BRANCH   9  10
ATOM     10  C   UNL     1      15.999  23.117   1.246  1.00  0.00    -0.035 C 
ATOM     11  C   UNL     1      15.158  22.136   0.910  1.00  0.00     0.004 C 
ENDBRANCH   9  10
ENDBRANCH   8   9
ENDBRANCH   7   8
ENDBRANCH   1   7
TORSDOF 7
ENDMDL
