MODEL 1
REMARK VINA RESULT:    -3.891      0.000      0.000
REMARK INTER + INTRA:          -5.173
REMARK INTER:                  -5.028
REMARK INTRA:                  -0.145
REMARK UNBOUND:                -0.145
REMARK SMILES CCCCCCC(=O)[O-]
REMARK SMILES IDX 5 1 6 2 7 3 8 4 9 5 4 6 3 7 2 8 1 9
REMARK H PARENT
REMARK Flexibility Score: inf
ROOT
ATOM      1  C   UNL     1      -3.094  -0.024  -0.782  1.00  0.00     0.006 C 
ENDROOT
BRANCH   1   2
ATOM      2  C   UNL     1      -3.750   1.206  -0.148  1.00  0.00     0.053 C 
BRANCH   2   3
ATOM      3  C   UNL     1      -2.780   2.343  -0.079  1.00  0.00     0.041 C 
ATOM      4  O   UNL     1      -1.541   2.122  -0.114  1.00  0.00    -0.550 OA
ATOM      5  O   UNL     1      -3.244   3.650  -0.026  1.00  0.00    -0.550 OA
ENDBRANCH   2   3
ENDBRANCH   1   2
BRANCH   1   6
ATOM      6  C   UNL     1      -4.150  -1.062  -1.185  1.00  0.00     0.000 C 
BRANCH   6   7
ATOM      7  C   UNL     1      -3.799  -1.786  -2.496  1.00  0.00    -0.000 C 
BRANCH   7   8
ATOM      8  C   UNL     1      -3.824  -3.315  -2.352  1.00  0.00    -0.003 C 
ATOM      9  C   UNL     1      -3.840  -3.729  -0.883  1.00  0.00     0.004 C 
ENDBRANCH   7   8
ENDBRANCH   6   7
ENDBRANCH   1   6
TORSDOF 5
ENDMDL
MODEL 2
REMARK VINA RESULT:    -3.843      3.378      5.528
REMARK INTER + INTRA:          -5.112
REMARK INTER:                  -5.038
REMARK INTRA:                  -0.073
REMARK UNBOUND:                -0.145
REMARK SMILES CCCCCCC(=O)[O-]
REMARK SMILES IDX 5 1 6 2 7 3 8 4 9 5 4 6 3 7 2 8 1 9
REMARK H PARENT
REMARK Flexibility Score: inf
ROOT
ATOM      1  C   UNL     1      -3.362  -0.826  -1.130  1.00  0.00     0.006 C 
ENDROOT
BRANCH   1   2
ATOM      2  C   UNL     1      -4.201  -1.549  -2.189  1.00  0.00     0.053 C 
BRANCH   2   3
ATOM      3  C   UNL     1      -3.830  -2.997  -2.253  1.00  0.00     0.041 C 
ATOM      4  O   UNL     1      -3.506  -3.520  -3.351  1.00  0.00    -0.550 OA
ATOM      5  O   UNL     1      -3.794  -3.757  -1.091  1.00  0.00    -0.550 OA
ENDBRANCH   2   3
ENDBRANCH   1   2
BRANCH   1   6
ATOM      6  C   UNL     1      -4.016   0.503  -0.726  1.00  0.00     0.000 C 
BRANCH   6   7
ATOM      7  C   UNL     1      -3.031   1.464  -0.041  1.00  0.00    -0.000 C 
BRANCH   7   8
ATOM      8  C   UNL     1      -3.694   2.780   0.393  1.00  0.00    -0.003 C 
ATOM      9  C   UNL     1      -2.924   3.985  -0.140  1.00  0.00     0.004 C 
ENDBRANCH   7   8
ENDBRANCH   6   7
ENDBRANCH   1   6
TORSDOF 5
ENDMDL
MODEL 3
REMARK VINA RESULT:    -3.740      1.284      1.811
REMARK INTER + INTRA:          -4.978
REMARK INTER:                  -4.884
REMARK INTRA:                  -0.095
REMARK UNBOUND:                -0.145
REMARK SMILES CCCCCCC(=O)[O-]
REMARK SMILES IDX 5 1 6 2 7 3 8 4 9 5 4 6 3 7 2 8 1 9
REMARK H PARENT
REMARK Flexibility Score: inf
ROOT
ATOM      1  C   UNL     1      -3.021   1.368   0.024  1.00  0.00     0.006 C 
ENDROOT
BRANCH   1   2
ATOM      2  C   UNL     1      -3.693   2.682   0.433  1.00  0.00     0.053 C 
BRANCH   2   3
ATOM      3  C   UNL     1      -2.979   3.848  -0.174  1.00  0.00     0.041 C 
ATOM      4  O   UNL     1      -2.521   4.763   0.559  1.00  0.00    -0.550 OA
ATOM      5  O   UNL     1      -2.775   3.899  -1.547  1.00  0.00    -0.550 OA
ENDBRANCH   2   3
ENDBRANCH   1   2
BRANCH   1   6
ATOM      6  C   UNL     1      -3.991   0.478  -0.766  1.00  0.00     0.000 C 
BRANCH   6   7
ATOM      7  C   UNL     1      -3.382  -0.887  -1.128  1.00  0.00    -0.000 C 
BRANCH   7   8
ATOM      8  C   UNL     1      -4.122  -1.576  -2.284  1.00  0.00    -0.003 C 
ATOM      9  C   UNL     1      -3.786  -3.063  -2.343  1.00  0.00     0.004 C 
ENDBRANCH   7   8
ENDBRANCH   6   7
ENDBRANCH   1   6
TORSDOF 5
ENDMDL
MODEL 4
REMARK VINA RESULT:    -3.570      1.732      2.641
REMARK INTER + INTRA:          -4.758
REMARK INTER:                  -4.681
REMARK INTRA:                  -0.077
REMARK UNBOUND:                -0.145
REMARK SMILES CCCCCCC(=O)[O-]
REMARK SMILES IDX 5 1 6 2 7 3 8 4 9 5 4 6 3 7 2 8 1 9
REMARK H PARENT
REMARK Flexibility Score: inf
ROOT
ATOM      1  C   UNL     1      -2.984   2.476  -0.471  1.00  0.00     0.006 C 
ENDROOT
BRANCH   1   2
ATOM      2  C   UNL     1      -3.490   3.617   0.417  1.00  0.00     0.053 C 
BRANCH   2   3
ATOM      3  C   UNL     1      -2.927   4.926  -0.038  1.00  0.00     0.041 C 
ATOM      4  O   UNL     1      -2.304   5.664   0.770  1.00  0.00    -0.550 OA
ATOM      5  O   UNL     1      -3.047   5.309  -1.368  1.00  0.00    -0.550 OA
ENDBRANCH   2   3
ENDBRANCH   1   2
BRANCH   1   6
ATOM      6  C   UNL     1      -3.640   1.144  -0.080  1.00  0.00     0.000 C 
BRANCH   6   7
ATOM      7  C   UNL     1      -3.032  -0.056  -0.823  1.00  0.00    -0.000 C 
BRANCH   7   8
ATOM      8  C   UNL     1      -4.087  -1.095  -1.232  1.00  0.00    -0.003 C 
ATOM      9  C   UNL     1      -3.651  -1.863  -2.476  1.00  0.00     0.004 C 
ENDBRANCH   7   8
ENDBRANCH   6   7
ENDBRANCH   1   6
TORSDOF 5
ENDMDL
MODEL 5
REMARK VINA RESULT:    -2.934     11.184     12.284
REMARK INTER + INTRA:          -3.936
REMARK INTER:                  -3.578
REMARK INTRA:                  -0.358
REMARK UNBOUND:                -0.145
REMARK SMILES CCCCCCC(=O)[O-]
REMARK SMILES IDX 5 1 6 2 7 3 8 4 9 5 4 6 3 7 2 8 1 9
REMARK H PARENT
REMARK Flexibility Score: inf
ROOT
ATOM      1  C   UNL     1      -6.473   8.467  -8.649  1.00  0.00     0.006 C 
ENDROOT
BRANCH   1   2
ATOM      2  C   UNL     1      -7.023   8.030  -7.288  1.00  0.00     0.053 C 
BRANCH   2   3
ATOM      3  C   UNL     1      -7.153   6.541  -7.228  1.00  0.00     0.041 C 
ATOM      4  O   UNL     1      -7.921   6.004  -6.387  1.00  0.00    -0.550 OA
ATOM      5  O   UNL     1      -6.464   5.746  -8.136  1.00  0.00    -0.550 OA
ENDBRANCH   2   3
ENDBRANCH   1   2
BRANCH   1   6
ATOM      6  C   UNL     1      -7.599   8.988  -9.554  1.00  0.00     0.000 C 
BRANCH   6   7
ATOM      7  C   UNL     1      -8.829   9.456  -8.760  1.00  0.00    -0.000 C 
BRANCH   7   8
ATOM      8  C   UNL     1     -10.124   8.768  -9.216  1.00  0.00    -0.003 C 
ATOM      9  C   UNL     1      -9.870   7.312  -9.595  1.00  0.00     0.004 C 
ENDBRANCH   7   8
ENDBRANCH   6   7
ENDBRANCH   1   6
TORSDOF 5
ENDMDL
MODEL 6
REMARK VINA RESULT:    -2.921      3.200      4.067
REMARK INTER + INTRA:          -3.919
REMARK INTER:                  -3.754
REMARK INTRA:                  -0.165
REMARK UNBOUND:                -0.145
REMARK SMILES CCCCCCC(=O)[O-]
REMARK SMILES IDX 5 1 6 2 7 3 8 4 9 5 4 6 3 7 2 8 1 9
REMARK H PARENT
REMARK Flexibility Score: inf
ROOT
ATOM      1  C   UNL     1      -2.982   2.874  -0.603  1.00  0.00     0.006 C 
ENDROOT
BRANCH   1   2
ATOM      2  C   UNL     1      -3.252   3.872   0.527  1.00  0.00     0.053 C 
BRANCH   2   3
ATOM      3  C   UNL     1      -2.793   5.242   0.139  1.00  0.00     0.041 C 
ATOM      4  O   UNL     1      -3.040   5.691  -1.011  1.00  0.00    -0.550 OA
ATOM      5  O   UNL     1      -2.138   6.043   1.065  1.00  0.00    -0.550 OA
ENDBRANCH   2   3
ENDBRANCH   1   2
BRANCH   1   6
ATOM      6  C   UNL     1      -3.182   1.431  -0.120  1.00  0.00     0.000 C 
BRANCH   6   7
ATOM      7  C   UNL     1      -1.913   0.576  -0.265  1.00  0.00    -0.000 C 
BRANCH   7   8
ATOM      8  C   UNL     1      -0.646   1.315   0.193  1.00  0.00    -0.003 C 
ATOM      9  C   UNL     1       0.598   0.740  -0.477  1.00  0.00     0.004 C 
ENDBRANCH   7   8
ENDBRANCH   6   7
ENDBRANCH   1   6
TORSDOF 5
ENDMDL
MODEL 7
REMARK VINA RESULT:    -2.787     12.219     13.271
REMARK INTER + INTRA:          -3.747
REMARK INTER:                  -3.576
REMARK INTRA:                  -0.171
REMARK UNBOUND:                -0.145
REMARK SMILES CCCCCCC(=O)[O-]
REMARK SMILES IDX 5 1 6 2 7 3 8 4 9 5 4 6 3 7 2 8 1 9
REMARK H PARENT
REMARK Flexibility Score: inf
ROOT
ATOM      1  C   UNL     1       1.767  -6.643   9.930  1.00  0.00     0.006 C 
ENDROOT
BRANCH   1   2
ATOM      2  C   UNL     1       0.488  -5.847   9.653  1.00  0.00     0.053 C 
BRANCH   2   3
ATOM      3  C   UNL     1       0.763  -4.726   8.701  1.00  0.00     0.041 C 
ATOM      4  O   UNL     1       1.347  -3.684   9.100  1.00  0.00    -0.550 OA
ATOM      5  O   UNL     1       0.421  -4.852   7.361  1.00  0.00    -0.550 OA
ENDBRANCH   2   3
ENDBRANCH   1   2
BRANCH   1   6
ATOM      6  C   UNL     1       2.039  -7.654   8.808  1.00  0.00     0.000 C 
BRANCH   6   7
ATOM      7  C   UNL     1       3.112  -8.687   9.187  1.00  0.00    -0.000 C 
BRANCH   7   8
ATOM      8  C   UNL     1       4.475  -8.388   8.545  1.00  0.00    -0.003 C 
ATOM      9  C   UNL     1       5.334  -7.517   9.458  1.00  0.00     0.004 C 
ENDBRANCH   7   8
ENDBRANCH   6   7
ENDBRANCH   1   6
TORSDOF 5
ENDMDL
MODEL 8
REMARK VINA RESULT:    -2.780     13.829     14.275
REMARK INTER + INTRA:          -3.737
REMARK INTER:                  -3.569
REMARK INTRA:                  -0.168
REMARK UNBOUND:                -0.145
REMARK SMILES CCCCCCC(=O)[O-]
REMARK SMILES IDX 5 1 6 2 7 3 8 4 9 5 4 6 3 7 2 8 1 9
REMARK H PARENT
REMARK Flexibility Score: inf
ROOT
ATOM      1  C   UNL     1       7.242   2.527  -9.198  1.00  0.00     0.006 C 
ENDROOT
BRANCH   1   2
ATOM      2  C   UNL     1       6.557   3.712  -9.886  1.00  0.00     0.053 C 
BRANCH   2   3
ATOM      3  C   UNL     1       7.153   5.004  -9.423  1.00  0.00     0.041 C 
ATOM      4  O   UNL     1       8.402   5.130  -9.331  1.00  0.00    -0.550 OA
ATOM      5  O   UNL     1       6.330   6.087  -9.142  1.00  0.00    -0.550 OA
ENDBRANCH   2   3
ENDBRANCH   1   2
BRANCH   1   6
ATOM      6  C   UNL     1       6.945   1.216  -9.940  1.00  0.00     0.000 C 
BRANCH   6   7
ATOM      7  C   UNL     1       7.841   0.057  -9.474  1.00  0.00    -0.000 C 
BRANCH   7   8
ATOM      8  C   UNL     1       9.290   0.495  -9.216  1.00  0.00    -0.003 C 
ATOM      9  C   UNL     1       9.832  -0.125  -7.931  1.00  0.00     0.004 C 
ENDBRANCH   7   8
ENDBRANCH   6   7
ENDBRANCH   1   6
TORSDOF 5
ENDMDL
MODEL 9
REMARK VINA RESULT:    -2.763     13.240     14.546
REMARK INTER + INTRA:          -3.716
REMARK INTER:                  -3.586
REMARK INTRA:                  -0.130
REMARK UNBOUND:                -0.145
REMARK SMILES CCCCCCC(=O)[O-]
REMARK SMILES IDX 5 1 6 2 7 3 8 4 9 5 4 6 3 7 2 8 1 9
REMARK H PARENT
REMARK Flexibility Score: inf
ROOT
ATOM      1  C   UNL     1       3.063  -7.875   9.033  1.00  0.00     0.006 C 
ENDROOT
BRANCH   1   2
ATOM      2  C   UNL     1       4.501  -8.320   9.313  1.00  0.00     0.053 C 
BRANCH   2   3
ATOM      3  C   UNL     1       5.245  -8.527   8.032  1.00  0.00     0.041 C 
ATOM      4  O   UNL     1       5.621  -9.681   7.695  1.00  0.00    -0.550 OA
ATOM      5  O   UNL     1       5.481  -7.452   7.184  1.00  0.00    -0.550 OA
ENDBRANCH   2   3
ENDBRANCH   1   2
BRANCH   1   6
ATOM      6  C   UNL     1       2.622  -6.787  10.023  1.00  0.00     0.000 C 
BRANCH   6   7
ATOM      7  C   UNL     1       1.098  -6.587  10.044  1.00  0.00    -0.000 C 
BRANCH   7   8
ATOM      8  C   UNL     1       0.655  -5.335   9.272  1.00  0.00    -0.003 C 
ATOM      9  C   UNL     1       1.374  -4.090   9.785  1.00  0.00     0.004 C 
ENDBRANCH   7   8
ENDBRANCH   6   7
ENDBRANCH   1   6
TORSDOF 5
ENDMDL
