MODEL 1
REMARK VINA RESULT:    -4.020      0.000      0.000
REMARK INTER + INTRA:          -5.028
REMARK INTER:                  -4.725
REMARK INTRA:                  -0.303
REMARK UNBOUND:                -0.303
REMARK SMILES C=CC(C)=CCC=C(C)C
REMARK SMILES IDX 5 1 3 2 4 3 6 4 7 5 9 6 8 7 10 8 2 9 1 10
REMARK H PARENT
REMARK Flexibility Score: inf
ROOT
ATOM      1  C   UNL     1     132.866 137.569 135.488  1.00  0.00    -0.020 C 
ATOM      2  C   UNL     1     132.273 136.670 134.675  1.00  0.00    -0.055 C 
ATOM      3  C   UNL     1     131.606 137.077 133.379  1.00  0.00     0.044 C 
ENDROOT
BRANCH   1   4
ATOM      4  C   UNL     1     132.960 139.048 135.217  1.00  0.00     0.055 C 
BRANCH   4   5
ATOM      5  C   UNL     1     134.313 139.426 134.662  1.00  0.00    -0.024 C 
ATOM      6  C   UNL     1     136.498 140.554 134.661  1.00  0.00     0.039 C 
ATOM      7  C   UNL     1     135.173 140.242 135.307  1.00  0.00    -0.080 C 
ATOM      8  C   UNL     1     134.836 140.841 136.652  1.00  0.00     0.039 C 
ENDBRANCH   4   5
ENDBRANCH   1   4
BRANCH   2   9
ATOM      9  C   UNL     1     132.227 135.254 135.124  1.00  0.00    -0.005 C 
ATOM     10  C   UNL     1     131.805 134.875 136.331  1.00  0.00     0.009 C 
ENDBRANCH   2   9
TORSDOF 3
ENDMDL
MODEL 2
REMARK VINA RESULT:    -4.019      6.224      8.554
REMARK INTER + INTRA:          -5.027
REMARK INTER:                  -4.722
REMARK INTRA:                  -0.305
REMARK UNBOUND:                -0.303
REMARK SMILES C=CC(C)=CCC=C(C)C
REMARK SMILES IDX 5 1 3 2 4 3 6 4 7 5 9 6 8 7 10 8 2 9 1 10
REMARK H PARENT
REMARK Flexibility Score: inf
ROOT
ATOM      1  C   UNL     1     139.789 135.069 135.506  1.00  0.00    -0.020 C 
ATOM      2  C   UNL     1     140.344 135.982 134.681  1.00  0.00    -0.055 C 
ATOM      3  C   UNL     1     140.986 135.592 133.368  1.00  0.00     0.044 C 
ENDROOT
BRANCH   1   4
ATOM      4  C   UNL     1     139.718 133.589 135.233  1.00  0.00     0.055 C 
BRANCH   4   5
ATOM      5  C   UNL     1     138.388 133.198 134.634  1.00  0.00    -0.024 C 
ATOM      6  C   UNL     1     136.208 132.062 134.568  1.00  0.00     0.039 C 
ATOM      7  C   UNL     1     137.507 132.388 135.259  1.00  0.00    -0.080 C 
ATOM      8  C   UNL     1     137.797 131.811 136.624  1.00  0.00     0.039 C 
ENDBRANCH   4   5
ENDBRANCH   1   4
BRANCH   2   9
ATOM      9  C   UNL     1     140.372 137.398 135.134  1.00  0.00    -0.005 C 
ATOM     10  C   UNL     1     140.852 137.786 136.316  1.00  0.00     0.009 C 
ENDBRANCH   2   9
TORSDOF 3
ENDMDL
MODEL 3
REMARK VINA RESULT:    -4.014      3.924      6.064
REMARK INTER + INTRA:          -5.021
REMARK INTER:                  -4.715
REMARK INTRA:                  -0.306
REMARK UNBOUND:                -0.303
REMARK SMILES C=CC(C)=CCC=C(C)C
REMARK SMILES IDX 5 1 3 2 4 3 6 4 7 5 9 6 8 7 10 8 2 9 1 10
REMARK H PARENT
REMARK Flexibility Score: inf
ROOT
ATOM      1  C   UNL     1     135.060 132.857 135.512  1.00  0.00    -0.020 C 
ATOM      2  C   UNL     1     135.969 132.283 134.696  1.00  0.00    -0.055 C 
ATOM      3  C   UNL     1     135.573 131.613 133.398  1.00  0.00     0.044 C 
ENDROOT
BRANCH   1   4
ATOM      4  C   UNL     1     133.580 132.924 135.243  1.00  0.00     0.055 C 
BRANCH   4   5
ATOM      5  C   UNL     1     133.181 134.258 134.658  1.00  0.00    -0.024 C 
ATOM      6  C   UNL     1     132.051 136.442 134.625  1.00  0.00     0.039 C 
ATOM      7  C   UNL     1     132.387 135.138 135.303  1.00  0.00    -0.080 C 
ATOM      8  C   UNL     1     131.836 134.845 136.678  1.00  0.00     0.039 C 
ENDBRANCH   4   5
ENDBRANCH   1   4
BRANCH   2   9
ATOM      9  C   UNL     1     137.387 132.263 135.143  1.00  0.00    -0.005 C 
ATOM     10  C   UNL     1     137.783 131.778 136.321  1.00  0.00     0.009 C 
ENDBRANCH   2   9
TORSDOF 3
ENDMDL
MODEL 4
REMARK VINA RESULT:    -3.996      2.676      5.900
REMARK INTER + INTRA:          -4.999
REMARK INTER:                  -4.569
REMARK INTRA:                  -0.430
REMARK UNBOUND:                -0.303
REMARK SMILES C=CC(C)=CCC=C(C)C
REMARK SMILES IDX 5 1 3 2 4 3 6 4 7 5 9 6 8 7 10 8 2 9 1 10
REMARK H PARENT
REMARK Flexibility Score: inf
ROOT
ATOM      1  C   UNL     1     138.372 139.926 134.568  1.00  0.00    -0.020 C 
ATOM      2  C   UNL     1     138.889 139.212 135.591  1.00  0.00    -0.055 C 
ATOM      3  C   UNL     1     138.287 139.246 136.979  1.00  0.00     0.044 C 
ENDROOT
BRANCH   1   4
ATOM      4  C   UNL     1     137.156 140.810 134.661  1.00  0.00     0.055 C 
BRANCH   4   5
ATOM      5  C   UNL     1     135.887 140.039 134.383  1.00  0.00    -0.024 C 
ATOM      6  C   UNL     1     133.602 139.250 134.832  1.00  0.00     0.039 C 
ATOM      7  C   UNL     1     134.818 140.058 135.206  1.00  0.00    -0.080 C 
ATOM      8  C   UNL     1     134.817 140.867 136.481  1.00  0.00     0.039 C 
ENDBRANCH   4   5
ENDBRANCH   1   4
BRANCH   2   9
ATOM      9  C   UNL     1     140.127 138.430 135.334  1.00  0.00    -0.005 C 
ATOM     10  C   UNL     1     140.869 137.884 136.298  1.00  0.00     0.009 C 
ENDBRANCH   2   9
TORSDOF 3
ENDMDL
MODEL 5
REMARK VINA RESULT:    -3.987      3.915      6.013
REMARK INTER + INTRA:          -4.989
REMARK INTER:                  -4.688
REMARK INTRA:                  -0.301
REMARK UNBOUND:                -0.303
REMARK SMILES C=CC(C)=CCC=C(C)C
REMARK SMILES IDX 5 1 3 2 4 3 6 4 7 5 9 6 8 7 10 8 2 9 1 10
REMARK H PARENT
REMARK Flexibility Score: inf
ROOT
ATOM      1  C   UNL     1     137.552 139.845 135.505  1.00  0.00    -0.020 C 
ATOM      2  C   UNL     1     136.627 140.370 134.674  1.00  0.00    -0.055 C 
ATOM      3  C   UNL     1     136.997 140.949 133.325  1.00  0.00     0.044 C 
ENDROOT
BRANCH   1   4
ATOM      4  C   UNL     1     139.026 139.751 135.208  1.00  0.00     0.055 C 
BRANCH   4   5
ATOM      5  C   UNL     1     139.386 138.415 134.603  1.00  0.00    -0.024 C 
ATOM      6  C   UNL     1     140.516 136.233 134.504  1.00  0.00     0.039 C 
ATOM      7  C   UNL     1     140.225 137.540 135.196  1.00  0.00    -0.080 C 
ATOM      8  C   UNL     1     140.870 137.842 136.528  1.00  0.00     0.039 C 
ENDBRANCH   4   5
ENDBRANCH   1   4
BRANCH   2   9
ATOM      9  C   UNL     1     135.221 140.429 135.151  1.00  0.00    -0.005 C 
ATOM     10  C   UNL     1     134.872 140.830 136.374  1.00  0.00     0.009 C 
ENDBRANCH   2   9
TORSDOF 3
ENDMDL
MODEL 6
REMARK VINA RESULT:    -3.979      4.761      6.333
REMARK INTER + INTRA:          -4.980
REMARK INTER:                  -4.560
REMARK INTRA:                  -0.420
REMARK UNBOUND:                -0.303
REMARK SMILES C=CC(C)=CCC=C(C)C
REMARK SMILES IDX 5 1 3 2 4 3 6 4 7 5 9 6 8 7 10 8 2 9 1 10
REMARK H PARENT
REMARK Flexibility Score: inf
ROOT
ATOM      1  C   UNL     1     134.278 132.729 134.544  1.00  0.00    -0.020 C 
ATOM      2  C   UNL     1     133.720 133.400 135.575  1.00  0.00    -0.055 C 
ATOM      3  C   UNL     1     134.283 133.327 136.978  1.00  0.00     0.044 C 
ENDROOT
BRANCH   1   4
ATOM      4  C   UNL     1     135.505 131.861 134.643  1.00  0.00     0.055 C 
BRANCH   4   5
ATOM      5  C   UNL     1     136.766 132.650 134.382  1.00  0.00    -0.024 C 
ATOM      6  C   UNL     1     139.055 133.428 134.831  1.00  0.00     0.039 C 
ATOM      7  C   UNL     1     137.848 132.598 135.185  1.00  0.00    -0.080 C 
ATOM      8  C   UNL     1     137.873 131.729 136.420  1.00  0.00     0.039 C 
ENDBRANCH   4   5
ENDBRANCH   1   4
BRANCH   2   9
ATOM      9  C   UNL     1     132.478 134.171 135.308  1.00  0.00    -0.005 C 
ATOM     10  C   UNL     1     131.776 134.791 136.258  1.00  0.00     0.009 C 
ENDBRANCH   2   9
TORSDOF 3
ENDMDL
MODEL 7
REMARK VINA RESULT:    -3.963      1.126      5.098
REMARK INTER + INTRA:          -4.961
REMARK INTER:                  -4.551
REMARK INTRA:                  -0.409
REMARK UNBOUND:                -0.303
REMARK SMILES C=CC(C)=CCC=C(C)C
REMARK SMILES IDX 5 1 3 2 4 3 6 4 7 5 9 6 8 7 10 8 2 9 1 10
REMARK H PARENT
REMARK Flexibility Score: inf
ROOT
ATOM      1  C   UNL     1     132.730 138.441 134.588  1.00  0.00    -0.020 C 
ATOM      2  C   UNL     1     133.393 139.004 135.620  1.00  0.00    -0.055 C 
ATOM      3  C   UNL     1     133.339 138.429 137.018  1.00  0.00     0.044 C 
ENDROOT
BRANCH   1   4
ATOM      4  C   UNL     1     131.890 137.194 134.679  1.00  0.00     0.055 C 
BRANCH   4   5
ATOM      5  C   UNL     1     132.703 135.954 134.396  1.00  0.00    -0.024 C 
ATOM      6  C   UNL     1     133.505 133.662 134.789  1.00  0.00     0.039 C 
ATOM      7  C   UNL     1     132.648 134.845 135.163  1.00  0.00    -0.080 C 
ATOM      8  C   UNL     1     131.752 134.767 136.376  1.00  0.00     0.039 C 
ENDBRANCH   4   5
ENDBRANCH   1   4
BRANCH   2   9
ATOM      9  C   UNL     1     134.136 140.266 135.360  1.00  0.00    -0.005 C 
ATOM     10  C   UNL     1     134.796 140.941 136.301  1.00  0.00     0.009 C 
ENDBRANCH   2   9
TORSDOF 3
ENDMDL
MODEL 8
REMARK VINA RESULT:    -3.939      6.183      7.027
REMARK INTER + INTRA:          -4.933
REMARK INTER:                  -4.532
REMARK INTRA:                  -0.401
REMARK UNBOUND:                -0.303
REMARK SMILES C=CC(C)=CCC=C(C)C
REMARK SMILES IDX 5 1 3 2 4 3 6 4 7 5 9 6 8 7 10 8 2 9 1 10
REMARK H PARENT
REMARK Flexibility Score: inf
ROOT
ATOM      1  C   UNL     1     139.920 134.170 134.608  1.00  0.00    -0.020 C 
ATOM      2  C   UNL     1     139.286 133.552 135.627  1.00  0.00    -0.055 C 
ATOM      3  C   UNL     1     139.362 134.064 137.049  1.00  0.00     0.044 C 
ENDROOT
BRANCH   1   4
ATOM      4  C   UNL     1     140.747 135.422 134.739  1.00  0.00     0.055 C 
BRANCH   4   5
ATOM      5  C   UNL     1     139.939 136.657 134.419  1.00  0.00    -0.024 C 
ATOM      6  C   UNL     1     139.136 138.957 134.753  1.00  0.00     0.039 C 
ATOM      7  C   UNL     1     139.985 137.782 135.163  1.00  0.00    -0.080 C 
ATOM      8  C   UNL     1     140.866 137.884 136.386  1.00  0.00     0.039 C 
ENDBRANCH   4   5
ENDBRANCH   1   4
BRANCH   2   9
ATOM      9  C   UNL     1     138.553 132.294 135.327  1.00  0.00    -0.005 C 
ATOM     10  C   UNL     1     137.597 131.791 136.109  1.00  0.00     0.009 C 
ENDBRANCH   2   9
TORSDOF 3
ENDMDL
MODEL 9
REMARK VINA RESULT:    -3.767      5.901      8.323
REMARK INTER + INTRA:          -4.730
REMARK INTER:                  -4.300
REMARK INTRA:                  -0.430
REMARK UNBOUND:                -0.303
REMARK SMILES C=CC(C)=CCC=C(C)C
REMARK SMILES IDX 5 1 3 2 4 3 6 4 7 5 9 6 8 7 10 8 2 9 1 10
REMARK H PARENT
REMARK Flexibility Score: inf
ROOT
ATOM      1  C   UNL     1     140.479 136.871 134.408  1.00  0.00    -0.020 C 
ATOM      2  C   UNL     1     140.201 137.685 135.448  1.00  0.00    -0.055 C 
ATOM      3  C   UNL     1     140.194 137.187 136.877  1.00  0.00     0.044 C 
ENDROOT
BRANCH   1   4
ATOM      4  C   UNL     1     140.827 135.411 134.523  1.00  0.00     0.055 C 
BRANCH   4   5
ATOM      5  C   UNL     1     139.675 134.530 134.103  1.00  0.00    -0.024 C 
ATOM      6  C   UNL     1     138.009 132.740 134.369  1.00  0.00     0.039 C 
ATOM      7  C   UNL     1     139.161 133.562 134.890  1.00  0.00    -0.080 C 
ATOM      8  C   UNL     1     139.712 133.290 136.269  1.00  0.00     0.039 C 
ENDBRANCH   4   5
ENDBRANCH   1   4
BRANCH   2   9
ATOM      9  C   UNL     1     139.827 139.092 135.147  1.00  0.00    -0.005 C 
ATOM     10  C   UNL     1     139.010 139.818 135.911  1.00  0.00     0.009 C 
ENDBRANCH   2   9
TORSDOF 3
ENDMDL
