MODEL 1
REMARK VINA RESULT:    -3.706      0.000      0.000
REMARK INTER + INTRA:          -4.969
REMARK INTER:                  -4.789
REMARK INTRA:                  -0.180
REMARK UNBOUND:                -0.180
REMARK SMILES CCOC(=O)C=Cc1ccc(O)c(O)c1
REMARK SMILES IDX 6 1 7 2 4 3 5 4 3 5 2 6 1 7 8 8 15 9 9 10 13 11 10 12 11 13
REMARK SMILES IDX 14 14 12 16
REMARK H PARENT 14 15 12 17
REMARK Flexibility Score: inf
ROOT
ATOM      1  C   UNL     1      -7.689  21.182  17.325  1.00  0.00     0.094 C 
ATOM      2  C   UNL     1      -8.405  22.081  18.014  1.00  0.00     0.016 C 
ENDROOT
BRANCH   1   3
ATOM      3  C   UNL     1      -7.779  21.074  15.860  1.00  0.00     0.330 C 
ATOM      4  O   UNL     1      -8.722  20.410  15.350  1.00  0.00    -0.247 OA
BRANCH   3   5
ATOM      5  O   UNL     1      -6.829  21.696  15.043  1.00  0.00    -0.463 OA
BRANCH   5   6
ATOM      6  C   UNL     1      -5.732  20.996  14.468  1.00  0.00     0.230 C 
ATOM      7  C   UNL     1      -4.800  20.517  15.570  1.00  0.00     0.049 C 
ENDBRANCH   5   6
ENDBRANCH   3   5
ENDBRANCH   1   3
BRANCH   2   8
ATOM      8  C   UNL     1      -8.356  22.218  19.490  1.00  0.00    -0.021 A 
ATOM      9  C   UNL     1      -8.769  21.189  20.360  1.00  0.00     0.058 A 
ATOM     10  C   UNL     1      -7.844  23.402  20.039  1.00  0.00     0.012 A 
ATOM     11  C   UNL     1      -8.697  21.350  21.751  1.00  0.00     0.157 A 
ATOM     12  C   UNL     1      -7.771  23.570  21.422  1.00  0.00     0.051 A 
ATOM     13  C   UNL     1      -8.197  22.558  22.288  1.00  0.00     0.157 A 
BRANCH  11  14
ATOM     14  O   UNL     1      -9.125  20.288  22.552  1.00  0.00    -0.504 OA
ATOM     15  H   UNL     1      -8.591  19.445  22.702  1.00  0.00     0.293 HD
ENDBRANCH  11  14
BRANCH  13  16
ATOM     16  O   UNL     1      -8.105  22.793  23.662  1.00  0.00    -0.504 OA
ATOM     17  H   UNL     1      -7.366  23.328  24.095  1.00  0.00     0.293 HD
ENDBRANCH  13  16
ENDBRANCH   2   8
TORSDOF 6
ENDMDL
MODEL 2
REMARK VINA RESULT:    -3.298      1.576      6.519
REMARK INTER + INTRA:          -4.441
REMARK INTER:                  -4.192
REMARK INTRA:                  -0.250
REMARK UNBOUND:                -0.180
REMARK SMILES CCOC(=O)C=Cc1ccc(O)c(O)c1
REMARK SMILES IDX 6 1 7 2 4 3 5 4 3 5 2 6 1 7 8 8 15 9 9 10 13 11 10 12 11 13
REMARK SMILES IDX 14 14 12 16
REMARK H PARENT 14 15 12 17
REMARK Flexibility Score: inf
ROOT
ATOM      1  C   UNL     1      -7.528  22.071  20.177  1.00  0.00     0.094 C 
ATOM      2  C   UNL     1      -7.996  21.258  19.220  1.00  0.00     0.016 C 
ENDROOT
BRANCH   1   3
ATOM      3  C   UNL     1      -8.195  22.198  21.483  1.00  0.00     0.330 C 
ATOM      4  O   UNL     1      -8.039  23.256  22.151  1.00  0.00    -0.247 OA
BRANCH   3   5
ATOM      5  O   UNL     1      -8.991  21.160  21.979  1.00  0.00    -0.463 OA
BRANCH   5   6
ATOM      6  C   UNL     1      -8.443  19.974  22.542  1.00  0.00     0.230 C 
ATOM      7  C   UNL     1      -7.726  20.310  23.840  1.00  0.00     0.049 C 
ENDBRANCH   5   6
ENDBRANCH   3   5
ENDBRANCH   1   3
BRANCH   2   8
ATOM      8  C   UNL     1      -7.364  21.107  17.886  1.00  0.00    -0.021 A 
ATOM      9  C   UNL     1      -6.076  20.562  17.715  1.00  0.00     0.058 A 
ATOM     10  C   UNL     1      -8.093  21.487  16.751  1.00  0.00     0.012 A 
ATOM     11  C   UNL     1      -5.516  20.423  16.437  1.00  0.00     0.157 A 
ATOM     12  C   UNL     1      -7.541  21.355  15.475  1.00  0.00     0.051 A 
ATOM     13  C   UNL     1      -6.256  20.831  15.304  1.00  0.00     0.157 A 
BRANCH  11  14
ATOM     14  O   UNL     1      -4.235  19.875  16.343  1.00  0.00    -0.504 OA
ATOM     15  H   UNL     1      -3.852  19.220  17.009  1.00  0.00     0.293 HD
ENDBRANCH  11  14
BRANCH  13  16
ATOM     16  O   UNL     1      -5.760  20.732  14.002  1.00  0.00    -0.504 OA
ATOM     17  H   UNL     1      -4.782  20.625  13.777  1.00  0.00     0.293 HD
ENDBRANCH  13  16
ENDBRANCH   2   8
TORSDOF 6
ENDMDL
MODEL 3
REMARK VINA RESULT:    -3.173      3.193      6.506
REMARK INTER + INTRA:          -4.280
REMARK INTER:                  -4.022
REMARK INTRA:                  -0.258
REMARK UNBOUND:                -0.180
REMARK SMILES CCOC(=O)C=Cc1ccc(O)c(O)c1
REMARK SMILES IDX 6 1 7 2 4 3 5 4 3 5 2 6 1 7 8 8 15 9 9 10 13 11 10 12 11 13
REMARK SMILES IDX 14 14 12 16
REMARK H PARENT 14 15 12 17
REMARK Flexibility Score: inf
ROOT
ATOM      1  C   UNL     1      -6.898  20.764  19.181  1.00  0.00     0.094 C 
ATOM      2  C   UNL     1      -6.444  20.081  18.121  1.00  0.00     0.016 C 
ENDROOT
BRANCH   1   3
ATOM      3  C   UNL     1      -8.323  20.775  19.546  1.00  0.00     0.330 C 
ATOM      4  O   UNL     1      -9.119  20.010  18.938  1.00  0.00    -0.247 OA
BRANCH   3   5
ATOM      5  O   UNL     1      -8.791  21.626  20.554  1.00  0.00    -0.463 OA
BRANCH   5   6
ATOM      6  C   UNL     1      -8.056  22.756  21.009  1.00  0.00     0.230 C 
ATOM      7  C   UNL     1      -8.141  22.843  22.524  1.00  0.00     0.049 C 
ENDBRANCH   5   6
ENDBRANCH   3   5
ENDBRANCH   1   3
BRANCH   2   8
ATOM      8  C   UNL     1      -5.019  20.050  17.708  1.00  0.00    -0.021 A 
ATOM      9  C   UNL     1      -3.962  19.982  18.638  1.00  0.00     0.058 A 
ATOM     10  C   UNL     1      -4.717  20.052  16.339  1.00  0.00     0.012 A 
ATOM     11  C   UNL     1      -2.628  19.943  18.209  1.00  0.00     0.157 A 
ATOM     12  C   UNL     1      -3.391  20.015  15.905  1.00  0.00     0.051 A 
ATOM     13  C   UNL     1      -2.339  19.966  16.826  1.00  0.00     0.157 A 
BRANCH  11  14
ATOM     14  O   UNL     1      -1.632  19.876  19.187  1.00  0.00    -0.504 OA
ATOM     15  H   UNL     1      -1.598  19.172  19.910  1.00  0.00     0.293 HD
ENDBRANCH  11  14
BRANCH  13  16
ATOM     16  O   UNL     1      -1.035  19.938  16.326  1.00  0.00    -0.504 OA
ATOM     17  H   UNL     1      -0.806  19.797  15.352  1.00  0.00     0.293 HD
ENDBRANCH  13  16
ENDBRANCH   2   8
TORSDOF 6
ENDMDL
MODEL 4
REMARK VINA RESULT:    -3.083      1.983      2.412
REMARK INTER + INTRA:          -4.164
REMARK INTER:                  -3.904
REMARK INTRA:                  -0.261
REMARK UNBOUND:                -0.180
REMARK SMILES CCOC(=O)C=Cc1ccc(O)c(O)c1
REMARK SMILES IDX 6 1 7 2 4 3 5 4 3 5 2 6 1 7 8 8 15 9 9 10 13 11 10 12 11 13
REMARK SMILES IDX 14 14 12 16
REMARK H PARENT 14 15 12 17
REMARK Flexibility Score: inf
ROOT
ATOM      1  C   UNL     1      -5.727  20.883  18.924  1.00  0.00     0.094 C 
ATOM      2  C   UNL     1      -6.796  20.369  19.548  1.00  0.00     0.016 C 
ENDROOT
BRANCH   1   3
ATOM      3  C   UNL     1      -5.146  20.253  17.729  1.00  0.00     0.330 C 
ATOM      4  O   UNL     1      -3.943  19.875  17.757  1.00  0.00    -0.247 OA
BRANCH   3   5
ATOM      5  O   UNL     1      -5.915  20.076  16.573  1.00  0.00    -0.463 OA
BRANCH   5   6
ATOM      6  C   UNL     1      -6.168  21.128  15.650  1.00  0.00     0.230 C 
ATOM      7  C   UNL     1      -7.192  20.670  14.623  1.00  0.00     0.049 C 
ENDBRANCH   5   6
ENDBRANCH   3   5
ENDBRANCH   1   3
BRANCH   2   8
ATOM      8  C   UNL     1      -7.408  20.963  20.762  1.00  0.00    -0.021 A 
ATOM      9  C   UNL     1      -7.656  20.214  21.930  1.00  0.00     0.058 A 
ATOM     10  C   UNL     1      -7.715  22.330  20.758  1.00  0.00     0.012 A 
ATOM     11  C   UNL     1      -8.224  20.813  23.062  1.00  0.00     0.157 A 
ATOM     12  C   UNL     1      -8.283  22.933  21.881  1.00  0.00     0.051 A 
ATOM     13  C   UNL     1      -8.548  22.189  23.035  1.00  0.00     0.157 A 
BRANCH  11  14
ATOM     14  O   UNL     1      -8.442  20.009  24.184  1.00  0.00    -0.504 OA
ATOM     15  H   UNL     1      -8.126  19.053  24.263  1.00  0.00     0.293 HD
ENDBRANCH  11  14
BRANCH  13  16
ATOM     16  O   UNL     1      -9.124  22.851  24.122  1.00  0.00    -0.504 OA
ATOM     17  H   UNL     1     -10.090  23.141  24.158  1.00  0.00     0.293 HD
ENDBRANCH  13  16
ENDBRANCH   2   8
TORSDOF 6
ENDMDL
MODEL 5
REMARK VINA RESULT:    -3.070     12.959     15.764
REMARK INTER + INTRA:          -4.147
REMARK INTER:                  -3.853
REMARK INTRA:                  -0.293
REMARK UNBOUND:                -0.180
REMARK SMILES CCOC(=O)C=Cc1ccc(O)c(O)c1
REMARK SMILES IDX 6 1 7 2 4 3 5 4 3 5 2 6 1 7 8 8 15 9 9 10 13 11 10 12 11 13
REMARK SMILES IDX 14 14 12 16
REMARK H PARENT 14 15 12 17
REMARK Flexibility Score: inf
ROOT
ATOM      1  C   UNL     1       8.637  20.953  14.539  1.00  0.00     0.094 C 
ATOM      2  C   UNL     1       8.064  20.687  15.721  1.00  0.00     0.016 C 
ENDROOT
BRANCH   1   3
ATOM      3  C   UNL     1      10.095  20.885  14.349  1.00  0.00     0.330 C 
ATOM      4  O   UNL     1      10.554  20.319  13.321  1.00  0.00    -0.247 OA
BRANCH   3   5
ATOM      5  O   UNL     1      10.961  21.438  15.298  1.00  0.00    -0.463 OA
BRANCH   5   6
ATOM      6  C   UNL     1      10.888  22.800  15.705  1.00  0.00     0.230 C 
ATOM      7  C   UNL     1      10.466  22.873  17.164  1.00  0.00     0.049 C 
ENDBRANCH   5   6
ENDBRANCH   3   5
ENDBRANCH   1   3
BRANCH   2   8
ATOM      8  C   UNL     1       6.601  20.755  15.962  1.00  0.00    -0.021 A 
ATOM      9  C   UNL     1       6.020  21.694  16.837  1.00  0.00     0.058 A 
ATOM     10  C   UNL     1       5.764  19.875  15.261  1.00  0.00     0.012 A 
ATOM     11  C   UNL     1       4.633  21.736  17.030  1.00  0.00     0.157 A 
ATOM     12  C   UNL     1       4.382  19.909  15.450  1.00  0.00     0.051 A 
ATOM     13  C   UNL     1       3.804  20.828  16.332  1.00  0.00     0.157 A 
BRANCH  11  14
ATOM     14  O   UNL     1       4.127  22.693  17.913  1.00  0.00    -0.504 OA
ATOM     15  H   UNL     1       4.550  22.921  18.800  1.00  0.00     0.293 HD
ENDBRANCH  11  14
BRANCH  13  16
ATOM     16  O   UNL     1       2.415  20.805  16.481  1.00  0.00    -0.504 OA
ATOM     17  H   UNL     1       1.859  19.962  16.463  1.00  0.00     0.293 HD
ENDBRANCH  13  16
ENDBRANCH   2   8
TORSDOF 6
ENDMDL
MODEL 6
REMARK VINA RESULT:    -2.937     13.070     15.854
REMARK INTER + INTRA:          -3.975
REMARK INTER:                  -3.696
REMARK INTRA:                  -0.279
REMARK UNBOUND:                -0.180
REMARK SMILES CCOC(=O)C=Cc1ccc(O)c(O)c1
REMARK SMILES IDX 6 1 7 2 4 3 5 4 3 5 2 6 1 7 8 8 15 9 9 10 13 11 10 12 11 13
REMARK SMILES IDX 14 14 12 16
REMARK H PARENT 14 15 12 17
REMARK Flexibility Score: inf
ROOT
ATOM      1  C   UNL     1       8.775  20.943  14.623  1.00  0.00     0.094 C 
ATOM      2  C   UNL     1       8.178  20.931  15.822  1.00  0.00     0.016 C 
ENDROOT
BRANCH   1   3
ATOM      3  C   UNL     1      10.238  21.008  14.483  1.00  0.00     0.330 C 
ATOM      4  O   UNL     1      10.936  20.033  14.872  1.00  0.00    -0.247 OA
BRANCH   3   5
ATOM      5  O   UNL     1      10.849  22.138  13.927  1.00  0.00    -0.463 OA
BRANCH   5   6
ATOM      6  C   UNL     1      10.709  22.492  12.556  1.00  0.00     0.230 C 
ATOM      7  C   UNL     1      10.356  23.966  12.444  1.00  0.00     0.049 C 
ENDBRANCH   5   6
ENDBRANCH   3   5
ENDBRANCH   1   3
BRANCH   2   8
ATOM      8  C   UNL     1       6.707  20.879  16.011  1.00  0.00    -0.021 A 
ATOM      9  C   UNL     1       6.024  21.748  16.885  1.00  0.00     0.058 A 
ATOM     10  C   UNL     1       5.967  19.954  15.261  1.00  0.00     0.012 A 
ATOM     11  C   UNL     1       4.632  21.676  17.028  1.00  0.00     0.157 A 
ATOM     12  C   UNL     1       4.580  19.876  15.400  1.00  0.00     0.051 A 
ATOM     13  C   UNL     1       3.901  20.724  16.281  1.00  0.00     0.157 A 
BRANCH  11  14
ATOM     14  O   UNL     1       4.022  22.569  17.913  1.00  0.00    -0.504 OA
ATOM     15  H   UNL     1       3.082  22.921  17.801  1.00  0.00     0.293 HD
ENDBRANCH  11  14
BRANCH  13  16
ATOM     16  O   UNL     1       2.514  20.590  16.378  1.00  0.00    -0.504 OA
ATOM     17  H   UNL     1       2.051  19.765  16.731  1.00  0.00     0.293 HD
ENDBRANCH  13  16
ENDBRANCH   2   8
TORSDOF 6
ENDMDL
MODEL 7
REMARK VINA RESULT:    -2.762     12.156     15.784
REMARK INTER + INTRA:          -3.749
REMARK INTER:                  -3.530
REMARK INTRA:                  -0.219
REMARK UNBOUND:                -0.180
REMARK SMILES CCOC(=O)C=Cc1ccc(O)c(O)c1
REMARK SMILES IDX 6 1 7 2 4 3 5 4 3 5 2 6 1 7 8 8 15 9 9 10 13 11 10 12 11 13
REMARK SMILES IDX 14 14 12 16
REMARK H PARENT 14 15 12 17
REMARK Flexibility Score: inf
ROOT
ATOM      1  C   UNL     1       4.751  20.451  15.533  1.00  0.00     0.094 C 
ATOM      2  C   UNL     1       5.982  20.894  15.825  1.00  0.00     0.016 C 
ENDROOT
BRANCH   1   3
ATOM      3  C   UNL     1       3.604  20.701  16.420  1.00  0.00     0.330 C 
ATOM      4  O   UNL     1       3.746  21.477  17.403  1.00  0.00    -0.247 OA
BRANCH   3   5
ATOM      5  O   UNL     1       2.372  20.084  16.178  1.00  0.00    -0.463 OA
BRANCH   5   6
ATOM      6  C   UNL     1       1.140  20.796  16.191  1.00  0.00     0.230 C 
ATOM      7  C   UNL     1       0.024  19.875  16.656  1.00  0.00     0.049 C 
ENDBRANCH   5   6
ENDBRANCH   3   5
ENDBRANCH   1   3
BRANCH   2   8
ATOM      8  C   UNL     1       7.169  20.655  14.968  1.00  0.00    -0.021 A 
ATOM      9  C   UNL     1       8.484  20.903  15.409  1.00  0.00     0.058 A 
ATOM     10  C   UNL     1       6.975  20.128  13.684  1.00  0.00     0.012 A 
ATOM     11  C   UNL     1       9.582  20.653  14.574  1.00  0.00     0.157 A 
ATOM     12  C   UNL     1       8.063  19.880  12.846  1.00  0.00     0.051 A 
ATOM     13  C   UNL     1       9.368  20.141  13.274  1.00  0.00     0.157 A 
BRANCH  11  14
ATOM     14  O   UNL     1      10.857  20.922  15.078  1.00  0.00    -0.504 OA
ATOM     15  H   UNL     1      11.699  20.907  14.521  1.00  0.00     0.293 HD
ENDBRANCH  11  14
BRANCH  13  16
ATOM     16  O   UNL     1      10.413  19.877  12.385  1.00  0.00    -0.504 OA
ATOM     17  H   UNL     1      11.052  19.101  12.479  1.00  0.00     0.293 HD
ENDBRANCH  13  16
ENDBRANCH   2   8
TORSDOF 6
ENDMDL
