MODEL 1
REMARK VINA RESULT:    -2.415      0.000      0.000
REMARK INTER + INTRA:          -7.459
REMARK INTER:                  -5.238
REMARK INTRA:                  -2.221
REMARK UNBOUND:                -2.221
REMARK SMILES CCCCCCCCCCCCCCCCCCCCCC(=O)[O-]
REMARK SMILES IDX 12 1 11 2 10 3 9 4 8 5 7 6 6 7 5 8 4 9 3 10 2 11 1 12 13 13
REMARK SMILES IDX 14 14 15 15 16 16 17 17 18 18 19 19 20 20 21 21 22 22 23 23
REMARK SMILES IDX 24 24
REMARK H PARENT
REMARK Flexibility Score: inf
ROOT
ATOM      1  C   UNL     1       6.377  -8.114   5.896  1.00  0.00     0.000 C 
ENDROOT
BRANCH   1   2
ATOM      2  C   UNL     1       5.981  -9.316   6.773  1.00  0.00     0.000 C 
BRANCH   2   3
ATOM      3  C   UNL     1       4.475  -9.370   7.109  1.00  0.00     0.000 C 
BRANCH   3   4
ATOM      4  C   UNL     1       4.218  -9.862   8.544  1.00  0.00    -0.000 C 
BRANCH   4   5
ATOM      5  C   UNL     1       5.208  -9.276   9.565  1.00  0.00    -0.000 C 
BRANCH   5   6
ATOM      6  C   UNL     1       5.055  -7.766   9.820  1.00  0.00    -0.000 C 
BRANCH   6   7
ATOM      7  C   UNL     1       3.649  -7.244   9.489  1.00  0.00    -0.000 C 
BRANCH   7   8
ATOM      8  C   UNL     1       3.636  -5.710   9.404  1.00  0.00    -0.000 C 
BRANCH   8   9
ATOM      9  C   UNL     1       2.991  -5.198   8.106  1.00  0.00    -0.000 C 
BRANCH   9  10
ATOM     10  C   UNL     1       2.087  -6.248   7.441  1.00  0.00    -0.000 C 
BRANCH  10  11
ATOM     11  C   UNL     1       0.672  -6.206   8.026  1.00  0.00    -0.003 C 
ATOM     12  C   UNL     1      -0.246  -5.324   7.186  1.00  0.00     0.004 C 
ENDBRANCH  10  11
ENDBRANCH   9  10
ENDBRANCH   8   9
ENDBRANCH   7   8
ENDBRANCH   6   7
ENDBRANCH   5   6
ENDBRANCH   4   5
ENDBRANCH   3   4
ENDBRANCH   2   3
ENDBRANCH   1   2
BRANCH   1  13
ATOM     13  C   UNL     1       5.675  -6.813   6.317  1.00  0.00     0.000 C 
BRANCH  13  14
ATOM     14  C   UNL     1       6.651  -5.639   6.486  1.00  0.00     0.000 C 
BRANCH  14  15
ATOM     15  C   UNL     1       7.714  -5.908   7.566  1.00  0.00     0.000 C 
BRANCH  15  16
ATOM     16  C   UNL     1       7.508  -5.049   8.825  1.00  0.00     0.000 C 
BRANCH  16  17
ATOM     17  C   UNL     1       8.805  -4.374   9.299  1.00  0.00     0.000 C 
BRANCH  17  18
ATOM     18  C   UNL     1       8.505  -3.116  10.125  1.00  0.00     0.000 C 
BRANCH  18  19
ATOM     19  C   UNL     1       8.556  -1.826   9.288  1.00  0.00     0.000 C 
BRANCH  19  20
ATOM     20  C   UNL     1       8.214  -0.553  10.091  1.00  0.00     0.006 C 
BRANCH  20  21
ATOM     21  C   UNL     1       9.232   0.571   9.857  1.00  0.00     0.053 C 
BRANCH  21  22
ATOM     22  C   UNL     1       8.539   1.891   9.739  1.00  0.00     0.041 C 
ATOM     23  O   UNL     1       7.301   1.937   9.510  1.00  0.00    -0.550 OA
ATOM     24  O   UNL     1       9.268   3.071   9.829  1.00  0.00    -0.550 OA
ENDBRANCH  21  22
ENDBRANCH  20  21
ENDBRANCH  19  20
ENDBRANCH  18  19
ENDBRANCH  17  18
ENDBRANCH  16  17
ENDBRANCH  15  16
ENDBRANCH  14  15
ENDBRANCH  13  14
ENDBRANCH   1  13
TORSDOF 20
ENDMDL
MODEL 2
REMARK VINA RESULT:    -2.183      3.063      7.589
REMARK INTER + INTRA:          -6.956
REMARK INTER:                  -5.466
REMARK INTRA:                  -1.490
REMARK UNBOUND:                -2.221
REMARK SMILES CCCCCCCCCCCCCCCCCCCCCC(=O)[O-]
REMARK SMILES IDX 12 1 11 2 10 3 9 4 8 5 7 6 6 7 5 8 4 9 3 10 2 11 1 12 13 13
REMARK SMILES IDX 14 14 15 15 16 16 17 17 18 18 19 19 20 20 21 21 22 22 23 23
REMARK SMILES IDX 24 24
REMARK H PARENT
REMARK Flexibility Score: inf
ROOT
ATOM      1  C   UNL     1       6.623  -7.449   4.923  1.00  0.00     0.000 C 
ENDROOT
BRANCH   1   2
ATOM      2  C   UNL     1       6.658  -7.323   6.456  1.00  0.00     0.000 C 
BRANCH   2   3
ATOM      3  C   UNL     1       6.364  -5.896   6.969  1.00  0.00     0.000 C 
BRANCH   3   4
ATOM      4  C   UNL     1       5.922  -5.889   8.442  1.00  0.00    -0.000 C 
BRANCH   4   5
ATOM      5  C   UNL     1       7.055  -5.498   9.407  1.00  0.00    -0.000 C 
BRANCH   5   6
ATOM      6  C   UNL     1       8.215  -4.722   8.759  1.00  0.00    -0.000 C 
BRANCH   6   7
ATOM      7  C   UNL     1       8.859  -3.704   9.713  1.00  0.00    -0.000 C 
BRANCH   7   8
ATOM      8  C   UNL     1       8.797  -2.285   9.128  1.00  0.00    -0.000 C 
BRANCH   8   9
ATOM      9  C   UNL     1       8.227  -1.262  10.125  1.00  0.00    -0.000 C 
BRANCH   9  10
ATOM     10  C   UNL     1       8.978   0.077  10.092  1.00  0.00    -0.000 C 
BRANCH  10  11
ATOM     11  C   UNL     1       7.999   1.257  10.076  1.00  0.00    -0.003 C 
ATOM     12  C   UNL     1       8.701   2.550   9.675  1.00  0.00     0.004 C 
ENDBRANCH  10  11
ENDBRANCH   9  10
ENDBRANCH   8   9
ENDBRANCH   7   8
ENDBRANCH   6   7
ENDBRANCH   5   6
ENDBRANCH   4   5
ENDBRANCH   3   4
ENDBRANCH   2   3
ENDBRANCH   1   2
BRANCH   1  13
ATOM     13  C   UNL     1       6.265  -8.868   4.451  1.00  0.00     0.000 C 
BRANCH  13  14
ATOM     14  C   UNL     1       6.232  -9.886   5.601  1.00  0.00     0.000 C 
BRANCH  14  15
ATOM     15  C   UNL     1       4.837 -10.007   6.240  1.00  0.00     0.000 C 
BRANCH  15  16
ATOM     16  C   UNL     1       4.876  -9.885   7.773  1.00  0.00     0.000 C 
BRANCH  16  17
ATOM     17  C   UNL     1       3.506  -9.535   8.373  1.00  0.00     0.000 C 
BRANCH  17  18
ATOM     18  C   UNL     1       3.647  -8.532   9.526  1.00  0.00     0.000 C 
BRANCH  18  19
ATOM     19  C   UNL     1       2.844  -7.240   9.294  1.00  0.00     0.000 C 
BRANCH  19  20
ATOM     20  C   UNL     1       2.516  -6.971   7.810  1.00  0.00     0.006 C 
BRANCH  20  21
ATOM     21  C   UNL     1       1.009  -6.818   7.568  1.00  0.00     0.053 C 
BRANCH  21  22
ATOM     22  C   UNL     1       0.674  -5.404   7.214  1.00  0.00     0.041 C 
ATOM     23  O   UNL     1      -0.496  -5.102   6.857  1.00  0.00    -0.550 OA
ATOM     24  O   UNL     1       1.665  -4.431   7.227  1.00  0.00    -0.550 OA
ENDBRANCH  21  22
ENDBRANCH  20  21
ENDBRANCH  19  20
ENDBRANCH  18  19
ENDBRANCH  17  18
ENDBRANCH  16  17
ENDBRANCH  15  16
ENDBRANCH  14  15
ENDBRANCH  13  14
ENDBRANCH   1  13
TORSDOF 20
ENDMDL
MODEL 3
REMARK VINA RESULT:    -1.885      3.492      7.662
REMARK INTER + INTRA:          -6.310
REMARK INTER:                  -5.234
REMARK INTRA:                  -1.076
REMARK UNBOUND:                -2.221
REMARK SMILES CCCCCCCCCCCCCCCCCCCCCC(=O)[O-]
REMARK SMILES IDX 12 1 11 2 10 3 9 4 8 5 7 6 6 7 5 8 4 9 3 10 2 11 1 12 13 13
REMARK SMILES IDX 14 14 15 15 16 16 17 17 18 18 19 19 20 20 21 21 22 22 23 23
REMARK SMILES IDX 24 24
REMARK H PARENT
REMARK Flexibility Score: inf
ROOT
ATOM      1  C   UNL     1       5.628  -6.626   7.086  1.00  0.00     0.000 C 
ENDROOT
BRANCH   1   2
ATOM      2  C   UNL     1       6.611  -5.806   7.940  1.00  0.00     0.000 C 
BRANCH   2   3
ATOM      3  C   UNL     1       7.074  -6.532   9.222  1.00  0.00     0.000 C 
BRANCH   3   4
ATOM      4  C   UNL     1       7.993  -5.652  10.087  1.00  0.00    -0.000 C 
BRANCH   4   5
ATOM      5  C   UNL     1       9.167  -5.051   9.295  1.00  0.00    -0.000 C 
BRANCH   5   6
ATOM      6  C   UNL     1       9.518  -3.599   9.664  1.00  0.00    -0.000 C 
BRANCH   6   7
ATOM      7  C   UNL     1       8.281  -2.754  10.006  1.00  0.00    -0.000 C 
BRANCH   7   8
ATOM      8  C   UNL     1       8.641  -1.264  10.104  1.00  0.00    -0.000 C 
BRANCH   8   9
ATOM      9  C   UNL     1       7.554  -0.355   9.508  1.00  0.00    -0.000 C 
BRANCH   9  10
ATOM     10  C   UNL     1       7.680   1.103   9.976  1.00  0.00    -0.000 C 
BRANCH  10  11
ATOM     11  C   UNL     1       9.150   1.526  10.065  1.00  0.00    -0.003 C 
ATOM     12  C   UNL     1       9.284   3.045  10.123  1.00  0.00     0.004 C 
ENDBRANCH  10  11
ENDBRANCH   9  10
ENDBRANCH   8   9
ENDBRANCH   7   8
ENDBRANCH   6   7
ENDBRANCH   5   6
ENDBRANCH   4   5
ENDBRANCH   3   4
ENDBRANCH   2   3
ENDBRANCH   1   2
BRANCH   1  13
ATOM     13  C   UNL     1       5.809  -8.143   7.258  1.00  0.00     0.000 C 
BRANCH  13  14
ATOM     14  C   UNL     1       4.481  -8.875   7.505  1.00  0.00     0.000 C 
BRANCH  14  15
ATOM     15  C   UNL     1       4.589  -9.929   8.621  1.00  0.00     0.000 C 
BRANCH  15  16
ATOM     16  C   UNL     1       4.254  -9.358  10.009  1.00  0.00     0.000 C 
BRANCH  16  17
ATOM     17  C   UNL     1       4.572  -7.859  10.124  1.00  0.00     0.000 C 
BRANCH  17  18
ATOM     18  C   UNL     1       3.298  -7.012  10.008  1.00  0.00     0.000 C 
BRANCH  18  19
ATOM     19  C   UNL     1       3.589  -5.534   9.690  1.00  0.00     0.000 C 
BRANCH  19  20
ATOM     20  C   UNL     1       2.366  -4.765   9.146  1.00  0.00     0.006 C 
BRANCH  20  21
ATOM     21  C   UNL     1       2.191  -4.950   7.633  1.00  0.00     0.053 C 
BRANCH  21  22
ATOM     22  C   UNL     1       0.916  -5.673   7.336  1.00  0.00     0.041 C 
ATOM     23  O   UNL     1      -0.152  -5.028   7.167  1.00  0.00    -0.550 OA
ATOM     24  O   UNL     1       0.897  -7.062   7.296  1.00  0.00    -0.550 OA
ENDBRANCH  21  22
ENDBRANCH  20  21
ENDBRANCH  19  20
ENDBRANCH  18  19
ENDBRANCH  17  18
ENDBRANCH  16  17
ENDBRANCH  15  16
ENDBRANCH  14  15
ENDBRANCH  13  14
ENDBRANCH   1  13
TORSDOF 20
ENDMDL
MODEL 4
REMARK VINA RESULT:    -1.825     13.552     16.688
REMARK INTER + INTRA:          -6.179
REMARK INTER:                  -4.815
REMARK INTRA:                  -1.365
REMARK UNBOUND:                -2.221
REMARK SMILES CCCCCCCCCCCCCCCCCCCCCC(=O)[O-]
REMARK SMILES IDX 12 1 11 2 10 3 9 4 8 5 7 6 6 7 5 8 4 9 3 10 2 11 1 12 13 13
REMARK SMILES IDX 14 14 15 15 16 16 17 17 18 18 19 19 20 20 21 21 22 22 23 23
REMARK SMILES IDX 24 24
REMARK H PARENT
REMARK Flexibility Score: inf
ROOT
ATOM      1  C   UNL     1       0.313   8.956   8.738  1.00  0.00     0.000 C 
ENDROOT
BRANCH   1   2
ATOM      2  C   UNL     1       0.886  10.069   9.633  1.00  0.00     0.000 C 
BRANCH   2   3
ATOM      3  C   UNL     1       2.418   9.996   9.811  1.00  0.00     0.000 C 
BRANCH   3   4
ATOM      4  C   UNL     1       3.000   8.669   9.295  1.00  0.00    -0.000 C 
BRANCH   4   5
ATOM      5  C   UNL     1       4.476   8.471   9.681  1.00  0.00    -0.000 C 
BRANCH   5   6
ATOM      6  C   UNL     1       5.204   9.751  10.125  1.00  0.00    -0.000 C 
BRANCH   6   7
ATOM      7  C   UNL     1       6.494  10.010   9.332  1.00  0.00    -0.000 C 
BRANCH   7   8
ATOM      8  C   UNL     1       6.218  10.032   7.821  1.00  0.00    -0.000 C 
BRANCH   8   9
ATOM      9  C   UNL     1       7.034   8.975   7.059  1.00  0.00    -0.000 C 
BRANCH   9  10
ATOM     10  C   UNL     1       6.194   8.218   6.018  1.00  0.00    -0.000 C 
BRANCH  10  11
ATOM     11  C   UNL     1       4.887   7.706   6.633  1.00  0.00    -0.003 C 
ATOM     12  C   UNL     1       3.676   8.219   5.859  1.00  0.00     0.004 C 
ENDBRANCH  10  11
ENDBRANCH   9  10
ENDBRANCH   8   9
ENDBRANCH   7   8
ENDBRANCH   6   7
ENDBRANCH   5   6
ENDBRANCH   4   5
ENDBRANCH   3   4
ENDBRANCH   2   3
ENDBRANCH   1   2
BRANCH   1  13
ATOM     13  C   UNL     1      -1.049   8.438   9.229  1.00  0.00     0.000 C 
BRANCH  13  14
ATOM     14  C   UNL     1      -2.172   9.474   9.065  1.00  0.00     0.000 C 
BRANCH  14  15
ATOM     15  C   UNL     1      -2.420   9.845   7.593  1.00  0.00     0.000 C 
BRANCH  15  16
ATOM     16  C   UNL     1      -3.807   9.405   7.096  1.00  0.00     0.000 C 
BRANCH  16  17
ATOM     17  C   UNL     1      -4.229  10.123   5.805  1.00  0.00     0.000 C 
BRANCH  17  18
ATOM     18  C   UNL     1      -3.330   9.721   4.629  1.00  0.00     0.000 C 
BRANCH  18  19
ATOM     19  C   UNL     1      -3.339   8.206   4.359  1.00  0.00     0.000 C 
BRANCH  19  20
ATOM     20  C   UNL     1      -2.053   7.487   4.818  1.00  0.00     0.006 C 
BRANCH  20  21
ATOM     21  C   UNL     1      -2.194   5.959   4.768  1.00  0.00     0.053 C 
BRANCH  21  22
ATOM     22  C   UNL     1      -3.153   5.485   5.813  1.00  0.00     0.041 C 
ATOM     23  O   UNL     1      -3.298   6.139   6.881  1.00  0.00    -0.550 OA
ATOM     24  O   UNL     1      -3.847   4.295   5.633  1.00  0.00    -0.550 OA
ENDBRANCH  21  22
ENDBRANCH  20  21
ENDBRANCH  19  20
ENDBRANCH  18  19
ENDBRANCH  17  18
ENDBRANCH  16  17
ENDBRANCH  15  16
ENDBRANCH  14  15
ENDBRANCH  13  14
ENDBRANCH   1  13
TORSDOF 20
ENDMDL
MODEL 5
REMARK VINA RESULT:    -0.608      3.651      7.122
REMARK INTER + INTRA:          -3.539
REMARK INTER:                  -3.246
REMARK INTRA:                  -0.293
REMARK UNBOUND:                -2.221
REMARK SMILES CCCCCCCCCCCCCCCCCCCCCC(=O)[O-]
REMARK SMILES IDX 12 1 11 2 10 3 9 4 8 5 7 6 6 7 5 8 4 9 3 10 2 11 1 12 13 13
REMARK SMILES IDX 14 14 15 15 16 16 17 17 18 18 19 19 20 20 21 21 22 22 23 23
REMARK SMILES IDX 24 24
REMARK H PARENT
REMARK Flexibility Score: inf
ROOT
ATOM      1  C   UNL     1       6.531  -8.407   5.721  1.00  0.00     0.000 C 
ENDROOT
BRANCH   1   2
ATOM      2  C   UNL     1       6.303  -6.927   6.076  1.00  0.00     0.000 C 
BRANCH   2   3
ATOM      3  C   UNL     1       7.529  -6.028   5.807  1.00  0.00     0.000 C 
BRANCH   3   4
ATOM      4  C   UNL     1       7.466  -4.708   6.595  1.00  0.00    -0.000 C 
BRANCH   4   5
ATOM      5  C   UNL     1       8.423  -4.683   7.800  1.00  0.00    -0.000 C 
BRANCH   5   6
ATOM      6  C   UNL     1       8.156  -5.765   8.860  1.00  0.00    -0.000 C 
BRANCH   6   7
ATOM      7  C   UNL     1       7.290  -5.260  10.024  1.00  0.00    -0.000 C 
BRANCH   7   8
ATOM      8  C   UNL     1       7.318  -3.727  10.108  1.00  0.00    -0.000 C 
BRANCH   8   9
ATOM      9  C   UNL     1       8.661  -3.137   9.647  1.00  0.00    -0.000 C 
BRANCH   9  10
ATOM     10  C   UNL     1       8.518  -1.717   9.076  1.00  0.00    -0.000 C 
BRANCH  10  11
ATOM     11  C   UNL     1       8.887  -0.663  10.125  1.00  0.00    -0.003 C 
ATOM     12  C   UNL     1       7.970   0.552  10.032  1.00  0.00     0.004 C 
ENDBRANCH  10  11
ENDBRANCH   9  10
ENDBRANCH   8   9
ENDBRANCH   7   8
ENDBRANCH   6   7
ENDBRANCH   5   6
ENDBRANCH   4   5
ENDBRANCH   3   4
ENDBRANCH   2   3
ENDBRANCH   1   2
BRANCH   1  13
ATOM     13  C   UNL     1       5.415  -9.324   6.248  1.00  0.00     0.000 C 
BRANCH  13  14
ATOM     14  C   UNL     1       5.762  -9.963   7.601  1.00  0.00     0.000 C 
BRANCH  14  15
ATOM     15  C   UNL     1       4.912  -9.398   8.754  1.00  0.00     0.000 C 
BRANCH  15  16
ATOM     16  C   UNL     1       4.499  -7.935   8.522  1.00  0.00     0.000 C 
BRANCH  16  17
ATOM     17  C   UNL     1       4.075  -7.227   9.818  1.00  0.00     0.000 C 
BRANCH  17  18
ATOM     18  C   UNL     1       3.536  -5.820   9.530  1.00  0.00     0.000 C 
BRANCH  18  19
ATOM     19  C   UNL     1       3.623  -5.440   8.041  1.00  0.00     0.000 C 
BRANCH  19  20
ATOM     20  C   UNL     1       2.539  -4.438   7.593  1.00  0.00     0.006 C 
BRANCH  20  21
ATOM     21  C   UNL     1       1.191  -4.696   8.281  1.00  0.00     0.053 C 
BRANCH  21  22
ATOM     22  C   UNL     1       0.352  -5.622   7.460  1.00  0.00     0.041 C 
ATOM     23  O   UNL     1      -0.707  -5.205   6.920  1.00  0.00    -0.550 OA
ATOM     24  O   UNL     1       0.711  -6.959   7.333  1.00  0.00    -0.550 OA
ENDBRANCH  21  22
ENDBRANCH  20  21
ENDBRANCH  19  20
ENDBRANCH  18  19
ENDBRANCH  17  18
ENDBRANCH  16  17
ENDBRANCH  15  16
ENDBRANCH  14  15
ENDBRANCH  13  14
ENDBRANCH   1  13
TORSDOF 20
ENDMDL
MODEL 6
REMARK VINA RESULT:    -0.179      1.229      2.148
REMARK INTER + INTRA:          -2.609
REMARK INTER:                  -1.107
REMARK INTRA:                  -1.502
REMARK UNBOUND:                -2.221
REMARK SMILES CCCCCCCCCCCCCCCCCCCCCC(=O)[O-]
REMARK SMILES IDX 12 1 11 2 10 3 9 4 8 5 7 6 6 7 5 8 4 9 3 10 2 11 1 12 13 13
REMARK SMILES IDX 14 14 15 15 16 16 17 17 18 18 19 19 20 20 21 21 22 22 23 23
REMARK SMILES IDX 24 24
REMARK H PARENT
REMARK Flexibility Score: inf
ROOT
ATOM      1  C   UNL     1       5.615  -6.177   8.389  1.00  0.00     0.000 C 
ENDROOT
BRANCH   1   2
ATOM      2  C   UNL     1       5.721  -7.170   9.559  1.00  0.00     0.000 C 
BRANCH   2   3
ATOM      3  C   UNL     1       4.393  -7.882   9.892  1.00  0.00     0.000 C 
BRANCH   3   4
ATOM      4  C   UNL     1       4.515  -9.413   9.798  1.00  0.00    -0.000 C 
BRANCH   4   5
ATOM      5  C   UNL     1       3.565 -10.028   8.755  1.00  0.00    -0.000 C 
BRANCH   5   6
ATOM      6  C   UNL     1       3.402  -9.203   7.466  1.00  0.00    -0.000 C 
BRANCH   6   7
ATOM      7  C   UNL     1       1.946  -8.794   7.198  1.00  0.00    -0.000 C 
BRANCH   7   8
ATOM      8  C   UNL     1       1.610  -7.465   7.892  1.00  0.00    -0.000 C 
BRANCH   8   9
ATOM      9  C   UNL     1       0.626  -6.610   7.078  1.00  0.00    -0.000 C 
BRANCH   9  10
ATOM     10  C   UNL     1       0.826  -5.103   7.304  1.00  0.00    -0.000 C 
BRANCH  10  11
ATOM     11  C   UNL     1       2.282  -4.791   7.669  1.00  0.00    -0.003 C 
ATOM     12  C   UNL     1       2.397  -4.316   9.115  1.00  0.00     0.004 C 
ENDBRANCH  10  11
ENDBRANCH   9  10
ENDBRANCH   8   9
ENDBRANCH   7   8
ENDBRANCH   6   7
ENDBRANCH   5   6
ENDBRANCH   4   5
ENDBRANCH   3   4
ENDBRANCH   2   3
ENDBRANCH   1   2
BRANCH   1  13
ATOM     13  C   UNL     1       6.624  -6.468   7.266  1.00  0.00     0.000 C 
BRANCH  13  14
ATOM     14  C   UNL     1       6.768  -5.299   6.279  1.00  0.00     0.000 C 
BRANCH  14  15
ATOM     15  C   UNL     1       7.883  -4.320   6.686  1.00  0.00     0.000 C 
BRANCH  15  16
ATOM     16  C   UNL     1       8.047  -4.210   8.212  1.00  0.00     0.000 C 
BRANCH  16  17
ATOM     17  C   UNL     1       9.286  -3.397   8.617  1.00  0.00     0.000 C 
BRANCH  17  18
ATOM     18  C   UNL     1       9.155  -2.866  10.051  1.00  0.00     0.000 C 
BRANCH  18  19
ATOM     19  C   UNL     1       9.184  -1.329  10.124  1.00  0.00     0.000 C 
BRANCH  19  20
ATOM     20  C   UNL     1       8.196  -0.644   9.155  1.00  0.00     0.006 C 
BRANCH  20  21
ATOM     21  C   UNL     1       8.701   0.728   8.688  1.00  0.00     0.053 C 
BRANCH  21  22
ATOM     22  C   UNL     1       8.130   1.816   9.540  1.00  0.00     0.041 C 
ATOM     23  O   UNL     1       6.975   1.696  10.028  1.00  0.00    -0.550 OA
ATOM     24  O   UNL     1       8.852   2.984   9.753  1.00  0.00    -0.550 OA
ENDBRANCH  21  22
ENDBRANCH  20  21
ENDBRANCH  19  20
ENDBRANCH  18  19
ENDBRANCH  17  18
ENDBRANCH  16  17
ENDBRANCH  15  16
ENDBRANCH  14  15
ENDBRANCH  13  14
ENDBRANCH   1  13
TORSDOF 20
ENDMDL
MODEL 7
REMARK VINA RESULT:    -0.070     20.086     23.098
REMARK INTER + INTRA:          -2.371
REMARK INTER:                  -0.836
REMARK INTRA:                  -1.535
REMARK UNBOUND:                -2.221
REMARK SMILES CCCCCCCCCCCCCCCCCCCCCC(=O)[O-]
REMARK SMILES IDX 12 1 11 2 10 3 9 4 8 5 7 6 6 7 5 8 4 9 3 10 2 11 1 12 13 13
REMARK SMILES IDX 14 14 15 15 16 16 17 17 18 18 19 19 20 20 21 21 22 22 23 23
REMARK SMILES IDX 24 24
REMARK H PARENT
REMARK Flexibility Score: inf
ROOT
ATOM      1  C   UNL     1      -3.687   3.471  -8.086  1.00  0.00     0.000 C 
ENDROOT
BRANCH   1   2
ATOM      2  C   UNL     1      -3.587   2.255  -9.024  1.00  0.00     0.000 C 
BRANCH   2   3
ATOM      3  C   UNL     1      -4.669   2.229 -10.125  1.00  0.00     0.000 C 
BRANCH   3   4
ATOM      4  C   UNL     1      -5.822   3.203  -9.828  1.00  0.00    -0.000 C 
BRANCH   4   5
ATOM      5  C   UNL     1      -7.065   2.503  -9.250  1.00  0.00    -0.000 C 
BRANCH   5   6
ATOM      6  C   UNL     1      -6.880   1.923  -7.837  1.00  0.00    -0.000 C 
BRANCH   6   7
ATOM      7  C   UNL     1      -7.399   2.859  -6.735  1.00  0.00    -0.000 C 
BRANCH   7   8
ATOM      8  C   UNL     1      -6.492   2.808  -5.496  1.00  0.00    -0.000 C 
BRANCH   8   9
ATOM      9  C   UNL     1      -7.042   1.878  -4.403  1.00  0.00    -0.000 C 
BRANCH   9  10
ATOM     10  C   UNL     1      -6.908   2.477  -2.994  1.00  0.00    -0.000 C 
BRANCH  10  11
ATOM     11  C   UNL     1      -7.792   1.728  -1.991  1.00  0.00    -0.003 C 
ATOM     12  C   UNL     1      -7.070   1.526  -0.663  1.00  0.00     0.004 C 
ENDBRANCH  10  11
ENDBRANCH   9  10
ENDBRANCH   8   9
ENDBRANCH   7   8
ENDBRANCH   6   7
ENDBRANCH   5   6
ENDBRANCH   4   5
ENDBRANCH   3   4
ENDBRANCH   2   3
ENDBRANCH   1   2
BRANCH   1  13
ATOM     13  C   UNL     1      -2.651   4.559  -8.409  1.00  0.00     0.000 C 
BRANCH  13  14
ATOM     14  C   UNL     1      -3.296   5.915  -8.737  1.00  0.00     0.000 C 
BRANCH  14  15
ATOM     15  C   UNL     1      -2.640   6.602  -9.948  1.00  0.00     0.000 C 
BRANCH  15  16
ATOM     16  C   UNL     1      -3.014   8.089 -10.059  1.00  0.00     0.000 C 
BRANCH  16  17
ATOM     17  C   UNL     1      -3.552   8.665  -8.739  1.00  0.00     0.000 C 
BRANCH  17  18
ATOM     18  C   UNL     1      -4.132  10.070  -8.944  1.00  0.00     0.000 C 
BRANCH  18  19
ATOM     19  C   UNL     1      -5.336  10.086  -9.904  1.00  0.00     0.000 C 
BRANCH  19  20
ATOM     20  C   UNL     1      -6.689   9.834  -9.205  1.00  0.00     0.006 C 
BRANCH  20  21
ATOM     21  C   UNL     1      -7.624   8.960 -10.052  1.00  0.00     0.053 C 
BRANCH  21  22
ATOM     22  C   UNL     1      -8.958   8.823  -9.389  1.00  0.00     0.041 C 
ATOM     23  O   UNL     1      -9.609   7.750  -9.494  1.00  0.00    -0.550 OA
ATOM     24  O   UNL     1      -9.505   9.898  -8.698  1.00  0.00    -0.550 OA
ENDBRANCH  21  22
ENDBRANCH  20  21
ENDBRANCH  19  20
ENDBRANCH  18  19
ENDBRANCH  17  18
ENDBRANCH  16  17
ENDBRANCH  15  16
ENDBRANCH  14  15
ENDBRANCH  13  14
ENDBRANCH   1  13
TORSDOF 20
ENDMDL
MODEL 8
REMARK VINA RESULT:     0.128     14.300     17.648
REMARK INTER + INTRA:          -1.943
REMARK INTER:                  -3.357
REMARK INTRA:                   1.414
REMARK UNBOUND:                -2.221
REMARK SMILES CCCCCCCCCCCCCCCCCCCCCC(=O)[O-]
REMARK SMILES IDX 12 1 11 2 10 3 9 4 8 5 7 6 6 7 5 8 4 9 3 10 2 11 1 12 13 13
REMARK SMILES IDX 14 14 15 15 16 16 17 17 18 18 19 19 20 20 21 21 22 22 23 23
REMARK SMILES IDX 24 24
REMARK H PARENT
REMARK Flexibility Score: inf
ROOT
ATOM      1  C   UNL     1      -0.648   9.100   8.353  1.00  0.00     0.000 C 
ENDROOT
BRANCH   1   2
ATOM      2  C   UNL     1      -0.440   9.744   9.735  1.00  0.00     0.000 C 
BRANCH   2   3
ATOM      3  C   UNL     1       1.044   9.925  10.119  1.00  0.00     0.000 C 
BRANCH   3   4
ATOM      4  C   UNL     1       1.990   9.611   8.947  1.00  0.00    -0.000 C 
BRANCH   4   5
ATOM      5  C   UNL     1       3.315   8.974   9.399  1.00  0.00    -0.000 C 
BRANCH   5   6
ATOM      6  C   UNL     1       4.016   8.116   8.332  1.00  0.00    -0.000 C 
BRANCH   6   7
ATOM      7  C   UNL     1       3.456   8.343   6.920  1.00  0.00    -0.000 C 
BRANCH   7   8
ATOM      8  C   UNL     1       4.293   7.601   5.868  1.00  0.00    -0.000 C 
BRANCH   8   9
ATOM      9  C   UNL     1       5.802   7.840   6.040  1.00  0.00    -0.000 C 
BRANCH   9  10
ATOM     10  C   UNL     1       6.241   9.224   5.537  1.00  0.00    -0.000 C 
BRANCH  10  11
ATOM     11  C   UNL     1       7.462   9.729   6.314  1.00  0.00    -0.003 C 
ATOM     12  C   UNL     1       7.197   9.733   7.816  1.00  0.00     0.004 C 
ENDBRANCH  10  11
ENDBRANCH   9  10
ENDBRANCH   8   9
ENDBRANCH   7   8
ENDBRANCH   6   7
ENDBRANCH   5   6
ENDBRANCH   4   5
ENDBRANCH   3   4
ENDBRANCH   2   3
ENDBRANCH   1   2
BRANCH   1  13
ATOM     13  C   UNL     1      -1.907   9.618   7.638  1.00  0.00     0.000 C 
BRANCH  13  14
ATOM     14  C   UNL     1      -2.244   8.814   6.373  1.00  0.00     0.000 C 
BRANCH  14  15
ATOM     15  C   UNL     1      -3.284   9.521   5.486  1.00  0.00     0.000 C 
BRANCH  15  16
ATOM     16  C   UNL     1      -4.558   9.904   6.258  1.00  0.00     0.000 C 
BRANCH  16  17
ATOM     17  C   UNL     1      -4.327   9.991   7.775  1.00  0.00     0.000 C 
BRANCH  17  18
ATOM     18  C   UNL     1      -4.438   8.608   8.431  1.00  0.00     0.000 C 
BRANCH  18  19
ATOM     19  C   UNL     1      -5.140   8.651   9.800  1.00  0.00     0.000 C 
BRANCH  19  20
ATOM     20  C   UNL     1      -5.945   7.375  10.124  1.00  0.00     0.006 C 
BRANCH  20  21
ATOM     21  C   UNL     1      -7.297   7.344   9.397  1.00  0.00     0.053 C 
BRANCH  21  22
ATOM     22  C   UNL     1      -7.830   8.730   9.219  1.00  0.00     0.041 C 
ATOM     23  O   UNL     1      -8.559   9.246  10.108  1.00  0.00    -0.550 OA
ATOM     24  O   UNL     1      -7.566   9.432   8.050  1.00  0.00    -0.550 OA
ENDBRANCH  21  22
ENDBRANCH  20  21
ENDBRANCH  19  20
ENDBRANCH  18  19
ENDBRANCH  17  18
ENDBRANCH  16  17
ENDBRANCH  15  16
ENDBRANCH  14  15
ENDBRANCH  13  14
ENDBRANCH   1  13
TORSDOF 20
ENDMDL
