MODEL 1
REMARK VINA RESULT:    -4.609      0.000      0.000
REMARK INTER + INTRA:          -4.609
REMARK INTER:                  -4.609
REMARK INTRA:                   0.000
REMARK UNBOUND:                 0.000
REMARK SMILES CC(C)=C1CC[C@@H](C)CC1=O
REMARK SMILES IDX 8 1 7 2 6 3 5 4 4 5 2 6 1 7 3 8 10 9 11 10 9 11
REMARK H PARENT
REMARK Flexibility Score: inf
ROOT
ATOM      1  C   UNL     1      21.001  26.713  29.392  1.00  0.00     0.008 C 
ATOM      2  C   UNL     1      20.168  26.078  28.273  1.00  0.00    -0.006 C 
ATOM      3  C   UNL     1      18.733  25.810  28.752  1.00  0.00     0.008 C 
ATOM      4  C   UNL     1      17.856  25.269  27.614  1.00  0.00     0.039 C 
ATOM      5  C   UNL     1      18.476  24.062  26.924  1.00  0.00    -0.006 C 
ATOM      6  C   UNL     1      17.699  23.075  26.389  1.00  0.00    -0.070 C 
ATOM      7  C   UNL     1      18.304  21.845  25.751  1.00  0.00     0.039 C 
ATOM      8  C   UNL     1      16.191  23.147  26.445  1.00  0.00     0.039 C 
ATOM      9  C   UNL     1      19.961  24.087  26.767  1.00  0.00     0.159 C 
ATOM     10  O   UNL     1      20.524  23.550  25.776  1.00  0.00    -0.295 OA
ATOM     11  C   UNL     1      20.814  24.769  27.797  1.00  0.00     0.084 C 
ENDROOT
TORSDOF 0
ENDMDL
MODEL 2
REMARK VINA RESULT:    -4.356      1.802      2.573
REMARK INTER + INTRA:          -4.356
REMARK INTER:                  -4.356
REMARK INTRA:                   0.000
REMARK UNBOUND:                 0.000
REMARK SMILES CC(C)=C1CC[C@@H](C)CC1=O
REMARK SMILES IDX 8 1 7 2 6 3 5 4 4 5 2 6 1 7 3 8 10 9 11 10 9 11
REMARK H PARENT
REMARK Flexibility Score: inf
ROOT
ATOM      1  C   UNL     1      21.889  26.522  27.946  1.00  0.00     0.008 C 
ATOM      2  C   UNL     1      20.702  25.554  28.004  1.00  0.00    -0.006 C 
ATOM      3  C   UNL     1      20.617  24.723  26.715  1.00  0.00     0.008 C 
ATOM      4  C   UNL     1      19.497  23.678  26.797  1.00  0.00     0.039 C 
ATOM      5  C   UNL     1      18.157  24.288  27.188  1.00  0.00    -0.006 C 
ATOM      6  C   UNL     1      16.981  23.769  26.729  1.00  0.00    -0.070 C 
ATOM      7  C   UNL     1      15.648  24.399  27.065  1.00  0.00     0.039 C 
ATOM      8  C   UNL     1      16.957  22.556  25.828  1.00  0.00     0.039 C 
ATOM      9  C   UNL     1      18.209  25.399  28.185  1.00  0.00     0.159 C 
ATOM     10  O   UNL     1      17.277  25.579  29.013  1.00  0.00    -0.295 OA
ATOM     11  C   UNL     1      19.391  26.324  28.219  1.00  0.00     0.084 C 
ENDROOT
TORSDOF 0
ENDMDL
MODEL 3
REMARK VINA RESULT:    -4.332      2.056      2.836
REMARK INTER + INTRA:          -4.332
REMARK INTER:                  -4.332
REMARK INTRA:                   0.000
REMARK UNBOUND:                 0.000
REMARK SMILES CC(C)=C1CC[C@@H](C)CC1=O
REMARK SMILES IDX 8 1 7 2 6 3 5 4 4 5 2 6 1 7 3 8 10 9 11 10 9 11
REMARK H PARENT
REMARK Flexibility Score: inf
ROOT
ATOM      1  C   UNL     1      19.077  28.043  28.534  1.00  0.00     0.008 C 
ATOM      2  C   UNL     1      18.627  26.584  28.401  1.00  0.00    -0.006 C 
ATOM      3  C   UNL     1      19.505  25.837  27.384  1.00  0.00     0.008 C 
ATOM      4  C   UNL     1      19.135  24.350  27.314  1.00  0.00     0.039 C 
ATOM      5  C   UNL     1      17.647  24.130  27.074  1.00  0.00    -0.006 C 
ATOM      6  C   UNL     1      17.194  23.051  26.371  1.00  0.00    -0.070 C 
ATOM      7  C   UNL     1      15.724  22.851  26.079  1.00  0.00     0.039 C 
ATOM      8  C   UNL     1      18.149  22.019  25.817  1.00  0.00     0.039 C 
ATOM      9  C   UNL     1      16.725  25.092  27.748  1.00  0.00     0.159 C 
ATOM     10  O   UNL     1      15.583  24.736  28.144  1.00  0.00    -0.295 OA
ATOM     11  C   UNL     1      17.154  26.513  27.973  1.00  0.00     0.084 C 
ENDROOT
TORSDOF 0
ENDMDL
MODEL 4
REMARK VINA RESULT:    -4.307      1.664      4.642
REMARK INTER + INTRA:          -4.307
REMARK INTER:                  -4.307
REMARK INTRA:                   0.000
REMARK UNBOUND:                 0.000
REMARK SMILES CC(C)=C1CC[C@@H](C)CC1=O
REMARK SMILES IDX 8 1 7 2 6 3 5 4 4 5 2 6 1 7 3 8 10 9 11 10 9 11
REMARK H PARENT
REMARK Flexibility Score: inf
ROOT
ATOM      1  C   UNL     1      14.976  22.520  26.133  1.00  0.00     0.008 C 
ATOM      2  C   UNL     1      16.254  23.364  26.200  1.00  0.00    -0.006 C 
ATOM      3  C   UNL     1      17.487  22.465  26.383  1.00  0.00     0.008 C 
ATOM      4  C   UNL     1      18.784  23.284  26.350  1.00  0.00     0.039 C 
ATOM      5  C   UNL     1      18.762  24.452  27.327  1.00  0.00    -0.006 C 
ATOM      6  C   UNL     1      19.904  24.894  27.930  1.00  0.00    -0.070 C 
ATOM      7  C   UNL     1      19.886  26.016  28.943  1.00  0.00     0.039 C 
ATOM      8  C   UNL     1      21.242  24.253  27.642  1.00  0.00     0.039 C 
ATOM      9  C   UNL     1      17.450  25.148  27.486  1.00  0.00     0.159 C 
ATOM     10  O   UNL     1      17.389  26.383  27.730  1.00  0.00    -0.295 OA
ATOM     11  C   UNL     1      16.169  24.378  27.349  1.00  0.00     0.084 C 
ENDROOT
TORSDOF 0
ENDMDL
MODEL 5
REMARK VINA RESULT:    -4.306      1.854      4.631
REMARK INTER + INTRA:          -4.306
REMARK INTER:                  -4.306
REMARK INTRA:                   0.000
REMARK UNBOUND:                 0.000
REMARK SMILES CC(C)=C1CC[C@@H](C)CC1=O
REMARK SMILES IDX 8 1 7 2 6 3 5 4 4 5 2 6 1 7 3 8 10 9 11 10 9 11
REMARK H PARENT
REMARK Flexibility Score: inf
ROOT
ATOM      1  C   UNL     1      19.119  23.080  26.381  1.00  0.00     0.008 C 
ATOM      2  C   UNL     1      19.489  24.168  27.396  1.00  0.00    -0.006 C 
ATOM      3  C   UNL     1      18.558  25.382  27.253  1.00  0.00     0.008 C 
ATOM      4  C   UNL     1      18.849  26.437  28.328  1.00  0.00     0.039 C 
ATOM      5  C   UNL     1      20.319  26.831  28.378  1.00  0.00    -0.006 C 
ATOM      6  C   UNL     1      20.704  28.092  28.731  1.00  0.00    -0.070 C 
ATOM      7  C   UNL     1      22.157  28.510  28.730  1.00  0.00     0.039 C 
ATOM      8  C   UNL     1      19.688  29.146  29.105  1.00  0.00     0.039 C 
ATOM      9  C   UNL     1      21.300  25.731  28.135  1.00  0.00     0.159 C 
ATOM     10  O   UNL     1      22.427  25.724  28.698  1.00  0.00    -0.295 OA
ATOM     11  C   UNL     1      20.950  24.602  27.210  1.00  0.00     0.084 C 
ENDROOT
TORSDOF 0
ENDMDL
MODEL 6
REMARK VINA RESULT:    -4.292      1.738      2.646
REMARK INTER + INTRA:          -4.292
REMARK INTER:                  -4.292
REMARK INTRA:                   0.000
REMARK UNBOUND:                 0.000
REMARK SMILES CC(C)=C1CC[C@@H](C)CC1=O
REMARK SMILES IDX 8 1 7 2 6 3 5 4 4 5 2 6 1 7 3 8 10 9 11 10 9 11
REMARK H PARENT
REMARK Flexibility Score: inf
ROOT
ATOM      1  C   UNL     1      20.943  24.602  27.268  1.00  0.00     0.008 C 
ATOM      2  C   UNL     1      19.450  24.610  26.920  1.00  0.00    -0.006 C 
ATOM      3  C   UNL     1      18.628  25.204  28.074  1.00  0.00     0.008 C 
ATOM      4  C   UNL     1      17.143  25.314  27.702  1.00  0.00     0.039 C 
ATOM      5  C   UNL     1      16.570  23.998  27.195  1.00  0.00    -0.006 C 
ATOM      6  C   UNL     1      15.264  23.663  27.409  1.00  0.00    -0.070 C 
ATOM      7  C   UNL     1      14.698  22.335  26.959  1.00  0.00     0.039 C 
ATOM      8  C   UNL     1      14.327  24.593  28.145  1.00  0.00     0.039 C 
ATOM      9  C   UNL     1      17.484  23.165  26.357  1.00  0.00     0.159 C 
ATOM     10  O   UNL     1      17.040  22.438  25.428  1.00  0.00    -0.295 OA
ATOM     11  C   UNL     1      18.963  23.187  26.609  1.00  0.00     0.084 C 
ENDROOT
TORSDOF 0
ENDMDL
MODEL 7
REMARK VINA RESULT:    -4.266      7.884     11.044
REMARK INTER + INTRA:          -4.266
REMARK INTER:                  -4.266
REMARK INTRA:                   0.000
REMARK UNBOUND:                 0.000
REMARK SMILES CC(C)=C1CC[C@@H](C)CC1=O
REMARK SMILES IDX 8 1 7 2 6 3 5 4 4 5 2 6 1 7 3 8 10 9 11 10 9 11
REMARK H PARENT
REMARK Flexibility Score: inf
ROOT
ATOM      1  C   UNL     1      24.252  28.047  28.066  1.00  0.00     0.008 C 
ATOM      2  C   UNL     1      25.338  29.128  28.013  1.00  0.00    -0.006 C 
ATOM      3  C   UNL     1      26.685  28.520  27.592  1.00  0.00     0.008 C 
ATOM      4  C   UNL     1      27.760  29.604  27.434  1.00  0.00     0.039 C 
ATOM      5  C   UNL     1      27.879  30.491  28.666  1.00  0.00    -0.006 C 
ATOM      6  C   UNL     1      29.074  31.041  29.031  1.00  0.00    -0.070 C 
ATOM      7  C   UNL     1      29.216  31.878  30.282  1.00  0.00     0.039 C 
ATOM      8  C   UNL     1      30.327  30.806  28.219  1.00  0.00     0.039 C 
ATOM      9  C   UNL     1      26.601  30.813  29.368  1.00  0.00     0.159 C 
ATOM     10  O   UNL     1      26.435  31.916  29.954  1.00  0.00    -0.295 OA
ATOM     11  C   UNL     1      25.477  29.817  29.378  1.00  0.00     0.084 C 
ENDROOT
TORSDOF 0
ENDMDL
MODEL 8
REMARK VINA RESULT:    -4.161      2.140      4.985
REMARK INTER + INTRA:          -4.161
REMARK INTER:                  -4.161
REMARK INTRA:                   0.000
REMARK UNBOUND:                 0.000
REMARK SMILES CC(C)=C1CC[C@@H](C)CC1=O
REMARK SMILES IDX 8 1 7 2 6 3 5 4 4 5 2 6 1 7 3 8 10 9 11 10 9 11
REMARK H PARENT
REMARK Flexibility Score: inf
ROOT
ATOM      1  C   UNL     1      19.505  23.243  26.384  1.00  0.00     0.008 C 
ATOM      2  C   UNL     1      19.684  24.664  26.932  1.00  0.00    -0.006 C 
ATOM      3  C   UNL     1      20.784  24.697  28.003  1.00  0.00     0.008 C 
ATOM      4  C   UNL     1      21.047  26.129  28.489  1.00  0.00     0.039 C 
ATOM      5  C   UNL     1      19.775  26.836  28.936  1.00  0.00    -0.006 C 
ATOM      6  C   UNL     1      19.794  27.767  29.934  1.00  0.00    -0.070 C 
ATOM      7  C   UNL     1      18.530  28.436  30.423  1.00  0.00     0.039 C 
ATOM      8  C   UNL     1      21.083  28.149  30.626  1.00  0.00     0.039 C 
ATOM      9  C   UNL     1      18.545  26.537  28.142  1.00  0.00     0.159 C 
ATOM     10  O   UNL     1      17.647  27.404  27.975  1.00  0.00    -0.295 OA
ATOM     11  C   UNL     1      18.364  25.183  27.519  1.00  0.00     0.084 C 
ENDROOT
TORSDOF 0
ENDMDL
MODEL 9
REMARK VINA RESULT:    -4.123      3.011      4.308
REMARK INTER + INTRA:          -4.123
REMARK INTER:                  -4.123
REMARK INTRA:                   0.000
REMARK UNBOUND:                 0.000
REMARK SMILES CC(C)=C1CC[C@@H](C)CC1=O
REMARK SMILES IDX 8 1 7 2 6 3 5 4 4 5 2 6 1 7 3 8 10 9 11 10 9 11
REMARK H PARENT
REMARK Flexibility Score: inf
ROOT
ATOM      1  C   UNL     1      18.442  31.178  29.411  1.00  0.00     0.008 C 
ATOM      2  C   UNL     1      18.951  29.948  28.650  1.00  0.00    -0.006 C 
ATOM      3  C   UNL     1      17.909  28.820  28.687  1.00  0.00     0.008 C 
ATOM      4  C   UNL     1      18.357  27.619  27.844  1.00  0.00     0.039 C 
ATOM      5  C   UNL     1      19.754  27.136  28.212  1.00  0.00    -0.006 C 
ATOM      6  C   UNL     1      20.100  25.820  28.110  1.00  0.00    -0.070 C 
ATOM      7  C   UNL     1      21.465  25.321  28.525  1.00  0.00     0.039 C 
ATOM      8  C   UNL     1      19.116  24.787  27.611  1.00  0.00     0.039 C 
ATOM      9  C   UNL     1      20.740  28.199  28.572  1.00  0.00     0.159 C 
ATOM     10  O   UNL     1      21.967  28.068  28.315  1.00  0.00    -0.295 OA
ATOM     11  C   UNL     1      20.277  29.457  29.247  1.00  0.00     0.084 C 
ENDROOT
TORSDOF 0
ENDMDL
