MODEL 1
REMARK VINA RESULT:     0.000      0.000      0.000
REMARK INTER + INTRA:          -0.616
REMARK INTER:                   0.000
REMARK INTRA:                  -0.616
REMARK UNBOUND:                -0.616
REMARK SMILES [NH3+]CCCC[C@@H]([NH3+])C(=O)[O-]
REMARK SMILES IDX 4 1 3 2 2 3 1 4 5 8 6 9 7 10 8 14 9 15 10 16
REMARK H PARENT 1 5 1 6 1 7 7 11 7 12 7 13
REMARK Flexibility Score: inf
ROOT
ATOM      1  C   UNL     1       4.417  17.034 -48.859  1.00  0.00     0.012 C 
ENDROOT
BRANCH   1   2
ATOM      2  C   UNL     1       4.831  18.401 -49.420  1.00  0.00     0.061 C 
BRANCH   2   3
ATOM      3  C   UNL     1       5.757  19.140 -48.445  1.00  0.00     0.258 C 
BRANCH   3   4
ATOM      4  N   UNL     1       5.007  20.105 -47.643  1.00  0.00    -0.358 N 
ATOM      5  H   UNL     1       4.017  20.157 -47.975  1.00  0.00     0.344 HD
ATOM      6  H   UNL     1       5.452  21.049 -47.707  1.00  0.00     0.344 HD
ATOM      7  H   UNL     1       5.011  19.797 -46.644  1.00  0.00     0.344 HD
ENDBRANCH   3   4
ENDBRANCH   2   3
ENDBRANCH   1   2
BRANCH   1   8
ATOM      8  C   UNL     1       2.932  16.970 -48.457  1.00  0.00     0.072 C 
BRANCH   8   9
ATOM      9  C   UNL     1       2.697  17.021 -46.922  1.00  0.00     0.227 C 
BRANCH   9  10
ATOM     10  N   UNL     1       3.960  16.872 -46.185  1.00  0.00    -0.350 N 
ATOM     11  H   UNL     1       4.739  16.606 -46.832  1.00  0.00     0.345 HD
ATOM     12  H   UNL     1       3.868  16.136 -45.449  1.00  0.00     0.345 HD
ATOM     13  H   UNL     1       4.202  17.774 -45.714  1.00  0.00     0.345 HD
ENDBRANCH   9  10
BRANCH   9  14
ATOM     14  C   UNL     1       2.029  18.314 -46.530  1.00  0.00     0.099 C 
ATOM     15  O   UNL     1       2.119  19.330 -47.270  1.00  0.00    -0.544 OA
ATOM     16  O   UNL     1       1.300  18.390 -45.350  1.00  0.00    -0.544 OA
ENDBRANCH   9  14
ENDBRANCH   8   9
ENDBRANCH   1   8
TORSDOF 7
ENDMDL
MODEL 2
REMARK VINA RESULT:     0.000      5.791      6.735
REMARK INTER + INTRA:          -0.616
REMARK INTER:                   0.000
REMARK INTRA:                  -0.616
REMARK UNBOUND:                -0.616
REMARK SMILES [NH3+]CCCC[C@@H]([NH3+])C(=O)[O-]
REMARK SMILES IDX 4 1 3 2 2 3 1 4 5 8 6 9 7 10 8 14 9 15 10 16
REMARK H PARENT 1 5 1 6 1 7 7 11 7 12 7 13
REMARK Flexibility Score: inf
ROOT
ATOM      1  C   UNL     1       8.795  22.365 -44.138  1.00  0.00     0.012 C 
ENDROOT
BRANCH   1   2
ATOM      2  C   UNL     1       9.760  22.058 -45.291  1.00  0.00     0.061 C 
BRANCH   2   3
ATOM      3  C   UNL     1      10.011  23.307 -46.147  1.00  0.00     0.258 C 
BRANCH   3   4
ATOM      4  N   UNL     1       9.164  23.302 -47.339  1.00  0.00    -0.358 N 
ATOM      5  H   UNL     1       8.336  23.923 -47.196  1.00  0.00     0.344 HD
ATOM      6  H   UNL     1       8.844  22.328 -47.549  1.00  0.00     0.344 HD
ATOM      7  H   UNL     1       9.717  23.658 -48.152  1.00  0.00     0.344 HD
ENDBRANCH   3   4
ENDBRANCH   2   3
ENDBRANCH   1   2
BRANCH   1   8
ATOM      8  C   UNL     1       7.416  21.701 -44.310  1.00  0.00     0.072 C 
BRANCH   8   9
ATOM      9  C   UNL     1       6.296  22.688 -44.739  1.00  0.00     0.227 C 
BRANCH   9  10
ATOM     10  N   UNL     1       6.751  24.083 -44.647  1.00  0.00    -0.350 N 
ATOM     11  H   UNL     1       6.521  24.607 -45.523  1.00  0.00     0.345 HD
ATOM     12  H   UNL     1       7.783  24.121 -44.493  1.00  0.00     0.345 HD
ATOM     13  H   UNL     1       6.284  24.554 -43.837  1.00  0.00     0.345 HD
ENDBRANCH   9  10
BRANCH   9  14
ATOM     14  C   UNL     1       5.838  22.394 -46.145  1.00  0.00     0.099 C 
ATOM     15  O   UNL     1       6.593  21.781 -46.947  1.00  0.00    -0.544 OA
ATOM     16  O   UNL     1       4.575  22.791 -46.562  1.00  0.00    -0.544 OA
ENDBRANCH   9  14
ENDBRANCH   8   9
ENDBRANCH   1   8
TORSDOF 7
ENDMDL
MODEL 3
REMARK VINA RESULT:     0.000      8.540     10.198
REMARK INTER + INTRA:          -0.616
REMARK INTER:                   0.000
REMARK INTRA:                  -0.616
REMARK UNBOUND:                -0.616
REMARK SMILES [NH3+]CCCC[C@@H]([NH3+])C(=O)[O-]
REMARK SMILES IDX 4 1 3 2 2 3 1 4 5 8 6 9 7 10 8 14 9 15 10 16
REMARK H PARENT 1 5 1 6 1 7 7 11 7 12 7 13
REMARK Flexibility Score: inf
ROOT
ATOM      1  C   UNL     1      -1.973  22.177 -41.465  1.00  0.00     0.012 C 
ENDROOT
BRANCH   1   2
ATOM      2  C   UNL     1      -0.714  21.374 -41.110  1.00  0.00     0.061 C 
BRANCH   2   3
ATOM      3  C   UNL     1      -0.751  19.980 -41.748  1.00  0.00     0.258 C 
BRANCH   3   4
ATOM      4  N   UNL     1      -1.216  18.978 -40.790  1.00  0.00    -0.358 N 
ATOM      5  H   UNL     1      -0.554  18.169 -40.766  1.00  0.00     0.344 HD
ATOM      6  H   UNL     1      -2.172  18.646 -41.052  1.00  0.00     0.344 HD
ATOM      7  H   UNL     1      -1.257  19.409 -39.838  1.00  0.00     0.344 HD
ENDBRANCH   3   4
ENDBRANCH   2   3
ENDBRANCH   1   2
BRANCH   1   8
ATOM      8  C   UNL     1      -2.913  22.390 -40.265  1.00  0.00     0.072 C 
BRANCH   8   9
ATOM      9  C   UNL     1      -4.182  21.493 -40.298  1.00  0.00     0.227 C 
BRANCH   9  10
ATOM     10  N   UNL     1      -4.322  20.816 -41.595  1.00  0.00    -0.350 N 
ATOM     11  H   UNL     1      -4.888  21.396 -42.258  1.00  0.00     0.345 HD
ATOM     12  H   UNL     1      -4.790  19.890 -41.475  1.00  0.00     0.345 HD
ATOM     13  H   UNL     1      -3.376  20.651 -42.010  1.00  0.00     0.345 HD
ENDBRANCH   9  10
BRANCH   9  14
ATOM     14  C   UNL     1      -4.138  20.471 -39.191  1.00  0.00     0.099 C 
ATOM     15  O   UNL     1      -3.037  20.128 -38.682  1.00  0.00    -0.544 OA
ATOM     16  O   UNL     1      -5.315  19.905 -38.720  1.00  0.00    -0.544 OA
ENDBRANCH   9  14
ENDBRANCH   8   9
ENDBRANCH   1   8
TORSDOF 7
ENDMDL
MODEL 4
REMARK VINA RESULT:     0.000      4.097      5.026
REMARK INTER + INTRA:          -0.616
REMARK INTER:                   0.000
REMARK INTRA:                  -0.616
REMARK UNBOUND:                -0.616
REMARK SMILES [NH3+]CCCC[C@@H]([NH3+])C(=O)[O-]
REMARK SMILES IDX 4 1 3 2 2 3 1 4 5 8 6 9 7 10 8 14 9 15 10 16
REMARK H PARENT 1 5 1 6 1 7 7 11 7 12 7 13
REMARK Flexibility Score: inf
ROOT
ATOM      1  C   UNL     1       2.202  18.828 -51.830  1.00  0.00     0.012 C 
ENDROOT
BRANCH   1   2
ATOM      2  C   UNL     1       2.721  18.912 -53.271  1.00  0.00     0.061 C 
BRANCH   2   3
ATOM      3  C   UNL     1       3.542  17.667 -53.635  1.00  0.00     0.258 C 
BRANCH   3   4
ATOM      4  N   UNL     1       4.974  17.925 -53.488  1.00  0.00    -0.358 N 
ATOM      5  H   UNL     1       5.217  18.041 -52.478  1.00  0.00     0.344 HD
ATOM      6  H   UNL     1       5.240  18.787 -54.018  1.00  0.00     0.344 HD
ATOM      7  H   UNL     1       5.509  17.114 -53.873  1.00  0.00     0.344 HD
ENDBRANCH   3   4
ENDBRANCH   2   3
ENDBRANCH   1   2
BRANCH   1   8
ATOM      8  C   UNL     1       2.884  19.829 -50.881  1.00  0.00     0.072 C 
BRANCH   8   9
ATOM      9  C   UNL     1       3.923  19.177 -49.927  1.00  0.00     0.227 C 
BRANCH   9  10
ATOM     10  N   UNL     1       3.845  17.711 -49.976  1.00  0.00    -0.350 N 
ATOM     11  H   UNL     1       4.735  17.279 -49.632  1.00  0.00     0.345 HD
ATOM     12  H   UNL     1       3.671  17.387 -50.954  1.00  0.00     0.345 HD
ATOM     13  H   UNL     1       3.053  17.379 -49.378  1.00  0.00     0.345 HD
ENDBRANCH   9  10
BRANCH   9  14
ATOM     14  C   UNL     1       5.320  19.625 -50.278  1.00  0.00     0.099 C 
ATOM     15  O   UNL     1       5.584  20.044 -51.437  1.00  0.00    -0.544 OA
ATOM     16  O   UNL     1       6.324  19.584 -49.320  1.00  0.00    -0.544 OA
ENDBRANCH   9  14
ENDBRANCH   8   9
ENDBRANCH   1   8
TORSDOF 7
ENDMDL
MODEL 5
REMARK VINA RESULT:     0.000      3.108      4.766
REMARK INTER + INTRA:          -0.616
REMARK INTER:                   0.000
REMARK INTRA:                  -0.616
REMARK UNBOUND:                -0.616
REMARK SMILES [NH3+]CCCC[C@@H]([NH3+])C(=O)[O-]
REMARK SMILES IDX 4 1 3 2 2 3 1 4 5 8 6 9 7 10 8 14 9 15 10 16
REMARK H PARENT 1 5 1 6 1 7 7 11 7 12 7 13
REMARK Flexibility Score: inf
ROOT
ATOM      1  C   UNL     1       2.195  19.459 -44.102  1.00  0.00     0.012 C 
ENDROOT
BRANCH   1   2
ATOM      2  C   UNL     1       0.934  20.332 -44.138  1.00  0.00     0.061 C 
BRANCH   2   3
ATOM      3  C   UNL     1      -0.074  19.803 -45.167  1.00  0.00     0.258 C 
BRANCH   3   4
ATOM      4  N   UNL     1       0.030  20.539 -46.426  1.00  0.00    -0.358 N 
ATOM      5  H   UNL     1      -0.485  21.446 -46.357  1.00  0.00     0.344 HD
ATOM      6  H   UNL     1      -0.363  19.969 -47.210  1.00  0.00     0.344 HD
ATOM      7  H   UNL     1       1.037  20.737 -46.624  1.00  0.00     0.344 HD
ENDBRANCH   3   4
ENDBRANCH   2   3
ENDBRANCH   1   2
BRANCH   1   8
ATOM      8  C   UNL     1       3.436  20.164 -44.679  1.00  0.00     0.072 C 
BRANCH   8   9
ATOM      9  C   UNL     1       3.836  19.666 -46.096  1.00  0.00     0.227 C 
BRANCH   9  10
ATOM     10  N   UNL     1       3.084  18.459 -46.468  1.00  0.00    -0.350 N 
ATOM     11  H   UNL     1       3.708  17.764 -46.940  1.00  0.00     0.345 HD
ATOM     12  H   UNL     1       2.301  18.702 -47.115  1.00  0.00     0.345 HD
ATOM     13  H   UNL     1       2.674  18.020 -45.611  1.00  0.00     0.345 HD
ENDBRANCH   9  10
BRANCH   9  14
ATOM     14  C   UNL     1       3.607  20.745 -47.122  1.00  0.00     0.099 C 
ATOM     15  O   UNL     1       2.781  21.672 -46.901  1.00  0.00    -0.544 OA
ATOM     16  O   UNL     1       4.313  20.729 -48.318  1.00  0.00    -0.544 OA
ENDBRANCH   9  14
ENDBRANCH   8   9
ENDBRANCH   1   8
TORSDOF 7
ENDMDL
MODEL 6
REMARK VINA RESULT:     0.000      5.518      7.228
REMARK INTER + INTRA:          -0.616
REMARK INTER:                   0.000
REMARK INTRA:                  -0.616
REMARK UNBOUND:                -0.616
REMARK SMILES [NH3+]CCCC[C@@H]([NH3+])C(=O)[O-]
REMARK SMILES IDX 4 1 3 2 2 3 1 4 5 8 6 9 7 10 8 14 9 15 10 16
REMARK H PARENT 1 5 1 6 1 7 7 11 7 12 7 13
REMARK Flexibility Score: inf
ROOT
ATOM      1  C   UNL     1       7.505  20.608 -48.271  1.00  0.00     0.012 C 
ENDROOT
BRANCH   1   2
ATOM      2  C   UNL     1       6.582  19.603 -48.972  1.00  0.00     0.061 C 
BRANCH   2   3
ATOM      3  C   UNL     1       7.113  18.172 -48.825  1.00  0.00     0.258 C 
BRANCH   3   4
ATOM      4  N   UNL     1       7.858  17.766 -50.016  1.00  0.00    -0.358 N 
ATOM      5  H   UNL     1       7.587  16.796 -50.297  1.00  0.00     0.344 HD
ATOM      6  H   UNL     1       8.886  17.806 -49.828  1.00  0.00     0.344 HD
ATOM      7  H   UNL     1       7.633  18.420 -50.800  1.00  0.00     0.344 HD
ENDBRANCH   3   4
ENDBRANCH   2   3
ENDBRANCH   1   2
BRANCH   1   8
ATOM      8  C   UNL     1       8.273  21.512 -49.252  1.00  0.00     0.072 C 
BRANCH   8   9
ATOM      9  C   UNL     1       9.771  21.132 -49.410  1.00  0.00     0.227 C 
BRANCH   9  10
ATOM     10  N   UNL     1      10.180  20.145 -48.401  1.00  0.00    -0.350 N 
ATOM     11  H   UNL     1       9.345  19.653 -48.003  1.00  0.00     0.345 HD
ATOM     12  H   UNL     1      10.698  20.610 -47.623  1.00  0.00     0.345 HD
ATOM     13  H   UNL     1      10.815  19.437 -48.837  1.00  0.00     0.345 HD
ENDBRANCH   9  10
BRANCH   9  14
ATOM     14  C   UNL     1      10.038  20.588 -50.791  1.00  0.00     0.099 C 
ATOM     15  O   UNL     1       9.102  20.090 -51.473  1.00  0.00    -0.544 OA
ATOM     16  O   UNL     1      11.319  20.642 -51.324  1.00  0.00    -0.544 OA
ENDBRANCH   9  14
ENDBRANCH   8   9
ENDBRANCH   1   8
TORSDOF 7
ENDMDL
MODEL 7
REMARK VINA RESULT:     0.000      5.256      6.599
REMARK INTER + INTRA:          -0.616
REMARK INTER:                   0.000
REMARK INTRA:                  -0.616
REMARK UNBOUND:                -0.616
REMARK SMILES [NH3+]CCCC[C@@H]([NH3+])C(=O)[O-]
REMARK SMILES IDX 4 1 3 2 2 3 1 4 5 8 6 9 7 10 8 14 9 15 10 16
REMARK H PARENT 1 5 1 6 1 7 7 11 7 12 7 13
REMARK Flexibility Score: inf
ROOT
ATOM      1  C   UNL     1       0.525  21.700 -46.364  1.00  0.00     0.012 C 
ENDROOT
BRANCH   1   2
ATOM      2  C   UNL     1       1.237  20.443 -45.848  1.00  0.00     0.061 C 
BRANCH   2   3
ATOM      3  C   UNL     1       0.262  19.524 -45.101  1.00  0.00     0.258 C 
BRANCH   3   4
ATOM      4  N   UNL     1       0.354  19.727 -43.656  1.00  0.00    -0.358 N 
ATOM      5  H   UNL     1       1.236  20.236 -43.420  1.00  0.00     0.344 HD
ATOM      6  H   UNL     1       0.334  18.806 -43.161  1.00  0.00     0.344 HD
ATOM      7  H   UNL     1      -0.461  20.299 -43.338  1.00  0.00     0.344 HD
ENDBRANCH   3   4
ENDBRANCH   2   3
ENDBRANCH   1   2
BRANCH   1   8
ATOM      8  C   UNL     1       0.943  22.981 -45.620  1.00  0.00     0.072 C 
BRANCH   8   9
ATOM      9  C   UNL     1      -0.125  23.497 -44.616  1.00  0.00     0.227 C 
BRANCH   9  10
ATOM     10  N   UNL     1      -1.399  22.782 -44.779  1.00  0.00    -0.350 N 
ATOM     11  H   UNL     1      -1.534  22.084 -44.011  1.00  0.00     0.345 HD
ATOM     12  H   UNL     1      -1.422  22.282 -45.696  1.00  0.00     0.345 HD
ATOM     13  H   UNL     1      -2.192  23.466 -44.761  1.00  0.00     0.345 HD
ENDBRANCH   9  10
BRANCH   9  14
ATOM     14  C   UNL     1       0.364  23.347 -43.198  1.00  0.00     0.099 C 
ATOM     15  O   UNL     1       1.256  22.503 -42.915  1.00  0.00    -0.544 OA
ATOM     16  O   UNL     1      -0.162  24.148 -42.193  1.00  0.00    -0.544 OA
ENDBRANCH   9  14
ENDBRANCH   8   9
ENDBRANCH   1   8
TORSDOF 7
ENDMDL
MODEL 8
REMARK VINA RESULT:     0.000      6.929      7.901
REMARK INTER + INTRA:          -0.616
REMARK INTER:                   0.000
REMARK INTRA:                  -0.616
REMARK UNBOUND:                -0.616
REMARK SMILES [NH3+]CCCC[C@@H]([NH3+])C(=O)[O-]
REMARK SMILES IDX 4 1 3 2 2 3 1 4 5 8 6 9 7 10 8 14 9 15 10 16
REMARK H PARENT 1 5 1 6 1 7 7 11 7 12 7 13
REMARK Flexibility Score: inf
ROOT
ATOM      1  C   UNL     1      11.400  17.353 -43.343  1.00  0.00     0.012 C 
ENDROOT
BRANCH   1   2
ATOM      2  C   UNL     1      11.212  16.779 -41.932  1.00  0.00     0.061 C 
BRANCH   2   3
ATOM      3  C   UNL     1      10.674  15.343 -41.988  1.00  0.00     0.258 C 
BRANCH   3   4
ATOM      4  N   UNL     1       9.225  15.320 -41.796  1.00  0.00    -0.358 N 
ATOM      5  H   UNL     1       8.953  14.499 -41.210  1.00  0.00     0.344 HD
ATOM      6  H   UNL     1       8.739  15.271 -42.721  1.00  0.00     0.344 HD
ATOM      7  H   UNL     1       8.931  16.196 -41.306  1.00  0.00     0.344 HD
ENDBRANCH   3   4
ENDBRANCH   2   3
ENDBRANCH   1   2
BRANCH   1   8
ATOM      8  C   UNL     1      10.389  18.462 -43.685  1.00  0.00     0.072 C 
BRANCH   8   9
ATOM      9  C   UNL     1       9.262  18.003 -44.653  1.00  0.00     0.227 C 
BRANCH   9  10
ATOM     10  N   UNL     1       9.552  16.679 -45.218  1.00  0.00    -0.350 N 
ATOM     11  H   UNL     1       9.497  15.939 -44.480  1.00  0.00     0.345 HD
ATOM     12  H   UNL     1      10.508  16.662 -45.639  1.00  0.00     0.345 HD
ATOM     13  H   UNL     1       8.861  16.458 -45.973  1.00  0.00     0.345 HD
ENDBRANCH   9  10
BRANCH   9  14
ATOM     14  C   UNL     1       7.933  17.974 -43.942  1.00  0.00     0.099 C 
ATOM     15  O   UNL     1       7.881  17.867 -42.687  1.00  0.00    -0.544 OA
ATOM     16  O   UNL     1       6.754  18.073 -44.669  1.00  0.00    -0.544 OA
ENDBRANCH   9  14
ENDBRANCH   8   9
ENDBRANCH   1   8
TORSDOF 7
ENDMDL
MODEL 9
REMARK VINA RESULT:     0.000      5.865      6.806
REMARK INTER + INTRA:          -0.616
REMARK INTER:                   0.000
REMARK INTRA:                  -0.616
REMARK UNBOUND:                -0.616
REMARK SMILES [NH3+]CCCC[C@@H]([NH3+])C(=O)[O-]
REMARK SMILES IDX 4 1 3 2 2 3 1 4 5 8 6 9 7 10 8 14 9 15 10 16
REMARK H PARENT 1 5 1 6 1 7 7 11 7 12 7 13
REMARK Flexibility Score: inf
ROOT
ATOM      1  C   UNL     1       3.891  14.352 -51.010  1.00  0.00     0.012 C 
ENDROOT
BRANCH   1   2
ATOM      2  C   UNL     1       4.396  12.957 -50.619  1.00  0.00     0.061 C 
BRANCH   2   3
ATOM      3  C   UNL     1       5.235  13.014 -49.335  1.00  0.00     0.258 C 
BRANCH   3   4
ATOM      4  N   UNL     1       6.663  13.047 -49.646  1.00  0.00    -0.358 N 
ATOM      5  H   UNL     1       6.846  12.557 -50.551  1.00  0.00     0.344 HD
ATOM      6  H   UNL     1       7.209  12.589 -48.880  1.00  0.00     0.344 HD
ATOM      7  H   UNL     1       6.972  14.042 -49.733  1.00  0.00     0.344 HD
ENDBRANCH   3   4
ENDBRANCH   2   3
ENDBRANCH   1   2
BRANCH   1   8
ATOM      8  C   UNL     1       4.564  14.906 -52.279  1.00  0.00     0.072 C 
BRANCH   8   9
ATOM      9  C   UNL     1       5.623  16.007 -51.994  1.00  0.00     0.227 C 
BRANCH   9  10
ATOM     10  N   UNL     1       5.570  16.448 -50.593  1.00  0.00    -0.350 N 
ATOM     11  H   UNL     1       4.801  15.958 -50.078  1.00  0.00     0.345 HD
ATOM     12  H   UNL     1       5.407  17.478 -50.540  1.00  0.00     0.345 HD
ATOM     13  H   UNL     1       6.481  16.238 -50.122  1.00  0.00     0.345 HD
ENDBRANCH   9  10
BRANCH   9  14
ATOM     14  C   UNL     1       7.008  15.507 -52.318  1.00  0.00     0.099 C 
ATOM     15  O   UNL     1       7.254  14.271 -52.335  1.00  0.00    -0.544 OA
ATOM     16  O   UNL     1       8.023  16.410 -52.609  1.00  0.00    -0.544 OA
ENDBRANCH   9  14
ENDBRANCH   8   9
ENDBRANCH   1   8
TORSDOF 7
ENDMDL
