MODEL 1
REMARK VINA RESULT:    -3.885      0.000      0.000
REMARK INTER + INTRA:          -4.277
REMARK INTER:                  -4.225
REMARK INTRA:                  -0.052
REMARK UNBOUND:                -0.052
REMARK SMILES CCc1cccc(O)c1
REMARK SMILES IDX 3 1 9 2 7 3 6 4 5 5 4 6 2 7 1 8 8 9
REMARK H PARENT 8 10
REMARK Flexibility Score: inf
ROOT
ATOM      1  C   UNL     1     162.969 177.404 186.989  1.00  0.00    -0.045 A 
ATOM      2  C   UNL     1     162.224 177.722 185.841  1.00  0.00     0.049 A 
ATOM      3  C   UNL     1     160.894 178.152 185.958  1.00  0.00     0.115 A 
ATOM      4  C   UNL     1     160.311 178.271 187.225  1.00  0.00     0.046 A 
ATOM      5  C   UNL     1     161.051 177.969 188.370  1.00  0.00     0.004 A 
ATOM      6  C   UNL     1     162.377 177.541 188.255  1.00  0.00     0.004 A 
ENDROOT
BRANCH   1   7
ATOM      7  C   UNL     1     164.407 176.974 186.865  1.00  0.00     0.032 C 
ATOM      8  C   UNL     1     165.320 178.186 186.712  1.00  0.00     0.009 C 
ENDBRANCH   1   7
BRANCH   3   9
ATOM      9  O   UNL     1     160.145 178.464 184.825  1.00  0.00    -0.508 OA
ATOM     10  H   UNL     1     160.332 178.024 183.931  1.00  0.00     0.293 HD
ENDBRANCH   3   9
TORSDOF 2
ENDMDL
MODEL 2
REMARK VINA RESULT:    -3.884      2.020      3.813
REMARK INTER + INTRA:          -4.276
REMARK INTER:                  -4.226
REMARK INTRA:                  -0.050
REMARK UNBOUND:                -0.052
REMARK SMILES CCc1cccc(O)c1
REMARK SMILES IDX 3 1 9 2 7 3 6 4 5 5 4 6 2 7 1 8 8 9
REMARK H PARENT 8 10
REMARK Flexibility Score: inf
ROOT
ATOM      1  C   UNL     1     162.778 177.218 187.656  1.00  0.00    -0.045 A 
ATOM      2  C   UNL     1     163.493 178.190 186.936  1.00  0.00     0.049 A 
ATOM      3  C   UNL     1     164.679 177.847 186.271  1.00  0.00     0.115 A 
ATOM      4  C   UNL     1     165.148 176.529 186.321  1.00  0.00     0.046 A 
ATOM      5  C   UNL     1     164.434 175.556 187.025  1.00  0.00     0.004 A 
ATOM      6  C   UNL     1     163.250 175.896 187.686  1.00  0.00     0.004 A 
ENDROOT
BRANCH   1   7
ATOM      7  C   UNL     1     161.486 177.579 188.340  1.00  0.00     0.032 C 
ATOM      8  C   UNL     1     160.537 178.274 187.370  1.00  0.00     0.009 C 
ENDBRANCH   1   7
BRANCH   3   9
ATOM      9  O   UNL     1     165.399 178.805 185.561  1.00  0.00    -0.508 OA
ATOM     10  H   UNL     1     165.207 178.993 184.584  1.00  0.00     0.293 HD
ENDBRANCH   3   9
TORSDOF 2
ENDMDL
MODEL 3
REMARK VINA RESULT:    -3.864      2.178      3.800
REMARK INTER + INTRA:          -4.254
REMARK INTER:                  -4.187
REMARK INTRA:                  -0.067
REMARK UNBOUND:                -0.052
REMARK SMILES CCc1cccc(O)c1
REMARK SMILES IDX 3 1 9 2 7 3 6 4 5 5 4 6 2 7 1 8 8 9
REMARK H PARENT 8 10
REMARK Flexibility Score: inf
ROOT
ATOM      1  C   UNL     1     162.234 177.807 186.769  1.00  0.00    -0.045 A 
ATOM      2  C   UNL     1     163.566 178.254 186.754  1.00  0.00     0.049 A 
ATOM      3  C   UNL     1     164.281 178.305 185.548  1.00  0.00     0.115 A 
ATOM      4  C   UNL     1     163.661 177.916 184.356  1.00  0.00     0.046 A 
ATOM      5  C   UNL     1     162.333 177.484 184.363  1.00  0.00     0.004 A 
ATOM      6  C   UNL     1     161.618 177.433 185.563  1.00  0.00     0.004 A 
ENDROOT
BRANCH   1   7
ATOM      7  C   UNL     1     161.456 177.784 188.058  1.00  0.00     0.032 C 
ATOM      8  C   UNL     1     160.171 178.595 187.928  1.00  0.00     0.009 C 
ENDBRANCH   1   7
BRANCH   3   9
ATOM      9  O   UNL     1     165.604 178.741 185.525  1.00  0.00    -0.508 OA
ATOM     10  H   UNL     1     165.921 179.433 184.856  1.00  0.00     0.293 HD
ENDBRANCH   3   9
TORSDOF 2
ENDMDL
MODEL 4
REMARK VINA RESULT:    -3.828     13.212     13.961
REMARK INTER + INTRA:          -4.215
REMARK INTER:                  -4.169
REMARK INTRA:                  -0.047
REMARK UNBOUND:                -0.052
REMARK SMILES CCc1cccc(O)c1
REMARK SMILES IDX 3 1 9 2 7 3 6 4 5 5 4 6 2 7 1 8 8 9
REMARK H PARENT 8 10
REMARK Flexibility Score: inf
ROOT
ATOM      1  C   UNL     1     175.425 179.243 186.216  1.00  0.00    -0.045 A 
ATOM      2  C   UNL     1     176.191 178.069 186.310  1.00  0.00     0.049 A 
ATOM      3  C   UNL     1     176.394 177.264 185.180  1.00  0.00     0.115 A 
ATOM      4  C   UNL     1     175.835 177.636 183.952  1.00  0.00     0.046 A 
ATOM      5  C   UNL     1     175.083 178.809 183.850  1.00  0.00     0.004 A 
ATOM      6  C   UNL     1     174.882 179.613 184.975  1.00  0.00     0.004 A 
ENDROOT
BRANCH   1   7
ATOM      7  C   UNL     1     175.236 180.125 187.422  1.00  0.00     0.032 C 
ATOM      8  C   UNL     1     174.757 179.309 188.618  1.00  0.00     0.009 C 
ENDBRANCH   1   7
BRANCH   3   9
ATOM      9  O   UNL     1     177.147 176.095 185.266  1.00  0.00    -0.508 OA
ATOM     10  H   UNL     1     177.289 175.621 186.150  1.00  0.00     0.293 HD
ENDBRANCH   3   9
TORSDOF 2
ENDMDL
MODEL 5
REMARK VINA RESULT:    -3.792      9.544     12.082
REMARK INTER + INTRA:          -4.176
REMARK INTER:                  -4.125
REMARK INTRA:                  -0.051
REMARK UNBOUND:                -0.052
REMARK SMILES CCc1cccc(O)c1
REMARK SMILES IDX 3 1 9 2 7 3 6 4 5 5 4 6 2 7 1 8 8 9
REMARK H PARENT 8 10
REMARK Flexibility Score: inf
ROOT
ATOM      1  C   UNL     1     172.591 179.621 186.253  1.00  0.00    -0.045 A 
ATOM      2  C   UNL     1     173.225 179.724 187.503  1.00  0.00     0.049 A 
ATOM      3  C   UNL     1     174.603 179.972 187.578  1.00  0.00     0.115 A 
ATOM      4  C   UNL     1     175.348 180.124 186.403  1.00  0.00     0.046 A 
ATOM      5  C   UNL     1     174.721 180.036 185.158  1.00  0.00     0.004 A 
ATOM      6  C   UNL     1     173.346 179.791 185.081  1.00  0.00     0.004 A 
ENDROOT
BRANCH   1   7
ATOM      7  C   UNL     1     171.106 179.389 186.172  1.00  0.00     0.032 C 
ATOM      8  C   UNL     1     170.415 179.868 187.444  1.00  0.00     0.009 C 
ENDBRANCH   1   7
BRANCH   3   9
ATOM      9  O   UNL     1     175.241 180.069 188.813  1.00  0.00    -0.508 OA
ATOM     10  H   UNL     1     175.312 180.953 189.303  1.00  0.00     0.293 HD
ENDBRANCH   3   9
TORSDOF 2
ENDMDL
MODEL 6
REMARK VINA RESULT:    -3.786      2.859      3.890
REMARK INTER + INTRA:          -4.170
REMARK INTER:                  -4.119
REMARK INTRA:                  -0.051
REMARK UNBOUND:                -0.052
REMARK SMILES CCc1cccc(O)c1
REMARK SMILES IDX 3 1 9 2 7 3 6 4 5 5 4 6 2 7 1 8 8 9
REMARK H PARENT 8 10
REMARK Flexibility Score: inf
ROOT
ATOM      1  C   UNL     1     160.778 175.497 186.368  1.00  0.00    -0.045 A 
ATOM      2  C   UNL     1     160.876 176.143 187.612  1.00  0.00     0.049 A 
ATOM      3  C   UNL     1     160.892 177.543 187.682  1.00  0.00     0.115 A 
ATOM      4  C   UNL     1     160.803 178.299 186.507  1.00  0.00     0.046 A 
ATOM      5  C   UNL     1     160.692 177.662 185.269  1.00  0.00     0.004 A 
ATOM      6  C   UNL     1     160.675 176.266 185.198  1.00  0.00     0.004 A 
ENDROOT
BRANCH   1   7
ATOM      7  C   UNL     1     160.727 173.993 186.296  1.00  0.00     0.032 C 
ATOM      8  C   UNL     1     159.973 173.421 187.491  1.00  0.00     0.009 C 
ENDBRANCH   1   7
BRANCH   3   9
ATOM      9  O   UNL     1     160.996 178.193 188.910  1.00  0.00    -0.508 OA
ATOM     10  H   UNL     1     161.810 178.077 189.502  1.00  0.00     0.293 HD
ENDBRANCH   3   9
TORSDOF 2
ENDMDL
MODEL 7
REMARK VINA RESULT:    -3.780      3.362      4.307
REMARK INTER + INTRA:          -4.163
REMARK INTER:                  -4.104
REMARK INTRA:                  -0.060
REMARK UNBOUND:                -0.052
REMARK SMILES CCc1cccc(O)c1
REMARK SMILES IDX 3 1 9 2 7 3 6 4 5 5 4 6 2 7 1 8 8 9
REMARK H PARENT 8 10
REMARK Flexibility Score: inf
ROOT
ATOM      1  C   UNL     1     161.367 176.261 187.734  1.00  0.00    -0.045 A 
ATOM      2  C   UNL     1     162.714 175.873 187.836  1.00  0.00     0.049 A 
ATOM      3  C   UNL     1     163.073 174.523 187.711  1.00  0.00     0.115 A 
ATOM      4  C   UNL     1     162.084 173.560 187.478  1.00  0.00     0.046 A 
ATOM      5  C   UNL     1     160.746 173.941 187.362  1.00  0.00     0.004 A 
ATOM      6  C   UNL     1     160.386 175.287 187.485  1.00  0.00     0.004 A 
ENDROOT
BRANCH   1   7
ATOM      7  C   UNL     1     160.986 177.714 187.834  1.00  0.00     0.032 C 
ATOM      8  C   UNL     1     160.592 178.264 186.467  1.00  0.00     0.009 C 
ENDBRANCH   1   7
BRANCH   3   9
ATOM      9  O   UNL     1     164.404 174.129 187.817  1.00  0.00    -0.508 OA
ATOM     10  H   UNL     1     164.659 173.223 188.193  1.00  0.00     0.293 HD
ENDBRANCH   3   9
TORSDOF 2
ENDMDL
MODEL 8
REMARK VINA RESULT:    -3.776      2.433      3.105
REMARK INTER + INTRA:          -4.158
REMARK INTER:                  -4.098
REMARK INTRA:                  -0.060
REMARK UNBOUND:                -0.052
REMARK SMILES CCc1cccc(O)c1
REMARK SMILES IDX 3 1 9 2 7 3 6 4 5 5 4 6 2 7 1 8 8 9
REMARK H PARENT 8 10
REMARK Flexibility Score: inf
ROOT
ATOM      1  C   UNL     1     161.021 175.546 186.618  1.00  0.00    -0.045 A 
ATOM      2  C   UNL     1     160.814 176.236 185.412  1.00  0.00     0.049 A 
ATOM      3  C   UNL     1     160.672 177.631 185.411  1.00  0.00     0.115 A 
ATOM      4  C   UNL     1     160.745 178.338 186.616  1.00  0.00     0.046 A 
ATOM      5  C   UNL     1     160.964 177.659 187.817  1.00  0.00     0.004 A 
ATOM      6  C   UNL     1     161.107 176.268 187.820  1.00  0.00     0.004 A 
ENDROOT
BRANCH   1   7
ATOM      7  C   UNL     1     161.207 174.051 186.615  1.00  0.00     0.032 C 
ATOM      8  C   UNL     1     160.128 173.372 187.451  1.00  0.00     0.009 C 
ENDBRANCH   1   7
BRANCH   3   9
ATOM      9  O   UNL     1     160.460 178.323 184.220  1.00  0.00    -0.508 OA
ATOM     10  H   UNL     1     160.479 177.851 183.324  1.00  0.00     0.293 HD
ENDBRANCH   3   9
TORSDOF 2
ENDMDL
MODEL 9
REMARK VINA RESULT:    -3.725      9.510     11.830
REMARK INTER + INTRA:          -4.103
REMARK INTER:                  -4.032
REMARK INTRA:                  -0.071
REMARK UNBOUND:                -0.052
REMARK SMILES CCc1cccc(O)c1
REMARK SMILES IDX 3 1 9 2 7 3 6 4 5 5 4 6 2 7 1 8 8 9
REMARK H PARENT 8 10
REMARK Flexibility Score: inf
ROOT
ATOM      1  C   UNL     1     172.489 179.678 186.627  1.00  0.00    -0.045 A 
ATOM      2  C   UNL     1     173.173 179.748 185.401  1.00  0.00     0.049 A 
ATOM      3  C   UNL     1     174.566 179.910 185.377  1.00  0.00     0.115 A 
ATOM      4  C   UNL     1     175.277 179.997 186.579  1.00  0.00     0.046 A 
ATOM      5  C   UNL     1     174.604 179.915 187.800  1.00  0.00     0.004 A 
ATOM      6  C   UNL     1     173.216 179.752 187.827  1.00  0.00     0.004 A 
ENDROOT
BRANCH   1   7
ATOM      7  C   UNL     1     170.998 179.470 186.653  1.00  0.00     0.032 C 
ATOM      8  C   UNL     1     170.383 180.125 187.885  1.00  0.00     0.009 C 
ENDBRANCH   1   7
BRANCH   3   9
ATOM      9  O   UNL     1     175.252 179.987 184.167  1.00  0.00    -0.508 OA
ATOM     10  H   UNL     1     175.971 180.682 184.010  1.00  0.00     0.293 HD
ENDBRANCH   3   9
TORSDOF 2
ENDMDL
