MODEL 1
REMARK VINA RESULT:    -4.606      0.000      0.000
REMARK INTER + INTRA:          -7.155
REMARK INTER:                  -6.760
REMARK INTRA:                  -0.395
REMARK UNBOUND:                -0.395
REMARK SMILES O=C([O-])CCCCCCCC(=O)[O-]
REMARK SMILES IDX 7 1 6 2 5 3 4 4 2 5 1 6 3 7 8 8 9 9 10 10 11 11 12 12 13 13
REMARK H PARENT
REMARK Flexibility Score: inf
ROOT
ATOM      1  C   UNL     1      13.430 -29.577  23.143  1.00  0.00     0.000 C 
ENDROOT
BRANCH   1   2
ATOM      2  C   UNL     1      13.555 -30.978  23.769  1.00  0.00     0.000 C 
BRANCH   2   3
ATOM      3  C   UNL     1      14.214 -31.996  22.826  1.00  0.00     0.006 C 
BRANCH   3   4
ATOM      4  C   UNL     1      14.434 -31.392  21.436  1.00  0.00     0.053 C 
BRANCH   4   5
ATOM      5  C   UNL     1      13.821 -32.263  20.385  1.00  0.00     0.041 C 
ATOM      6  O   UNL     1      12.825 -31.858  19.729  1.00  0.00    -0.550 OA
ATOM      7  O   UNL     1      14.320 -33.540  20.163  1.00  0.00    -0.550 OA
ENDBRANCH   4   5
ENDBRANCH   3   4
ENDBRANCH   2   3
ENDBRANCH   1   2
BRANCH   1   8
ATOM      8  C   UNL     1      11.989 -29.038  23.030  1.00  0.00     0.000 C 
BRANCH   8   9
ATOM      9  C   UNL     1      11.794 -27.583  23.498  1.00  0.00     0.006 C 
BRANCH   9  10
ATOM     10  C   UNL     1      12.554 -27.222  24.784  1.00  0.00     0.053 C 
BRANCH  10  11
ATOM     11  C   UNL     1      13.520 -26.099  24.567  1.00  0.00     0.041 C 
ATOM     12  O   UNL     1      14.297 -25.744  25.492  1.00  0.00    -0.550 OA
ATOM     13  O   UNL     1      13.586 -25.465  23.332  1.00  0.00    -0.550 OA
ENDBRANCH  10  11
ENDBRANCH   9  10
ENDBRANCH   8   9
ENDBRANCH   1   8
TORSDOF 8
ENDMDL
MODEL 2
REMARK VINA RESULT:    -4.481      1.158      1.443
REMARK INTER + INTRA:          -6.972
REMARK INTER:                  -6.647
REMARK INTRA:                  -0.325
REMARK UNBOUND:                -0.395
REMARK SMILES O=C([O-])CCCCCCCC(=O)[O-]
REMARK SMILES IDX 7 1 6 2 5 3 4 4 2 5 1 6 3 7 8 8 9 9 10 10 11 11 12 12 13 13
REMARK H PARENT
REMARK Flexibility Score: inf
ROOT
ATOM      1  C   UNL     1      13.232 -30.211  23.612  1.00  0.00     0.000 C 
ENDROOT
BRANCH   1   2
ATOM      2  C   UNL     1      13.665 -31.572  23.039  1.00  0.00     0.000 C 
BRANCH   2   3
ATOM      3  C   UNL     1      14.406 -31.445  21.699  1.00  0.00     0.006 C 
BRANCH   3   4
ATOM      4  C   UNL     1      13.867 -32.452  20.679  1.00  0.00     0.053 C 
BRANCH   4   5
ATOM      5  C   UNL     1      14.794 -33.620  20.555  1.00  0.00     0.041 C 
ATOM      6  O   UNL     1      15.128 -34.274  21.578  1.00  0.00    -0.550 OA
ATOM      7  O   UNL     1      15.328 -33.955  19.317  1.00  0.00    -0.550 OA
ENDBRANCH   4   5
ENDBRANCH   3   4
ENDBRANCH   2   3
ENDBRANCH   1   2
BRANCH   1   8
ATOM      8  C   UNL     1      12.215 -29.433  22.751  1.00  0.00     0.000 C 
BRANCH   8   9
ATOM      9  C   UNL     1      11.706 -28.115  23.368  1.00  0.00     0.006 C 
BRANCH   9  10
ATOM     10  C   UNL     1      12.432 -27.694  24.656  1.00  0.00     0.053 C 
BRANCH  10  11
ATOM     11  C   UNL     1      13.397 -26.575  24.413  1.00  0.00     0.041 C 
ATOM     12  O   UNL     1      13.702 -25.788  25.347  1.00  0.00    -0.550 OA
ATOM     13  O   UNL     1      13.986 -26.421  23.164  1.00  0.00    -0.550 OA
ENDBRANCH  10  11
ENDBRANCH   9  10
ENDBRANCH   8   9
ENDBRANCH   1   8
TORSDOF 8
ENDMDL
MODEL 3
REMARK VINA RESULT:    -4.463      2.567      7.283
REMARK INTER + INTRA:          -6.946
REMARK INTER:                  -6.612
REMARK INTRA:                  -0.334
REMARK UNBOUND:                -0.395
REMARK SMILES O=C([O-])CCCCCCCC(=O)[O-]
REMARK SMILES IDX 7 1 6 2 5 3 4 4 2 5 1 6 3 7 8 8 9 9 10 10 11 11 12 12 13 13
REMARK H PARENT
REMARK Flexibility Score: inf
ROOT
ATOM      1  C   UNL     1      13.797 -32.211  20.756  1.00  0.00     0.000 C 
ENDROOT
BRANCH   1   2
ATOM      2  C   UNL     1      12.976 -30.986  21.199  1.00  0.00     0.000 C 
BRANCH   2   3
ATOM      3  C   UNL     1      13.014 -30.761  22.717  1.00  0.00     0.006 C 
BRANCH   3   4
ATOM      4  C   UNL     1      13.458 -29.333  23.048  1.00  0.00     0.053 C 
BRANCH   4   5
ATOM      5  C   UNL     1      12.308 -28.536  23.578  1.00  0.00     0.041 C 
ATOM      6  O   UNL     1      12.450 -27.831  24.612  1.00  0.00    -0.550 OA
ATOM      7  O   UNL     1      11.067 -28.611  22.959  1.00  0.00    -0.550 OA
ENDBRANCH   4   5
ENDBRANCH   3   4
ENDBRANCH   2   3
ENDBRANCH   1   2
BRANCH   1   8
ATOM      8  C   UNL     1      14.487 -32.983  21.899  1.00  0.00     0.000 C 
BRANCH   8   9
ATOM      9  C   UNL     1      15.275 -34.234  21.464  1.00  0.00     0.006 C 
BRANCH   9  10
ATOM     10  C   UNL     1      15.084 -34.624  19.989  1.00  0.00     0.053 C 
BRANCH  10  11
ATOM     11  C   UNL     1      16.378 -35.005  19.339  1.00  0.00     0.041 C 
ATOM     12  O   UNL     1      17.071 -34.135  18.748  1.00  0.00    -0.550 OA
ATOM     13  O   UNL     1      16.837 -36.314  19.415  1.00  0.00    -0.550 OA
ENDBRANCH  10  11
ENDBRANCH   9  10
ENDBRANCH   8   9
ENDBRANCH   1   8
TORSDOF 8
ENDMDL
MODEL 4
REMARK VINA RESULT:    -4.371      2.224      6.075
REMARK INTER + INTRA:          -6.810
REMARK INTER:                  -6.115
REMARK INTRA:                  -0.695
REMARK UNBOUND:                -0.395
REMARK SMILES O=C([O-])CCCCCCCC(=O)[O-]
REMARK SMILES IDX 7 1 6 2 5 3 4 4 2 5 1 6 3 7 8 8 9 9 10 10 11 11 12 12 13 13
REMARK H PARENT
REMARK Flexibility Score: inf
ROOT
ATOM      1  C   UNL     1      14.980 -30.094  21.568  1.00  0.00     0.000 C 
ENDROOT
BRANCH   1   2
ATOM      2  C   UNL     1      13.634 -30.729  21.174  1.00  0.00     0.000 C 
BRANCH   2   3
ATOM      3  C   UNL     1      12.578 -30.627  22.285  1.00  0.00     0.006 C 
BRANCH   3   4
ATOM      4  C   UNL     1      13.107 -29.812  23.469  1.00  0.00     0.053 C 
BRANCH   4   5
ATOM      5  C   UNL     1      12.237 -28.619  23.713  1.00  0.00     0.041 C 
ATOM      6  O   UNL     1      11.167 -28.472  23.066  1.00  0.00    -0.550 OA
ATOM      7  O   UNL     1      12.635 -27.644  24.619  1.00  0.00    -0.550 OA
ENDBRANCH   4   5
ENDBRANCH   3   4
ENDBRANCH   2   3
ENDBRANCH   1   2
BRANCH   1   8
ATOM      8  C   UNL     1      16.220 -30.970  21.296  1.00  0.00     0.000 C 
BRANCH   8   9
ATOM      9  C   UNL     1      16.816 -31.666  22.536  1.00  0.00     0.006 C 
BRANCH   9  10
ATOM     10  C   UNL     1      16.791 -33.202  22.476  1.00  0.00     0.053 C 
BRANCH  10  11
ATOM     11  C   UNL     1      15.395 -33.735  22.379  1.00  0.00     0.041 C 
ATOM     12  O   UNL     1      14.593 -33.589  23.338  1.00  0.00    -0.550 OA
ATOM     13  O   UNL     1      14.968 -34.364  21.216  1.00  0.00    -0.550 OA
ENDBRANCH  10  11
ENDBRANCH   9  10
ENDBRANCH   8   9
ENDBRANCH   1   8
TORSDOF 8
ENDMDL
MODEL 5
REMARK VINA RESULT:    -4.313      3.230      5.078
REMARK INTER + INTRA:          -6.725
REMARK INTER:                  -6.244
REMARK INTRA:                  -0.481
REMARK UNBOUND:                -0.395
REMARK SMILES O=C([O-])CCCCCCCC(=O)[O-]
REMARK SMILES IDX 7 1 6 2 5 3 4 4 2 5 1 6 3 7 8 8 9 9 10 10 11 11 12 12 13 13
REMARK H PARENT
REMARK Flexibility Score: inf
ROOT
ATOM      1  C   UNL     1      15.092 -33.827  22.373  1.00  0.00     0.000 C 
ENDROOT
BRANCH   1   2
ATOM      2  C   UNL     1      15.243 -33.498  20.877  1.00  0.00     0.000 C 
BRANCH   2   3
ATOM      3  C   UNL     1      15.203 -34.748  19.985  1.00  0.00     0.006 C 
BRANCH   3   4
ATOM      4  C   UNL     1      16.550 -34.967  19.290  1.00  0.00     0.053 C 
BRANCH   4   5
ATOM      5  C   UNL     1      17.177 -36.244  19.753  1.00  0.00     0.041 C 
ATOM      6  O   UNL     1      17.379 -37.183  18.939  1.00  0.00    -0.550 OA
ATOM      7  O   UNL     1      17.491 -36.416  21.096  1.00  0.00    -0.550 OA
ENDBRANCH   4   5
ENDBRANCH   3   4
ENDBRANCH   2   3
ENDBRANCH   1   2
BRANCH   1   8
ATOM      8  C   UNL     1      15.143 -32.609  23.319  1.00  0.00     0.000 C 
BRANCH   8   9
ATOM      9  C   UNL     1      13.773 -32.099  23.807  1.00  0.00     0.006 C 
BRANCH   9  10
ATOM     10  C   UNL     1      13.442 -30.659  23.382  1.00  0.00     0.053 C 
BRANCH  10  11
ATOM     11  C   UNL     1      13.430 -30.505  21.893  1.00  0.00     0.041 C 
ATOM     12  O   UNL     1      12.468 -30.955  21.217  1.00  0.00    -0.550 OA
ATOM     13  O   UNL     1      14.466 -29.835  21.253  1.00  0.00    -0.550 OA
ENDBRANCH  10  11
ENDBRANCH   9  10
ENDBRANCH   8   9
ENDBRANCH   1   8
TORSDOF 8
ENDMDL
MODEL 6
REMARK VINA RESULT:    -4.304      2.265      3.151
REMARK INTER + INTRA:          -6.712
REMARK INTER:                  -6.421
REMARK INTRA:                  -0.291
REMARK UNBOUND:                -0.395
REMARK SMILES O=C([O-])CCCCCCCC(=O)[O-]
REMARK SMILES IDX 7 1 6 2 5 3 4 4 2 5 1 6 3 7 8 8 9 9 10 10 11 11 12 12 13 13
REMARK H PARENT
REMARK Flexibility Score: inf
ROOT
ATOM      1  C   UNL     1      14.190 -32.636  23.841  1.00  0.00     0.000 C 
ENDROOT
BRANCH   1   2
ATOM      2  C   UNL     1      14.992 -33.706  23.079  1.00  0.00     0.000 C 
BRANCH   2   3
ATOM      3  C   UNL     1      15.477 -33.221  21.705  1.00  0.00     0.006 C 
BRANCH   3   4
ATOM      4  C   UNL     1      14.894 -34.085  20.583  1.00  0.00     0.053 C 
BRANCH   4   5
ATOM      5  C   UNL     1      15.982 -34.585  19.686  1.00  0.00     0.041 C 
ATOM      6  O   UNL     1      16.729 -33.771  19.082  1.00  0.00    -0.550 OA
ATOM      7  O   UNL     1      16.139 -35.950  19.480  1.00  0.00    -0.550 OA
ENDBRANCH   4   5
ENDBRANCH   3   4
ENDBRANCH   2   3
ENDBRANCH   1   2
BRANCH   1   8
ATOM      8  C   UNL     1      14.450 -31.183  23.393  1.00  0.00     0.000 C 
BRANCH   8   9
ATOM      9  C   UNL     1      13.192 -30.381  23.005  1.00  0.00     0.006 C 
BRANCH   9  10
ATOM     10  C   UNL     1      13.359 -28.855  23.090  1.00  0.00     0.053 C 
BRANCH  10  11
ATOM     11  C   UNL     1      12.186 -28.200  23.752  1.00  0.00     0.041 C 
ATOM     12  O   UNL     1      12.353 -27.493  24.781  1.00  0.00    -0.550 OA
ATOM     13  O   UNL     1      10.913 -28.343  23.215  1.00  0.00    -0.550 OA
ENDBRANCH  10  11
ENDBRANCH   9  10
ENDBRANCH   8   9
ENDBRANCH   1   8
TORSDOF 8
ENDMDL
MODEL 7
REMARK VINA RESULT:    -4.278      4.610      6.546
REMARK INTER + INTRA:          -6.674
REMARK INTER:                  -5.935
REMARK INTRA:                  -0.740
REMARK UNBOUND:                -0.395
REMARK SMILES O=C([O-])CCCCCCCC(=O)[O-]
REMARK SMILES IDX 7 1 6 2 5 3 4 4 2 5 1 6 3 7 8 8 9 9 10 10 11 11 12 12 13 13
REMARK H PARENT
REMARK Flexibility Score: inf
ROOT
ATOM      1  C   UNL     1      18.400 -32.969  20.618  1.00  0.00     0.000 C 
ENDROOT
BRANCH   1   2
ATOM      2  C   UNL     1      18.364 -33.917  19.406  1.00  0.00     0.000 C 
BRANCH   2   3
ATOM      3  C   UNL     1      16.935 -34.273  18.969  1.00  0.00     0.006 C 
BRANCH   3   4
ATOM      4  C   UNL     1      16.377 -35.425  19.809  1.00  0.00     0.053 C 
BRANCH   4   5
ATOM      5  C   UNL     1      17.217 -36.652  19.640  1.00  0.00     0.041 C 
ATOM      6  O   UNL     1      17.340 -37.183  18.505  1.00  0.00    -0.550 OA
ATOM      7  O   UNL     1      17.822 -37.237  20.745  1.00  0.00    -0.550 OA
ENDBRANCH   4   5
ENDBRANCH   3   4
ENDBRANCH   2   3
ENDBRANCH   1   2
BRANCH   1   8
ATOM      8  C   UNL     1      17.551 -31.689  20.471  1.00  0.00     0.000 C 
BRANCH   8   9
ATOM      9  C   UNL     1      16.679 -31.336  21.692  1.00  0.00     0.006 C 
BRANCH   9  10
ATOM     10  C   UNL     1      15.186 -31.155  21.376  1.00  0.00     0.053 C 
BRANCH  10  11
ATOM     11  C   UNL     1      14.492 -32.467  21.180  1.00  0.00     0.041 C 
ATOM     12  O   UNL     1      14.622 -33.386  22.032  1.00  0.00    -0.550 OA
ATOM     13  O   UNL     1      13.676 -32.666  20.073  1.00  0.00    -0.550 OA
ENDBRANCH  10  11
ENDBRANCH   9  10
ENDBRANCH   8   9
ENDBRANCH   1   8
TORSDOF 8
ENDMDL
MODEL 8
REMARK VINA RESULT:    -4.231      4.388      6.211
REMARK INTER + INTRA:          -6.605
REMARK INTER:                  -5.708
REMARK INTRA:                  -0.897
REMARK UNBOUND:                -0.395
REMARK SMILES O=C([O-])CCCCCCCC(=O)[O-]
REMARK SMILES IDX 7 1 6 2 5 3 4 4 2 5 1 6 3 7 8 8 9 9 10 10 11 11 12 12 13 13
REMARK H PARENT
REMARK Flexibility Score: inf
ROOT
ATOM      1  C   UNL     1      16.751 -34.030  19.000  1.00  0.00     0.000 C 
ENDROOT
BRANCH   1   2
ATOM      2  C   UNL     1      16.010 -35.019  19.918  1.00  0.00     0.000 C 
BRANCH   2   3
ATOM      3  C   UNL     1      14.946 -34.339  20.792  1.00  0.00     0.006 C 
BRANCH   3   4
ATOM      4  C   UNL     1      14.248 -33.211  20.027  1.00  0.00     0.053 C 
BRANCH   4   5
ATOM      5  C   UNL     1      13.874 -32.100  20.958  1.00  0.00     0.041 C 
ATOM      6  O   UNL     1      13.514 -30.984  20.499  1.00  0.00    -0.550 OA
ATOM      7  O   UNL     1      13.972 -32.282  22.331  1.00  0.00    -0.550 OA
ENDBRANCH   4   5
ENDBRANCH   3   4
ENDBRANCH   2   3
ENDBRANCH   1   2
BRANCH   1   8
ATOM      8  C   UNL     1      18.276 -33.953  19.219  1.00  0.00     0.000 C 
BRANCH   8   9
ATOM      9  C   UNL     1      18.735 -32.936  20.283  1.00  0.00     0.006 C 
BRANCH   9  10
ATOM     10  C   UNL     1      17.736 -31.798  20.547  1.00  0.00     0.053 C 
BRANCH  10  11
ATOM     11  C   UNL     1      17.410 -31.667  22.002  1.00  0.00     0.041 C 
ATOM     12  O   UNL     1      17.169 -30.535  22.498  1.00  0.00    -0.550 OA
ATOM     13  O   UNL     1      17.339 -32.799  22.806  1.00  0.00    -0.550 OA
ENDBRANCH  10  11
ENDBRANCH   9  10
ENDBRANCH   8   9
ENDBRANCH   1   8
TORSDOF 8
ENDMDL
MODEL 9
REMARK VINA RESULT:    -4.205      4.496      7.999
REMARK INTER + INTRA:          -6.566
REMARK INTER:                  -5.832
REMARK INTRA:                  -0.734
REMARK UNBOUND:                -0.395
REMARK SMILES O=C([O-])CCCCCCCC(=O)[O-]
REMARK SMILES IDX 7 1 6 2 5 3 4 4 2 5 1 6 3 7 8 8 9 9 10 10 11 11 12 12 13 13
REMARK H PARENT
REMARK Flexibility Score: inf
ROOT
ATOM      1  C   UNL     1      17.881 -32.904  21.051  1.00  0.00     0.000 C 
ENDROOT
BRANCH   1   2
ATOM      2  C   UNL     1      16.991 -31.668  20.831  1.00  0.00     0.000 C 
BRANCH   2   3
ATOM      3  C   UNL     1      15.859 -31.557  21.863  1.00  0.00     0.006 C 
BRANCH   3   4
ATOM      4  C   UNL     1      14.870 -32.717  21.716  1.00  0.00     0.053 C 
BRANCH   4   5
ATOM      5  C   UNL     1      13.871 -32.420  20.642  1.00  0.00     0.041 C 
ATOM      6  O   UNL     1      13.054 -31.472  20.781  1.00  0.00    -0.550 OA
ATOM      7  O   UNL     1      13.811 -33.222  19.509  1.00  0.00    -0.550 OA
ENDBRANCH   4   5
ENDBRANCH   3   4
ENDBRANCH   2   3
ENDBRANCH   1   2
BRANCH   1   8
ATOM      8  C   UNL     1      18.295 -33.648  19.764  1.00  0.00     0.000 C 
BRANCH   8   9
ATOM      9  C   UNL     1      17.135 -34.285  18.973  1.00  0.00     0.006 C 
BRANCH   9  10
ATOM     10  C   UNL     1      16.437 -35.449  19.694  1.00  0.00     0.053 C 
BRANCH  10  11
ATOM     11  C   UNL     1      17.287 -36.682  19.717  1.00  0.00     0.041 C 
ATOM     12  O   UNL     1      17.761 -37.105  20.804  1.00  0.00    -0.550 OA
ATOM     13  O   UNL     1      17.529 -37.384  18.542  1.00  0.00    -0.550 OA
ENDBRANCH  10  11
ENDBRANCH   9  10
ENDBRANCH   8   9
ENDBRANCH   1   8
TORSDOF 8
ENDMDL
