MODEL 1
REMARK VINA RESULT:    -4.461      0.000      0.000
REMARK INTER + INTRA:          -5.205
REMARK INTER:                  -4.983
REMARK INTRA:                  -0.222
REMARK UNBOUND:                -0.222
REMARK SMILES O=C([O-])c1ccccc1C(=O)[O-]
REMARK SMILES IDX 4 1 9 2 5 3 8 4 6 5 7 6 2 7 1 8 3 9 10 10 11 11 12 12
REMARK H PARENT
REMARK Flexibility Score: inf
ROOT
ATOM      1  C   UNL     1      32.781  32.005  35.241  1.00  0.00     0.006 A 
ATOM      2  C   UNL     1      31.494  31.507  35.587  1.00  0.00     0.006 A 
ATOM      3  C   UNL     1      32.876  33.151  34.429  1.00  0.00     0.010 A 
ATOM      4  C   UNL     1      30.352  32.211  35.162  1.00  0.00     0.010 A 
ATOM      5  C   UNL     1      31.729  33.819  34.001  1.00  0.00     0.001 A 
ATOM      6  C   UNL     1      30.470  33.358  34.375  1.00  0.00     0.001 A 
ENDROOT
BRANCH   1   7
ATOM      7  C   UNL     1      34.033  31.410  35.761  1.00  0.00     0.072 C 
ATOM      8  O   UNL     1      34.576  31.880  36.798  1.00  0.00    -0.545 OA
ATOM      9  O   UNL     1      34.592  30.291  35.155  1.00  0.00    -0.545 OA
ENDBRANCH   1   7
BRANCH   2  10
ATOM     10  C   UNL     1      31.301  30.234  36.317  1.00  0.00     0.072 C 
ATOM     11  O   UNL     1      31.199  29.149  35.685  1.00  0.00    -0.545 OA
ATOM     12  O   UNL     1      31.295  30.208  37.707  1.00  0.00    -0.545 OA
ENDBRANCH   2  10
TORSDOF 2
ENDMDL
MODEL 2
REMARK VINA RESULT:    -4.448      0.048      3.120
REMARK INTER + INTRA:          -5.190
REMARK INTER:                  -4.968
REMARK INTRA:                  -0.222
REMARK UNBOUND:                -0.222
REMARK SMILES O=C([O-])c1ccccc1C(=O)[O-]
REMARK SMILES IDX 4 1 9 2 5 3 8 4 6 5 7 6 2 7 1 8 3 9 10 10 11 11 12 12
REMARK H PARENT
REMARK Flexibility Score: inf
ROOT
ATOM      1  C   UNL     1      31.522  31.494  35.594  1.00  0.00     0.006 A 
ATOM      2  C   UNL     1      32.808  31.977  35.224  1.00  0.00     0.006 A 
ATOM      3  C   UNL     1      30.380  32.208  35.186  1.00  0.00     0.010 A 
ATOM      4  C   UNL     1      32.901  33.118  34.406  1.00  0.00     0.010 A 
ATOM      5  C   UNL     1      30.497  33.350  34.394  1.00  0.00     0.001 A 
ATOM      6  C   UNL     1      31.753  33.798  33.995  1.00  0.00     0.001 A 
ENDROOT
BRANCH   1   7
ATOM      7  C   UNL     1      31.328  30.225  36.332  1.00  0.00     0.072 C 
ATOM      8  O   UNL     1      31.206  29.139  35.705  1.00  0.00    -0.545 OA
ATOM      9  O   UNL     1      31.340  30.204  37.721  1.00  0.00    -0.545 OA
ENDBRANCH   1   7
BRANCH   2  10
ATOM     10  C   UNL     1      34.062  31.370  35.725  1.00  0.00     0.072 C 
ATOM     11  O   UNL     1      34.626  31.835  36.751  1.00  0.00    -0.545 OA
ATOM     12  O   UNL     1      34.598  30.244  35.113  1.00  0.00    -0.545 OA
ENDBRANCH   2  10
TORSDOF 2
ENDMDL
MODEL 3
REMARK VINA RESULT:    -4.420      8.010      9.842
REMARK INTER + INTRA:          -5.159
REMARK INTER:                  -4.947
REMARK INTRA:                  -0.212
REMARK UNBOUND:                -0.222
REMARK SMILES O=C([O-])c1ccccc1C(=O)[O-]
REMARK SMILES IDX 4 1 9 2 5 3 8 4 6 5 7 6 2 7 1 8 3 9 10 10 11 11 12 12
REMARK H PARENT
REMARK Flexibility Score: inf
ROOT
ATOM      1  C   UNL     1      27.730  28.016  42.629  1.00  0.00     0.006 A 
ATOM      2  C   UNL     1      27.326  26.771  43.187  1.00  0.00     0.006 A 
ATOM      3  C   UNL     1      27.015  29.181  42.965  1.00  0.00     0.010 A 
ATOM      4  C   UNL     1      26.264  26.748  44.110  1.00  0.00     0.010 A 
ATOM      5  C   UNL     1      25.951  29.130  43.865  1.00  0.00     0.001 A 
ATOM      6  C   UNL     1      25.583  27.920  44.445  1.00  0.00     0.001 A 
ENDROOT
BRANCH   1   7
ATOM      7  C   UNL     1      28.923  28.153  41.762  1.00  0.00     0.072 C 
ATOM      8  O   UNL     1      30.024  28.522  42.251  1.00  0.00    -0.545 OA
ATOM      9  O   UNL     1      28.862  27.816  40.415  1.00  0.00    -0.545 OA
ENDBRANCH   1   7
BRANCH   2  10
ATOM     10  C   UNL     1      27.930  25.482  42.781  1.00  0.00     0.072 C 
ATOM     11  O   UNL     1      27.451  24.834  41.813  1.00  0.00    -0.545 OA
ATOM     12  O   UNL     1      29.068  25.001  43.418  1.00  0.00    -0.545 OA
ENDBRANCH   2  10
TORSDOF 2
ENDMDL
MODEL 4
REMARK VINA RESULT:    -4.409      8.017     10.184
REMARK INTER + INTRA:          -5.146
REMARK INTER:                  -4.940
REMARK INTRA:                  -0.206
REMARK UNBOUND:                -0.222
REMARK SMILES O=C([O-])c1ccccc1C(=O)[O-]
REMARK SMILES IDX 4 1 9 2 5 3 8 4 6 5 7 6 2 7 1 8 3 9 10 10 11 11 12 12
REMARK H PARENT
REMARK Flexibility Score: inf
ROOT
ATOM      1  C   UNL     1      27.348  26.767  43.212  1.00  0.00     0.006 A 
ATOM      2  C   UNL     1      27.756  28.002  42.636  1.00  0.00     0.006 A 
ATOM      3  C   UNL     1      26.286  26.761  44.137  1.00  0.00     0.010 A 
ATOM      4  C   UNL     1      27.046  29.174  42.957  1.00  0.00     0.010 A 
ATOM      5  C   UNL     1      25.611  27.940  44.456  1.00  0.00     0.001 A 
ATOM      6  C   UNL     1      25.982  29.141  43.860  1.00  0.00     0.001 A 
ENDROOT
BRANCH   1   7
ATOM      7  C   UNL     1      27.945  25.469  42.825  1.00  0.00     0.072 C 
ATOM      8  O   UNL     1      27.417  24.774  41.916  1.00  0.00    -0.545 OA
ATOM      9  O   UNL     1      29.126  25.029  43.410  1.00  0.00    -0.545 OA
ENDBRANCH   1   7
BRANCH   2  10
ATOM     10  C   UNL     1      28.948  28.121  41.767  1.00  0.00     0.072 C 
ATOM     11  O   UNL     1      30.052  28.488  42.250  1.00  0.00    -0.545 OA
ATOM     12  O   UNL     1      28.884  27.767  40.424  1.00  0.00    -0.545 OA
ENDBRANCH   2  10
TORSDOF 2
ENDMDL
MODEL 5
REMARK VINA RESULT:    -4.350     14.477     15.720
REMARK INTER + INTRA:          -5.080
REMARK INTER:                  -4.861
REMARK INTRA:                  -0.220
REMARK UNBOUND:                -0.222
REMARK SMILES O=C([O-])c1ccccc1C(=O)[O-]
REMARK SMILES IDX 4 1 9 2 5 3 8 4 6 5 7 6 2 7 1 8 3 9 10 10 11 11 12 12
REMARK H PARENT
REMARK Flexibility Score: inf
ROOT
ATOM      1  C   UNL     1      33.755  18.545  43.087  1.00  0.00     0.006 A 
ATOM      2  C   UNL     1      32.590  17.932  43.623  1.00  0.00     0.006 A 
ATOM      3  C   UNL     1      34.632  19.225  43.953  1.00  0.00     0.010 A 
ATOM      4  C   UNL     1      32.377  17.966  45.014  1.00  0.00     0.010 A 
ATOM      5  C   UNL     1      34.389  19.265  45.326  1.00  0.00     0.001 A 
ATOM      6  C   UNL     1      33.271  18.628  45.857  1.00  0.00     0.001 A 
ENDROOT
BRANCH   1   7
ATOM      7  C   UNL     1      34.129  18.436  41.658  1.00  0.00     0.072 C 
ATOM      8  O   UNL     1      33.928  19.402  40.874  1.00  0.00    -0.545 OA
ATOM      9  O   UNL     1      34.764  17.297  41.176  1.00  0.00    -0.545 OA
ENDBRANCH   1   7
BRANCH   2  10
ATOM     10  C   UNL     1      31.546  17.318  42.771  1.00  0.00     0.072 C 
ATOM     11  O   UNL     1      31.479  16.066  42.653  1.00  0.00    -0.545 OA
ATOM     12  O   UNL     1      30.589  18.107  42.144  1.00  0.00    -0.545 OA
ENDBRANCH   2  10
TORSDOF 2
ENDMDL
MODEL 6
REMARK VINA RESULT:    -4.320     11.630     12.854
REMARK INTER + INTRA:          -5.046
REMARK INTER:                  -4.876
REMARK INTRA:                  -0.170
REMARK UNBOUND:                -0.222
REMARK SMILES O=C([O-])c1ccccc1C(=O)[O-]
REMARK SMILES IDX 4 1 9 2 5 3 8 4 6 5 7 6 2 7 1 8 3 9 10 10 11 11 12 12
REMARK H PARENT
REMARK Flexibility Score: inf
ROOT
ATOM      1  C   UNL     1      36.058  32.530  47.104  1.00  0.00     0.006 A 
ATOM      2  C   UNL     1      36.113  33.951  47.098  1.00  0.00     0.006 A 
ATOM      3  C   UNL     1      35.959  31.843  45.879  1.00  0.00     0.010 A 
ATOM      4  C   UNL     1      36.133  34.630  45.866  1.00  0.00     0.010 A 
ATOM      5  C   UNL     1      35.957  32.539  44.670  1.00  0.00     0.001 A 
ATOM      6  C   UNL     1      36.055  33.927  44.662  1.00  0.00     0.001 A 
ENDROOT
BRANCH   1   7
ATOM      7  C   UNL     1      36.175  31.731  48.346  1.00  0.00     0.072 C 
ATOM      8  O   UNL     1      35.168  31.136  48.814  1.00  0.00    -0.545 OA
ATOM      9  O   UNL     1      37.405  31.574  48.974  1.00  0.00    -0.545 OA
ENDBRANCH   1   7
BRANCH   2  10
ATOM     10  C   UNL     1      36.078  34.756  48.340  1.00  0.00     0.072 C 
ATOM     11  O   UNL     1      37.069  35.461  48.668  1.00  0.00    -0.545 OA
ATOM     12  O   UNL     1      34.931  34.798  49.125  1.00  0.00    -0.545 OA
ENDBRANCH   2  10
TORSDOF 2
ENDMDL
MODEL 7
REMARK VINA RESULT:    -4.312     14.424     16.013
REMARK INTER + INTRA:          -5.037
REMARK INTER:                  -4.818
REMARK INTRA:                  -0.219
REMARK UNBOUND:                -0.222
REMARK SMILES O=C([O-])c1ccccc1C(=O)[O-]
REMARK SMILES IDX 4 1 9 2 5 3 8 4 6 5 7 6 2 7 1 8 3 9 10 10 11 11 12 12
REMARK H PARENT
REMARK Flexibility Score: inf
ROOT
ATOM      1  C   UNL     1      32.681  17.823  43.561  1.00  0.00     0.006 A 
ATOM      2  C   UNL     1      33.784  18.535  43.014  1.00  0.00     0.006 A 
ATOM      3  C   UNL     1      32.485  17.831  44.955  1.00  0.00     0.010 A 
ATOM      4  C   UNL     1      34.612  19.280  43.874  1.00  0.00     0.010 A 
ATOM      5  C   UNL     1      33.332  18.558  45.790  1.00  0.00     0.001 A 
ATOM      6  C   UNL     1      34.386  19.290  45.252  1.00  0.00     0.001 A 
ENDROOT
BRANCH   1   7
ATOM      7  C   UNL     1      31.680  17.131  42.717  1.00  0.00     0.072 C 
ATOM      8  O   UNL     1      31.701  15.876  42.608  1.00  0.00    -0.545 OA
ATOM      9  O   UNL     1      30.668  17.846  42.087  1.00  0.00    -0.545 OA
ENDBRANCH   1   7
BRANCH   2  10
ATOM     10  C   UNL     1      34.146  18.467  41.580  1.00  0.00     0.072 C 
ATOM     11  O   UNL     1      33.837  19.408  40.802  1.00  0.00    -0.545 OA
ATOM     12  O   UNL     1      34.886  17.399  41.085  1.00  0.00    -0.545 OA
ENDBRANCH   2  10
TORSDOF 2
ENDMDL
MODEL 8
REMARK VINA RESULT:    -4.279     10.649     11.291
REMARK INTER + INTRA:          -5.001
REMARK INTER:                  -4.785
REMARK INTRA:                  -0.216
REMARK UNBOUND:                -0.222
REMARK SMILES O=C([O-])c1ccccc1C(=O)[O-]
REMARK SMILES IDX 4 1 9 2 5 3 8 4 6 5 7 6 2 7 1 8 3 9 10 10 11 11 12 12
REMARK H PARENT
REMARK Flexibility Score: inf
ROOT
ATOM      1  C   UNL     1      41.112  25.424  35.437  1.00  0.00     0.006 A 
ATOM      2  C   UNL     1      41.687  26.512  34.724  1.00  0.00     0.006 A 
ATOM      3  C   UNL     1      40.362  24.464  34.732  1.00  0.00     0.010 A 
ATOM      4  C   UNL     1      41.546  26.565  33.325  1.00  0.00     0.010 A 
ATOM      5  C   UNL     1      40.217  24.548  33.347  1.00  0.00     0.001 A 
ATOM      6  C   UNL     1      40.815  25.589  32.644  1.00  0.00     0.001 A 
ENDROOT
BRANCH   1   7
ATOM      7  C   UNL     1      41.331  25.215  36.887  1.00  0.00     0.072 C 
ATOM      8  O   UNL     1      40.459  25.583  37.719  1.00  0.00    -0.545 OA
ATOM      9  O   UNL     1      42.465  24.555  37.344  1.00  0.00    -0.545 OA
ENDBRANCH   1   7
BRANCH   2  10
ATOM     10  C   UNL     1      42.370  27.638  35.401  1.00  0.00     0.072 C 
ATOM     11  O   UNL     1      43.625  27.737  35.358  1.00  0.00    -0.545 OA
ATOM     12  O   UNL     1      41.636  28.634  36.035  1.00  0.00    -0.545 OA
ENDBRANCH   2  10
TORSDOF 2
ENDMDL
MODEL 9
REMARK VINA RESULT:    -4.269     10.633     11.031
REMARK INTER + INTRA:          -4.989
REMARK INTER:                  -4.772
REMARK INTRA:                  -0.217
REMARK UNBOUND:                -0.222
REMARK SMILES O=C([O-])c1ccccc1C(=O)[O-]
REMARK SMILES IDX 4 1 9 2 5 3 8 4 6 5 7 6 2 7 1 8 3 9 10 10 11 11 12 12
REMARK H PARENT
REMARK Flexibility Score: inf
ROOT
ATOM      1  C   UNL     1      41.666  26.531  34.748  1.00  0.00     0.006 A 
ATOM      2  C   UNL     1      41.089  25.439  35.453  1.00  0.00     0.006 A 
ATOM      3  C   UNL     1      41.567  26.567  33.344  1.00  0.00     0.010 A 
ATOM      4  C   UNL     1      40.379  24.459  34.735  1.00  0.00     0.010 A 
ATOM      5  C   UNL     1      40.878  25.573  32.651  1.00  0.00     0.001 A 
ATOM      6  C   UNL     1      40.275  24.527  33.344  1.00  0.00     0.001 A 
ENDROOT
BRANCH   1   7
ATOM      7  C   UNL     1      42.306  27.676  35.434  1.00  0.00     0.072 C 
ATOM      8  O   UNL     1      41.600  28.598  35.923  1.00  0.00    -0.545 OA
ATOM      9  O   UNL     1      43.685  27.718  35.606  1.00  0.00    -0.545 OA
ENDBRANCH   1   7
BRANCH   2  10
ATOM     10  C   UNL     1      41.265  25.248  36.910  1.00  0.00     0.072 C 
ATOM     11  O   UNL     1      40.385  25.655  37.715  1.00  0.00    -0.545 OA
ATOM     12  O   UNL     1      42.366  24.561  37.407  1.00  0.00    -0.545 OA
ENDBRANCH   2  10
TORSDOF 2
ENDMDL
