MODEL 1
REMARK VINA RESULT:    -4.344      0.000      0.000
REMARK INTER + INTRA:          -4.471
REMARK INTER:                  -4.471
REMARK INTRA:                   0.000
REMARK UNBOUND:                 0.000
REMARK SMILES Nc1ncnc2nc[nH]c12
REMARK SMILES IDX 8 1 7 2 6 3 5 4 4 5 3 6 2 7 10 8 9 9 1 11
REMARK H PARENT 9 10 1 12 1 13
REMARK Flexibility Score: inf
ROOT
ATOM      1  C   UNL     1     -23.565  18.044 -12.871  1.00  0.00     0.199 A 
ATOM      2  N   UNL     1     -24.380  17.740 -11.824  1.00  0.00    -0.217 NA
ATOM      3  C   UNL     1     -23.530  17.163 -10.958  1.00  0.00     0.182 A 
ATOM      4  N   UNL     1     -23.835  16.669  -9.734  1.00  0.00    -0.215 NA
ATOM      5  C   UNL     1     -22.828  16.116  -8.993  1.00  0.00     0.226 A 
ATOM      6  N   UNL     1     -21.547  16.068  -9.483  1.00  0.00    -0.217 NA
ATOM      7  C   UNL     1     -21.238  16.566 -10.718  1.00  0.00     0.152 A 
ATOM      8  C   UNL     1     -22.274  17.125 -11.460  1.00  0.00     0.127 A 
ATOM      9  N   UNL     1     -22.271  17.681 -12.679  1.00  0.00    -0.340 N 
ATOM     10  H   UNL     1     -21.470  17.811 -13.335  1.00  0.00     0.168 HD
ENDROOT
BRANCH   7  11
ATOM     11  N   UNL     1     -19.898  16.505 -11.207  1.00  0.00    -0.382 N 
ATOM     12  H   UNL     1     -19.717  16.268 -12.208  1.00  0.00     0.158 HD
ATOM     13  H   UNL     1     -19.082  16.694 -10.584  1.00  0.00     0.158 HD
ENDBRANCH   7  11
TORSDOF 1
ENDMDL
MODEL 2
REMARK VINA RESULT:    -4.180     16.958     18.366
REMARK INTER + INTRA:          -4.302
REMARK INTER:                  -4.302
REMARK INTRA:                   0.000
REMARK UNBOUND:                 0.000
REMARK SMILES Nc1ncnc2nc[nH]c12
REMARK SMILES IDX 8 1 7 2 6 3 5 4 4 5 3 6 2 7 10 8 9 9 1 11
REMARK H PARENT 9 10 1 12 1 13
REMARK Flexibility Score: inf
ROOT
ATOM      1  C   UNL     1      -9.615  12.440 -21.433  1.00  0.00     0.199 A 
ATOM      2  N   UNL     1      -8.885  12.252 -22.565  1.00  0.00    -0.217 NA
ATOM      3  C   UNL     1      -9.668  11.426 -23.277  1.00  0.00     0.182 A 
ATOM      4  N   UNL     1      -9.405  10.920 -24.506  1.00  0.00    -0.215 NA
ATOM      5  C   UNL     1     -10.330  10.090 -25.074  1.00  0.00     0.226 A 
ATOM      6  N   UNL     1     -11.492   9.783 -24.410  1.00  0.00    -0.217 NA
ATOM      7  C   UNL     1     -11.758  10.292 -23.171  1.00  0.00     0.152 A 
ATOM      8  C   UNL     1     -10.807  11.135 -22.606  1.00  0.00     0.127 A 
ATOM      9  N   UNL     1     -10.796  11.770 -21.427  1.00  0.00    -0.340 N 
ATOM     10  H   UNL     1     -11.518  11.761 -20.674  1.00  0.00     0.168 HD
ENDROOT
BRANCH   7  11
ATOM     11  N   UNL     1     -12.974   9.957 -22.499  1.00  0.00    -0.382 N 
ATOM     12  H   UNL     1     -13.562   9.168 -22.845  1.00  0.00     0.158 HD
ATOM     13  H   UNL     1     -13.295  10.488 -21.659  1.00  0.00     0.158 HD
ENDBRANCH   7  11
TORSDOF 1
ENDMDL
MODEL 3
REMARK VINA RESULT:    -4.080      0.871      2.984
REMARK INTER + INTRA:          -4.200
REMARK INTER:                  -4.200
REMARK INTRA:                   0.000
REMARK UNBOUND:                 0.000
REMARK SMILES Nc1ncnc2nc[nH]c12
REMARK SMILES IDX 8 1 7 2 6 3 5 4 4 5 3 6 2 7 10 8 9 9 1 11
REMARK H PARENT 9 10 1 12 1 13
REMARK Flexibility Score: inf
ROOT
ATOM      1  C   UNL     1     -20.126  15.947 -10.234  1.00  0.00     0.199 A 
ATOM      2  N   UNL     1     -21.085  15.867  -9.272  1.00  0.00    -0.217 NA
ATOM      3  C   UNL     1     -22.127  16.482  -9.855  1.00  0.00     0.182 A 
ATOM      4  N   UNL     1     -23.354  16.679  -9.317  1.00  0.00    -0.215 NA
ATOM      5  C   UNL     1     -24.292  17.331 -10.068  1.00  0.00     0.226 A 
ATOM      6  N   UNL     1     -23.989  17.770 -11.333  1.00  0.00    -0.217 NA
ATOM      7  C   UNL     1     -22.751  17.572 -11.877  1.00  0.00     0.152 A 
ATOM      8  C   UNL     1     -21.808  16.908 -11.099  1.00  0.00     0.127 A 
ATOM      9  N   UNL     1     -20.537  16.578 -11.364  1.00  0.00    -0.340 N 
ATOM     10  H   UNL     1     -19.983  16.757 -12.229  1.00  0.00     0.168 HD
ENDROOT
BRANCH   7  11
ATOM     11  N   UNL     1     -22.458  18.039 -13.196  1.00  0.00    -0.382 N 
ATOM     12  H   UNL     1     -22.638  19.035 -13.449  1.00  0.00     0.158 HD
ATOM     13  H   UNL     1     -22.064  17.401 -13.922  1.00  0.00     0.158 HD
ENDBRANCH   7  11
TORSDOF 1
ENDMDL
MODEL 4
REMARK VINA RESULT:    -4.023     16.832     18.222
REMARK INTER + INTRA:          -4.141
REMARK INTER:                  -4.141
REMARK INTRA:                   0.000
REMARK UNBOUND:                 0.000
REMARK SMILES Nc1ncnc2nc[nH]c12
REMARK SMILES IDX 8 1 7 2 6 3 5 4 4 5 3 6 2 7 10 8 9 9 1 11
REMARK H PARENT 9 10 1 12 1 13
REMARK Flexibility Score: inf
ROOT
ATOM      1  C   UNL     1     -12.599   9.920 -23.841  1.00  0.00     0.199 A 
ATOM      2  N   UNL     1     -11.611  10.048 -24.767  1.00  0.00    -0.217 NA
ATOM      3  C   UNL     1     -10.664  10.715 -24.085  1.00  0.00     0.182 A 
ATOM      4  N   UNL     1      -9.454  11.104 -24.552  1.00  0.00    -0.215 NA
ATOM      5  C   UNL     1      -8.620  11.777 -23.703  1.00  0.00     0.226 A 
ATOM      6  N   UNL     1      -9.008  12.047 -22.414  1.00  0.00    -0.217 NA
ATOM      7  C   UNL     1     -10.229  11.656 -21.942  1.00  0.00     0.152 A 
ATOM      8  C   UNL     1     -11.066  10.972 -22.819  1.00  0.00     0.127 A 
ATOM      9  N   UNL     1     -12.297  10.475 -22.639  1.00  0.00    -0.340 N 
ATOM     10  H   UNL     1     -12.892  10.500 -21.783  1.00  0.00     0.168 HD
ENDROOT
BRANCH   7  11
ATOM     11  N   UNL     1     -10.611  11.949 -20.597  1.00  0.00    -0.382 N 
ATOM     12  H   UNL     1     -11.141  12.822 -20.383  1.00  0.00     0.158 HD
ATOM     13  H   UNL     1     -10.372  11.304 -19.812  1.00  0.00     0.158 HD
ENDBRANCH   7  11
TORSDOF 1
ENDMDL
MODEL 5
REMARK VINA RESULT:    -4.003      2.213      3.583
REMARK INTER + INTRA:          -4.120
REMARK INTER:                  -4.120
REMARK INTRA:                   0.000
REMARK UNBOUND:                 0.000
REMARK SMILES Nc1ncnc2nc[nH]c12
REMARK SMILES IDX 8 1 7 2 6 3 5 4 4 5 3 6 2 7 10 8 9 9 1 11
REMARK H PARENT 9 10 1 12 1 13
REMARK Flexibility Score: inf
ROOT
ATOM      1  C   UNL     1     -21.302  13.408  -8.653  1.00  0.00     0.199 A 
ATOM      2  N   UNL     1     -22.275  14.213  -8.146  1.00  0.00    -0.217 NA
ATOM      3  C   UNL     1     -22.041  15.376  -8.776  1.00  0.00     0.182 A 
ATOM      4  N   UNL     1     -22.737  16.530  -8.629  1.00  0.00    -0.215 NA
ATOM      5  C   UNL     1     -22.346  17.616  -9.361  1.00  0.00     0.226 A 
ATOM      6  N   UNL     1     -21.277  17.531 -10.218  1.00  0.00    -0.217 NA
ATOM      7  C   UNL     1     -20.574  16.369 -10.366  1.00  0.00     0.152 A 
ATOM      8  C   UNL     1     -20.984  15.272  -9.615  1.00  0.00     0.127 A 
ATOM      9  N   UNL     1     -20.496  14.026  -9.554  1.00  0.00    -0.340 N 
ATOM     10  H   UNL     1     -19.689  13.615 -10.071  1.00  0.00     0.168 HD
ENDROOT
BRANCH   7  11
ATOM     11  N   UNL     1     -19.465  16.305 -11.265  1.00  0.00    -0.382 N 
ATOM     12  H   UNL     1     -19.424  15.556 -11.991  1.00  0.00     0.158 HD
ATOM     13  H   UNL     1     -18.684  16.996 -11.214  1.00  0.00     0.158 HD
ENDBRANCH   7  11
TORSDOF 1
ENDMDL
MODEL 6
REMARK VINA RESULT:    -3.720      2.625      4.301
REMARK INTER + INTRA:          -3.829
REMARK INTER:                  -3.829
REMARK INTRA:                   0.000
REMARK UNBOUND:                 0.000
REMARK SMILES Nc1ncnc2nc[nH]c12
REMARK SMILES IDX 8 1 7 2 6 3 5 4 4 5 3 6 2 7 10 8 9 9 1 11
REMARK H PARENT 9 10 1 12 1 13
REMARK Flexibility Score: inf
ROOT
ATOM      1  C   UNL     1     -22.814  16.526  -9.633  1.00  0.00     0.199 A 
ATOM      2  N   UNL     1     -21.527  16.595  -9.195  1.00  0.00    -0.217 NA
ATOM      3  C   UNL     1     -21.411  15.470  -8.470  1.00  0.00     0.182 A 
ATOM      4  N   UNL     1     -20.311  15.047  -7.803  1.00  0.00    -0.215 NA
ATOM      5  C   UNL     1     -20.386  13.867  -7.117  1.00  0.00     0.226 A 
ATOM      6  N   UNL     1     -21.548  13.138  -7.110  1.00  0.00    -0.217 NA
ATOM      7  C   UNL     1     -22.659  13.563  -7.782  1.00  0.00     0.152 A 
ATOM      8  C   UNL     1     -22.567  14.766  -8.475  1.00  0.00     0.127 A 
ATOM      9  N   UNL     1     -23.477  15.420  -9.211  1.00  0.00    -0.340 N 
ATOM     10  H   UNL     1     -24.463  15.152  -9.417  1.00  0.00     0.168 HD
ENDROOT
BRANCH   7  11
ATOM     11  N   UNL     1     -23.859  12.787  -7.760  1.00  0.00    -0.382 N 
ATOM     12  H   UNL     1     -23.812  11.750  -7.871  1.00  0.00     0.158 HD
ATOM     13  H   UNL     1     -24.793  13.234  -7.632  1.00  0.00     0.158 HD
ENDBRANCH   7  11
TORSDOF 1
ENDMDL
MODEL 7
REMARK VINA RESULT:    -3.664     19.374     19.993
REMARK INTER + INTRA:          -3.771
REMARK INTER:                  -3.771
REMARK INTRA:                   0.000
REMARK UNBOUND:                 0.000
REMARK SMILES Nc1ncnc2nc[nH]c12
REMARK SMILES IDX 8 1 7 2 6 3 5 4 4 5 3 6 2 7 10 8 9 9 1 11
REMARK H PARENT 9 10 1 12 1 13
REMARK Flexibility Score: inf
ROOT
ATOM      1  C   UNL     1      -7.194  15.548 -25.013  1.00  0.00     0.199 A 
ATOM      2  N   UNL     1      -6.405  15.387 -23.916  1.00  0.00    -0.217 NA
ATOM      3  C   UNL     1      -6.883  14.249 -23.386  1.00  0.00     0.182 A 
ATOM      4  N   UNL     1      -6.442  13.632 -22.263  1.00  0.00    -0.215 NA
ATOM      5  C   UNL     1      -7.058  12.474 -21.878  1.00  0.00     0.226 A 
ATOM      6  N   UNL     1      -8.094  11.957 -22.616  1.00  0.00    -0.217 NA
ATOM      7  C   UNL     1      -8.540  12.578 -23.749  1.00  0.00     0.152 A 
ATOM      8  C   UNL     1      -7.903  13.756 -24.126  1.00  0.00     0.127 A 
ATOM      9  N   UNL     1      -8.119  14.568 -25.170  1.00  0.00    -0.340 N 
ATOM     10  H   UNL     1      -8.828  14.478 -25.930  1.00  0.00     0.168 HD
ENDROOT
BRANCH   7  11
ATOM     11  N   UNL     1      -9.620  12.022 -24.500  1.00  0.00    -0.382 N 
ATOM     12  H   UNL     1     -10.500  11.737 -24.017  1.00  0.00     0.158 HD
ATOM     13  H   UNL     1      -9.552  11.892 -25.534  1.00  0.00     0.158 HD
ENDBRANCH   7  11
TORSDOF 1
ENDMDL
MODEL 8
REMARK VINA RESULT:    -3.655     17.201     18.659
REMARK INTER + INTRA:          -3.762
REMARK INTER:                  -3.762
REMARK INTRA:                   0.000
REMARK UNBOUND:                 0.000
REMARK SMILES Nc1ncnc2nc[nH]c12
REMARK SMILES IDX 8 1 7 2 6 3 5 4 4 5 3 6 2 7 10 8 9 9 1 11
REMARK H PARENT 9 10 1 12 1 13
REMARK Flexibility Score: inf
ROOT
ATOM      1  C   UNL     1      -8.569  15.166 -22.272  1.00  0.00     0.199 A 
ATOM      2  N   UNL     1      -7.540  14.527 -22.890  1.00  0.00    -0.217 NA
ATOM      3  C   UNL     1      -7.936  13.244 -22.854  1.00  0.00     0.182 A 
ATOM      4  N   UNL     1      -7.263  12.176 -23.344  1.00  0.00    -0.215 NA
ATOM      5  C   UNL     1      -7.832  10.939 -23.213  1.00  0.00     0.226 A 
ATOM      6  N   UNL     1      -9.052  10.795 -22.600  1.00  0.00    -0.217 NA
ATOM      7  C   UNL     1      -9.731  11.872 -22.105  1.00  0.00     0.152 A 
ATOM      8  C   UNL     1      -9.139  13.123 -22.246  1.00  0.00     0.127 A 
ATOM      9  N   UNL     1      -9.564  14.336 -21.866  1.00  0.00    -0.340 N 
ATOM     10  H   UNL     1     -10.447  14.594 -21.374  1.00  0.00     0.168 HD
ENDROOT
BRANCH   7  11
ATOM     11  N   UNL     1     -11.000  11.697 -21.471  1.00  0.00    -0.382 N 
ATOM     12  H   UNL     1     -11.275  12.313 -20.675  1.00  0.00     0.158 HD
ATOM     13  H   UNL     1     -11.668  10.960 -21.787  1.00  0.00     0.158 HD
ENDBRANCH   7  11
TORSDOF 1
ENDMDL
MODEL 9
REMARK VINA RESULT:    -3.633     13.776     15.618
REMARK INTER + INTRA:          -3.739
REMARK INTER:                  -3.739
REMARK INTRA:                   0.000
REMARK UNBOUND:                 0.000
REMARK SMILES Nc1ncnc2nc[nH]c12
REMARK SMILES IDX 8 1 7 2 6 3 5 4 4 5 3 6 2 7 10 8 9 9 1 11
REMARK H PARENT 9 10 1 12 1 13
REMARK Flexibility Score: inf
ROOT
ATOM      1  C   UNL     1     -11.516  12.798 -16.832  1.00  0.00     0.199 A 
ATOM      2  N   UNL     1     -10.250  13.171 -16.498  1.00  0.00    -0.217 NA
ATOM      3  C   UNL     1      -9.611  13.102 -17.677  1.00  0.00     0.182 A 
ATOM      4  N   UNL     1      -8.305  13.377 -17.907  1.00  0.00    -0.215 NA
ATOM      5  C   UNL     1      -7.832  13.248 -19.183  1.00  0.00     0.226 A 
ATOM      6  N   UNL     1      -8.667  12.851 -20.198  1.00  0.00    -0.217 NA
ATOM      7  C   UNL     1      -9.984  12.572 -19.968  1.00  0.00     0.152 A 
ATOM      8  C   UNL     1     -10.450  12.708 -18.664  1.00  0.00     0.127 A 
ATOM      9  N   UNL     1     -11.670  12.508 -18.149  1.00  0.00    -0.340 N 
ATOM     10  H   UNL     1     -12.541  12.202 -18.635  1.00  0.00     0.168 HD
ENDROOT
BRANCH   7  11
ATOM     11  N   UNL     1     -10.833  12.159 -21.040  1.00  0.00    -0.382 N 
ATOM     12  H   UNL     1     -10.715  11.214 -21.466  1.00  0.00     0.158 HD
ATOM     13  H   UNL     1     -11.580  12.785 -21.414  1.00  0.00     0.158 HD
ENDBRANCH   7  11
TORSDOF 1
ENDMDL
