MODEL 1
REMARK VINA RESULT:    -9.412      0.000      0.000
REMARK INTER + INTRA:         -13.442
REMARK INTER:                 -12.713
REMARK INTRA:                  -0.729
REMARK UNBOUND:                -0.729
REMARK SMILES O=c1c(-c2ccc(O)cc2)coc2c([C@@H]3O[C@H](CO)[C@H](O)[C@H](O)[C@H]3O)c(O)ccc12
REMARK SMILES IDX 3 1 11 2 12 3 13 4 30 5 2 6 1 7 29 8 28 9 26 10 14 11 4 12
REMARK SMILES IDX 5 13 6 14 7 15 10 16 9 17 8 18 15 20 24 21 16 22 22 23 17 24
REMARK SMILES IDX 20 25 25 26 23 28 18 30 19 31 21 33 27 35
REMARK H PARENT 8 19 25 27 23 29 19 32 21 34 27 36
REMARK Flexibility Score: inf
ROOT
ATOM      1  C   UNL     1      25.511   2.030 -14.539  1.00  0.00     0.065 A 
ATOM      2  C   UNL     1      25.010   1.910 -15.843  1.00  0.00     0.208 A 
ATOM      3  O   UNL     1      25.725   2.309 -16.888  1.00  0.00    -0.463 OA
ATOM      4  C   UNL     1      26.941   2.839 -16.779  1.00  0.00     0.147 A 
ATOM      5  C   UNL     1      27.527   2.989 -15.501  1.00  0.00     0.066 A 
ATOM      6  C   UNL     1      26.798   2.572 -14.372  1.00  0.00     0.200 A 
ATOM      7  O   UNL     1      27.303   2.665 -13.218  1.00  0.00    -0.288 OA
ATOM      8  C   UNL     1      28.815   3.533 -15.389  1.00  0.00     0.020 A 
ATOM      9  C   UNL     1      29.516   3.918 -16.531  1.00  0.00     0.047 A 
ATOM     10  C   UNL     1      28.946   3.774 -17.801  1.00  0.00     0.125 A 
ATOM     11  C   UNL     1      27.642   3.246 -17.939  1.00  0.00     0.069 A 
ENDROOT
BRANCH   1  12
ATOM     12  C   UNL     1      24.689   1.585 -13.386  1.00  0.00    -0.011 A 
ATOM     13  C   UNL     1      23.703   2.427 -12.841  1.00  0.00     0.013 A 
ATOM     14  C   UNL     1      22.924   1.998 -11.762  1.00  0.00     0.047 A 
ATOM     15  C   UNL     1      23.117   0.725 -11.217  1.00  0.00     0.115 A 
ATOM     16  C   UNL     1      24.871   0.303 -12.838  1.00  0.00     0.013 A 
ATOM     17  C   UNL     1      24.091  -0.123 -11.758  1.00  0.00     0.047 A 
BRANCH  15  18
ATOM     18  O   UNL     1      22.334   0.312 -10.141  1.00  0.00    -0.508 OA
ATOM     19  H   UNL     1      22.412  -0.623  -9.758  1.00  0.00     0.293 HD
ENDBRANCH  15  18
ENDBRANCH   1  12
BRANCH  11  20
ATOM     20  C   UNL     1      27.027   3.067 -19.319  1.00  0.00     0.188 C 
ATOM     21  C   UNL     1      27.238   1.610 -19.811  1.00  0.00     0.179 C 
ATOM     22  O   UNL     1      25.645   3.389 -19.257  1.00  0.00    -0.362 OA
ATOM     23  C   UNL     1      26.535   1.394 -21.164  1.00  0.00     0.177 C 
ATOM     24  C   UNL     1      25.051   3.321 -20.543  1.00  0.00     0.176 C 
ATOM     25  C   UNL     1      25.072   1.871 -21.079  1.00  0.00     0.177 C 
BRANCH  21  26
ATOM     26  O   UNL     1      28.607   1.301 -19.909  1.00  0.00    -0.387 OA
ATOM     27  H   UNL     1      28.883   0.875 -19.055  1.00  0.00     0.211 HD
ENDBRANCH  21  26
BRANCH  23  28
ATOM     28  O   UNL     1      26.594   0.035 -21.512  1.00  0.00    -0.387 OA
ATOM     29  H   UNL     1      25.727  -0.366 -21.238  1.00  0.00     0.211 HD
ENDBRANCH  23  28
BRANCH  24  30
ATOM     30  C   UNL     1      23.624   3.883 -20.470  1.00  0.00     0.191 C 
BRANCH  30  31
ATOM     31  O   UNL     1      22.996   3.487 -19.281  1.00  0.00    -0.394 OA
ATOM     32  H   UNL     1      22.125   3.961 -19.259  1.00  0.00     0.210 HD
ENDBRANCH  30  31
ENDBRANCH  24  30
BRANCH  25  33
ATOM     33  O   UNL     1      24.339   1.030 -20.225  1.00  0.00    -0.388 OA
ATOM     34  H   UNL     1      23.998   0.279 -20.779  1.00  0.00     0.211 HD
ENDBRANCH  25  33
ENDBRANCH  11  20
BRANCH  10  35
ATOM     35  O   UNL     1      29.678   4.151 -18.928  1.00  0.00    -0.507 OA
ATOM     36  H   UNL     1      29.313   4.029 -19.866  1.00  0.00     0.293 HD
ENDBRANCH  10  35
TORSDOF 9
ENDMDL
MODEL 2
REMARK VINA RESULT:    -9.028      1.259      2.685
REMARK INTER + INTRA:         -12.924
REMARK INTER:                 -12.056
REMARK INTRA:                  -0.868
REMARK UNBOUND:                -0.729
REMARK SMILES O=c1c(-c2ccc(O)cc2)coc2c([C@@H]3O[C@H](CO)[C@H](O)[C@H](O)[C@H]3O)c(O)ccc12
REMARK SMILES IDX 3 1 11 2 12 3 13 4 30 5 2 6 1 7 29 8 28 9 26 10 14 11 4 12
REMARK SMILES IDX 5 13 6 14 7 15 10 16 9 17 8 18 15 20 24 21 16 22 22 23 17 24
REMARK SMILES IDX 20 25 25 26 23 28 18 30 19 31 21 33 27 35
REMARK H PARENT 8 19 25 27 23 29 19 32 21 34 27 36
REMARK Flexibility Score: inf
ROOT
ATOM      1  C   UNL     1      25.312   1.929 -14.688  1.00  0.00     0.065 A 
ATOM      2  C   UNL     1      24.828   1.602 -15.963  1.00  0.00     0.208 A 
ATOM      3  O   UNL     1      25.472   1.989 -17.057  1.00  0.00    -0.463 OA
ATOM      4  C   UNL     1      26.598   2.698 -17.027  1.00  0.00     0.147 A 
ATOM      5  C   UNL     1      27.162   3.063 -15.782  1.00  0.00     0.066 A 
ATOM      6  C   UNL     1      26.506   2.665 -14.602  1.00  0.00     0.200 A 
ATOM      7  O   UNL     1      26.998   2.950 -13.474  1.00  0.00    -0.288 OA
ATOM      8  C   UNL     1      28.358   3.796 -15.752  1.00  0.00     0.020 A 
ATOM      9  C   UNL     1      28.990   4.158 -16.941  1.00  0.00     0.047 A 
ATOM     10  C   UNL     1      28.441   3.801 -18.178  1.00  0.00     0.125 A 
ATOM     11  C   UNL     1      27.228   3.079 -18.235  1.00  0.00     0.069 A 
ENDROOT
BRANCH   1  12
ATOM     12  C   UNL     1      24.568   1.492 -13.480  1.00  0.00    -0.011 A 
ATOM     13  C   UNL     1      24.884   0.277 -12.844  1.00  0.00     0.013 A 
ATOM     14  C   UNL     1      24.188  -0.124 -11.700  1.00  0.00     0.047 A 
ATOM     15  C   UNL     1      23.172   0.680 -11.176  1.00  0.00     0.115 A 
ATOM     16  C   UNL     1      23.550   2.299 -12.942  1.00  0.00     0.013 A 
ATOM     17  C   UNL     1      22.855   1.894 -11.798  1.00  0.00     0.047 A 
BRANCH  15  18
ATOM     18  O   UNL     1      22.486   0.266 -10.036  1.00  0.00    -0.508 OA
ATOM     19  H   UNL     1      22.253  -0.709  -9.883  1.00  0.00     0.293 HD
ENDBRANCH  15  18
ENDBRANCH   1  12
BRANCH  11  20
ATOM     20  C   UNL     1      26.639   2.670 -19.577  1.00  0.00     0.188 C 
ATOM     21  C   UNL     1      26.280   3.931 -20.409  1.00  0.00     0.179 C 
ATOM     22  O   UNL     1      27.574   1.854 -20.266  1.00  0.00    -0.362 OA
ATOM     23  C   UNL     1      25.773   3.526 -21.805  1.00  0.00     0.177 C 
ATOM     24  C   UNL     1      27.029   1.376 -21.485  1.00  0.00     0.176 C 
ATOM     25  C   UNL     1      26.765   2.545 -22.461  1.00  0.00     0.177 C 
BRANCH  21  26
ATOM     26  O   UNL     1      25.325   4.722 -19.745  1.00  0.00    -0.387 OA
ATOM     27  H   UNL     1      24.434   4.310 -19.895  1.00  0.00     0.211 HD
ENDBRANCH  21  26
BRANCH  23  28
ATOM     28  O   UNL     1      25.615   4.673 -22.598  1.00  0.00    -0.387 OA
ATOM     29  H   UNL     1      26.031   4.473 -23.477  1.00  0.00     0.211 HD
ENDBRANCH  23  28
BRANCH  24  30
ATOM     30  C   UNL     1      27.980   0.331 -22.087  1.00  0.00     0.191 C 
BRANCH  30  31
ATOM     31  O   UNL     1      28.893  -0.120 -21.125  1.00  0.00    -0.394 OA
ATOM     32  H   UNL     1      29.710  -0.384 -21.623  1.00  0.00     0.210 HD
ENDBRANCH  30  31
ENDBRANCH  24  30
BRANCH  25  33
ATOM     33  O   UNL     1      27.970   3.205 -22.762  1.00  0.00    -0.388 OA
ATOM     34  H   UNL     1      27.850   3.639 -23.647  1.00  0.00     0.211 HD
ENDBRANCH  25  33
ENDBRANCH  11  20
BRANCH  10  35
ATOM     35  O   UNL     1      29.106   4.160 -19.351  1.00  0.00    -0.507 OA
ATOM     36  H   UNL     1      28.640   4.676 -20.090  1.00  0.00     0.293 HD
ENDBRANCH  10  35
TORSDOF 9
ENDMDL
MODEL 3
REMARK VINA RESULT:    -8.845      1.047      1.649
REMARK INTER + INTRA:         -12.676
REMARK INTER:                 -12.548
REMARK INTRA:                  -0.128
REMARK UNBOUND:                -0.729
REMARK SMILES O=c1c(-c2ccc(O)cc2)coc2c([C@@H]3O[C@H](CO)[C@H](O)[C@H](O)[C@H]3O)c(O)ccc12
REMARK SMILES IDX 3 1 11 2 12 3 13 4 30 5 2 6 1 7 29 8 28 9 26 10 14 11 4 12
REMARK SMILES IDX 5 13 6 14 7 15 10 16 9 17 8 18 15 20 24 21 16 22 22 23 17 24
REMARK SMILES IDX 20 25 25 26 23 28 18 30 19 31 21 33 27 35
REMARK H PARENT 8 19 25 27 23 29 19 32 21 34 27 36
REMARK Flexibility Score: inf
ROOT
ATOM      1  C   UNL     1      25.600   1.925 -14.363  1.00  0.00     0.065 A 
ATOM      2  C   UNL     1      25.007   2.038 -15.628  1.00  0.00     0.208 A 
ATOM      3  O   UNL     1      25.713   2.439 -16.678  1.00  0.00    -0.463 OA
ATOM      4  C   UNL     1      27.005   2.754 -16.610  1.00  0.00     0.147 A 
ATOM      5  C   UNL     1      27.684   2.659 -15.374  1.00  0.00     0.066 A 
ATOM      6  C   UNL     1      26.966   2.233 -14.241  1.00  0.00     0.200 A 
ATOM      7  O   UNL     1      27.549   2.110 -13.127  1.00  0.00    -0.288 OA
ATOM      8  C   UNL     1      29.050   2.977 -15.307  1.00  0.00     0.020 A 
ATOM      9  C   UNL     1      29.734   3.378 -16.453  1.00  0.00     0.047 A 
ATOM     10  C   UNL     1      29.071   3.475 -17.683  1.00  0.00     0.125 A 
ATOM     11  C   UNL     1      27.692   3.179 -17.772  1.00  0.00     0.069 A 
ENDROOT
BRANCH   1  12
ATOM     12  C   UNL     1      24.787   1.482 -13.202  1.00  0.00    -0.011 A 
ATOM     13  C   UNL     1      25.087   0.282 -12.533  1.00  0.00     0.013 A 
ATOM     14  C   UNL     1      24.324  -0.125 -11.434  1.00  0.00     0.047 A 
ATOM     15  C   UNL     1      23.257   0.660 -10.988  1.00  0.00     0.115 A 
ATOM     16  C   UNL     1      23.717   2.270 -12.743  1.00  0.00     0.013 A 
ATOM     17  C   UNL     1      22.955   1.860 -11.644  1.00  0.00     0.047 A 
BRANCH  15  18
ATOM     18  O   UNL     1      22.505   0.241  -9.893  1.00  0.00    -0.508 OA
ATOM     19  H   UNL     1      21.497   0.344  -9.871  1.00  0.00     0.293 HD
ENDBRANCH  15  18
ENDBRANCH   1  12
BRANCH  11  20
ATOM     20  C   UNL     1      26.973   3.262 -19.110  1.00  0.00     0.188 C 
ATOM     21  C   UNL     1      26.006   2.058 -19.271  1.00  0.00     0.179 C 
ATOM     22  O   UNL     1      26.271   4.494 -19.185  1.00  0.00    -0.362 OA
ATOM     23  C   UNL     1      25.204   2.186 -20.579  1.00  0.00     0.177 C 
ATOM     24  C   UNL     1      25.658   4.651 -20.454  1.00  0.00     0.176 C 
ATOM     25  C   UNL     1      24.561   3.583 -20.668  1.00  0.00     0.177 C 
BRANCH  21  26
ATOM     26  O   UNL     1      26.705   0.838 -19.235  1.00  0.00    -0.387 OA
ATOM     27  H   UNL     1      27.270   0.837 -18.418  1.00  0.00     0.211 HD
ENDBRANCH  21  26
BRANCH  23  28
ATOM     28  O   UNL     1      24.222   1.185 -20.627  1.00  0.00    -0.387 OA
ATOM     29  H   UNL     1      24.000   0.958 -19.685  1.00  0.00     0.211 HD
ENDBRANCH  23  28
BRANCH  24  30
ATOM     30  C   UNL     1      25.099   6.077 -20.571  1.00  0.00     0.191 C 
BRANCH  30  31
ATOM     31  O   UNL     1      25.374   6.813 -19.409  1.00  0.00    -0.394 OA
ATOM     32  H   UNL     1      25.930   7.583 -19.697  1.00  0.00     0.210 HD
ENDBRANCH  30  31
ENDBRANCH  24  30
BRANCH  25  33
ATOM     33  O   UNL     1      23.559   3.717 -19.691  1.00  0.00    -0.388 OA
ATOM     34  H   UNL     1      24.002   4.040 -18.863  1.00  0.00     0.211 HD
ENDBRANCH  25  33
ENDBRANCH  11  20
BRANCH  10  35
ATOM     35  O   UNL     1      29.786   3.862 -18.817  1.00  0.00    -0.507 OA
ATOM     36  H   UNL     1      29.773   3.311 -19.668  1.00  0.00     0.293 HD
ENDBRANCH  10  35
TORSDOF 9
ENDMDL
MODEL 4
REMARK VINA RESULT:    -7.201      3.332      4.974
REMARK INTER + INTRA:         -10.457
REMARK INTER:                  -9.323
REMARK INTRA:                  -1.134
REMARK UNBOUND:                -0.729
REMARK SMILES O=c1c(-c2ccc(O)cc2)coc2c([C@@H]3O[C@H](CO)[C@H](O)[C@H](O)[C@H]3O)c(O)ccc12
REMARK SMILES IDX 3 1 11 2 12 3 13 4 30 5 2 6 1 7 29 8 28 9 26 10 14 11 4 12
REMARK SMILES IDX 5 13 6 14 7 15 10 16 9 17 8 18 15 20 24 21 16 22 22 23 17 24
REMARK SMILES IDX 20 25 25 26 23 28 18 30 19 31 21 33 27 35
REMARK H PARENT 8 19 25 27 23 29 19 32 21 34 27 36
REMARK Flexibility Score: inf
ROOT
ATOM      1  C   UNL     1      26.823   2.755 -16.542  1.00  0.00     0.065 A 
ATOM      2  C   UNL     1      27.661   3.837 -16.846  1.00  0.00     0.208 A 
ATOM      3  O   UNL     1      27.609   4.427 -18.034  1.00  0.00    -0.463 OA
ATOM      4  C   UNL     1      26.777   4.046 -19.000  1.00  0.00     0.147 A 
ATOM      5  C   UNL     1      25.889   2.968 -18.775  1.00  0.00     0.066 A 
ATOM      6  C   UNL     1      25.916   2.322 -17.525  1.00  0.00     0.200 A 
ATOM      7  O   UNL     1      25.117   1.375 -17.281  1.00  0.00    -0.288 OA
ATOM      8  C   UNL     1      25.002   2.578 -19.790  1.00  0.00     0.020 A 
ATOM      9  C   UNL     1      24.990   3.252 -21.010  1.00  0.00     0.047 A 
ATOM     10  C   UNL     1      25.864   4.320 -21.244  1.00  0.00     0.125 A 
ATOM     11  C   UNL     1      26.780   4.720 -20.245  1.00  0.00     0.069 A 
ENDROOT
BRANCH   1  12
ATOM     12  C   UNL     1      26.907   2.106 -15.208  1.00  0.00    -0.011 A 
ATOM     13  C   UNL     1      26.158   2.598 -14.124  1.00  0.00     0.013 A 
ATOM     14  C   UNL     1      26.232   1.977 -12.874  1.00  0.00     0.047 A 
ATOM     15  C   UNL     1      27.050   0.859 -12.691  1.00  0.00     0.115 A 
ATOM     16  C   UNL     1      27.722   0.977 -15.019  1.00  0.00     0.013 A 
ATOM     17  C   UNL     1      27.795   0.359 -13.767  1.00  0.00     0.047 A 
BRANCH  15  18
ATOM     18  O   UNL     1      27.116   0.252 -11.439  1.00  0.00    -0.508 OA
ATOM     19  H   UNL     1      26.419   0.433 -10.725  1.00  0.00     0.293 HD
ENDBRANCH  15  18
ENDBRANCH   1  12
BRANCH  11  20
ATOM     20  C   UNL     1      27.716   5.895 -20.486  1.00  0.00     0.188 C 
ATOM     21  C   UNL     1      29.011   5.409 -21.192  1.00  0.00     0.179 C 
ATOM     22  O   UNL     1      27.045   6.872 -21.268  1.00  0.00    -0.362 OA
ATOM     23  C   UNL     1      29.921   6.605 -21.526  1.00  0.00     0.177 C 
ATOM     24  C   UNL     1      27.853   8.025 -21.441  1.00  0.00     0.176 C 
ATOM     25  C   UNL     1      29.114   7.689 -22.267  1.00  0.00     0.177 C 
BRANCH  21  26
ATOM     26  O   UNL     1      29.697   4.468 -20.402  1.00  0.00    -0.387 OA
ATOM     27  H   UNL     1      30.597   4.338 -20.802  1.00  0.00     0.211 HD
ENDBRANCH  21  26
BRANCH  23  28
ATOM     28  O   UNL     1      31.001   6.169 -22.309  1.00  0.00    -0.387 OA
ATOM     29  H   UNL     1      30.614   5.674 -23.078  1.00  0.00     0.211 HD
ENDBRANCH  23  28
BRANCH  24  30
ATOM     30  C   UNL     1      27.016   9.132 -22.097  1.00  0.00     0.191 C 
BRANCH  30  31
ATOM     31  O   UNL     1      27.769   9.816 -23.062  1.00  0.00    -0.394 OA
ATOM     32  H   UNL     1      28.670   9.401 -23.053  1.00  0.00     0.210 HD
ENDBRANCH  30  31
ENDBRANCH  24  30
BRANCH  25  33
ATOM     33  O   UNL     1      28.748   7.229 -23.544  1.00  0.00    -0.388 OA
ATOM     34  H   UNL     1      29.355   7.667 -24.196  1.00  0.00     0.211 HD
ENDBRANCH  25  33
ENDBRANCH  11  20
BRANCH  10  35
ATOM     35  O   UNL     1      25.817   4.988 -22.468  1.00  0.00    -0.507 OA
ATOM     36  H   UNL     1      26.282   4.622 -23.292  1.00  0.00     0.293 HD
ENDBRANCH  10  35
TORSDOF 9
ENDMDL
MODEL 5
REMARK VINA RESULT:    -7.118      2.464      3.593
REMARK INTER + INTRA:         -10.344
REMARK INTER:                  -9.599
REMARK INTRA:                  -0.745
REMARK UNBOUND:                -0.729
REMARK SMILES O=c1c(-c2ccc(O)cc2)coc2c([C@@H]3O[C@H](CO)[C@H](O)[C@H](O)[C@H]3O)c(O)ccc12
REMARK SMILES IDX 3 1 11 2 12 3 13 4 30 5 2 6 1 7 29 8 28 9 26 10 14 11 4 12
REMARK SMILES IDX 5 13 6 14 7 15 10 16 9 17 8 18 15 20 24 21 16 22 22 23 17 24
REMARK SMILES IDX 20 25 25 26 23 28 18 30 19 31 21 33 27 35
REMARK H PARENT 8 19 25 27 23 29 19 32 21 34 27 36
REMARK Flexibility Score: inf
ROOT
ATOM      1  C   UNL     1      27.602   2.832 -17.058  1.00  0.00     0.065 A 
ATOM      2  C   UNL     1      26.637   3.187 -18.012  1.00  0.00     0.208 A 
ATOM      3  O   UNL     1      26.994   3.621 -19.214  1.00  0.00    -0.463 OA
ATOM      4  C   UNL     1      28.263   3.748 -19.596  1.00  0.00     0.147 A 
ATOM      5  C   UNL     1      29.301   3.404 -18.699  1.00  0.00     0.066 A 
ATOM      6  C   UNL     1      28.957   2.936 -17.417  1.00  0.00     0.200 A 
ATOM      7  O   UNL     1      29.859   2.593 -16.602  1.00  0.00    -0.288 OA
ATOM      8  C   UNL     1      30.638   3.523 -19.109  1.00  0.00     0.020 A 
ATOM      9  C   UNL     1      30.941   3.973 -20.393  1.00  0.00     0.047 A 
ATOM     10  C   UNL     1      29.922   4.317 -21.289  1.00  0.00     0.125 A 
ATOM     11  C   UNL     1      28.568   4.223 -20.894  1.00  0.00     0.069 A 
ENDROOT
BRANCH   1  12
ATOM     12  C   UNL     1      27.177   2.357 -15.717  1.00  0.00    -0.011 A 
ATOM     13  C   UNL     1      26.972   0.987 -15.474  1.00  0.00     0.013 A 
ATOM     14  C   UNL     1      26.583   0.544 -14.207  1.00  0.00     0.047 A 
ATOM     15  C   UNL     1      26.396   1.461 -13.167  1.00  0.00     0.115 A 
ATOM     16  C   UNL     1      26.994   3.272 -14.666  1.00  0.00     0.013 A 
ATOM     17  C   UNL     1      26.604   2.826 -13.399  1.00  0.00     0.047 A 
BRANCH  15  18
ATOM     18  O   UNL     1      26.006   1.005 -11.910  1.00  0.00    -0.508 OA
ATOM     19  H   UNL     1      25.050   0.725 -11.721  1.00  0.00     0.293 HD
ENDBRANCH  15  18
ENDBRANCH   1  12
BRANCH  11  20
ATOM     20  C   UNL     1      27.456   4.574 -21.871  1.00  0.00     0.188 C 
ATOM     21  C   UNL     1      26.901   3.283 -22.532  1.00  0.00     0.179 C 
ATOM     22  O   UNL     1      26.432   5.273 -21.179  1.00  0.00    -0.362 OA
ATOM     23  C   UNL     1      25.711   3.620 -23.450  1.00  0.00     0.177 C 
ATOM     24  C   UNL     1      25.416   5.698 -22.072  1.00  0.00     0.176 C 
ATOM     25  C   UNL     1      24.686   4.482 -22.687  1.00  0.00     0.177 C 
BRANCH  21  26
ATOM     26  O   UNL     1      27.905   2.608 -23.249  1.00  0.00    -0.387 OA
ATOM     27  H   UNL     1      28.698   2.530 -22.657  1.00  0.00     0.211 HD
ENDBRANCH  21  26
BRANCH  23  28
ATOM     28  O   UNL     1      25.118   2.432 -23.905  1.00  0.00    -0.387 OA
ATOM     29  H   UNL     1      24.908   1.891 -23.098  1.00  0.00     0.211 HD
ENDBRANCH  23  28
BRANCH  24  30
ATOM     30  C   UNL     1      24.449   6.630 -21.329  1.00  0.00     0.191 C 
BRANCH  30  31
ATOM     31  O   UNL     1      24.183   6.144 -20.041  1.00  0.00    -0.394 OA
ATOM     32  H   UNL     1      24.281   6.919 -19.429  1.00  0.00     0.210 HD
ENDBRANCH  30  31
ENDBRANCH  24  30
BRANCH  25  33
ATOM     33  O   UNL     1      24.074   3.723 -21.674  1.00  0.00    -0.388 OA
ATOM     34  H   UNL     1      23.246   3.335 -22.062  1.00  0.00     0.211 HD
ENDBRANCH  25  33
ENDBRANCH  11  20
BRANCH  10  35
ATOM     35  O   UNL     1      30.255   4.746 -22.573  1.00  0.00    -0.507 OA
ATOM     36  H   UNL     1      30.281   5.730 -22.816  1.00  0.00     0.293 HD
ENDBRANCH  10  35
TORSDOF 9
ENDMDL
MODEL 6
REMARK VINA RESULT:    -6.858      2.465      4.981
REMARK INTER + INTRA:          -9.992
REMARK INTER:                  -9.309
REMARK INTRA:                  -0.683
REMARK UNBOUND:                -0.729
REMARK SMILES O=c1c(-c2ccc(O)cc2)coc2c([C@@H]3O[C@H](CO)[C@H](O)[C@H](O)[C@H]3O)c(O)ccc12
REMARK SMILES IDX 3 1 11 2 12 3 13 4 30 5 2 6 1 7 29 8 28 9 26 10 14 11 4 12
REMARK SMILES IDX 5 13 6 14 7 15 10 16 9 17 8 18 15 20 24 21 16 22 22 23 17 24
REMARK SMILES IDX 20 25 25 26 23 28 18 30 19 31 21 33 27 35
REMARK H PARENT 8 19 25 27 23 29 19 32 21 34 27 36
REMARK Flexibility Score: inf
ROOT
ATOM      1  C   UNL     1      26.642   1.962 -16.852  1.00  0.00     0.065 A 
ATOM      2  C   UNL     1      27.813   2.155 -17.599  1.00  0.00     0.208 A 
ATOM      3  O   UNL     1      27.756   2.499 -18.879  1.00  0.00    -0.463 OA
ATOM      4  C   UNL     1      26.612   2.684 -19.534  1.00  0.00     0.147 A 
ATOM      5  C   UNL     1      25.383   2.519 -18.855  1.00  0.00     0.066 A 
ATOM      6  C   UNL     1      25.407   2.158 -17.495  1.00  0.00     0.200 A 
ATOM      7  O   UNL     1      24.328   2.031 -16.851  1.00  0.00    -0.288 OA
ATOM      8  C   UNL     1      24.178   2.729 -19.543  1.00  0.00     0.020 A 
ATOM      9  C   UNL     1      24.192   3.104 -20.885  1.00  0.00     0.047 A 
ATOM     10  C   UNL     1      25.403   3.270 -21.567  1.00  0.00     0.125 A 
ATOM     11  C   UNL     1      26.630   3.046 -20.902  1.00  0.00     0.069 A 
ENDROOT
BRANCH   1  12
ATOM     12  C   UNL     1      26.732   1.568 -15.423  1.00  0.00    -0.011 A 
ATOM     13  C   UNL     1      27.009   0.238 -15.063  1.00  0.00     0.013 A 
ATOM     14  C   UNL     1      27.103  -0.125 -13.716  1.00  0.00     0.047 A 
ATOM     15  C   UNL     1      26.925   0.834 -12.714  1.00  0.00     0.115 A 
ATOM     16  C   UNL     1      26.562   2.529 -14.411  1.00  0.00     0.013 A 
ATOM     17  C   UNL     1      26.655   2.163 -13.065  1.00  0.00     0.047 A 
BRANCH  15  18
ATOM     18  O   UNL     1      27.020   0.458 -11.377  1.00  0.00    -0.508 OA
ATOM     19  H   UNL     1      27.677  -0.251 -11.071  1.00  0.00     0.293 HD
ENDBRANCH  15  18
ENDBRANCH   1  12
BRANCH  11  20
ATOM     20  C   UNL     1      27.949   3.247 -21.633  1.00  0.00     0.188 C 
ATOM     21  C   UNL     1      28.507   4.667 -21.344  1.00  0.00     0.179 C 
ATOM     22  O   UNL     1      28.866   2.245 -21.221  1.00  0.00    -0.362 OA
ATOM     23  C   UNL     1      29.888   4.843 -22.002  1.00  0.00     0.177 C 
ATOM     24  C   UNL     1      30.082   2.341 -21.945  1.00  0.00     0.176 C 
ATOM     25  C   UNL     1      30.807   3.667 -21.620  1.00  0.00     0.177 C 
BRANCH  21  26
ATOM     26  O   UNL     1      27.616   5.661 -21.786  1.00  0.00    -0.387 OA
ATOM     27  H   UNL     1      27.917   5.959 -22.685  1.00  0.00     0.211 HD
ENDBRANCH  21  26
BRANCH  23  28
ATOM     28  O   UNL     1      30.449   6.063 -21.594  1.00  0.00    -0.387 OA
ATOM     29  H   UNL     1      29.699   6.710 -21.514  1.00  0.00     0.211 HD
ENDBRANCH  23  28
BRANCH  24  30
ATOM     30  C   UNL     1      30.955   1.119 -21.629  1.00  0.00     0.191 C 
BRANCH  30  31
ATOM     31  O   UNL     1      30.725   0.670 -20.321  1.00  0.00    -0.394 OA
ATOM     32  H   UNL     1      30.259   1.410 -19.854  1.00  0.00     0.210 HD
ENDBRANCH  30  31
ENDBRANCH  24  30
BRANCH  25  33
ATOM     33  O   UNL     1      31.121   3.723 -20.251  1.00  0.00    -0.388 OA
ATOM     34  H   UNL     1      31.819   3.037 -20.084  1.00  0.00     0.211 HD
ENDBRANCH  25  33
ENDBRANCH  11  20
BRANCH  10  35
ATOM     35  O   UNL     1      25.387   3.664 -22.906  1.00  0.00    -0.507 OA
ATOM     36  H   UNL     1      25.754   4.562 -23.201  1.00  0.00     0.293 HD
ENDBRANCH  10  35
TORSDOF 9
ENDMDL
MODEL 7
REMARK VINA RESULT:    -6.858      2.943      4.492
REMARK INTER + INTRA:          -9.992
REMARK INTER:                  -9.754
REMARK INTRA:                  -0.238
REMARK UNBOUND:                -0.729
REMARK SMILES O=c1c(-c2ccc(O)cc2)coc2c([C@@H]3O[C@H](CO)[C@H](O)[C@H](O)[C@H]3O)c(O)ccc12
REMARK SMILES IDX 3 1 11 2 12 3 13 4 30 5 2 6 1 7 29 8 28 9 26 10 14 11 4 12
REMARK SMILES IDX 5 13 6 14 7 15 10 16 9 17 8 18 15 20 24 21 16 22 22 23 17 24
REMARK SMILES IDX 20 25 25 26 23 28 18 30 19 31 21 33 27 35
REMARK H PARENT 8 19 25 27 23 29 19 32 21 34 27 36
REMARK Flexibility Score: inf
ROOT
ATOM      1  C   UNL     1      27.178   2.832 -17.294  1.00  0.00     0.065 A 
ATOM      2  C   UNL     1      25.837   2.942 -17.689  1.00  0.00     0.208 A 
ATOM      3  O   UNL     1      25.504   3.588 -18.799  1.00  0.00    -0.463 OA
ATOM      4  C   UNL     1      26.395   4.164 -19.602  1.00  0.00     0.147 A 
ATOM      5  C   UNL     1      27.772   4.094 -19.284  1.00  0.00     0.066 A 
ATOM      6  C   UNL     1      28.160   3.413 -18.116  1.00  0.00     0.200 A 
ATOM      7  O   UNL     1      29.383   3.307 -17.817  1.00  0.00    -0.288 OA
ATOM      8  C   UNL     1      28.711   4.689 -20.140  1.00  0.00     0.020 A 
ATOM      9  C   UNL     1      28.292   5.340 -21.299  1.00  0.00     0.047 A 
ATOM     10  C   UNL     1      26.932   5.416 -21.623  1.00  0.00     0.125 A 
ATOM     11  C   UNL     1      25.965   4.841 -20.768  1.00  0.00     0.069 A 
ENDROOT
BRANCH   1  12
ATOM     12  C   UNL     1      27.525   2.112 -16.043  1.00  0.00    -0.011 A 
ATOM     13  C   UNL     1      27.080   0.795 -15.828  1.00  0.00     0.013 A 
ATOM     14  C   UNL     1      27.419   0.117 -14.653  1.00  0.00     0.047 A 
ATOM     15  C   UNL     1      28.206   0.742 -13.681  1.00  0.00     0.115 A 
ATOM     16  C   UNL     1      28.323   2.731 -15.065  1.00  0.00     0.013 A 
ATOM     17  C   UNL     1      28.658   2.051 -13.890  1.00  0.00     0.047 A 
BRANCH  15  18
ATOM     18  O   UNL     1      28.533   0.055 -12.515  1.00  0.00    -0.508 OA
ATOM     19  H   UNL     1      28.060  -0.802 -12.254  1.00  0.00     0.293 HD
ENDBRANCH  15  18
ENDBRANCH   1  12
BRANCH  11  20
ATOM     20  C   UNL     1      24.488   4.901 -21.127  1.00  0.00     0.188 C 
ATOM     21  C   UNL     1      23.815   3.530 -20.846  1.00  0.00     0.179 C 
ATOM     22  O   UNL     1      23.868   5.936 -20.379  1.00  0.00    -0.362 OA
ATOM     23  C   UNL     1      22.301   3.610 -21.116  1.00  0.00     0.177 C 
ATOM     24  C   UNL     1      22.508   6.085 -20.750  1.00  0.00     0.176 C 
ATOM     25  C   UNL     1      21.699   4.822 -20.378  1.00  0.00     0.177 C 
BRANCH  21  26
ATOM     26  O   UNL     1      24.402   2.509 -21.614  1.00  0.00    -0.387 OA
ATOM     27  H   UNL     1      23.761   2.264 -22.332  1.00  0.00     0.211 HD
ENDBRANCH  21  26
BRANCH  23  28
ATOM     28  O   UNL     1      21.686   2.420 -20.698  1.00  0.00    -0.387 OA
ATOM     29  H   UNL     1      21.289   2.004 -21.508  1.00  0.00     0.211 HD
ENDBRANCH  23  28
BRANCH  24  30
ATOM     30  C   UNL     1      21.939   7.346 -20.083  1.00  0.00     0.191 C 
BRANCH  30  31
ATOM     31  O   UNL     1      22.375   7.444 -18.754  1.00  0.00    -0.394 OA
ATOM     32  H   UNL     1      22.264   6.539 -18.361  1.00  0.00     0.210 HD
ENDBRANCH  30  31
ENDBRANCH  24  30
BRANCH  25  33
ATOM     33  O   UNL     1      21.742   4.612 -18.989  1.00  0.00    -0.388 OA
ATOM     34  H   UNL     1      20.923   5.024 -18.607  1.00  0.00     0.211 HD
ENDBRANCH  25  33
ENDBRANCH  11  20
BRANCH  10  35
ATOM     35  O   UNL     1      26.543   6.058 -22.799  1.00  0.00    -0.507 OA
ATOM     36  H   UNL     1      25.712   5.778 -23.309  1.00  0.00     0.293 HD
ENDBRANCH  10  35
TORSDOF 9
ENDMDL
MODEL 8
REMARK VINA RESULT:    -6.763      3.073      5.751
REMARK INTER + INTRA:          -9.864
REMARK INTER:                  -9.223
REMARK INTRA:                  -0.641
REMARK UNBOUND:                -0.729
REMARK SMILES O=c1c(-c2ccc(O)cc2)coc2c([C@@H]3O[C@H](CO)[C@H](O)[C@H](O)[C@H]3O)c(O)ccc12
REMARK SMILES IDX 3 1 11 2 12 3 13 4 30 5 2 6 1 7 29 8 28 9 26 10 14 11 4 12
REMARK SMILES IDX 5 13 6 14 7 15 10 16 9 17 8 18 15 20 24 21 16 22 22 23 17 24
REMARK SMILES IDX 20 25 25 26 23 28 18 30 19 31 21 33 27 35
REMARK H PARENT 8 19 25 27 23 29 19 32 21 34 27 36
REMARK Flexibility Score: inf
ROOT
ATOM      1  C   UNL     1      26.651   2.960 -17.339  1.00  0.00     0.065 A 
ATOM      2  C   UNL     1      27.382   4.005 -17.921  1.00  0.00     0.208 A 
ATOM      3  O   UNL     1      27.092   4.444 -19.140  1.00  0.00    -0.463 OA
ATOM      4  C   UNL     1      26.108   3.940 -19.880  1.00  0.00     0.147 A 
ATOM      5  C   UNL     1      25.313   2.889 -19.366  1.00  0.00     0.066 A 
ATOM      6  C   UNL     1      25.591   2.402 -18.076  1.00  0.00     0.200 A 
ATOM      7  O   UNL     1      24.883   1.485 -17.575  1.00  0.00    -0.288 OA
ATOM      8  C   UNL     1      24.265   2.369 -20.142  1.00  0.00     0.020 A 
ATOM      9  C   UNL     1      24.006   2.889 -21.410  1.00  0.00     0.047 A 
ATOM     10  C   UNL     1      24.787   3.929 -21.929  1.00  0.00     0.125 A 
ATOM     11  C   UNL     1      25.859   4.456 -21.174  1.00  0.00     0.069 A 
ENDROOT
BRANCH   1  12
ATOM     12  C   UNL     1      27.001   2.481 -15.978  1.00  0.00    -0.011 A 
ATOM     13  C   UNL     1      27.733   1.293 -15.803  1.00  0.00     0.013 A 
ATOM     14  C   UNL     1      28.069   0.852 -14.519  1.00  0.00     0.047 A 
ATOM     15  C   UNL     1      27.682   1.591 -13.397  1.00  0.00     0.115 A 
ATOM     16  C   UNL     1      26.621   3.223 -14.845  1.00  0.00     0.013 A 
ATOM     17  C   UNL     1      26.958   2.778 -13.563  1.00  0.00     0.047 A 
BRANCH  15  18
ATOM     18  O   UNL     1      28.023   1.138 -12.125  1.00  0.00    -0.508 OA
ATOM     19  H   UNL     1      27.783   1.665 -11.293  1.00  0.00     0.293 HD
ENDBRANCH  15  18
ENDBRANCH   1  12
BRANCH  11  20
ATOM     20  C   UNL     1      26.696   5.602 -21.725  1.00  0.00     0.188 C 
ATOM     21  C   UNL     1      26.173   6.956 -21.175  1.00  0.00     0.179 C 
ATOM     22  O   UNL     1      28.055   5.397 -21.368  1.00  0.00    -0.362 OA
ATOM     23  C   UNL     1      27.073   8.111 -21.651  1.00  0.00     0.177 C 
ATOM     24  C   UNL     1      28.884   6.397 -21.938  1.00  0.00     0.176 C 
ATOM     25  C   UNL     1      28.549   7.786 -21.349  1.00  0.00     0.177 C 
BRANCH  21  26
ATOM     26  O   UNL     1      24.838   7.178 -21.559  1.00  0.00    -0.387 OA
ATOM     27  H   UNL     1      24.397   6.292 -21.646  1.00  0.00     0.211 HD
ENDBRANCH  21  26
BRANCH  23  28
ATOM     28  O   UNL     1      26.688   9.300 -21.012  1.00  0.00    -0.387 OA
ATOM     29  H   UNL     1      25.812   9.563 -21.402  1.00  0.00     0.211 HD
ENDBRANCH  23  28
BRANCH  24  30
ATOM     30  C   UNL     1      30.356   6.020 -21.713  1.00  0.00     0.191 C 
BRANCH  30  31
ATOM     31  O   UNL     1      31.125   7.161 -21.446  1.00  0.00    -0.394 OA
ATOM     32  H   UNL     1      30.755   7.553 -20.614  1.00  0.00     0.210 HD
ENDBRANCH  30  31
ENDBRANCH  24  30
BRANCH  25  33
ATOM     33  O   UNL     1      28.771   7.788 -19.961  1.00  0.00    -0.388 OA
ATOM     34  H   UNL     1      29.032   6.865 -19.707  1.00  0.00     0.211 HD
ENDBRANCH  25  33
ENDBRANCH  11  20
BRANCH  10  35
ATOM     35  O   UNL     1      24.493   4.441 -23.193  1.00  0.00    -0.507 OA
ATOM     36  H   UNL     1      24.438   3.843 -24.010  1.00  0.00     0.293 HD
ENDBRANCH  10  35
TORSDOF 9
ENDMDL
MODEL 9
REMARK VINA RESULT:    -6.682      3.832      8.374
REMARK INTER + INTRA:          -9.755
REMARK INTER:                  -9.152
REMARK INTRA:                  -0.602
REMARK UNBOUND:                -0.729
REMARK SMILES O=c1c(-c2ccc(O)cc2)coc2c([C@@H]3O[C@H](CO)[C@H](O)[C@H](O)[C@H]3O)c(O)ccc12
REMARK SMILES IDX 3 1 11 2 12 3 13 4 30 5 2 6 1 7 29 8 28 9 26 10 14 11 4 12
REMARK SMILES IDX 5 13 6 14 7 15 10 16 9 17 8 18 15 20 24 21 16 22 22 23 17 24
REMARK SMILES IDX 20 25 25 26 23 28 18 30 19 31 21 33 27 35
REMARK H PARENT 8 19 25 27 23 29 19 32 21 34 27 36
REMARK Flexibility Score: inf
ROOT
ATOM      1  C   UNL     1      27.152   6.845 -20.778  1.00  0.00     0.065 A 
ATOM      2  C   UNL     1      26.481   6.487 -19.600  1.00  0.00     0.208 A 
ATOM      3  O   UNL     1      26.954   5.534 -18.808  1.00  0.00    -0.463 OA
ATOM      4  C   UNL     1      28.075   4.863 -19.065  1.00  0.00     0.147 A 
ATOM      5  C   UNL     1      28.821   5.166 -20.228  1.00  0.00     0.066 A 
ATOM      6  C   UNL     1      28.349   6.174 -21.088  1.00  0.00     0.200 A 
ATOM      7  O   UNL     1      29.005   6.490 -22.120  1.00  0.00    -0.288 OA
ATOM      8  C   UNL     1      30.010   4.468 -20.489  1.00  0.00     0.020 A 
ATOM      9  C   UNL     1      30.457   3.487 -19.605  1.00  0.00     0.047 A 
ATOM     10  C   UNL     1      29.727   3.180 -18.451  1.00  0.00     0.125 A 
ATOM     11  C   UNL     1      28.517   3.854 -18.175  1.00  0.00     0.069 A 
ENDROOT
BRANCH   1  12
ATOM     12  C   UNL     1      26.597   7.909 -21.652  1.00  0.00    -0.011 A 
ATOM     13  C   UNL     1      25.667   7.596 -22.659  1.00  0.00     0.013 A 
ATOM     14  C   UNL     1      25.140   8.604 -23.472  1.00  0.00     0.047 A 
ATOM     15  C   UNL     1      25.531   9.934 -23.289  1.00  0.00     0.115 A 
ATOM     16  C   UNL     1      26.980   9.249 -21.468  1.00  0.00     0.013 A 
ATOM     17  C   UNL     1      26.452  10.255 -22.283  1.00  0.00     0.047 A 
BRANCH  15  18
ATOM     18  O   UNL     1      24.998  10.927 -24.108  1.00  0.00    -0.508 OA
ATOM     19  H   UNL     1      24.629  10.713 -25.027  1.00  0.00     0.293 HD
ENDBRANCH  15  18
ENDBRANCH   1  12
BRANCH  11  20
ATOM     20  C   UNL     1      27.731   3.539 -16.911  1.00  0.00     0.188 C 
ATOM     21  C   UNL     1      26.524   2.623 -17.248  1.00  0.00     0.179 C 
ATOM     22  O   UNL     1      28.595   2.920 -15.969  1.00  0.00    -0.362 OA
ATOM     23  C   UNL     1      25.780   2.221 -15.960  1.00  0.00     0.177 C 
ATOM     24  C   UNL     1      27.924   2.690 -14.741  1.00  0.00     0.176 C 
ATOM     25  C   UNL     1      26.780   1.667 -14.926  1.00  0.00     0.177 C 
BRANCH  21  26
ATOM     26  O   UNL     1      25.648   3.250 -18.152  1.00  0.00    -0.387 OA
ATOM     27  H   UNL     1      24.854   2.662 -18.261  1.00  0.00     0.211 HD
ENDBRANCH  21  26
BRANCH  23  28
ATOM     28  O   UNL     1      24.800   1.264 -16.264  1.00  0.00    -0.387 OA
ATOM     29  H   UNL     1      24.047   1.417 -15.634  1.00  0.00     0.211 HD
ENDBRANCH  23  28
BRANCH  24  30
ATOM     30  C   UNL     1      28.942   2.225 -13.690  1.00  0.00     0.191 C 
BRANCH  30  31
ATOM     31  O   UNL     1      30.246   2.279 -14.205  1.00  0.00    -0.394 OA
ATOM     32  H   UNL     1      30.834   1.897 -13.504  1.00  0.00     0.210 HD
ENDBRANCH  30  31
ENDBRANCH  24  30
BRANCH  25  33
ATOM     33  O   UNL     1      27.298   0.437 -15.367  1.00  0.00    -0.388 OA
ATOM     34  H   UNL     1      26.569  -0.027 -15.856  1.00  0.00     0.211 HD
ENDBRANCH  25  33
ENDBRANCH  11  20
BRANCH  10  35
ATOM     35  O   UNL     1      30.209   2.206 -17.576  1.00  0.00    -0.507 OA
ATOM     36  H   UNL     1      29.672   1.901 -16.771  1.00  0.00     0.293 HD
ENDBRANCH  10  35
TORSDOF 9
ENDMDL
