MODEL 1
REMARK VINA RESULT:    -7.575      0.000      0.000
REMARK INTER + INTRA:          -9.500
REMARK INTER:                  -9.125
REMARK INTRA:                  -0.375
REMARK UNBOUND:                -0.375
REMARK SMILES Oc1cc(O)c2c(c1)O[C@@H](c1ccc(O)c(O)c1)[C@H](O)C2
REMARK SMILES IDX 21 1 19 2 10 3 9 4 7 5 8 6 2 7 3 8 4 9 6 10 20 11 11 13
REMARK SMILES IDX 18 14 12 15 16 16 13 17 14 18 17 19 15 21 5 23 1 25
REMARK H PARENT 20 12 17 20 15 22 5 24 1 26
REMARK Flexibility Score: inf
ROOT
ATOM      1  C   UNL     1      18.272  90.489 113.052  1.00  0.00     0.079 C 
ATOM      2  C   UNL     1      18.353  91.993 113.375  1.00  0.00     0.164 C 
ATOM      3  C   UNL     1      18.093  92.227 114.879  1.00  0.00     0.232 C 
ATOM      4  O   UNL     1      19.009  91.456 115.658  1.00  0.00    -0.482 OA
ATOM      5  C   UNL     1      19.430  90.177 115.277  1.00  0.00     0.131 A 
ATOM      6  C   UNL     1      20.190  89.414 116.169  1.00  0.00     0.093 A 
ATOM      7  C   UNL     1      20.622  88.134 115.811  1.00  0.00     0.122 A 
ATOM      8  C   UNL     1      20.289  87.613 114.553  1.00  0.00     0.092 A 
ATOM      9  C   UNL     1      19.532  88.370 113.649  1.00  0.00     0.126 A 
ATOM     10  C   UNL     1      19.115  89.668 114.000  1.00  0.00     0.039 A 
ENDROOT
BRANCH   2  11
ATOM     11  O   UNL     1      17.448  92.719 112.579  1.00  0.00    -0.389 OA
ATOM     12  H   UNL     1      16.701  93.013 113.163  1.00  0.00     0.211 HD
ENDBRANCH   2  11
BRANCH   3  13
ATOM     13  C   UNL     1      18.227  93.689 115.233  1.00  0.00    -0.001 A 
ATOM     14  C   UNL     1      19.444  94.359 115.027  1.00  0.00     0.057 A 
ATOM     15  C   UNL     1      17.157  94.382 115.820  1.00  0.00     0.012 A 
ATOM     16  C   UNL     1      19.591  95.706 115.379  1.00  0.00     0.157 A 
ATOM     17  C   UNL     1      17.295  95.725 116.172  1.00  0.00     0.050 A 
ATOM     18  C   UNL     1      18.501  96.399 115.956  1.00  0.00     0.157 A 
BRANCH  16  19
ATOM     19  O   UNL     1      20.828  96.310 115.141  1.00  0.00    -0.504 OA
ATOM     20  H   UNL     1      21.553  96.406 115.837  1.00  0.00     0.293 HD
ENDBRANCH  16  19
BRANCH  18  21
ATOM     21  O   UNL     1      18.573  97.743 116.327  1.00  0.00    -0.504 OA
ATOM     22  H   UNL     1      17.988  98.167 117.033  1.00  0.00     0.293 HD
ENDBRANCH  18  21
ENDBRANCH   3  13
BRANCH   9  23
ATOM     23  O   UNL     1      19.194  87.838 112.405  1.00  0.00    -0.507 OA
ATOM     24  H   UNL     1      18.438  88.222 111.852  1.00  0.00     0.293 HD
ENDBRANCH   9  23
BRANCH   7  25
ATOM     25  O   UNL     1      21.376  87.386 116.713  1.00  0.00    -0.508 OA
ATOM     26  H   UNL     1      22.103  86.753 116.398  1.00  0.00     0.293 HD
ENDBRANCH   7  25
TORSDOF 6
ENDMDL
MODEL 2
REMARK VINA RESULT:    -7.553      3.065      5.899
REMARK INTER + INTRA:          -9.473
REMARK INTER:                  -9.195
REMARK INTRA:                  -0.278
REMARK UNBOUND:                -0.375
REMARK SMILES Oc1cc(O)c2c(c1)O[C@@H](c1ccc(O)c(O)c1)[C@H](O)C2
REMARK SMILES IDX 21 1 19 2 10 3 9 4 7 5 8 6 2 7 3 8 4 9 6 10 20 11 11 13
REMARK SMILES IDX 18 14 12 15 16 16 13 17 14 18 17 19 15 21 5 23 1 25
REMARK H PARENT 20 12 17 20 15 22 5 24 1 26
REMARK Flexibility Score: inf
ROOT
ATOM      1  C   UNL     1      16.296  91.988 112.475  1.00  0.00     0.079 C 
ATOM      2  C   UNL     1      17.559  91.683 113.301  1.00  0.00     0.164 C 
ATOM      3  C   UNL     1      17.205  90.757 114.486  1.00  0.00     0.232 C 
ATOM      4  O   UNL     1      16.572  89.570 114.005  1.00  0.00    -0.482 OA
ATOM      5  C   UNL     1      15.692  89.574 112.917  1.00  0.00     0.131 A 
ATOM      6  C   UNL     1      14.979  88.411 112.610  1.00  0.00     0.093 A 
ATOM      7  C   UNL     1      14.095  88.391 111.528  1.00  0.00     0.122 A 
ATOM      8  C   UNL     1      13.921  89.543 110.750  1.00  0.00     0.092 A 
ATOM      9  C   UNL     1      14.634  90.713 111.044  1.00  0.00     0.126 A 
ATOM     10  C   UNL     1      15.541  90.728 112.121  1.00  0.00     0.039 A 
ENDROOT
BRANCH   2  11
ATOM     11  O   UNL     1      18.161  92.874 113.743  1.00  0.00    -0.389 OA
ATOM     12  H   UNL     1      18.670  92.666 114.570  1.00  0.00     0.211 HD
ENDBRANCH   2  11
BRANCH   3  13
ATOM     13  C   UNL     1      18.438  90.392 115.278  1.00  0.00    -0.001 A 
ATOM     14  C   UNL     1      19.218  89.285 114.905  1.00  0.00     0.057 A 
ATOM     15  C   UNL     1      18.790  91.120 116.425  1.00  0.00     0.012 A 
ATOM     16  C   UNL     1      20.346  88.917 115.648  1.00  0.00     0.157 A 
ATOM     17  C   UNL     1      19.915  90.762 117.170  1.00  0.00     0.050 A 
ATOM     18  C   UNL     1      20.701  89.668 116.794  1.00  0.00     0.157 A 
BRANCH  16  19
ATOM     19  O   UNL     1      21.077  87.809 115.216  1.00  0.00    -0.504 OA
ATOM     20  H   UNL     1      21.712  87.287 115.803  1.00  0.00     0.293 HD
ENDBRANCH  16  19
BRANCH  18  21
ATOM     21  O   UNL     1      21.814  89.363 117.580  1.00  0.00    -0.504 OA
ATOM     22  H   UNL     1      21.842  89.465 118.584  1.00  0.00     0.293 HD
ENDBRANCH  18  21
ENDBRANCH   3  13
BRANCH   9  23
ATOM     23  O   UNL     1      14.443  91.859 110.273  1.00  0.00    -0.507 OA
ATOM     24  H   UNL     1      13.650  91.953 109.649  1.00  0.00     0.293 HD
ENDBRANCH   9  23
BRANCH   7  25
ATOM     25  O   UNL     1      13.390  87.224 111.238  1.00  0.00    -0.508 OA
ATOM     26  H   UNL     1      12.879  86.723 111.955  1.00  0.00     0.293 HD
ENDBRANCH   7  25
TORSDOF 6
ENDMDL
MODEL 3
REMARK VINA RESULT:    -7.535      4.674      6.440
REMARK INTER + INTRA:          -9.452
REMARK INTER:                  -9.141
REMARK INTRA:                  -0.311
REMARK UNBOUND:                -0.375
REMARK SMILES Oc1cc(O)c2c(c1)O[C@@H](c1ccc(O)c(O)c1)[C@H](O)C2
REMARK SMILES IDX 21 1 19 2 10 3 9 4 7 5 8 6 2 7 3 8 4 9 6 10 20 11 11 13
REMARK SMILES IDX 18 14 12 15 16 16 13 17 14 18 17 19 15 21 5 23 1 25
REMARK H PARENT 20 12 17 20 15 22 5 24 1 26
REMARK Flexibility Score: inf
ROOT
ATOM      1  C   UNL     1      18.674  88.687 114.799  1.00  0.00     0.079 C 
ATOM      2  C   UNL     1      17.315  88.802 114.083  1.00  0.00     0.164 C 
ATOM      3  C   UNL     1      17.508  89.412 112.677  1.00  0.00     0.232 C 
ATOM      4  O   UNL     1      18.448  88.636 111.933  1.00  0.00    -0.482 OA
ATOM      5  C   UNL     1      19.567  88.039 112.525  1.00  0.00     0.131 A 
ATOM      6  C   UNL     1      20.533  87.440 111.711  1.00  0.00     0.093 A 
ATOM      7  C   UNL     1      21.658  86.837 112.279  1.00  0.00     0.122 A 
ATOM      8  C   UNL     1      21.820  86.835 113.671  1.00  0.00     0.092 A 
ATOM      9  C   UNL     1      20.855  87.427 114.498  1.00  0.00     0.126 A 
ATOM     10  C   UNL     1      19.710  88.016 113.928  1.00  0.00     0.039 A 
ENDROOT
BRANCH   2  11
ATOM     11  O   UNL     1      16.413  89.559 114.852  1.00  0.00    -0.389 OA
ATOM     12  H   UNL     1      15.496  89.341 114.543  1.00  0.00     0.211 HD
ENDBRANCH   2  11
BRANCH   3  13
ATOM     13  C   UNL     1      16.198  89.479 111.930  1.00  0.00    -0.001 A 
ATOM     14  C   UNL     1      15.346  88.364 111.891  1.00  0.00     0.057 A 
ATOM     15  C   UNL     1      15.838  90.637 111.222  1.00  0.00     0.012 A 
ATOM     16  C   UNL     1      14.142  88.402 111.177  1.00  0.00     0.157 A 
ATOM     17  C   UNL     1      14.640  90.685 110.509  1.00  0.00     0.050 A 
ATOM     18  C   UNL     1      13.783  89.580 110.479  1.00  0.00     0.157 A 
BRANCH  16  19
ATOM     19  O   UNL     1      13.343  87.257 111.186  1.00  0.00    -0.504 OA
ATOM     20  H   UNL     1      12.704  87.020 111.932  1.00  0.00     0.293 HD
ENDBRANCH  16  19
BRANCH  18  21
ATOM     21  O   UNL     1      12.597  89.692 109.750  1.00  0.00    -0.504 OA
ATOM     22  H   UNL     1      11.685  89.807 110.168  1.00  0.00     0.293 HD
ENDBRANCH  18  21
ENDBRANCH   3  13
BRANCH   9  23
ATOM     23  O   UNL     1      21.031  87.433 115.881  1.00  0.00    -0.507 OA
ATOM     24  H   UNL     1      21.861  87.044 116.312  1.00  0.00     0.293 HD
ENDBRANCH   9  23
BRANCH   7  25
ATOM     25  O   UNL     1      22.613  86.247 111.453  1.00  0.00    -0.508 OA
ATOM     26  H   UNL     1      22.347  85.726 110.625  1.00  0.00     0.293 HD
ENDBRANCH   7  25
TORSDOF 6
ENDMDL
MODEL 4
REMARK VINA RESULT:    -7.511      3.466      7.528
REMARK INTER + INTRA:          -9.424
REMARK INTER:                  -9.199
REMARK INTRA:                  -0.225
REMARK UNBOUND:                -0.375
REMARK SMILES Oc1cc(O)c2c(c1)O[C@@H](c1ccc(O)c(O)c1)[C@H](O)C2
REMARK SMILES IDX 21 1 19 2 10 3 9 4 7 5 8 6 2 7 3 8 4 9 6 10 20 11 11 13
REMARK SMILES IDX 18 14 12 15 16 16 13 17 14 18 17 19 15 21 5 23 1 25
REMARK H PARENT 20 12 17 20 15 22 5 24 1 26
REMARK Flexibility Score: inf
ROOT
ATOM      1  C   UNL     1      17.364  91.110 114.026  1.00  0.00     0.079 C 
ATOM      2  C   UNL     1      18.679  90.338 113.809  1.00  0.00     0.164 C 
ATOM      3  C   UNL     1      18.376  88.871 113.437  1.00  0.00     0.232 C 
ATOM      4  O   UNL     1      17.525  88.823 112.291  1.00  0.00    -0.482 OA
ATOM      5  C   UNL     1      16.506  89.757 112.071  1.00  0.00     0.131 A 
ATOM      6  C   UNL     1      15.605  89.552 111.022  1.00  0.00     0.093 A 
ATOM      7  C   UNL     1      14.580  90.471 110.782  1.00  0.00     0.122 A 
ATOM      8  C   UNL     1      14.454  91.602 111.599  1.00  0.00     0.092 A 
ATOM      9  C   UNL     1      15.355  91.822 112.651  1.00  0.00     0.126 A 
ATOM     10  C   UNL     1      16.401  90.908 112.879  1.00  0.00     0.039 A 
ENDROOT
BRANCH   2  11
ATOM     11  O   UNL     1      19.495  90.421 114.951  1.00  0.00    -0.389 OA
ATOM     12  H   UNL     1      19.806  91.360 115.033  1.00  0.00     0.211 HD
ENDBRANCH   2  11
BRANCH   3  13
ATOM     13  C   UNL     1      19.648  88.106 113.158  1.00  0.00    -0.001 A 
ATOM     14  C   UNL     1      20.150  88.018 111.850  1.00  0.00     0.057 A 
ATOM     15  C   UNL     1      20.317  87.433 114.192  1.00  0.00     0.012 A 
ATOM     16  C   UNL     1      21.312  87.289 111.572  1.00  0.00     0.157 A 
ATOM     17  C   UNL     1      21.477  86.704 113.925  1.00  0.00     0.050 A 
ATOM     18  C   UNL     1      21.987  86.625 112.624  1.00  0.00     0.157 A 
BRANCH  16  19
ATOM     19  O   UNL     1      21.755  87.248 110.248  1.00  0.00    -0.504 OA
ATOM     20  H   UNL     1      21.163  87.028 109.461  1.00  0.00     0.293 HD
ENDBRANCH  16  19
BRANCH  18  21
ATOM     21  O   UNL     1      23.152  85.883 112.424  1.00  0.00    -0.504 OA
ATOM     22  H   UNL     1      23.208  85.065 111.835  1.00  0.00     0.293 HD
ENDBRANCH  18  21
ENDBRANCH   3  13
BRANCH   9  23
ATOM     23  O   UNL     1      15.213  92.943 113.467  1.00  0.00    -0.507 OA
ATOM     24  H   UNL     1      15.995  93.555 113.669  1.00  0.00     0.293 HD
ENDBRANCH   9  23
BRANCH   7  25
ATOM     25  O   UNL     1      13.689  90.248 109.734  1.00  0.00    -0.508 OA
ATOM     26  H   UNL     1      13.713  89.393 109.192  1.00  0.00     0.293 HD
ENDBRANCH   7  25
TORSDOF 6
ENDMDL
MODEL 5
REMARK VINA RESULT:    -7.488      2.846      5.732
REMARK INTER + INTRA:          -9.396
REMARK INTER:                  -9.137
REMARK INTRA:                  -0.259
REMARK UNBOUND:                -0.375
REMARK SMILES Oc1cc(O)c2c(c1)O[C@@H](c1ccc(O)c(O)c1)[C@H](O)C2
REMARK SMILES IDX 21 1 19 2 10 3 9 4 7 5 8 6 2 7 3 8 4 9 6 10 20 11 11 13
REMARK SMILES IDX 18 14 12 15 16 16 13 17 14 18 17 19 15 21 5 23 1 25
REMARK H PARENT 20 12 17 20 15 22 5 24 1 26
REMARK Flexibility Score: inf
ROOT
ATOM      1  C   UNL     1      17.743  92.160 116.052  1.00  0.00     0.079 C 
ATOM      2  C   UNL     1      16.646  91.663 115.093  1.00  0.00     0.164 C 
ATOM      3  C   UNL     1      17.286  90.990 113.859  1.00  0.00     0.232 C 
ATOM      4  O   UNL     1      18.159  89.938 114.274  1.00  0.00    -0.482 OA
ATOM      5  C   UNL     1      18.944  90.024 115.430  1.00  0.00     0.131 A 
ATOM      6  C   UNL     1      19.899  89.035 115.683  1.00  0.00     0.093 A 
ATOM      7  C   UNL     1      20.694  89.099 116.830  1.00  0.00     0.122 A 
ATOM      8  C   UNL     1      20.535  90.162 117.729  1.00  0.00     0.092 A 
ATOM      9  C   UNL     1      19.577  91.157 117.489  1.00  0.00     0.126 A 
ATOM     10  C   UNL     1      18.760  91.081 116.345  1.00  0.00     0.039 A 
ENDROOT
BRANCH   2  11
ATOM     11  O   UNL     1      15.799  92.721 114.719  1.00  0.00    -0.389 OA
ATOM     12  H   UNL     1      16.273  93.571 114.915  1.00  0.00     0.211 HD
ENDBRANCH   2  11
BRANCH   3  13
ATOM     13  C   UNL     1      16.230  90.438 112.931  1.00  0.00    -0.001 A 
ATOM     14  C   UNL     1      15.771  91.202 111.846  1.00  0.00     0.057 A 
ATOM     15  C   UNL     1      15.657  89.180 113.169  1.00  0.00     0.012 A 
ATOM     16  C   UNL     1      14.772  90.716 110.994  1.00  0.00     0.157 A 
ATOM     17  C   UNL     1      14.661  88.686 112.325  1.00  0.00     0.050 A 
ATOM     18  C   UNL     1      14.211  89.439 111.236  1.00  0.00     0.157 A 
BRANCH  16  19
ATOM     19  O   UNL     1      14.368  91.528 109.933  1.00  0.00    -0.504 OA
ATOM     20  H   UNL     1      14.995  92.114 109.400  1.00  0.00     0.293 HD
ENDBRANCH  16  19
BRANCH  18  21
ATOM     21  O   UNL     1      13.215  88.887 110.428  1.00  0.00    -0.504 OA
ATOM     22  H   UNL     1      12.261  89.217 110.402  1.00  0.00     0.293 HD
ENDBRANCH  18  21
ENDBRANCH   3  13
BRANCH   9  23
ATOM     23  O   UNL     1      19.435  92.218 118.383  1.00  0.00    -0.507 OA
ATOM     24  H   UNL     1      18.604  92.325 118.952  1.00  0.00     0.293 HD
ENDBRANCH   9  23
BRANCH   7  25
ATOM     25  O   UNL     1      21.643  88.106 117.064  1.00  0.00    -0.508 OA
ATOM     26  H   UNL     1      22.136  87.654 116.303  1.00  0.00     0.293 HD
ENDBRANCH   7  25
TORSDOF 6
ENDMDL
MODEL 6
REMARK VINA RESULT:    -7.378      2.968      5.666
REMARK INTER + INTRA:          -9.263
REMARK INTER:                  -8.883
REMARK INTRA:                  -0.380
REMARK UNBOUND:                -0.375
REMARK SMILES Oc1cc(O)c2c(c1)O[C@@H](c1ccc(O)c(O)c1)[C@H](O)C2
REMARK SMILES IDX 21 1 19 2 10 3 9 4 7 5 8 6 2 7 3 8 4 9 6 10 20 11 11 13
REMARK SMILES IDX 18 14 12 15 16 16 13 17 14 18 17 19 15 21 5 23 1 25
REMARK H PARENT 20 12 17 20 15 22 5 24 1 26
REMARK Flexibility Score: inf
ROOT
ATOM      1  C   UNL     1      17.479  93.074 113.968  1.00  0.00     0.079 C 
ATOM      2  C   UNL     1      18.705  92.522 114.719  1.00  0.00     0.164 C 
ATOM      3  C   UNL     1      18.373  92.343 116.216  1.00  0.00     0.232 C 
ATOM      4  O   UNL     1      17.225  91.505 116.364  1.00  0.00    -0.482 OA
ATOM      5  C   UNL     1      16.146  91.543 115.474  1.00  0.00     0.131 A 
ATOM      6  C   UNL     1      14.987  90.822 115.775  1.00  0.00     0.093 A 
ATOM      7  C   UNL     1      13.896  90.844 114.901  1.00  0.00     0.122 A 
ATOM      8  C   UNL     1      13.965  91.595 113.720  1.00  0.00     0.092 A 
ATOM      9  C   UNL     1      15.125  92.317 113.405  1.00  0.00     0.126 A 
ATOM     10  C   UNL     1      16.232  92.278 114.274  1.00  0.00     0.039 A 
ENDROOT
BRANCH   2  11
ATOM     11  O   UNL     1      19.817  93.365 114.537  1.00  0.00    -0.389 OA
ATOM     12  H   UNL     1      20.224  93.524 115.429  1.00  0.00     0.211 HD
ENDBRANCH   2  11
BRANCH   3  13
ATOM     13  C   UNL     1      19.540  91.744 116.964  1.00  0.00    -0.001 A 
ATOM     14  C   UNL     1      19.982  90.445 116.667  1.00  0.00     0.057 A 
ATOM     15  C   UNL     1      20.165  92.457 117.999  1.00  0.00     0.012 A 
ATOM     16  C   UNL     1      21.044  89.866 117.372  1.00  0.00     0.157 A 
ATOM     17  C   UNL     1      21.225  91.889 118.707  1.00  0.00     0.050 A 
ATOM     18  C   UNL     1      21.676  90.599 118.405  1.00  0.00     0.157 A 
BRANCH  16  19
ATOM     19  O   UNL     1      21.432  88.572 117.019  1.00  0.00    -0.504 OA
ATOM     20  H   UNL     1      21.919  87.940 117.638  1.00  0.00     0.293 HD
ENDBRANCH  16  19
BRANCH  18  21
ATOM     21  O   UNL     1      22.743  90.090 119.147  1.00  0.00    -0.504 OA
ATOM     22  H   UNL     1      22.727  89.198 119.622  1.00  0.00     0.293 HD
ENDBRANCH  18  21
ENDBRANCH   3  13
BRANCH   9  23
ATOM     23  O   UNL     1      15.179  93.072 112.234  1.00  0.00    -0.507 OA
ATOM     24  H   UNL     1      14.486  92.968 111.502  1.00  0.00     0.293 HD
ENDBRANCH   9  23
BRANCH   7  25
ATOM     25  O   UNL     1      12.747  90.122 115.218  1.00  0.00    -0.508 OA
ATOM     26  H   UNL     1      12.401  90.069 116.169  1.00  0.00     0.293 HD
ENDBRANCH   7  25
TORSDOF 6
ENDMDL
MODEL 7
REMARK VINA RESULT:    -7.374      2.800      5.912
REMARK INTER + INTRA:          -9.258
REMARK INTER:                  -9.587
REMARK INTRA:                   0.329
REMARK UNBOUND:                -0.375
REMARK SMILES Oc1cc(O)c2c(c1)O[C@@H](c1ccc(O)c(O)c1)[C@H](O)C2
REMARK SMILES IDX 21 1 19 2 10 3 9 4 7 5 8 6 2 7 3 8 4 9 6 10 20 11 11 13
REMARK SMILES IDX 18 14 12 15 16 16 13 17 14 18 17 19 15 21 5 23 1 25
REMARK H PARENT 20 12 17 20 15 22 5 24 1 26
REMARK Flexibility Score: inf
ROOT
ATOM      1  C   UNL     1      18.683  88.969 115.714  1.00  0.00     0.079 C 
ATOM      2  C   UNL     1      17.840  89.001 114.425  1.00  0.00     0.164 C 
ATOM      3  C   UNL     1      16.846  90.182 114.472  1.00  0.00     0.232 C 
ATOM      4  O   UNL     1      17.551  91.406 114.689  1.00  0.00    -0.482 OA
ATOM      5  C   UNL     1      18.676  91.489 115.517  1.00  0.00     0.131 A 
ATOM      6  C   UNL     1      19.212  92.745 115.817  1.00  0.00     0.093 A 
ATOM      7  C   UNL     1      20.335  92.853 116.641  1.00  0.00     0.122 A 
ATOM      8  C   UNL     1      20.926  91.698 117.170  1.00  0.00     0.092 A 
ATOM      9  C   UNL     1      20.401  90.433 116.871  1.00  0.00     0.126 A 
ATOM     10  C   UNL     1      19.282  90.321 116.023  1.00  0.00     0.039 A 
ENDROOT
BRANCH   2  11
ATOM     11  O   UNL     1      17.173  87.777 114.239  1.00  0.00    -0.389 OA
ATOM     12  H   UNL     1      16.482  87.699 114.947  1.00  0.00     0.211 HD
ENDBRANCH   2  11
BRANCH   3  13
ATOM     13  C   UNL     1      16.048  90.273 113.193  1.00  0.00    -0.001 A 
ATOM     14  C   UNL     1      16.145  89.262 112.224  1.00  0.00     0.057 A 
ATOM     15  C   UNL     1      15.241  91.391 112.934  1.00  0.00     0.012 A 
ATOM     16  C   UNL     1      15.435  89.348 111.021  1.00  0.00     0.157 A 
ATOM     17  C   UNL     1      14.527  91.485 111.738  1.00  0.00     0.050 A 
ATOM     18  C   UNL     1      14.612  90.473 110.776  1.00  0.00     0.157 A 
BRANCH  16  19
ATOM     19  O   UNL     1      15.576  88.303 110.105  1.00  0.00    -0.504 OA
ATOM     20  H   UNL     1      15.088  88.256 109.222  1.00  0.00     0.293 HD
ENDBRANCH  16  19
BRANCH  18  21
ATOM     21  O   UNL     1      13.871  90.625 109.602  1.00  0.00    -0.504 OA
ATOM     22  H   UNL     1      13.242  91.395 109.426  1.00  0.00     0.293 HD
ENDBRANCH  18  21
ENDBRANCH   3  13
BRANCH   9  23
ATOM     23  O   UNL     1      20.987  89.289 117.412  1.00  0.00    -0.507 OA
ATOM     24  H   UNL     1      21.162  89.203 118.406  1.00  0.00     0.293 HD
ENDBRANCH   9  23
BRANCH   7  25
ATOM     25  O   UNL     1      20.854  94.114 116.933  1.00  0.00    -0.508 OA
ATOM     26  H   UNL     1      20.251  94.889 117.182  1.00  0.00     0.293 HD
ENDBRANCH   7  25
TORSDOF 6
ENDMDL
MODEL 8
REMARK VINA RESULT:    -7.336      1.495      6.848
REMARK INTER + INTRA:          -9.212
REMARK INTER:                  -8.841
REMARK INTRA:                  -0.371
REMARK UNBOUND:                -0.375
REMARK SMILES Oc1cc(O)c2c(c1)O[C@@H](c1ccc(O)c(O)c1)[C@H](O)C2
REMARK SMILES IDX 21 1 19 2 10 3 9 4 7 5 8 6 2 7 3 8 4 9 6 10 20 11 11 13
REMARK SMILES IDX 18 14 12 15 16 16 13 17 14 18 17 19 15 21 5 23 1 25
REMARK H PARENT 20 12 17 20 15 22 5 24 1 26
REMARK Flexibility Score: inf
ROOT
ATOM      1  C   UNL     1      16.111  92.838 115.970  1.00  0.00     0.079 C 
ATOM      2  C   UNL     1      16.959  91.555 116.046  1.00  0.00     0.164 C 
ATOM      3  C   UNL     1      18.086  91.602 114.991  1.00  0.00     0.232 C 
ATOM      4  O   UNL     1      18.872  92.782 115.169  1.00  0.00    -0.482 OA
ATOM      5  C   UNL     1      18.315  94.005 115.559  1.00  0.00     0.131 A 
ATOM      6  C   UNL     1      19.112  95.153 115.548  1.00  0.00     0.093 A 
ATOM      7  C   UNL     1      18.579  96.386 115.934  1.00  0.00     0.122 A 
ATOM      8  C   UNL     1      17.238  96.471 116.332  1.00  0.00     0.092 A 
ATOM      9  C   UNL     1      16.430  95.325 116.353  1.00  0.00     0.126 A 
ATOM     10  C   UNL     1      16.972  94.079 115.984  1.00  0.00     0.039 A 
ENDROOT
BRANCH   2  11
ATOM     11  O   UNL     1      16.149  90.416 115.881  1.00  0.00    -0.389 OA
ATOM     12  H   UNL     1      15.335  90.542 116.436  1.00  0.00     0.211 HD
ENDBRANCH   2  11
BRANCH   3  13
ATOM     13  C   UNL     1      18.970  90.382 115.085  1.00  0.00    -0.001 A 
ATOM     14  C   UNL     1      19.845  90.222 116.171  1.00  0.00     0.057 A 
ATOM     15  C   UNL     1      18.967  89.418 114.064  1.00  0.00     0.012 A 
ATOM     16  C   UNL     1      20.692  89.111 116.256  1.00  0.00     0.157 A 
ATOM     17  C   UNL     1      19.807  88.306 114.141  1.00  0.00     0.050 A 
ATOM     18  C   UNL     1      20.671  88.138 115.229  1.00  0.00     0.157 A 
BRANCH  16  19
ATOM     19  O   UNL     1      21.532  89.016 117.368  1.00  0.00    -0.504 OA
ATOM     20  H   UNL     1      22.181  89.737 117.649  1.00  0.00     0.293 HD
ENDBRANCH  16  19
BRANCH  18  21
ATOM     21  O   UNL     1      21.483  87.003 115.248  1.00  0.00    -0.504 OA
ATOM     22  H   UNL     1      21.574  86.360 114.475  1.00  0.00     0.293 HD
ENDBRANCH  18  21
ENDBRANCH   3  13
BRANCH   9  23
ATOM     23  O   UNL     1      15.093  95.422 116.737  1.00  0.00    -0.507 OA
ATOM     24  H   UNL     1      14.827  95.775 117.648  1.00  0.00     0.293 HD
ENDBRANCH   9  23
BRANCH   7  25
ATOM     25  O   UNL     1      19.387  97.521 115.913  1.00  0.00    -0.508 OA
ATOM     26  H   UNL     1      20.112  97.666 116.606  1.00  0.00     0.293 HD
ENDBRANCH   7  25
TORSDOF 6
ENDMDL
MODEL 9
REMARK VINA RESULT:    -7.202      3.320      5.527
REMARK INTER + INTRA:          -9.051
REMARK INTER:                  -9.223
REMARK INTRA:                   0.171
REMARK UNBOUND:                -0.375
REMARK SMILES Oc1cc(O)c2c(c1)O[C@@H](c1ccc(O)c(O)c1)[C@H](O)C2
REMARK SMILES IDX 21 1 19 2 10 3 9 4 7 5 8 6 2 7 3 8 4 9 6 10 20 11 11 13
REMARK SMILES IDX 18 14 12 15 16 16 13 17 14 18 17 19 15 21 5 23 1 25
REMARK H PARENT 20 12 17 20 15 22 5 24 1 26
REMARK Flexibility Score: inf
ROOT
ATOM      1  C   UNL     1      17.266  88.603 113.894  1.00  0.00     0.079 C 
ATOM      2  C   UNL     1      18.145  88.875 115.129  1.00  0.00     0.164 C 
ATOM      3  C   UNL     1      18.747  90.295 115.048  1.00  0.00     0.232 C 
ATOM      4  O   UNL     1      17.704  91.260 114.902  1.00  0.00    -0.482 OA
ATOM      5  C   UNL     1      16.551  91.015 114.146  1.00  0.00     0.131 A 
ATOM      6  C   UNL     1      15.656  92.061 113.907  1.00  0.00     0.093 A 
ATOM      7  C   UNL     1      14.498  91.840 113.156  1.00  0.00     0.122 A 
ATOM      8  C   UNL     1      14.236  90.564 112.639  1.00  0.00     0.092 A 
ATOM      9  C   UNL     1      15.124  89.506 112.877  1.00  0.00     0.126 A 
ATOM     10  C   UNL     1      16.280  89.722 113.652  1.00  0.00     0.039 A 
ENDROOT
BRANCH   2  11
ATOM     11  O   UNL     1      19.149  87.898 115.247  1.00  0.00    -0.389 OA
ATOM     12  H   UNL     1      18.742  87.019 115.026  1.00  0.00     0.211 HD
ENDBRANCH   2  11
BRANCH   3  13
ATOM     13  C   UNL     1      19.565  90.611 116.277  1.00  0.00    -0.001 A 
ATOM     14  C   UNL     1      20.674  89.818 116.613  1.00  0.00     0.057 A 
ATOM     15  C   UNL     1      19.198  91.665 117.127  1.00  0.00     0.012 A 
ATOM     16  C   UNL     1      21.424  90.081 117.765  1.00  0.00     0.157 A 
ATOM     17  C   UNL     1      19.940  91.936 118.277  1.00  0.00     0.050 A 
ATOM     18  C   UNL     1      21.054  91.156 118.607  1.00  0.00     0.157 A 
BRANCH  16  19
ATOM     19  O   UNL     1      22.518  89.255 118.034  1.00  0.00    -0.504 OA
ATOM     20  H   UNL     1      22.667  88.783 118.914  1.00  0.00     0.293 HD
ENDBRANCH  16  19
BRANCH  18  21
ATOM     21  O   UNL     1      21.756  91.480 119.770  1.00  0.00    -0.504 OA
ATOM     22  H   UNL     1      22.079  90.801 120.444  1.00  0.00     0.293 HD
ENDBRANCH  18  21
ENDBRANCH   3  13
BRANCH   9  23
ATOM     23  O   UNL     1      14.863  88.243 112.347  1.00  0.00    -0.507 OA
ATOM     24  H   UNL     1      15.194  87.974 111.428  1.00  0.00     0.293 HD
ENDBRANCH   9  23
BRANCH   7  25
ATOM     25  O   UNL     1      13.618  92.895 112.924  1.00  0.00    -0.508 OA
ATOM     26  H   UNL     1      12.698  92.920 113.350  1.00  0.00     0.293 HD
ENDBRANCH   7  25
TORSDOF 6
ENDMDL
