MODEL 1
REMARK VINA RESULT:    41.364      0.000      0.000
REMARK INTER + INTRA:          50.925
REMARK INTER:                  51.036
REMARK INTRA:                  -0.111
REMARK UNBOUND:                -0.111
REMARK SMILES COc1cc(-c2oc3cc(O)cc(O)c3c(=O)c2O)ccc1O
REMARK SMILES IDX 6 1 18 2 16 3 17 4 15 5 13 6 12 7 10 8 9 9 8 10 7 11 5 12
REMARK SMILES IDX 3 13 22 14 4 15 21 16 20 17 2 18 1 19 23 20 19 22 14 24
REMARK SMILES IDX 11 26
REMARK H PARENT 23 21 19 23 14 25 11 27
REMARK Flexibility Score: inf
ROOT
ATOM      1  C   UNL     1      10.882   1.512  18.504  1.00  0.00     0.180 A 
ATOM      2  C   UNL     1       9.964   0.458  18.653  1.00  0.00     0.208 A 
ATOM      3  C   UNL     1       9.545  -0.246  17.512  1.00  0.00     0.238 A 
ATOM      4  O   UNL     1       8.682  -1.153  17.644  1.00  0.00    -0.285 OA
ATOM      5  C   UNL     1      10.062   0.102  16.241  1.00  0.00     0.111 A 
ATOM      6  C   UNL     1       9.740  -0.570  15.023  1.00  0.00     0.134 A 
ATOM      7  C   UNL     1      10.208  -0.059  13.807  1.00  0.00     0.093 A 
ATOM      8  C   UNL     1      11.040   1.060  13.769  1.00  0.00     0.123 A 
ATOM      9  C   UNL     1      11.411   1.688  14.958  1.00  0.00     0.094 A 
ATOM     10  C   UNL     1      10.930   1.223  16.184  1.00  0.00     0.146 A 
ATOM     11  O   UNL     1      11.298   1.856  17.292  1.00  0.00    -0.452 OA
ENDROOT
BRANCH   1  12
ATOM     12  C   UNL     1      11.387   2.284  19.662  1.00  0.00     0.025 A 
ATOM     13  C   UNL     1      12.458   2.314  21.861  1.00  0.00     0.161 A 
ATOM     14  C   UNL     1      12.304   3.706  21.910  1.00  0.00     0.157 A 
ATOM     15  C   UNL     1      11.990   1.606  20.735  1.00  0.00     0.062 A 
ATOM     16  C   UNL     1      11.684   4.382  20.852  1.00  0.00     0.051 A 
ATOM     17  C   UNL     1      11.222   3.677  19.739  1.00  0.00     0.016 A 
BRANCH  13  18
ATOM     18  O   UNL     1      13.078   1.671  22.944  1.00  0.00    -0.493 OA
ATOM     19  C   UNL     1      13.125   0.258  23.124  1.00  0.00     0.278 C 
ENDBRANCH  13  18
BRANCH  14  20
ATOM     20  O   UNL     1      12.766   4.411  23.020  1.00  0.00    -0.504 OA
ATOM     21  H   UNL     1      13.698   4.807  23.046  1.00  0.00     0.293 HD
ENDBRANCH  14  20
ENDBRANCH   1  12
BRANCH   2  22
ATOM     22  O   UNL     1       9.449   0.146  19.914  1.00  0.00    -0.502 OA
ATOM     23  H   UNL     1       9.639  -0.735  20.377  1.00  0.00     0.293 HD
ENDBRANCH   2  22
BRANCH   6  24
ATOM     24  O   UNL     1       8.991  -1.749  14.957  1.00  0.00    -0.507 OA
ATOM     25  H   UNL     1       9.060  -2.433  14.220  1.00  0.00     0.293 HD
ENDBRANCH   6  24
BRANCH   8  26
ATOM     26  O   UNL     1      11.501   1.532  12.541  1.00  0.00    -0.508 OA
ATOM     27  H   UNL     1      11.586   0.921  11.737  1.00  0.00     0.293 HD
ENDBRANCH   8  26
TORSDOF 6
ENDMDL
