MODEL 1
REMARK VINA RESULT:    -3.767      0.000      0.000
REMARK INTER + INTRA:          -6.021
REMARK INTER:                  -5.309
REMARK INTRA:                  -0.712
REMARK UNBOUND:                -0.712
REMARK SMILES CCCCCCCCC(=O)[O-]
REMARK SMILES IDX 6 1 7 2 8 3 9 4 10 5 11 6 5 7 4 8 3 9 2 10 1 11
REMARK H PARENT
REMARK Flexibility Score: inf
ROOT
ATOM      1  C   UNL     1      -8.471 -36.523 -10.056  1.00  0.00     0.000 C 
ENDROOT
BRANCH   1   2
ATOM      2  C   UNL     1      -7.277 -37.424 -10.396  1.00  0.00     0.006 C 
BRANCH   2   3
ATOM      3  C   UNL     1      -7.081 -38.503  -9.327  1.00  0.00     0.053 C 
BRANCH   3   4
ATOM      4  C   UNL     1      -6.081 -39.518  -9.785  1.00  0.00     0.041 C 
ATOM      5  O   UNL     1      -5.098 -39.165 -10.489  1.00  0.00    -0.550 OA
ATOM      6  O   UNL     1      -6.259 -40.859  -9.474  1.00  0.00    -0.550 OA
ENDBRANCH   3   4
ENDBRANCH   2   3
ENDBRANCH   1   2
BRANCH   1   7
ATOM      7  C   UNL     1      -8.117 -35.042 -10.259  1.00  0.00     0.000 C 
BRANCH   7   8
ATOM      8  C   UNL     1      -6.606 -34.807 -10.417  1.00  0.00    -0.000 C 
BRANCH   8   9
ATOM      9  C   UNL     1      -5.993 -34.081  -9.207  1.00  0.00    -0.000 C 
BRANCH   9  10
ATOM     10  C   UNL     1      -5.324 -35.049  -8.218  1.00  0.00    -0.003 C 
ATOM     11  C   UNL     1      -4.223 -35.891  -8.863  1.00  0.00     0.004 C 
ENDBRANCH   9  10
ENDBRANCH   8   9
ENDBRANCH   7   8
ENDBRANCH   1   7
TORSDOF 7
ENDMDL
MODEL 2
REMARK VINA RESULT:    -3.690      1.388      2.800
REMARK INTER + INTRA:          -5.912
REMARK INTER:                  -5.323
REMARK INTRA:                  -0.589
REMARK UNBOUND:                -0.712
REMARK SMILES CCCCCCCCC(=O)[O-]
REMARK SMILES IDX 6 1 7 2 8 3 9 4 10 5 11 6 5 7 4 8 3 9 2 10 1 11
REMARK H PARENT
REMARK Flexibility Score: inf
ROOT
ATOM      1  C   UNL     1      -4.429 -36.465  -9.488  1.00  0.00     0.000 C 
ENDROOT
BRANCH   1   2
ATOM      2  C   UNL     1      -5.555 -37.501  -9.395  1.00  0.00     0.006 C 
BRANCH   2   3
ATOM      3  C   UNL     1      -5.224 -38.750 -10.218  1.00  0.00     0.053 C 
BRANCH   3   4
ATOM      4  C   UNL     1      -6.439 -39.239 -10.941  1.00  0.00     0.041 C 
ATOM      5  O   UNL     1      -7.349 -38.432 -11.267  1.00  0.00    -0.550 OA
ATOM      6  O   UNL     1      -6.589 -40.592 -11.212  1.00  0.00    -0.550 OA
ENDBRANCH   3   4
ENDBRANCH   2   3
ENDBRANCH   1   2
BRANCH   1   7
ATOM      7  C   UNL     1      -4.623 -35.348  -8.451  1.00  0.00     0.000 C 
BRANCH   7   8
ATOM      8  C   UNL     1      -6.103 -35.018  -8.202  1.00  0.00    -0.000 C 
BRANCH   8   9
ATOM      9  C   UNL     1      -6.615 -33.883  -9.105  1.00  0.00    -0.000 C 
BRANCH   9  10
ATOM     10  C   UNL     1      -7.460 -34.402 -10.279  1.00  0.00    -0.003 C 
ATOM     11  C   UNL     1      -8.545 -35.385  -9.841  1.00  0.00     0.004 C 
ENDBRANCH   9  10
ENDBRANCH   8   9
ENDBRANCH   7   8
ENDBRANCH   1   7
TORSDOF 7
ENDMDL
MODEL 3
REMARK VINA RESULT:    -3.644      1.626      2.822
REMARK INTER + INTRA:          -5.847
REMARK INTER:                  -5.476
REMARK INTRA:                  -0.372
REMARK UNBOUND:                -0.712
REMARK SMILES CCCCCCCCC(=O)[O-]
REMARK SMILES IDX 6 1 7 2 8 3 9 4 10 5 11 6 5 7 4 8 3 9 2 10 1 11
REMARK H PARENT
REMARK Flexibility Score: inf
ROOT
ATOM      1  C   UNL     1      -5.593 -37.467  -9.357  1.00  0.00     0.000 C 
ENDROOT
BRANCH   1   2
ATOM      2  C   UNL     1      -5.183 -38.692 -10.183  1.00  0.00     0.006 C 
BRANCH   2   3
ATOM      3  C   UNL     1      -6.198 -39.827 -10.023  1.00  0.00     0.053 C 
BRANCH   3   4
ATOM      4  C   UNL     1      -6.754 -40.225 -11.354  1.00  0.00     0.041 C 
ATOM      5  O   UNL     1      -6.713 -41.428 -11.723  1.00  0.00    -0.550 OA
ATOM      6  O   UNL     1      -7.273 -39.260 -12.206  1.00  0.00    -0.550 OA
ENDBRANCH   3   4
ENDBRANCH   2   3
ENDBRANCH   1   2
BRANCH   1   7
ATOM      7  C   UNL     1      -4.470 -36.417  -9.336  1.00  0.00     0.000 C 
BRANCH   7   8
ATOM      8  C   UNL     1      -4.640 -35.387  -8.207  1.00  0.00    -0.000 C 
BRANCH   8   9
ATOM      9  C   UNL     1      -6.066 -34.817  -8.138  1.00  0.00    -0.000 C 
BRANCH   9  10
ATOM     10  C   UNL     1      -6.376 -33.864  -9.304  1.00  0.00    -0.003 C 
ATOM     11  C   UNL     1      -7.469 -34.396 -10.231  1.00  0.00     0.004 C 
ENDBRANCH   9  10
ENDBRANCH   8   9
ENDBRANCH   7   8
ENDBRANCH   1   7
TORSDOF 7
ENDMDL
MODEL 4
REMARK VINA RESULT:    -3.586      1.476      2.675
REMARK INTER + INTRA:          -5.765
REMARK INTER:                  -5.396
REMARK INTRA:                  -0.369
REMARK UNBOUND:                -0.712
REMARK SMILES CCCCCCCCC(=O)[O-]
REMARK SMILES IDX 6 1 7 2 8 3 9 4 10 5 11 6 5 7 4 8 3 9 2 10 1 11
REMARK H PARENT
REMARK Flexibility Score: inf
ROOT
ATOM      1  C   UNL     1      -5.541 -37.365  -9.337  1.00  0.00     0.000 C 
ENDROOT
BRANCH   1   2
ATOM      2  C   UNL     1      -5.208 -38.648 -10.109  1.00  0.00     0.006 C 
BRANCH   2   3
ATOM      3  C   UNL     1      -6.455 -39.216 -10.794  1.00  0.00     0.053 C 
BRANCH   3   4
ATOM      4  C   UNL     1      -6.604 -40.672 -10.486  1.00  0.00     0.041 C 
ATOM      5  O   UNL     1      -6.421 -41.093  -9.313  1.00  0.00    -0.550 OA
ATOM      6  O   UNL     1      -6.898 -41.571 -11.502  1.00  0.00    -0.550 OA
ENDBRANCH   3   4
ENDBRANCH   2   3
ENDBRANCH   1   2
BRANCH   1   7
ATOM      7  C   UNL     1      -4.321 -36.433  -9.268  1.00  0.00     0.000 C 
BRANCH   7   8
ATOM      8  C   UNL     1      -4.521 -35.262  -8.292  1.00  0.00    -0.000 C 
BRANCH   8   9
ATOM      9  C   UNL     1      -6.001 -34.878  -8.127  1.00  0.00    -0.000 C 
BRANCH   9  10
ATOM     10  C   UNL     1      -6.454 -33.830  -9.156  1.00  0.00    -0.003 C 
ATOM     11  C   UNL     1      -7.414 -34.399 -10.201  1.00  0.00     0.004 C 
ENDBRANCH   9  10
ENDBRANCH   8   9
ENDBRANCH   7   8
ENDBRANCH   1   7
TORSDOF 7
ENDMDL
MODEL 5
REMARK VINA RESULT:    -3.516      2.237      3.160
REMARK INTER + INTRA:          -5.666
REMARK INTER:                  -5.115
REMARK INTRA:                  -0.552
REMARK UNBOUND:                -0.712
REMARK SMILES CCCCCCCCC(=O)[O-]
REMARK SMILES IDX 6 1 7 2 8 3 9 4 10 5 11 6 5 7 4 8 3 9 2 10 1 11
REMARK H PARENT
REMARK Flexibility Score: inf
ROOT
ATOM      1  C   UNL     1      -7.490 -34.486 -10.392  1.00  0.00     0.000 C 
ENDROOT
BRANCH   1   2
ATOM      2  C   UNL     1      -8.602 -35.330  -9.757  1.00  0.00     0.006 C 
BRANCH   2   3
ATOM      3  C   UNL     1      -9.606 -35.801 -10.814  1.00  0.00     0.053 C 
BRANCH   3   4
ATOM      4  C   UNL     1      -9.515 -37.282 -10.999  1.00  0.00     0.041 C 
ATOM      5  O   UNL     1      -9.800 -37.799 -12.111  1.00  0.00    -0.550 OA
ATOM      6  O   UNL     1      -9.163 -38.096  -9.931  1.00  0.00    -0.550 OA
ENDBRANCH   3   4
ENDBRANCH   2   3
ENDBRANCH   1   2
BRANCH   1   7
ATOM      7  C   UNL     1      -6.597 -33.853  -9.313  1.00  0.00     0.000 C 
BRANCH   7   8
ATOM      8  C   UNL     1      -6.236 -34.835  -8.187  1.00  0.00    -0.000 C 
BRANCH   8   9
ATOM      9  C   UNL     1      -4.748 -35.226  -8.200  1.00  0.00    -0.000 C 
BRANCH   9  10
ATOM     10  C   UNL     1      -4.422 -36.261  -9.289  1.00  0.00    -0.003 C 
ATOM     11  C   UNL     1      -5.445 -37.395  -9.356  1.00  0.00     0.004 C 
ENDBRANCH   9  10
ENDBRANCH   8   9
ENDBRANCH   7   8
ENDBRANCH   1   7
TORSDOF 7
ENDMDL
MODEL 6
REMARK VINA RESULT:    -3.478      2.323      4.030
REMARK INTER + INTRA:          -5.614
REMARK INTER:                  -5.043
REMARK INTRA:                  -0.571
REMARK UNBOUND:                -0.712
REMARK SMILES CCCCCCCCC(=O)[O-]
REMARK SMILES IDX 6 1 7 2 8 3 9 4 10 5 11 6 5 7 4 8 3 9 2 10 1 11
REMARK H PARENT
REMARK Flexibility Score: inf
ROOT
ATOM      1  C   UNL     1      -6.218 -35.123 -10.495  1.00  0.00     0.000 C 
ENDROOT
BRANCH   1   2
ATOM      2  C   UNL     1      -7.542 -34.472 -10.077  1.00  0.00     0.006 C 
BRANCH   2   3
ATOM      3  C   UNL     1      -8.738 -35.280 -10.590  1.00  0.00     0.053 C 
BRANCH   3   4
ATOM      4  C   UNL     1      -9.066 -36.390  -9.643  1.00  0.00     0.041 C 
ATOM      5  O   UNL     1      -9.048 -36.188  -8.401  1.00  0.00    -0.550 OA
ATOM      6  O   UNL     1      -9.344 -37.660 -10.131  1.00  0.00    -0.550 OA
ENDBRANCH   3   4
ENDBRANCH   2   3
ENDBRANCH   1   2
BRANCH   1   7
ATOM      7  C   UNL     1      -5.388 -35.519  -9.265  1.00  0.00     0.000 C 
BRANCH   7   8
ATOM      8  C   UNL     1      -4.773 -36.923  -9.388  1.00  0.00    -0.000 C 
BRANCH   8   9
ATOM      9  C   UNL     1      -5.840 -38.029  -9.465  1.00  0.00    -0.000 C 
BRANCH   9  10
ATOM     10  C   UNL     1      -5.398 -39.212 -10.341  1.00  0.00    -0.003 C 
ATOM     11  C   UNL     1      -6.438 -39.591 -11.395  1.00  0.00     0.004 C 
ENDBRANCH   9  10
ENDBRANCH   8   9
ENDBRANCH   7   8
ENDBRANCH   1   7
TORSDOF 7
ENDMDL
MODEL 7
REMARK VINA RESULT:    -3.462      2.824      5.137
REMARK INTER + INTRA:          -5.590
REMARK INTER:                  -5.324
REMARK INTRA:                  -0.266
REMARK UNBOUND:                -0.712
REMARK SMILES CCCCCCCCC(=O)[O-]
REMARK SMILES IDX 6 1 7 2 8 3 9 4 10 5 11 6 5 7 4 8 3 9 2 10 1 11
REMARK H PARENT
REMARK Flexibility Score: inf
ROOT
ATOM      1  C   UNL     1      -4.804 -36.222  -9.594  1.00  0.00     0.000 C 
ENDROOT
BRANCH   1   2
ATOM      2  C   UNL     1      -5.233 -35.136  -8.600  1.00  0.00     0.006 C 
BRANCH   2   3
ATOM      3  C   UNL     1      -6.101 -34.076  -9.285  1.00  0.00     0.053 C 
BRANCH   3   4
ATOM      4  C   UNL     1      -7.522 -34.535  -9.368  1.00  0.00     0.041 C 
ATOM      5  O   UNL     1      -8.161 -34.808  -8.318  1.00  0.00    -0.550 OA
ATOM      6  O   UNL     1      -8.125 -34.708 -10.607  1.00  0.00    -0.550 OA
ENDBRANCH   3   4
ENDBRANCH   2   3
ENDBRANCH   1   2
BRANCH   1   7
ATOM      7  C   UNL     1      -5.636 -37.500  -9.404  1.00  0.00     0.000 C 
BRANCH   7   8
ATOM      8  C   UNL     1      -5.079 -38.696 -10.195  1.00  0.00    -0.000 C 
BRANCH   8   9
ATOM      9  C   UNL     1      -6.118 -39.813 -10.384  1.00  0.00    -0.000 C 
BRANCH   9  10
ATOM     10  C   UNL     1      -6.410 -40.098 -11.866  1.00  0.00    -0.003 C 
ATOM     11  C   UNL     1      -7.626 -39.333 -12.390  1.00  0.00     0.004 C 
ENDBRANCH   9  10
ENDBRANCH   8   9
ENDBRANCH   7   8
ENDBRANCH   1   7
TORSDOF 7
ENDMDL
MODEL 8
REMARK VINA RESULT:    -3.454      1.667      3.680
REMARK INTER + INTRA:          -5.580
REMARK INTER:                  -4.948
REMARK INTRA:                  -0.631
REMARK UNBOUND:                -0.712
REMARK SMILES CCCCCCCCC(=O)[O-]
REMARK SMILES IDX 6 1 7 2 8 3 9 4 10 5 11 6 5 7 4 8 3 9 2 10 1 11
REMARK H PARENT
REMARK Flexibility Score: inf
ROOT
ATOM      1  C   UNL     1      -6.612 -34.894 -10.480  1.00  0.00     0.000 C 
ENDROOT
BRANCH   1   2
ATOM      2  C   UNL     1      -5.934 -34.132  -9.336  1.00  0.00     0.006 C 
BRANCH   2   3
ATOM      3  C   UNL     1      -5.478 -35.091  -8.231  1.00  0.00     0.053 C 
BRANCH   3   4
ATOM      4  C   UNL     1      -4.327 -35.922  -8.700  1.00  0.00     0.041 C 
ATOM      5  O   UNL     1      -3.158 -35.453  -8.681  1.00  0.00    -0.550 OA
ATOM      6  O   UNL     1      -4.549 -37.196  -9.204  1.00  0.00    -0.550 OA
ENDBRANCH   3   4
ENDBRANCH   2   3
ENDBRANCH   1   2
BRANCH   1   7
ATOM      7  C   UNL     1      -8.142 -34.796 -10.375  1.00  0.00     0.000 C 
BRANCH   7   8
ATOM      8  C   UNL     1      -8.839 -36.155 -10.546  1.00  0.00    -0.000 C 
BRANCH   8   9
ATOM      9  C   UNL     1      -7.906 -37.339 -10.238  1.00  0.00    -0.000 C 
BRANCH   9  10
ATOM     10  C   UNL     1      -8.088 -37.875  -8.809  1.00  0.00    -0.003 C 
ATOM     11  C   UNL     1      -7.359 -39.198  -8.574  1.00  0.00     0.004 C 
ENDBRANCH   9  10
ENDBRANCH   8   9
ENDBRANCH   7   8
ENDBRANCH   1   7
TORSDOF 7
ENDMDL
MODEL 9
REMARK VINA RESULT:    -3.419      2.575      3.604
REMARK INTER + INTRA:          -5.530
REMARK INTER:                  -4.915
REMARK INTRA:                  -0.615
REMARK UNBOUND:                -0.712
REMARK SMILES CCCCCCCCC(=O)[O-]
REMARK SMILES IDX 6 1 7 2 8 3 9 4 10 5 11 6 5 7 4 8 3 9 2 10 1 11
REMARK H PARENT
REMARK Flexibility Score: inf
ROOT
ATOM      1  C   UNL     1      -6.490 -37.763  -9.012  1.00  0.00     0.000 C 
ENDROOT
BRANCH   1   2
ATOM      2  C   UNL     1      -7.573 -37.984 -10.075  1.00  0.00     0.006 C 
BRANCH   2   3
ATOM      3  C   UNL     1      -8.860 -37.238  -9.712  1.00  0.00     0.053 C 
BRANCH   3   4
ATOM      4  C   UNL     1      -9.552 -36.755 -10.948  1.00  0.00     0.041 C 
ATOM      5  O   UNL     1      -9.999 -37.581 -11.787  1.00  0.00    -0.550 OA
ATOM      6  O   UNL     1      -9.660 -35.394 -11.196  1.00  0.00    -0.550 OA
ENDBRANCH   3   4
ENDBRANCH   2   3
ENDBRANCH   1   2
BRANCH   1   7
ATOM      7  C   UNL     1      -5.145 -37.408  -9.664  1.00  0.00     0.000 C 
BRANCH   7   8
ATOM      8  C   UNL     1      -4.585 -36.061  -9.178  1.00  0.00    -0.000 C 
BRANCH   8   9
ATOM      9  C   UNL     1      -5.509 -35.371  -8.160  1.00  0.00    -0.000 C 
BRANCH   9  10
ATOM     10  C   UNL     1      -6.110 -34.065  -8.703  1.00  0.00    -0.003 C 
ATOM     11  C   UNL     1      -6.696 -34.219 -10.107  1.00  0.00     0.004 C 
ENDBRANCH   9  10
ENDBRANCH   8   9
ENDBRANCH   7   8
ENDBRANCH   1   7
TORSDOF 7
ENDMDL
