MODEL 1
REMARK VINA RESULT:    -4.199      0.000      0.000
REMARK INTER + INTRA:          -3.995
REMARK INTER:                  -5.794
REMARK INTRA:                   1.799
REMARK UNBOUND:                 1.799
REMARK SMILES C[C@@H]1C(=O)O[C@H](C)[C@@H]1C[C@@H](O)[C@@](C)(O)[C@H]1CC[C@@]2(O)C3=CC(=O)[C@H]4C[C@@H](O)[C@H](O)C[C@]4(C)[C@H]3CC[C@]12C
REMARK SMILES IDX 12 1 13 2 10 3 9 4 8 5 1 6 2 7 3 8 6 9 5 10 4 11 7 12 11 13
REMARK SMILES IDX 15 15 16 16 36 17 17 18 18 19 35 20 37 21 20 22 34 23 33 24
REMARK SMILES IDX 21 25 31 26 22 27 24 28 30 29 32 30 23 31 25 32 28 33 26 34
REMARK SMILES IDX 19 35 29 37 27 39 14 41
REMARK H PARENT 11 14 19 36 29 38 27 40 14 42
REMARK Flexibility Score: inf
ROOT
ATOM      1  C   UNL     1      21.630  33.119  27.402  1.00  0.00     0.091 C 
ATOM      2  C   UNL     1      23.104  33.120  27.916  1.00  0.00     0.045 C 
ENDROOT
BRANCH   1   3
ATOM      3  C   UNL     1      21.173  34.592  27.114  1.00  0.00     0.146 C 
BRANCH   3   4
ATOM      4  C   UNL     1      19.707  34.720  26.621  1.00  0.00     0.043 C 
BRANCH   4   5
ATOM      5  C   UNL     1      19.573  35.528  25.290  1.00  0.00     0.046 C 
ATOM      6  C   UNL     1      16.971  35.002  25.458  1.00  0.00     0.020 C 
ATOM      7  C   UNL     1      18.181  35.377  24.591  1.00  0.00     0.103 C 
ATOM      8  C   UNL     1      18.465  34.358  23.552  1.00  0.00     0.309 C 
ATOM      9  C   UNL     1      20.559  35.074  24.156  1.00  0.00     0.177 C 
ATOM     10  O   UNL     1      19.815  34.175  23.354  1.00  0.00    -0.462 OA
ATOM     11  O   UNL     1      17.590  33.756  22.875  1.00  0.00    -0.252 OA
ATOM     12  C   UNL     1      21.906  34.451  24.539  1.00  0.00     0.053 C 
ENDBRANCH   4   5
ENDBRANCH   3   4
BRANCH   3  13
ATOM     13  O   UNL     1      21.324  35.371  28.279  1.00  0.00    -0.390 OA
ATOM     14  H   UNL     1      20.416  35.539  28.649  1.00  0.00     0.211 HD
ENDBRANCH   3  13
ENDBRANCH   1   3
BRANCH   1  15
ATOM     15  C   UNL     1      21.425  32.257  26.079  1.00  0.00     0.032 C 
ATOM     16  C   UNL     1      22.614  31.350  25.641  1.00  0.00     0.010 C 
ATOM     17  C   UNL     1      20.185  31.319  25.941  1.00  0.00     0.006 C 
ATOM     18  C   UNL     1      22.005  30.153  24.882  1.00  0.00     0.041 C 
ATOM     19  C   UNL     1      20.546  30.551  24.639  1.00  0.00     0.092 C 
ATOM     20  C   UNL     1      18.815  32.012  25.717  1.00  0.00     0.011 C 
ATOM     21  C   UNL     1      20.082  30.374  27.183  1.00  0.00     0.015 C 
ATOM     22  C   UNL     1      19.526  29.447  24.381  1.00  0.00    -0.031 C 
ATOM     23  C   UNL     1      17.693  30.978  25.440  1.00  0.00     0.009 C 
ATOM     24  C   UNL     1      18.038  29.851  24.404  1.00  0.00     0.025 C 
ATOM     25  C   UNL     1      19.907  28.266  23.851  1.00  0.00     0.050 C 
ATOM     26  C   UNL     1      17.088  28.593  24.490  1.00  0.00    -0.013 C 
ATOM     27  C   UNL     1      18.924  27.274  23.386  1.00  0.00     0.159 C 
ATOM     28  C   UNL     1      17.469  27.663  23.296  1.00  0.00     0.070 C 
ATOM     29  C   UNL     1      15.603  29.029  24.318  1.00  0.00     0.042 C 
ATOM     30  C   UNL     1      17.265  27.861  25.857  1.00  0.00     0.013 C 
ATOM     31  O   UNL     1      19.320  26.142  22.996  1.00  0.00    -0.295 OA
ATOM     32  C   UNL     1      16.522  26.454  23.139  1.00  0.00     0.047 C 
ATOM     33  C   UNL     1      14.633  27.837  24.159  1.00  0.00     0.143 C 
ATOM     34  C   UNL     1      15.063  26.926  22.991  1.00  0.00     0.143 C 
BRANCH  19  35
ATOM     35  O   UNL     1      20.585  31.418  23.515  1.00  0.00    -0.385 OA
ATOM     36  H   UNL     1      21.156  32.206  23.695  1.00  0.00     0.211 HD
ENDBRANCH  19  35
BRANCH  33  37
ATOM     37  O   UNL     1      13.338  28.317  23.909  1.00  0.00    -0.390 OA
ATOM     38  H   UNL     1      13.165  29.037  24.570  1.00  0.00     0.211 HD
ENDBRANCH  33  37
BRANCH  34  39
ATOM     39  O   UNL     1      14.200  25.822  22.875  1.00  0.00    -0.390 OA
ATOM     40  H   UNL     1      13.560  26.016  22.140  1.00  0.00     0.211 HD
ENDBRANCH  34  39
ENDBRANCH   1  15
BRANCH   1  41
ATOM     41  O   UNL     1      20.773  32.585  28.390  1.00  0.00    -0.387 OA
ATOM     42  H   UNL     1      21.174  31.772  28.789  1.00  0.00     0.211 HD
ENDBRANCH   1  41
TORSDOF 9
ENDMDL
MODEL 2
REMARK VINA RESULT:    -3.593      2.238      7.128
REMARK INTER + INTRA:          -3.160
REMARK INTER:                  -4.903
REMARK INTRA:                   1.743
REMARK UNBOUND:                 1.799
REMARK SMILES C[C@@H]1C(=O)O[C@H](C)[C@@H]1C[C@@H](O)[C@@](C)(O)[C@H]1CC[C@@]2(O)C3=CC(=O)[C@H]4C[C@@H](O)[C@H](O)C[C@]4(C)[C@H]3CC[C@]12C
REMARK SMILES IDX 12 1 13 2 10 3 9 4 8 5 1 6 2 7 3 8 6 9 5 10 4 11 7 12 11 13
REMARK SMILES IDX 15 15 16 16 36 17 17 18 18 19 35 20 37 21 20 22 34 23 33 24
REMARK SMILES IDX 21 25 31 26 22 27 24 28 30 29 32 30 23 31 25 32 28 33 26 34
REMARK SMILES IDX 19 35 29 37 27 39 14 41
REMARK H PARENT 11 14 19 36 29 38 27 40 14 42
REMARK Flexibility Score: inf
ROOT
ATOM      1  C   UNL     1      15.722  27.932  24.179  1.00  0.00     0.091 C 
ATOM      2  C   UNL     1      14.929  26.588  24.161  1.00  0.00     0.045 C 
ENDROOT
BRANCH   1   3
ATOM      3  C   UNL     1      14.784  29.089  24.674  1.00  0.00     0.146 C 
BRANCH   3   4
ATOM      4  C   UNL     1      15.323  30.515  24.384  1.00  0.00     0.043 C 
BRANCH   4   5
ATOM      5  C   UNL     1      14.276  31.639  24.673  1.00  0.00     0.046 C 
ATOM      6  C   UNL     1      15.611  33.076  22.875  1.00  0.00     0.020 C 
ATOM      7  C   UNL     1      14.664  33.036  24.083  1.00  0.00     0.103 C 
ATOM      8  C   UNL     1      15.233  33.725  25.266  1.00  0.00     0.309 C 
ATOM      9  C   UNL     1      14.086  31.970  26.196  1.00  0.00     0.177 C 
ATOM     10  O   UNL     1      14.928  33.081  26.443  1.00  0.00    -0.462 OA
ATOM     11  O   UNL     1      15.877  34.807  25.228  1.00  0.00    -0.252 OA
ATOM     12  C   UNL     1      14.336  30.874  27.237  1.00  0.00     0.053 C 
ENDBRANCH   4   5
ENDBRANCH   3   4
BRANCH   3  13
ATOM     13  O   UNL     1      13.515  28.959  24.075  1.00  0.00    -0.390 OA
ATOM     14  H   UNL     1      12.833  29.196  24.759  1.00  0.00     0.211 HD
ENDBRANCH   3  13
ENDBRANCH   1   3
BRANCH   1  15
ATOM     15  C   UNL     1      17.011  27.890  25.113  1.00  0.00     0.032 C 
ATOM     16  C   UNL     1      18.077  26.801  24.789  1.00  0.00     0.010 C 
ATOM     17  C   UNL     1      17.864  29.179  25.327  1.00  0.00     0.006 C 
ATOM     18  C   UNL     1      19.439  27.360  25.247  1.00  0.00     0.041 C 
ATOM     19  C   UNL     1      19.088  28.594  26.085  1.00  0.00     0.092 C 
ATOM     20  C   UNL     1      17.238  30.284  26.218  1.00  0.00     0.011 C 
ATOM     21  C   UNL     1      18.258  29.800  23.946  1.00  0.00     0.015 C 
ATOM     22  C   UNL     1      20.153  29.670  26.273  1.00  0.00    -0.031 C 
ATOM     23  C   UNL     1      18.240  31.438  26.481  1.00  0.00     0.009 C 
ATOM     24  C   UNL     1      19.693  31.007  26.889  1.00  0.00     0.025 C 
ATOM     25  C   UNL     1      21.464  29.362  26.205  1.00  0.00     0.050 C 
ATOM     26  C   UNL     1      20.772  32.144  26.698  1.00  0.00    -0.013 C 
ATOM     27  C   UNL     1      22.506  30.324  26.601  1.00  0.00     0.159 C 
ATOM     28  C   UNL     1      22.106  31.599  27.300  1.00  0.00     0.070 C 
ATOM     29  C   UNL     1      20.357  33.417  27.495  1.00  0.00     0.042 C 
ATOM     30  C   UNL     1      20.937  32.501  25.187  1.00  0.00     0.013 C 
ATOM     31  O   UNL     1      23.720  30.034  26.423  1.00  0.00    -0.295 OA
ATOM     32  C   UNL     1      23.232  32.654  27.339  1.00  0.00     0.047 C 
ATOM     33  C   UNL     1      21.468  34.490  27.549  1.00  0.00     0.143 C 
ATOM     34  C   UNL     1      22.776  33.903  28.118  1.00  0.00     0.143 C 
BRANCH  19  35
ATOM     35  O   UNL     1      18.718  28.082  27.356  1.00  0.00    -0.385 OA
ATOM     36  H   UNL     1      19.478  28.122  27.990  1.00  0.00     0.211 HD
ENDBRANCH  19  35
BRANCH  33  37
ATOM     37  O   UNL     1      21.052  35.553  28.366  1.00  0.00    -0.390 OA
ATOM     38  H   UNL     1      20.831  36.310  27.763  1.00  0.00     0.211 HD
ENDBRANCH  33  37
BRANCH  34  39
ATOM     39  O   UNL     1      23.794  34.873  28.129  1.00  0.00    -0.390 OA
ATOM     40  H   UNL     1      24.654  34.405  28.305  1.00  0.00     0.211 HD
ENDBRANCH  34  39
ENDBRANCH   1  15
BRANCH   1  41
ATOM     41  O   UNL     1      16.156  28.256  22.875  1.00  0.00    -0.387 OA
ATOM     42  H   UNL     1      15.943  29.200  22.666  1.00  0.00     0.211 HD
ENDBRANCH   1  41
TORSDOF 9
ENDMDL
MODEL 3
REMARK VINA RESULT:    -2.622      1.817      7.840
REMARK INTER + INTRA:          -1.820
REMARK INTER:                  -4.442
REMARK INTRA:                   2.622
REMARK UNBOUND:                 1.799
REMARK SMILES C[C@@H]1C(=O)O[C@H](C)[C@@H]1C[C@@H](O)[C@@](C)(O)[C@H]1CC[C@@]2(O)C3=CC(=O)[C@H]4C[C@@H](O)[C@H](O)C[C@]4(C)[C@H]3CC[C@]12C
REMARK SMILES IDX 12 1 13 2 10 3 9 4 8 5 1 6 2 7 3 8 6 9 5 10 4 11 7 12 11 13
REMARK SMILES IDX 15 15 16 16 36 17 17 18 18 19 35 20 37 21 20 22 34 23 33 24
REMARK SMILES IDX 21 25 31 26 22 27 24 28 30 29 32 30 23 31 25 32 28 33 26 34
REMARK SMILES IDX 19 35 29 37 27 39 14 41
REMARK H PARENT 11 14 19 36 29 38 27 40 14 42
REMARK Flexibility Score: inf
ROOT
ATOM      1  C   UNL     1      18.833  27.500  24.356  1.00  0.00     0.091 C 
ATOM      2  C   UNL     1      19.240  27.069  25.800  1.00  0.00     0.045 C 
ENDROOT
BRANCH   1   3
ATOM      3  C   UNL     1      17.270  27.492  24.226  1.00  0.00     0.146 C 
BRANCH   3   4
ATOM      4  C   UNL     1      16.554  28.581  25.068  1.00  0.00     0.043 C 
BRANCH   4   5
ATOM      5  C   UNL     1      15.648  29.525  24.212  1.00  0.00     0.046 C 
ATOM      6  C   UNL     1      16.432  31.457  25.864  1.00  0.00     0.020 C 
ATOM      7  C   UNL     1      15.397  30.927  24.861  1.00  0.00     0.103 C 
ATOM      8  C   UNL     1      14.059  30.750  25.474  1.00  0.00     0.309 C 
ATOM      9  C   UNL     1      14.185  28.998  23.999  1.00  0.00     0.177 C 
ATOM     10  O   UNL     1      13.412  29.632  25.002  1.00  0.00    -0.462 OA
ATOM     11  O   UNL     1      13.531  31.550  26.292  1.00  0.00    -0.252 OA
ATOM     12  C   UNL     1      13.924  27.488  24.006  1.00  0.00     0.053 C 
ENDBRANCH   4   5
ENDBRANCH   3   4
BRANCH   3  13
ATOM     13  O   UNL     1      16.906  27.658  22.875  1.00  0.00    -0.390 OA
ATOM     14  H   UNL     1      17.421  26.996  22.340  1.00  0.00     0.211 HD
ENDBRANCH   3  13
ENDBRANCH   1   3
BRANCH   1  15
ATOM     15  C   UNL     1      19.367  28.947  23.957  1.00  0.00     0.032 C 
ATOM     16  C   UNL     1      18.413  29.837  23.107  1.00  0.00     0.010 C 
ATOM     17  C   UNL     1      19.883  29.922  25.062  1.00  0.00     0.006 C 
ATOM     18  C   UNL     1      18.746  31.303  23.452  1.00  0.00     0.041 C 
ATOM     19  C   UNL     1      20.059  31.227  24.237  1.00  0.00     0.092 C 
ATOM     20  C   UNL     1      21.253  29.578  25.703  1.00  0.00     0.011 C 
ATOM     21  C   UNL     1      18.813  30.070  26.193  1.00  0.00     0.015 C 
ATOM     22  C   UNL     1      20.421  32.386  25.159  1.00  0.00    -0.031 C 
ATOM     23  C   UNL     1      21.727  30.697  26.665  1.00  0.00     0.009 C 
ATOM     24  C   UNL     1      21.602  32.166  26.127  1.00  0.00     0.025 C 
ATOM     25  C   UNL     1      19.952  33.628  24.923  1.00  0.00     0.050 C 
ATOM     26  C   UNL     1      21.648  33.266  27.259  1.00  0.00    -0.013 C 
ATOM     27  C   UNL     1      20.459  34.799  25.657  1.00  0.00     0.159 C 
ATOM     28  C   UNL     1      21.676  34.650  26.535  1.00  0.00     0.070 C 
ATOM     29  C   UNL     1      22.954  33.122  28.095  1.00  0.00     0.042 C 
ATOM     30  C   UNL     1      20.407  33.143  28.198  1.00  0.00     0.013 C 
ATOM     31  O   UNL     1      19.919  35.925  25.481  1.00  0.00    -0.295 OA
ATOM     32  C   UNL     1      21.884  35.836  27.500  1.00  0.00     0.047 C 
ATOM     33  C   UNL     1      23.186  34.298  29.070  1.00  0.00     0.143 C 
ATOM     34  C   UNL     1      23.174  35.647  28.321  1.00  0.00     0.143 C 
BRANCH  19  35
ATOM     35  O   UNL     1      21.069  31.088  23.249  1.00  0.00    -0.385 OA
ATOM     36  H   UNL     1      20.832  30.382  22.596  1.00  0.00     0.211 HD
ENDBRANCH  19  35
BRANCH  33  37
ATOM     37  O   UNL     1      24.427  34.141  29.705  1.00  0.00    -0.390 OA
ATOM     38  H   UNL     1      25.103  34.589  29.132  1.00  0.00     0.211 HD
ENDBRANCH  33  37
BRANCH  34  39
ATOM     39  O   UNL     1      23.346  36.717  29.217  1.00  0.00    -0.390 OA
ATOM     40  H   UNL     1      23.241  36.358  30.138  1.00  0.00     0.211 HD
ENDBRANCH  34  39
ENDBRANCH   1  15
BRANCH   1  41
ATOM     41  O   UNL     1      19.351  26.585  23.414  1.00  0.00    -0.387 OA
ATOM     42  H   UNL     1      19.162  26.897  22.493  1.00  0.00     0.211 HD
ENDBRANCH   1  41
TORSDOF 9
ENDMDL
MODEL 4
REMARK VINA RESULT:    -2.622      3.076      4.629
REMARK INTER + INTRA:          -1.819
REMARK INTER:                  -1.603
REMARK INTRA:                  -0.215
REMARK UNBOUND:                 1.799
REMARK SMILES C[C@@H]1C(=O)O[C@H](C)[C@@H]1C[C@@H](O)[C@@](C)(O)[C@H]1CC[C@@]2(O)C3=CC(=O)[C@H]4C[C@@H](O)[C@H](O)C[C@]4(C)[C@H]3CC[C@]12C
REMARK SMILES IDX 12 1 13 2 10 3 9 4 8 5 1 6 2 7 3 8 6 9 5 10 4 11 7 12 11 13
REMARK SMILES IDX 15 15 16 16 36 17 17 18 18 19 35 20 37 21 20 22 34 23 33 24
REMARK SMILES IDX 21 25 31 26 22 27 24 28 30 29 32 30 23 31 25 32 28 33 26 34
REMARK SMILES IDX 19 35 29 37 27 39 14 41
REMARK H PARENT 11 14 19 36 29 38 27 40 14 42
REMARK Flexibility Score: inf
ROOT
ATOM      1  C   UNL     1      22.379  34.559  28.394  1.00  0.00     0.091 C 
ATOM      2  C   UNL     1      22.150  33.800  29.739  1.00  0.00     0.045 C 
ENDROOT
BRANCH   1   3
ATOM      3  C   UNL     1      23.783  35.259  28.418  1.00  0.00     0.146 C 
BRANCH   3   4
ATOM      4  C   UNL     1      23.724  36.808  28.361  1.00  0.00     0.043 C 
BRANCH   4   5
ATOM      5  C   UNL     1      24.807  37.499  29.251  1.00  0.00     0.046 C 
ATOM      6  C   UNL     1      22.911  37.643  31.111  1.00  0.00     0.020 C 
ATOM      7  C   UNL     1      24.235  38.173  30.543  1.00  0.00     0.103 C 
ATOM      8  C   UNL     1      24.143  39.596  30.136  1.00  0.00     0.309 C 
ATOM      9  C   UNL     1      25.545  38.699  28.557  1.00  0.00     0.177 C 
ATOM     10  O   UNL     1      24.856  39.859  28.989  1.00  0.00    -0.462 OA
ATOM     11  O   UNL     1      23.534  40.490  30.780  1.00  0.00    -0.252 OA
ATOM     12  C   UNL     1      25.690  38.708  27.032  1.00  0.00     0.053 C 
ENDBRANCH   4   5
ENDBRANCH   3   4
BRANCH   3  13
ATOM     13  O   UNL     1      24.481  34.880  29.582  1.00  0.00    -0.390 OA
ATOM     14  H   UNL     1      24.403  35.624  30.237  1.00  0.00     0.211 HD
ENDBRANCH   3  13
ENDBRANCH   1   3
BRANCH   1  15
ATOM     15  C   UNL     1      22.307  33.611  27.116  1.00  0.00     0.032 C 
ATOM     16  C   UNL     1      23.397  32.504  27.001  1.00  0.00     0.010 C 
ATOM     17  C   UNL     1      20.985  32.853  26.779  1.00  0.00     0.006 C 
ATOM     18  C   UNL     1      22.768  31.340  26.210  1.00  0.00     0.041 C 
ATOM     19  C   UNL     1      21.470  31.919  25.636  1.00  0.00     0.092 C 
ATOM     20  C   UNL     1      19.817  33.712  26.225  1.00  0.00     0.011 C 
ATOM     21  C   UNL     1      20.485  32.058  28.030  1.00  0.00     0.015 C 
ATOM     22  C   UNL     1      20.358  30.953  25.240  1.00  0.00    -0.031 C 
ATOM     23  C   UNL     1      18.622  32.828  25.783  1.00  0.00     0.009 C 
ATOM     24  C   UNL     1      18.981  31.568  24.920  1.00  0.00     0.025 C 
ATOM     25  C   UNL     1      20.642  29.684  24.881  1.00  0.00     0.050 C 
ATOM     26  C   UNL     1      17.842  30.475  24.884  1.00  0.00    -0.013 C 
ATOM     27  C   UNL     1      19.625  28.804  24.283  1.00  0.00     0.159 C 
ATOM     28  C   UNL     1      18.300  29.387  23.860  1.00  0.00     0.070 C 
ATOM     29  C   UNL     1      16.511  31.101  24.372  1.00  0.00     0.042 C 
ATOM     30  C   UNL     1      17.622  29.860  26.302  1.00  0.00     0.013 C 
ATOM     31  O   UNL     1      19.903  27.594  24.061  1.00  0.00    -0.295 OA
ATOM     32  C   UNL     1      17.221  28.319  23.585  1.00  0.00     0.047 C 
ATOM     33  C   UNL     1      15.414  30.052  24.089  1.00  0.00     0.143 C 
ATOM     34  C   UNL     1      15.916  28.980  23.100  1.00  0.00     0.143 C 
BRANCH  19  35
ATOM     35  O   UNL     1      21.872  32.657  24.492  1.00  0.00    -0.385 OA
ATOM     36  H   UNL     1      22.787  33.020  24.608  1.00  0.00     0.211 HD
ENDBRANCH  19  35
BRANCH  33  37
ATOM     37  O   UNL     1      14.290  30.687  23.538  1.00  0.00    -0.390 OA
ATOM     38  H   UNL     1      13.837  31.166  24.280  1.00  0.00     0.211 HD
ENDBRANCH  33  37
BRANCH  34  39
ATOM     39  O   UNL     1      14.927  28.005  22.875  1.00  0.00    -0.390 OA
ATOM     40  H   UNL     1      15.087  27.261  23.514  1.00  0.00     0.211 HD
ENDBRANCH  34  39
ENDBRANCH   1  15
BRANCH   1  41
ATOM     41  O   UNL     1      21.399  35.562  28.231  1.00  0.00    -0.387 OA
ATOM     42  H   UNL     1      20.549  35.163  27.915  1.00  0.00     0.211 HD
ENDBRANCH   1  41
TORSDOF 9
ENDMDL
MODEL 5
REMARK VINA RESULT:    -2.380      1.806      3.724
REMARK INTER + INTRA:          -1.486
REMARK INTER:                  -2.247
REMARK INTRA:                   0.761
REMARK UNBOUND:                 1.799
REMARK SMILES C[C@@H]1C(=O)O[C@H](C)[C@@H]1C[C@@H](O)[C@@](C)(O)[C@H]1CC[C@@]2(O)C3=CC(=O)[C@H]4C[C@@H](O)[C@H](O)C[C@]4(C)[C@H]3CC[C@]12C
REMARK SMILES IDX 12 1 13 2 10 3 9 4 8 5 1 6 2 7 3 8 6 9 5 10 4 11 7 12 11 13
REMARK SMILES IDX 15 15 16 16 36 17 17 18 18 19 35 20 37 21 20 22 34 23 33 24
REMARK SMILES IDX 21 25 31 26 22 27 24 28 30 29 32 30 23 31 25 32 28 33 26 34
REMARK SMILES IDX 19 35 29 37 27 39 14 41
REMARK H PARENT 11 14 19 36 29 38 27 40 14 42
REMARK Flexibility Score: inf
ROOT
ATOM      1  C   UNL     1      21.063  34.535  23.962  1.00  0.00     0.091 C 
ATOM      2  C   UNL     1      20.004  35.176  23.010  1.00  0.00     0.045 C 
ENDROOT
BRANCH   1   3
ATOM      3  C   UNL     1      20.746  34.935  25.445  1.00  0.00     0.146 C 
BRANCH   3   4
ATOM      4  C   UNL     1      21.953  34.809  26.412  1.00  0.00     0.043 C 
BRANCH   4   5
ATOM      5  C   UNL     1      21.547  34.887  27.919  1.00  0.00     0.046 C 
ATOM      6  C   UNL     1      23.497  36.682  28.152  1.00  0.00     0.020 C 
ATOM      7  C   UNL     1      22.579  35.646  28.818  1.00  0.00     0.103 C 
ATOM      8  C   UNL     1      23.341  34.530  29.427  1.00  0.00     0.309 C 
ATOM      9  C   UNL     1      21.452  33.494  28.637  1.00  0.00     0.177 C 
ATOM     10  O   UNL     1      22.704  33.319  29.275  1.00  0.00    -0.462 OA
ATOM     11  O   UNL     1      24.420  34.657  30.064  1.00  0.00    -0.252 OA
ATOM     12  C   UNL     1      21.099  32.250  27.814  1.00  0.00     0.053 C 
ENDBRANCH   4   5
ENDBRANCH   3   4
BRANCH   3  13
ATOM     13  O   UNL     1      20.274  36.262  25.488  1.00  0.00    -0.390 OA
ATOM     14  H   UNL     1      19.472  36.317  24.902  1.00  0.00     0.211 HD
ENDBRANCH   3  13
ENDBRANCH   1   3
BRANCH   1  15
ATOM     15  C   UNL     1      21.116  32.947  23.865  1.00  0.00     0.032 C 
ATOM     16  C   UNL     1      22.164  32.224  24.763  1.00  0.00     0.010 C 
ATOM     17  C   UNL     1      19.817  32.107  24.077  1.00  0.00     0.006 C 
ATOM     18  C   UNL     1      21.593  30.826  25.076  1.00  0.00     0.041 C 
ATOM     19  C   UNL     1      20.406  30.669  24.121  1.00  0.00     0.092 C 
ATOM     20  C   UNL     1      18.769  32.155  22.935  1.00  0.00     0.011 C 
ATOM     21  C   UNL     1      19.127  32.511  25.421  1.00  0.00     0.015 C 
ATOM     22  C   UNL     1      19.315  29.666  24.478  1.00  0.00    -0.031 C 
ATOM     23  C   UNL     1      17.604  31.164  23.191  1.00  0.00     0.009 C 
ATOM     24  C   UNL     1      18.017  29.720  23.645  1.00  0.00     0.025 C 
ATOM     25  C   UNL     1      19.589  28.595  25.251  1.00  0.00     0.050 C 
ATOM     26  C   UNL     1      16.848  28.906  24.326  1.00  0.00    -0.013 C 
ATOM     27  C   UNL     1      18.621  27.500  25.426  1.00  0.00     0.159 C 
ATOM     28  C   UNL     1      17.387  27.459  24.559  1.00  0.00     0.070 C 
ATOM     29  C   UNL     1      15.622  28.825  23.369  1.00  0.00     0.042 C 
ATOM     30  C   UNL     1      16.421  29.574  25.671  1.00  0.00     0.013 C 
ATOM     31  O   UNL     1      18.874  26.571  26.240  1.00  0.00    -0.295 OA
ATOM     32  C   UNL     1      16.309  26.483  25.075  1.00  0.00     0.047 C 
ATOM     33  C   UNL     1      14.526  27.854  23.863  1.00  0.00     0.143 C 
ATOM     34  C   UNL     1      15.107  26.447  24.112  1.00  0.00     0.143 C 
BRANCH  19  35
ATOM     35  O   UNL     1      20.983  30.303  22.876  1.00  0.00    -0.385 OA
ATOM     36  H   UNL     1      20.293  30.250  22.167  1.00  0.00     0.211 HD
ENDBRANCH  19  35
BRANCH  33  37
ATOM     37  O   UNL     1      13.511  27.764  22.899  1.00  0.00    -0.390 OA
ATOM     38  H   UNL     1      13.142  28.679  22.782  1.00  0.00     0.211 HD
ENDBRANCH  33  37
BRANCH  34  39
ATOM     39  O   UNL     1      14.114  25.577  24.598  1.00  0.00    -0.390 OA
ATOM     40  H   UNL     1      14.529  25.011  25.302  1.00  0.00     0.211 HD
ENDBRANCH  34  39
ENDBRANCH   1  15
BRANCH   1  41
ATOM     41  O   UNL     1      22.352  35.020  23.649  1.00  0.00    -0.387 OA
ATOM     42  H   UNL     1      22.322  35.565  22.822  1.00  0.00     0.211 HD
ENDBRANCH   1  41
TORSDOF 9
ENDMDL
MODEL 6
REMARK VINA RESULT:    -2.212      2.601      6.030
REMARK INTER + INTRA:          -1.253
REMARK INTER:                  -3.055
REMARK INTRA:                   1.802
REMARK UNBOUND:                 1.799
REMARK SMILES C[C@@H]1C(=O)O[C@H](C)[C@@H]1C[C@@H](O)[C@@](C)(O)[C@H]1CC[C@@]2(O)C3=CC(=O)[C@H]4C[C@@H](O)[C@H](O)C[C@]4(C)[C@H]3CC[C@]12C
REMARK SMILES IDX 12 1 13 2 10 3 9 4 8 5 1 6 2 7 3 8 6 9 5 10 4 11 7 12 11 13
REMARK SMILES IDX 15 15 16 16 36 17 17 18 18 19 35 20 37 21 20 22 34 23 33 24
REMARK SMILES IDX 21 25 31 26 22 27 24 28 30 29 32 30 23 31 25 32 28 33 26 34
REMARK SMILES IDX 19 35 29 37 27 39 14 41
REMARK H PARENT 11 14 19 36 29 38 27 40 14 42
REMARK Flexibility Score: inf
ROOT
ATOM      1  C   UNL     1      17.178  35.115  23.611  1.00  0.00     0.091 C 
ATOM      2  C   UNL     1      17.091  36.489  22.875  1.00  0.00     0.045 C 
ENDROOT
BRANCH   1   3
ATOM      3  C   UNL     1      16.137  34.119  22.989  1.00  0.00     0.146 C 
BRANCH   3   4
ATOM      4  C   UNL     1      16.092  32.730  23.680  1.00  0.00     0.043 C 
BRANCH   4   5
ATOM      5  C   UNL     1      14.639  32.242  23.987  1.00  0.00     0.046 C 
ATOM      6  C   UNL     1      14.784  33.785  26.149  1.00  0.00     0.020 C 
ATOM      7  C   UNL     1      14.142  32.590  25.430  1.00  0.00     0.103 C 
ATOM      8  C   UNL     1      14.365  31.314  26.151  1.00  0.00     0.309 C 
ATOM      9  C   UNL     1      14.459  30.683  23.948  1.00  0.00     0.177 C 
ATOM     10  O   UNL     1      14.583  30.260  25.293  1.00  0.00    -0.462 OA
ATOM     11  O   UNL     1      14.310  31.175  27.402  1.00  0.00    -0.252 OA
ATOM     12  C   UNL     1      15.371  29.846  23.044  1.00  0.00     0.053 C 
ENDBRANCH   4   5
ENDBRANCH   3   4
BRANCH   3  13
ATOM     13  O   UNL     1      14.849  34.687  23.041  1.00  0.00    -0.390 OA
ATOM     14  H   UNL     1      14.938  35.657  22.837  1.00  0.00     0.211 HD
ENDBRANCH   3  13
ENDBRANCH   1   3
BRANCH   1  15
ATOM     15  C   UNL     1      18.623  34.450  23.534  1.00  0.00     0.032 C 
ATOM     16  C   UNL     1      19.844  35.413  23.635  1.00  0.00     0.010 C 
ATOM     17  C   UNL     1      19.000  33.285  24.502  1.00  0.00     0.006 C 
ATOM     18  C   UNL     1      21.000  34.604  24.257  1.00  0.00     0.041 C 
ATOM     19  C   UNL     1      20.521  33.149  24.212  1.00  0.00     0.092 C 
ATOM     20  C   UNL     1      18.339  31.911  24.221  1.00  0.00     0.011 C 
ATOM     21  C   UNL     1      18.710  33.699  25.982  1.00  0.00     0.015 C 
ATOM     22  C   UNL     1      21.151  32.148  25.174  1.00  0.00    -0.031 C 
ATOM     23  C   UNL     1      18.910  30.806  25.147  1.00  0.00     0.009 C 
ATOM     24  C   UNL     1      20.472  30.768  25.290  1.00  0.00     0.025 C 
ATOM     25  C   UNL     1      22.399  32.339  25.649  1.00  0.00     0.050 C 
ATOM     26  C   UNL     1      20.977  29.968  26.554  1.00  0.00    -0.013 C 
ATOM     27  C   UNL     1      23.113  31.288  26.393  1.00  0.00     0.159 C 
ATOM     28  C   UNL     1      22.534  29.897  26.445  1.00  0.00     0.070 C 
ATOM     29  C   UNL     1      20.417  28.515  26.530  1.00  0.00     0.042 C 
ATOM     30  C   UNL     1      20.534  30.680  27.871  1.00  0.00     0.013 C 
ATOM     31  O   UNL     1      24.234  31.545  26.910  1.00  0.00    -0.295 OA
ATOM     32  C   UNL     1      23.180  29.005  27.526  1.00  0.00     0.047 C 
ATOM     33  C   UNL     1      21.047  27.601  27.604  1.00  0.00     0.143 C 
ATOM     34  C   UNL     1      22.585  27.584  27.482  1.00  0.00     0.143 C 
BRANCH  19  35
ATOM     35  O   UNL     1      20.762  32.725  22.878  1.00  0.00    -0.385 OA
ATOM     36  H   UNL     1      20.092  33.108  22.258  1.00  0.00     0.211 HD
ENDBRANCH  19  35
BRANCH  33  37
ATOM     37  O   UNL     1      20.564  26.293  27.447  1.00  0.00    -0.390 OA
ATOM     38  H   UNL     1      21.091  25.877  26.716  1.00  0.00     0.211 HD
ENDBRANCH  33  37
BRANCH  34  39
ATOM     39  O   UNL     1      23.156  26.782  28.485  1.00  0.00    -0.390 OA
ATOM     40  H   UNL     1      22.414  26.395  29.021  1.00  0.00     0.211 HD
ENDBRANCH  34  39
ENDBRANCH   1  15
BRANCH   1  41
ATOM     41  O   UNL     1      16.860  35.276  24.977  1.00  0.00    -0.387 OA
ATOM     42  H   UNL     1      16.034  34.776  25.199  1.00  0.00     0.211 HD
ENDBRANCH   1  41
TORSDOF 9
ENDMDL
MODEL 7
REMARK VINA RESULT:    -1.486      2.236      7.474
REMARK INTER + INTRA:          -0.252
REMARK INTER:                  -1.944
REMARK INTRA:                   1.692
REMARK UNBOUND:                 1.799
REMARK SMILES C[C@@H]1C(=O)O[C@H](C)[C@@H]1C[C@@H](O)[C@@](C)(O)[C@H]1CC[C@@]2(O)C3=CC(=O)[C@H]4C[C@@H](O)[C@H](O)C[C@]4(C)[C@H]3CC[C@]12C
REMARK SMILES IDX 12 1 13 2 10 3 9 4 8 5 1 6 2 7 3 8 6 9 5 10 4 11 7 12 11 13
REMARK SMILES IDX 15 15 16 16 36 17 17 18 18 19 35 20 37 21 20 22 34 23 33 24
REMARK SMILES IDX 21 25 31 26 22 27 24 28 30 29 32 30 23 31 25 32 28 33 26 34
REMARK SMILES IDX 19 35 29 37 27 39 14 41
REMARK H PARENT 11 14 19 36 29 38 27 40 14 42
REMARK Flexibility Score: inf
ROOT
ATOM      1  C   UNL     1      14.195  31.826  25.716  1.00  0.00     0.091 C 
ATOM      2  C   UNL     1      12.745  32.384  25.562  1.00  0.00     0.045 C 
ENDROOT
BRANCH   1   3
ATOM      3  C   UNL     1      14.242  30.341  25.215  1.00  0.00     0.146 C 
BRANCH   3   4
ATOM      4  C   UNL     1      15.512  29.562  25.647  1.00  0.00     0.043 C 
BRANCH   4   5
ATOM      5  C   UNL     1      15.445  28.037  25.309  1.00  0.00     0.046 C 
ATOM      6  C   UNL     1      17.674  27.818  26.746  1.00  0.00     0.020 C 
ATOM      7  C   UNL     1      16.753  27.250  25.655  1.00  0.00     0.103 C 
ATOM      8  C   UNL     1      17.427  27.172  24.337  1.00  0.00     0.309 C 
ATOM      9  C   UNL     1      15.270  27.721  23.781  1.00  0.00     0.177 C 
ATOM     10  O   UNL     1      16.580  27.483  23.298  1.00  0.00    -0.462 OA
ATOM     11  O   UNL     1      18.620  26.810  24.158  1.00  0.00    -0.252 OA
ATOM     12  C   UNL     1      14.552  28.735  22.884  1.00  0.00     0.053 C 
ENDBRANCH   4   5
ENDBRANCH   3   4
BRANCH   3  13
ATOM     13  O   UNL     1      13.109  29.646  25.683  1.00  0.00    -0.390 OA
ATOM     14  H   UNL     1      12.906  28.924  25.030  1.00  0.00     0.211 HD
ENDBRANCH   3  13
ENDBRANCH   1   3
BRANCH   1  15
ATOM     15  C   UNL     1      15.281  32.668  24.912  1.00  0.00     0.032 C 
ATOM     16  C   UNL     1      15.360  34.192  25.223  1.00  0.00     0.010 C 
ATOM     17  C   UNL     1      16.777  32.220  24.916  1.00  0.00     0.006 C 
ATOM     18  C   UNL     1      16.816  34.627  24.959  1.00  0.00     0.041 C 
ATOM     19  C   UNL     1      17.446  33.440  24.223  1.00  0.00     0.092 C 
ATOM     20  C   UNL     1      17.123  30.955  24.087  1.00  0.00     0.011 C 
ATOM     21  C   UNL     1      17.275  32.020  26.385  1.00  0.00     0.015 C 
ATOM     22  C   UNL     1      18.964  33.292  24.252  1.00  0.00    -0.031 C 
ATOM     23  C   UNL     1      18.653  30.706  24.043  1.00  0.00     0.009 C 
ATOM     24  C   UNL     1      19.545  31.960  23.736  1.00  0.00     0.025 C 
ATOM     25  C   UNL     1      19.759  34.369  24.414  1.00  0.00     0.050 C 
ATOM     26  C   UNL     1      21.059  31.781  24.146  1.00  0.00    -0.013 C 
ATOM     27  C   UNL     1      21.216  34.291  24.222  1.00  0.00     0.159 C 
ATOM     28  C   UNL     1      21.816  33.043  23.623  1.00  0.00     0.070 C 
ATOM     29  C   UNL     1      21.660  30.524  23.449  1.00  0.00     0.042 C 
ATOM     30  C   UNL     1      21.198  31.639  25.695  1.00  0.00     0.013 C 
ATOM     31  O   UNL     1      21.933  35.294  24.486  1.00  0.00    -0.295 OA
ATOM     32  C   UNL     1      23.346  32.953  23.803  1.00  0.00     0.047 C 
ATOM     33  C   UNL     1      23.192  30.410  23.614  1.00  0.00     0.143 C 
ATOM     34  C   UNL     1      23.898  31.689  23.117  1.00  0.00     0.143 C 
BRANCH  19  35
ATOM     35  O   UNL     1      17.019  33.574  22.876  1.00  0.00    -0.385 OA
ATOM     36  H   UNL     1      17.651  33.128  22.258  1.00  0.00     0.211 HD
ENDBRANCH  19  35
BRANCH  33  37
ATOM     37  O   UNL     1      23.662  29.314  22.875  1.00  0.00    -0.390 OA
ATOM     38  H   UNL     1      22.906  28.675  22.796  1.00  0.00     0.211 HD
ENDBRANCH  33  37
BRANCH  34  39
ATOM     39  O   UNL     1      25.289  31.596  23.304  1.00  0.00    -0.390 OA
ATOM     40  H   UNL     1      25.664  32.513  23.234  1.00  0.00     0.211 HD
ENDBRANCH  34  39
ENDBRANCH   1  15
BRANCH   1  41
ATOM     41  O   UNL     1      14.575  31.836  27.076  1.00  0.00    -0.387 OA
ATOM     42  H   UNL     1      14.879  30.936  27.354  1.00  0.00     0.211 HD
ENDBRANCH   1  41
TORSDOF 9
ENDMDL
