MODEL 1
REMARK VINA RESULT:    -3.474      0.000      0.000
REMARK INTER + INTRA:         -13.121
REMARK INTER:                  -9.160
REMARK INTRA:                  -3.961
REMARK UNBOUND:                -3.961
REMARK SMILES CCCCCCCCCCCCCCCCCCCCCCCCCCCCCC(=O)[O-]
REMARK SMILES IDX 16 1 17 2 18 3 19 4 20 5 21 6 22 7 23 8 24 9 25 10 26 11
REMARK SMILES IDX 27 12 28 13 29 14 30 15 31 16 32 17 15 18 14 19 13 20 12 21
REMARK SMILES IDX 11 22 10 23 9 24 8 25 7 26 6 27 5 28 4 29 3 30 2 31 1 32
REMARK H PARENT
REMARK Flexibility Score: inf
ROOT
ATOM      1  C   UNL     1     -14.019   8.419   8.919  1.00  0.00     0.000 C 
ENDROOT
BRANCH   1   2
ATOM      2  C   UNL     1     -15.105   9.497   8.744  1.00  0.00     0.000 C 
BRANCH   2   3
ATOM      3  C   UNL     1     -14.661  10.923   9.121  1.00  0.00     0.000 C 
BRANCH   3   4
ATOM      4  C   UNL     1     -13.138  11.108   9.050  1.00  0.00     0.000 C 
BRANCH   4   5
ATOM      5  C   UNL     1     -12.741  11.915   7.807  1.00  0.00     0.000 C 
BRANCH   5   6
ATOM      6  C   UNL     1     -11.652  11.190   7.001  1.00  0.00     0.000 C 
BRANCH   6   7
ATOM      7  C   UNL     1     -12.227  10.071   6.106  1.00  0.00     0.000 C 
BRANCH   7   8
ATOM      8  C   UNL     1     -13.238  10.569   5.059  1.00  0.00     0.000 C 
BRANCH   8   9
ATOM      9  C   UNL     1     -14.037   9.426   4.412  1.00  0.00     0.000 C 
BRANCH   9  10
ATOM     10  C   UNL     1     -14.816   8.580   5.433  1.00  0.00     0.000 C 
BRANCH  10  11
ATOM     11  C   UNL     1     -14.518   7.068   5.405  1.00  0.00     0.000 C 
BRANCH  11  12
ATOM     12  C   UNL     1     -14.057   6.515   4.043  1.00  0.00     0.000 C 
BRANCH  12  13
ATOM     13  C   UNL     1     -13.463   5.095   4.088  1.00  0.00     0.006 C 
BRANCH  13  14
ATOM     14  C   UNL     1     -12.898   4.724   5.467  1.00  0.00     0.053 C 
BRANCH  14  15
ATOM     15  C   UNL     1     -11.665   3.886   5.326  1.00  0.00     0.041 C 
ATOM     16  O   UNL     1     -10.804   4.165   4.450  1.00  0.00    -0.550 OA
ATOM     17  O   UNL     1     -11.458   2.807   6.175  1.00  0.00    -0.550 OA
ENDBRANCH  14  15
ENDBRANCH  13  14
ENDBRANCH  12  13
ENDBRANCH  11  12
ENDBRANCH  10  11
ENDBRANCH   9  10
ENDBRANCH   8   9
ENDBRANCH   7   8
ENDBRANCH   6   7
ENDBRANCH   5   6
ENDBRANCH   4   5
ENDBRANCH   3   4
ENDBRANCH   2   3
ENDBRANCH   1   2
BRANCH   1  18
ATOM     18  C   UNL     1     -14.611   7.013   9.122  1.00  0.00     0.000 C 
BRANCH  18  19
ATOM     19  C   UNL     1     -13.665   5.896   8.648  1.00  0.00     0.000 C 
BRANCH  19  20
ATOM     20  C   UNL     1     -12.206   6.144   9.074  1.00  0.00     0.000 C 
BRANCH  20  21
ATOM     21  C   UNL     1     -11.262   6.368   7.878  1.00  0.00     0.000 C 
BRANCH  21  22
ATOM     22  C   UNL     1      -9.889   5.679   7.992  1.00  0.00     0.000 C 
BRANCH  22  23
ATOM     23  C   UNL     1      -8.912   6.101   6.886  1.00  0.00     0.000 C 
BRANCH  23  24
ATOM     24  C   UNL     1      -9.620   6.943   5.817  1.00  0.00    -0.000 C 
BRANCH  24  25
ATOM     25  C   UNL     1      -8.666   7.978   5.209  1.00  0.00    -0.000 C 
BRANCH  25  26
ATOM     26  C   UNL     1      -8.878   9.361   5.838  1.00  0.00    -0.000 C 
BRANCH  26  27
ATOM     27  C   UNL     1      -7.788   9.666   6.877  1.00  0.00    -0.000 C 
BRANCH  27  28
ATOM     28  C   UNL     1      -7.249  11.108   6.756  1.00  0.00    -0.000 C 
BRANCH  28  29
ATOM     29  C   UNL     1      -5.887  11.317   7.441  1.00  0.00    -0.000 C 
BRANCH  29  30
ATOM     30  C   UNL     1      -4.775  11.860   6.523  1.00  0.00    -0.000 C 
BRANCH  30  31
ATOM     31  C   UNL     1      -4.415  10.949   5.336  1.00  0.00    -0.003 C 
ATOM     32  C   UNL     1      -3.038  11.253   4.745  1.00  0.00     0.004 C 
ENDBRANCH  30  31
ENDBRANCH  29  30
ENDBRANCH  28  29
ENDBRANCH  27  28
ENDBRANCH  26  27
ENDBRANCH  25  26
ENDBRANCH  24  25
ENDBRANCH  23  24
ENDBRANCH  22  23
ENDBRANCH  21  22
ENDBRANCH  20  21
ENDBRANCH  19  20
ENDBRANCH  18  19
ENDBRANCH   1  18
TORSDOF 28
ENDMDL
MODEL 2
REMARK VINA RESULT:    -3.448      2.568      5.655
REMARK INTER + INTRA:         -13.053
REMARK INTER:                  -9.198
REMARK INTRA:                  -3.856
REMARK UNBOUND:                -3.961
REMARK SMILES CCCCCCCCCCCCCCCCCCCCCCCCCCCCCC(=O)[O-]
REMARK SMILES IDX 16 1 17 2 18 3 19 4 20 5 21 6 22 7 23 8 24 9 25 10 26 11
REMARK SMILES IDX 27 12 28 13 29 14 30 15 31 16 32 17 15 18 14 19 13 20 12 21
REMARK SMILES IDX 11 22 10 23 9 24 8 25 7 26 6 27 5 28 4 29 3 30 2 31 1 32
REMARK H PARENT
REMARK Flexibility Score: inf
ROOT
ATOM      1  C   UNL     1     -12.437   6.140   9.124  1.00  0.00     0.000 C 
ENDROOT
BRANCH   1   2
ATOM      2  C   UNL     1     -12.735   4.630   9.064  1.00  0.00     0.000 C 
BRANCH   2   3
ATOM      3  C   UNL     1     -11.486   3.729   9.064  1.00  0.00     0.000 C 
BRANCH   3   4
ATOM      4  C   UNL     1     -10.820   3.637   7.683  1.00  0.00     0.000 C 
BRANCH   4   5
ATOM      5  C   UNL     1     -11.873   3.496   6.575  1.00  0.00     0.000 C 
BRANCH   5   6
ATOM      6  C   UNL     1     -11.451   4.260   5.310  1.00  0.00     0.000 C 
BRANCH   6   7
ATOM      7  C   UNL     1     -12.084   5.666   5.232  1.00  0.00     0.000 C 
BRANCH   7   8
ATOM      8  C   UNL     1     -13.544   5.665   4.744  1.00  0.00     0.000 C 
BRANCH   8   9
ATOM      9  C   UNL     1     -14.357   6.844   5.300  1.00  0.00     0.000 C 
BRANCH   9  10
ATOM     10  C   UNL     1     -14.594   7.956   4.264  1.00  0.00     0.000 C 
BRANCH  10  11
ATOM     11  C   UNL     1     -13.849   9.279   4.531  1.00  0.00     0.000 C 
BRANCH  11  12
ATOM     12  C   UNL     1     -14.667  10.559   4.270  1.00  0.00     0.000 C 
BRANCH  12  13
ATOM     13  C   UNL     1     -13.828  11.823   4.010  1.00  0.00     0.006 C 
BRANCH  13  14
ATOM     14  C   UNL     1     -13.537  12.054   2.520  1.00  0.00     0.053 C 
BRANCH  14  15
ATOM     15  C   UNL     1     -12.225  11.445   2.135  1.00  0.00     0.041 C 
ATOM     16  O   UNL     1     -11.310  11.314   2.992  1.00  0.00    -0.550 OA
ATOM     17  O   UNL     1     -12.017  11.005   0.835  1.00  0.00    -0.550 OA
ENDBRANCH  14  15
ENDBRANCH  13  14
ENDBRANCH  12  13
ENDBRANCH  11  12
ENDBRANCH  10  11
ENDBRANCH   9  10
ENDBRANCH   8   9
ENDBRANCH   7   8
ENDBRANCH   6   7
ENDBRANCH   5   6
ENDBRANCH   4   5
ENDBRANCH   3   4
ENDBRANCH   2   3
ENDBRANCH   1   2
BRANCH   1  18
ATOM     18  C   UNL     1     -13.493   6.980   8.384  1.00  0.00     0.000 C 
BRANCH  18  19
ATOM     19  C   UNL     1     -13.639   8.397   8.965  1.00  0.00     0.000 C 
BRANCH  19  20
ATOM     20  C   UNL     1     -14.485   9.316   8.064  1.00  0.00     0.000 C 
BRANCH  20  21
ATOM     21  C   UNL     1     -13.919  10.743   7.962  1.00  0.00     0.000 C 
BRANCH  21  22
ATOM     22  C   UNL     1     -12.438  10.830   7.546  1.00  0.00     0.000 C 
BRANCH  22  23
ATOM     23  C   UNL     1     -11.683  11.967   8.250  1.00  0.00     0.000 C 
BRANCH  23  24
ATOM     24  C   UNL     1     -10.244  12.076   7.732  1.00  0.00    -0.000 C 
BRANCH  24  25
ATOM     25  C   UNL     1     -10.007  11.121   6.556  1.00  0.00    -0.000 C 
BRANCH  25  26
ATOM     26  C   UNL     1      -9.006  11.713   5.556  1.00  0.00    -0.000 C 
BRANCH  26  27
ATOM     27  C   UNL     1      -7.565  11.335   5.931  1.00  0.00    -0.000 C 
BRANCH  27  28
ATOM     28  C   UNL     1      -7.229   9.872   5.571  1.00  0.00    -0.000 C 
BRANCH  28  29
ATOM     29  C   UNL     1      -8.333   9.166   4.764  1.00  0.00    -0.000 C 
BRANCH  29  30
ATOM     30  C   UNL     1      -8.767   7.795   5.319  1.00  0.00    -0.000 C 
BRANCH  30  31
ATOM     31  C   UNL     1      -8.552   7.613   6.832  1.00  0.00    -0.003 C 
ATOM     32  C   UNL     1      -9.201   6.341   7.378  1.00  0.00     0.004 C 
ENDBRANCH  30  31
ENDBRANCH  29  30
ENDBRANCH  28  29
ENDBRANCH  27  28
ENDBRANCH  26  27
ENDBRANCH  25  26
ENDBRANCH  24  25
ENDBRANCH  23  24
ENDBRANCH  22  23
ENDBRANCH  21  22
ENDBRANCH  20  21
ENDBRANCH  19  20
ENDBRANCH  18  19
ENDBRANCH   1  18
TORSDOF 28
ENDMDL
MODEL 3
REMARK VINA RESULT:    -3.025      2.851      7.033
REMARK INTER + INTRA:         -11.938
REMARK INTER:                  -8.549
REMARK INTRA:                  -3.389
REMARK UNBOUND:                -3.961
REMARK SMILES CCCCCCCCCCCCCCCCCCCCCCCCCCCCCC(=O)[O-]
REMARK SMILES IDX 16 1 17 2 18 3 19 4 20 5 21 6 22 7 23 8 24 9 25 10 26 11
REMARK SMILES IDX 27 12 28 13 29 14 30 15 31 16 32 17 15 18 14 19 13 20 12 21
REMARK SMILES IDX 11 22 10 23 9 24 8 25 7 26 6 27 5 28 4 29 3 30 2 31 1 32
REMARK H PARENT
REMARK Flexibility Score: inf
ROOT
ATOM      1  C   UNL     1     -11.285   3.297   6.177  1.00  0.00     0.000 C 
ENDROOT
BRANCH   1   2
ATOM      2  C   UNL     1     -10.776   4.218   5.052  1.00  0.00     0.000 C 
BRANCH   2   3
ATOM      3  C   UNL     1     -10.697   5.709   5.430  1.00  0.00     0.000 C 
BRANCH   3   4
ATOM      4  C   UNL     1      -9.733   5.976   6.595  1.00  0.00     0.000 C 
BRANCH   4   5
ATOM      5  C   UNL     1      -9.732   7.462   6.976  1.00  0.00     0.000 C 
BRANCH   5   6
ATOM      6  C   UNL     1      -8.517   8.187   6.375  1.00  0.00     0.000 C 
BRANCH   6   7
ATOM      7  C   UNL     1      -8.916   9.194   5.275  1.00  0.00     0.000 C 
BRANCH   7   8
ATOM      8  C   UNL     1     -10.395   9.618   5.327  1.00  0.00     0.000 C 
BRANCH   8   9
ATOM      9  C   UNL     1     -10.621  10.887   6.165  1.00  0.00     0.000 C 
BRANCH   9  10
ATOM     10  C   UNL     1      -9.363  11.762   6.287  1.00  0.00     0.000 C 
BRANCH  10  11
ATOM     11  C   UNL     1      -8.793  11.908   7.712  1.00  0.00     0.000 C 
BRANCH  11  12
ATOM     12  C   UNL     1      -7.264  12.080   7.795  1.00  0.00     0.000 C 
BRANCH  12  13
ATOM     13  C   UNL     1      -6.457  10.777   7.651  1.00  0.00     0.006 C 
BRANCH  13  14
ATOM     14  C   UNL     1      -5.012  11.014   7.187  1.00  0.00     0.053 C 
BRANCH  14  15
ATOM     15  C   UNL     1      -4.878  10.752   5.719  1.00  0.00     0.041 C 
ATOM     16  O   UNL     1      -5.775  10.118   5.103  1.00  0.00    -0.550 OA
ATOM     17  O   UNL     1      -3.769  11.223   5.027  1.00  0.00    -0.550 OA
ENDBRANCH  14  15
ENDBRANCH  13  14
ENDBRANCH  12  13
ENDBRANCH  11  12
ENDBRANCH  10  11
ENDBRANCH   9  10
ENDBRANCH   8   9
ENDBRANCH   7   8
ENDBRANCH   6   7
ENDBRANCH   5   6
ENDBRANCH   4   5
ENDBRANCH   3   4
ENDBRANCH   2   3
ENDBRANCH   1   2
BRANCH   1  18
ATOM     18  C   UNL     1     -11.325   4.003   7.545  1.00  0.00     0.000 C 
BRANCH  18  19
ATOM     19  C   UNL     1     -12.758   4.223   8.058  1.00  0.00     0.000 C 
BRANCH  19  20
ATOM     20  C   UNL     1     -12.838   5.345   9.109  1.00  0.00     0.000 C 
BRANCH  20  21
ATOM     21  C   UNL     1     -13.460   6.641   8.557  1.00  0.00     0.000 C 
BRANCH  21  22
ATOM     22  C   UNL     1     -13.553   6.719   7.022  1.00  0.00     0.000 C 
BRANCH  22  23
ATOM     23  C   UNL     1     -13.670   8.158   6.500  1.00  0.00     0.000 C 
BRANCH  23  24
ATOM     24  C   UNL     1     -14.491   9.028   7.461  1.00  0.00    -0.000 C 
BRANCH  24  25
ATOM     25  C   UNL     1     -13.694  10.261   7.903  1.00  0.00    -0.000 C 
BRANCH  25  26
ATOM     26  C   UNL     1     -14.405  11.555   7.490  1.00  0.00    -0.000 C 
BRANCH  26  27
ATOM     27  C   UNL     1     -14.959  11.448   6.062  1.00  0.00    -0.000 C 
BRANCH  27  28
ATOM     28  C   UNL     1     -13.917  11.851   4.995  1.00  0.00    -0.000 C 
BRANCH  28  29
ATOM     29  C   UNL     1     -13.745  10.808   3.877  1.00  0.00    -0.000 C 
BRANCH  29  30
ATOM     30  C   UNL     1     -13.483  11.396   2.477  1.00  0.00    -0.000 C 
BRANCH  30  31
ATOM     31  C   UNL     1     -12.013  11.355   2.023  1.00  0.00    -0.003 C 
ATOM     32  C   UNL     1     -11.837  10.775   0.619  1.00  0.00     0.004 C 
ENDBRANCH  30  31
ENDBRANCH  29  30
ENDBRANCH  28  29
ENDBRANCH  27  28
ENDBRANCH  26  27
ENDBRANCH  25  26
ENDBRANCH  24  25
ENDBRANCH  23  24
ENDBRANCH  22  23
ENDBRANCH  21  22
ENDBRANCH  20  21
ENDBRANCH  19  20
ENDBRANCH  18  19
ENDBRANCH   1  18
TORSDOF 28
ENDMDL
MODEL 4
REMARK VINA RESULT:    -2.752      2.635      5.198
REMARK INTER + INTRA:         -11.217
REMARK INTER:                  -8.305
REMARK INTRA:                  -2.912
REMARK UNBOUND:                -3.961
REMARK SMILES CCCCCCCCCCCCCCCCCCCCCCCCCCCCCC(=O)[O-]
REMARK SMILES IDX 16 1 17 2 18 3 19 4 20 5 21 6 22 7 23 8 24 9 25 10 26 11
REMARK SMILES IDX 27 12 28 13 29 14 30 15 31 16 32 17 15 18 14 19 13 20 12 21
REMARK SMILES IDX 11 22 10 23 9 24 8 25 7 26 6 27 5 28 4 29 3 30 2 31 1 32
REMARK H PARENT
REMARK Flexibility Score: inf
ROOT
ATOM      1  C   UNL     1     -12.332   6.136   8.561  1.00  0.00     0.000 C 
ENDROOT
BRANCH   1   2
ATOM      2  C   UNL     1     -12.774   4.681   8.807  1.00  0.00     0.000 C 
BRANCH   2   3
ATOM      3  C   UNL     1     -11.618   3.667   8.902  1.00  0.00     0.000 C 
BRANCH   3   4
ATOM      4  C   UNL     1     -10.852   3.515   7.580  1.00  0.00     0.000 C 
BRANCH   4   5
ATOM      5  C   UNL     1     -11.819   3.452   6.390  1.00  0.00     0.000 C 
BRANCH   5   6
ATOM      6  C   UNL     1     -11.354   4.373   5.250  1.00  0.00     0.000 C 
BRANCH   6   7
ATOM      7  C   UNL     1     -12.261   5.611   5.085  1.00  0.00     0.000 C 
BRANCH   7   8
ATOM      8  C   UNL     1     -13.482   5.371   4.179  1.00  0.00     0.000 C 
BRANCH   8   9
ATOM      9  C   UNL     1     -14.764   6.020   4.724  1.00  0.00     0.000 C 
BRANCH   9  10
ATOM     10  C   UNL     1     -15.018   7.426   4.155  1.00  0.00     0.000 C 
BRANCH  10  11
ATOM     11  C   UNL     1     -14.999   8.571   5.187  1.00  0.00     0.000 C 
BRANCH  11  12
ATOM     12  C   UNL     1     -14.769   9.979   4.604  1.00  0.00     0.000 C 
BRANCH  12  13
ATOM     13  C   UNL     1     -13.407  10.181   3.916  1.00  0.00     0.006 C 
BRANCH  13  14
ATOM     14  C   UNL     1     -13.526  10.390   2.399  1.00  0.00     0.053 C 
BRANCH  14  15
ATOM     15  C   UNL     1     -12.317  11.093   1.865  1.00  0.00     0.041 C 
ATOM     16  O   UNL     1     -11.996  10.971   0.653  1.00  0.00    -0.550 OA
ATOM     17  O   UNL     1     -11.554  11.898   2.701  1.00  0.00    -0.550 OA
ENDBRANCH  14  15
ENDBRANCH  13  14
ENDBRANCH  12  13
ENDBRANCH  11  12
ENDBRANCH  10  11
ENDBRANCH   9  10
ENDBRANCH   8   9
ENDBRANCH   7   8
ENDBRANCH   6   7
ENDBRANCH   5   6
ENDBRANCH   4   5
ENDBRANCH   3   4
ENDBRANCH   2   3
ENDBRANCH   1   2
BRANCH   1  18
ATOM     18  C   UNL     1     -13.506   7.051   8.172  1.00  0.00     0.000 C 
BRANCH  18  19
ATOM     19  C   UNL     1     -13.668   8.248   9.125  1.00  0.00     0.000 C 
BRANCH  19  20
ATOM     20  C   UNL     1     -14.905   9.102   8.789  1.00  0.00     0.000 C 
BRANCH  20  21
ATOM     21  C   UNL     1     -14.567  10.588   8.570  1.00  0.00     0.000 C 
BRANCH  21  22
ATOM     22  C   UNL     1     -13.635  10.877   7.378  1.00  0.00     0.000 C 
BRANCH  22  23
ATOM     23  C   UNL     1     -12.763  12.123   7.587  1.00  0.00     0.000 C 
BRANCH  23  24
ATOM     24  C   UNL     1     -11.275  11.755   7.622  1.00  0.00    -0.000 C 
BRANCH  24  25
ATOM     25  C   UNL     1     -10.835  11.112   6.302  1.00  0.00    -0.000 C 
BRANCH  25  26
ATOM     26  C   UNL     1      -9.576  11.790   5.749  1.00  0.00    -0.000 C 
BRANCH  26  27
ATOM     27  C   UNL     1      -8.322  11.324   6.503  1.00  0.00    -0.000 C 
BRANCH  27  28
ATOM     28  C   UNL     1      -7.419  10.418   5.638  1.00  0.00    -0.000 C 
BRANCH  28  29
ATOM     29  C   UNL     1      -6.299   9.724   6.433  1.00  0.00    -0.000 C 
BRANCH  29  30
ATOM     30  C   UNL     1      -4.946  10.461   6.426  1.00  0.00    -0.000 C 
BRANCH  30  31
ATOM     31  C   UNL     1      -4.545  11.062   5.067  1.00  0.00    -0.003 C 
ATOM     32  C   UNL     1      -3.052  11.379   4.971  1.00  0.00     0.004 C 
ENDBRANCH  30  31
ENDBRANCH  29  30
ENDBRANCH  28  29
ENDBRANCH  27  28
ENDBRANCH  26  27
ENDBRANCH  25  26
ENDBRANCH  24  25
ENDBRANCH  23  24
ENDBRANCH  22  23
ENDBRANCH  21  22
ENDBRANCH  20  21
ENDBRANCH  19  20
ENDBRANCH  18  19
ENDBRANCH   1  18
TORSDOF 28
ENDMDL
MODEL 5
REMARK VINA RESULT:    -2.751      3.319      7.483
REMARK INTER + INTRA:         -11.215
REMARK INTER:                  -8.079
REMARK INTRA:                  -3.136
REMARK UNBOUND:                -3.961
REMARK SMILES CCCCCCCCCCCCCCCCCCCCCCCCCCCCCC(=O)[O-]
REMARK SMILES IDX 16 1 17 2 18 3 19 4 20 5 21 6 22 7 23 8 24 9 25 10 26 11
REMARK SMILES IDX 27 12 28 13 29 14 30 15 31 16 32 17 15 18 14 19 13 20 12 21
REMARK SMILES IDX 11 22 10 23 9 24 8 25 7 26 6 27 5 28 4 29 3 30 2 31 1 32
REMARK H PARENT
REMARK Flexibility Score: inf
ROOT
ATOM      1  C   UNL     1     -11.017   5.057   8.883  1.00  0.00     0.000 C 
ENDROOT
BRANCH   1   2
ATOM      2  C   UNL     1     -11.653   3.706   8.508  1.00  0.00     0.000 C 
BRANCH   2   3
ATOM      3  C   UNL     1     -11.332   3.220   7.082  1.00  0.00     0.000 C 
BRANCH   3   4
ATOM      4  C   UNL     1     -12.199   3.901   6.013  1.00  0.00     0.000 C 
BRANCH   4   5
ATOM      5  C   UNL     1     -11.340   4.391   4.840  1.00  0.00     0.000 C 
BRANCH   5   6
ATOM      6  C   UNL     1     -11.023   5.888   4.974  1.00  0.00     0.000 C 
BRANCH   6   7
ATOM      7  C   UNL     1      -9.941   6.169   6.039  1.00  0.00     0.000 C 
BRANCH   7   8
ATOM      8  C   UNL     1      -9.033   7.365   5.704  1.00  0.00     0.000 C 
BRANCH   8   9
ATOM      9  C   UNL     1      -8.193   7.830   6.904  1.00  0.00     0.000 C 
BRANCH   9  10
ATOM     10  C   UNL     1      -7.827   9.323   6.843  1.00  0.00     0.000 C 
BRANCH  10  11
ATOM     11  C   UNL     1      -6.850   9.719   5.718  1.00  0.00     0.000 C 
BRANCH  11  12
ATOM     12  C   UNL     1      -6.163  11.087   5.895  1.00  0.00     0.000 C 
BRANCH  12  13
ATOM     13  C   UNL     1      -4.995  11.355   4.928  1.00  0.00     0.006 C 
BRANCH  13  14
ATOM     14  C   UNL     1      -3.620  11.102   5.563  1.00  0.00     0.053 C 
BRANCH  14  15
ATOM     15  C   UNL     1      -2.550  11.078   4.517  1.00  0.00     0.041 C 
ATOM     16  O   UNL     1      -1.500  10.405   4.699  1.00  0.00    -0.550 OA
ATOM     17  O   UNL     1      -2.718  11.785   3.334  1.00  0.00    -0.550 OA
ENDBRANCH  14  15
ENDBRANCH  13  14
ENDBRANCH  12  13
ENDBRANCH  11  12
ENDBRANCH  10  11
ENDBRANCH   9  10
ENDBRANCH   8   9
ENDBRANCH   7   8
ENDBRANCH   6   7
ENDBRANCH   5   6
ENDBRANCH   4   5
ENDBRANCH   3   4
ENDBRANCH   2   3
ENDBRANCH   1   2
BRANCH   1  18
ATOM     18  C   UNL     1     -12.066   6.160   9.113  1.00  0.00     0.000 C 
BRANCH  18  19
ATOM     19  C   UNL     1     -13.374   5.905   8.344  1.00  0.00     0.000 C 
BRANCH  19  20
ATOM     20  C   UNL     1     -14.088   7.212   7.953  1.00  0.00     0.000 C 
BRANCH  20  21
ATOM     21  C   UNL     1     -14.964   7.063   6.695  1.00  0.00     0.000 C 
BRANCH  21  22
ATOM     22  C   UNL     1     -14.214   7.203   5.357  1.00  0.00     0.000 C 
BRANCH  22  23
ATOM     23  C   UNL     1     -13.877   8.660   5.008  1.00  0.00     0.000 C 
BRANCH  23  24
ATOM     24  C   UNL     1     -14.507   9.629   6.016  1.00  0.00    -0.000 C 
BRANCH  24  25
ATOM     25  C   UNL     1     -15.063  10.872   5.311  1.00  0.00    -0.000 C 
BRANCH  25  26
ATOM     26  C   UNL     1     -14.720  10.860   3.817  1.00  0.00    -0.000 C 
BRANCH  26  27
ATOM     27  C   UNL     1     -13.936  12.120   3.421  1.00  0.00    -0.000 C 
BRANCH  27  28
ATOM     28  C   UNL     1     -12.661  11.790   2.616  1.00  0.00    -0.000 C 
BRANCH  28  29
ATOM     29  C   UNL     1     -11.360  11.978   3.417  1.00  0.00    -0.000 C 
BRANCH  29  30
ATOM     30  C   UNL     1     -11.130  10.940   4.532  1.00  0.00    -0.000 C 
BRANCH  30  31
ATOM     31  C   UNL     1     -10.689  11.530   5.884  1.00  0.00    -0.003 C 
ATOM     32  C   UNL     1     -11.854  11.750   6.849  1.00  0.00     0.004 C 
ENDBRANCH  30  31
ENDBRANCH  29  30
ENDBRANCH  28  29
ENDBRANCH  27  28
ENDBRANCH  26  27
ENDBRANCH  25  26
ENDBRANCH  24  25
ENDBRANCH  23  24
ENDBRANCH  22  23
ENDBRANCH  21  22
ENDBRANCH  20  21
ENDBRANCH  19  20
ENDBRANCH  18  19
ENDBRANCH   1  18
TORSDOF 28
ENDMDL
MODEL 6
REMARK VINA RESULT:    -2.639      2.788      5.585
REMARK INTER + INTRA:         -10.919
REMARK INTER:                  -9.205
REMARK INTRA:                  -1.714
REMARK UNBOUND:                -3.961
REMARK SMILES CCCCCCCCCCCCCCCCCCCCCCCCCCCCCC(=O)[O-]
REMARK SMILES IDX 16 1 17 2 18 3 19 4 20 5 21 6 22 7 23 8 24 9 25 10 26 11
REMARK SMILES IDX 27 12 28 13 29 14 30 15 31 16 32 17 15 18 14 19 13 20 12 21
REMARK SMILES IDX 11 22 10 23 9 24 8 25 7 26 6 27 5 28 4 29 3 30 2 31 1 32
REMARK H PARENT
REMARK Flexibility Score: inf
ROOT
ATOM      1  C   UNL     1      -9.959   6.149   7.521  1.00  0.00     0.000 C 
ENDROOT
BRANCH   1   2
ATOM      2  C   UNL     1     -10.165   4.623   7.556  1.00  0.00     0.000 C 
BRANCH   2   3
ATOM      3  C   UNL     1     -11.319   4.111   6.673  1.00  0.00     0.000 C 
BRANCH   3   4
ATOM      4  C   UNL     1     -11.542   4.980   5.427  1.00  0.00     0.000 C 
BRANCH   4   5
ATOM      5  C   UNL     1     -12.866   4.622   4.738  1.00  0.00     0.000 C 
BRANCH   5   6
ATOM      6  C   UNL     1     -13.941   5.684   5.017  1.00  0.00     0.000 C 
BRANCH   6   7
ATOM      7  C   UNL     1     -14.034   6.050   6.514  1.00  0.00     0.000 C 
BRANCH   7   8
ATOM      8  C   UNL     1     -13.438   7.426   6.857  1.00  0.00     0.000 C 
BRANCH   8   9
ATOM      9  C   UNL     1     -13.722   8.483   5.779  1.00  0.00     0.000 C 
BRANCH   9  10
ATOM     10  C   UNL     1     -13.603   9.926   6.300  1.00  0.00     0.000 C 
BRANCH  10  11
ATOM     11  C   UNL     1     -14.650  10.916   5.752  1.00  0.00     0.000 C 
BRANCH  11  12
ATOM     12  C   UNL     1     -14.328  11.515   4.370  1.00  0.00     0.000 C 
BRANCH  12  13
ATOM     13  C   UNL     1     -13.998  10.482   3.277  1.00  0.00     0.006 C 
BRANCH  13  14
ATOM     14  C   UNL     1     -13.762  11.121   1.900  1.00  0.00     0.053 C 
BRANCH  14  15
ATOM     15  C   UNL     1     -12.302  11.352   1.666  1.00  0.00     0.041 C 
ATOM     16  O   UNL     1     -11.582  11.839   2.577  1.00  0.00    -0.550 OA
ATOM     17  O   UNL     1     -11.730  11.012   0.446  1.00  0.00    -0.550 OA
ENDBRANCH  14  15
ENDBRANCH  13  14
ENDBRANCH  12  13
ENDBRANCH  11  12
ENDBRANCH  10  11
ENDBRANCH   9  10
ENDBRANCH   8   9
ENDBRANCH   7   8
ENDBRANCH   6   7
ENDBRANCH   5   6
ENDBRANCH   4   5
ENDBRANCH   3   4
ENDBRANCH   2   3
ENDBRANCH   1   2
BRANCH   1  18
ATOM     18  C   UNL     1      -8.942   6.582   6.450  1.00  0.00     0.000 C 
BRANCH  18  19
ATOM     19  C   UNL     1      -8.871   8.110   6.281  1.00  0.00     0.000 C 
BRANCH  19  20
ATOM     20  C   UNL     1     -10.252   8.733   6.003  1.00  0.00     0.000 C 
BRANCH  20  21
ATOM     21  C   UNL     1     -10.250  10.268   6.114  1.00  0.00     0.000 C 
BRANCH  21  22
ATOM     22  C   UNL     1      -9.430  11.001   5.036  1.00  0.00     0.000 C 
BRANCH  22  23
ATOM     23  C   UNL     1      -8.169  11.674   5.596  1.00  0.00     0.000 C 
BRANCH  23  24
ATOM     24  C   UNL     1      -8.242  11.799   7.123  1.00  0.00    -0.000 C 
BRANCH  24  25
ATOM     25  C   UNL     1      -6.845  11.717   7.749  1.00  0.00    -0.000 C 
BRANCH  25  26
ATOM     26  C   UNL     1      -6.173  10.376   7.429  1.00  0.00    -0.000 C 
BRANCH  26  27
ATOM     27  C   UNL     1      -5.562  10.389   6.020  1.00  0.00    -0.000 C 
BRANCH  27  28
ATOM     28  C   UNL     1      -4.444  11.444   5.874  1.00  0.00    -0.000 C 
BRANCH  28  29
ATOM     29  C   UNL     1      -3.375  11.069   4.831  1.00  0.00    -0.000 C 
BRANCH  29  30
ATOM     30  C   UNL     1      -2.124  11.967   4.834  1.00  0.00    -0.000 C 
BRANCH  30  31
ATOM     31  C   UNL     1      -0.813  11.251   4.465  1.00  0.00    -0.003 C 
ATOM     32  C   UNL     1       0.428  12.108   4.715  1.00  0.00     0.004 C 
ENDBRANCH  30  31
ENDBRANCH  29  30
ENDBRANCH  28  29
ENDBRANCH  27  28
ENDBRANCH  26  27
ENDBRANCH  25  26
ENDBRANCH  24  25
ENDBRANCH  23  24
ENDBRANCH  22  23
ENDBRANCH  21  22
ENDBRANCH  20  21
ENDBRANCH  19  20
ENDBRANCH  18  19
ENDBRANCH   1  18
TORSDOF 28
ENDMDL
MODEL 7
REMARK VINA RESULT:    -2.600      3.286      7.445
REMARK INTER + INTRA:         -10.816
REMARK INTER:                  -8.562
REMARK INTRA:                  -2.254
REMARK UNBOUND:                -3.961
REMARK SMILES CCCCCCCCCCCCCCCCCCCCCCCCCCCCCC(=O)[O-]
REMARK SMILES IDX 16 1 17 2 18 3 19 4 20 5 21 6 22 7 23 8 24 9 25 10 26 11
REMARK SMILES IDX 27 12 28 13 29 14 30 15 31 16 32 17 15 18 14 19 13 20 12 21
REMARK SMILES IDX 11 22 10 23 9 24 8 25 7 26 6 27 5 28 4 29 3 30 2 31 1 32
REMARK H PARENT
REMARK Flexibility Score: inf
ROOT
ATOM      1  C   UNL     1     -13.163   5.551   4.087  1.00  0.00     0.000 C 
ENDROOT
BRANCH   1   2
ATOM      2  C   UNL     1     -12.286   5.329   5.333  1.00  0.00     0.000 C 
BRANCH   2   3
ATOM      3  C   UNL     1     -11.950   3.855   5.627  1.00  0.00     0.000 C 
BRANCH   3   4
ATOM      4  C   UNL     1     -11.692   3.590   7.117  1.00  0.00     0.000 C 
BRANCH   4   5
ATOM      5  C   UNL     1     -11.974   4.846   7.954  1.00  0.00     0.000 C 
BRANCH   5   6
ATOM      6  C   UNL     1     -11.141   6.039   7.459  1.00  0.00     0.000 C 
BRANCH   6   7
ATOM      7  C   UNL     1      -9.639   5.881   7.773  1.00  0.00     0.000 C 
BRANCH   7   8
ATOM      8  C   UNL     1      -8.779   7.074   7.321  1.00  0.00     0.000 C 
BRANCH   8   9
ATOM      9  C   UNL     1      -9.281   7.709   6.015  1.00  0.00     0.000 C 
BRANCH   9  10
ATOM     10  C   UNL     1      -8.185   8.475   5.255  1.00  0.00     0.000 C 
BRANCH  10  11
ATOM     11  C   UNL     1      -7.392   9.499   6.091  1.00  0.00     0.000 C 
BRANCH  11  12
ATOM     12  C   UNL     1      -6.305  10.275   5.323  1.00  0.00     0.000 C 
BRANCH  12  13
ATOM     13  C   UNL     1      -4.905  10.234   5.963  1.00  0.00     0.006 C 
BRANCH  13  14
ATOM     14  C   UNL     1      -4.107  11.527   5.743  1.00  0.00     0.053 C 
BRANCH  14  15
ATOM     15  C   UNL     1      -3.169  11.380   4.585  1.00  0.00     0.041 C 
ATOM     16  O   UNL     1      -3.547  11.679   3.420  1.00  0.00    -0.550 OA
ATOM     17  O   UNL     1      -1.872  10.930   4.792  1.00  0.00    -0.550 OA
ENDBRANCH  14  15
ENDBRANCH  13  14
ENDBRANCH  12  13
ENDBRANCH  11  12
ENDBRANCH  10  11
ENDBRANCH   9  10
ENDBRANCH   8   9
ENDBRANCH   7   8
ENDBRANCH   6   7
ENDBRANCH   5   6
ENDBRANCH   4   5
ENDBRANCH   3   4
ENDBRANCH   2   3
ENDBRANCH   1   2
BRANCH   1  18
ATOM     18  C   UNL     1     -14.609   5.942   4.445  1.00  0.00     0.000 C 
BRANCH  18  19
ATOM     19  C   UNL     1     -14.821   7.465   4.479  1.00  0.00     0.000 C 
BRANCH  19  20
ATOM     20  C   UNL     1     -14.551   8.063   5.872  1.00  0.00     0.000 C 
BRANCH  20  21
ATOM     21  C   UNL     1     -13.233   8.855   5.940  1.00  0.00     0.000 C 
BRANCH  21  22
ATOM     22  C   UNL     1     -13.387  10.355   6.253  1.00  0.00     0.000 C 
BRANCH  22  23
ATOM     23  C   UNL     1     -14.850  10.822   6.247  1.00  0.00     0.000 C 
BRANCH  23  24
ATOM     24  C   UNL     1     -15.079  11.901   5.182  1.00  0.00    -0.000 C 
BRANCH  24  25
ATOM     25  C   UNL     1     -15.125  11.288   3.777  1.00  0.00    -0.000 C 
BRANCH  25  26
ATOM     26  C   UNL     1     -14.050  11.901   2.872  1.00  0.00    -0.000 C 
BRANCH  26  27
ATOM     27  C   UNL     1     -13.272  10.808   2.122  1.00  0.00    -0.000 C 
BRANCH  27  28
ATOM     28  C   UNL     1     -11.778  11.160   1.955  1.00  0.00    -0.000 C 
BRANCH  28  29
ATOM     29  C   UNL     1     -11.248  12.124   3.032  1.00  0.00    -0.000 C 
BRANCH  29  30
ATOM     30  C   UNL     1     -11.155  11.525   4.449  1.00  0.00    -0.000 C 
BRANCH  30  31
ATOM     31  C   UNL     1      -9.852  11.848   5.203  1.00  0.00    -0.003 C 
ATOM     32  C   UNL     1     -10.058  12.015   6.708  1.00  0.00     0.004 C 
ENDBRANCH  30  31
ENDBRANCH  29  30
ENDBRANCH  28  29
ENDBRANCH  27  28
ENDBRANCH  26  27
ENDBRANCH  25  26
ENDBRANCH  24  25
ENDBRANCH  23  24
ENDBRANCH  22  23
ENDBRANCH  21  22
ENDBRANCH  20  21
ENDBRANCH  19  20
ENDBRANCH  18  19
ENDBRANCH   1  18
TORSDOF 28
ENDMDL
MODEL 8
REMARK VINA RESULT:    -2.531      2.936      6.595
REMARK INTER + INTRA:         -10.634
REMARK INTER:                  -8.663
REMARK INTRA:                  -1.970
REMARK UNBOUND:                -3.961
REMARK SMILES CCCCCCCCCCCCCCCCCCCCCCCCCCCCCC(=O)[O-]
REMARK SMILES IDX 16 1 17 2 18 3 19 4 20 5 21 6 22 7 23 8 24 9 25 10 26 11
REMARK SMILES IDX 27 12 28 13 29 14 30 15 31 16 32 17 15 18 14 19 13 20 12 21
REMARK SMILES IDX 11 22 10 23 9 24 8 25 7 26 6 27 5 28 4 29 3 30 2 31 1 32
REMARK H PARENT
REMARK Flexibility Score: inf
ROOT
ATOM      1  C   UNL     1      -8.548  10.958   5.972  1.00  0.00     0.000 C 
ENDROOT
BRANCH   1   2
ATOM      2  C   UNL     1      -9.668  11.810   5.346  1.00  0.00     0.000 C 
BRANCH   2   3
ATOM      3  C   UNL     1     -10.851  12.105   6.287  1.00  0.00     0.000 C 
BRANCH   3   4
ATOM      4  C   UNL     1     -10.442  12.124   7.767  1.00  0.00     0.000 C 
BRANCH   4   5
ATOM      5  C   UNL     1     -11.659  11.905   8.675  1.00  0.00     0.000 C 
BRANCH   5   6
ATOM      6  C   UNL     1     -12.437  10.645   8.264  1.00  0.00     0.000 C 
BRANCH   6   7
ATOM      7  C   UNL     1     -13.795  10.528   8.988  1.00  0.00     0.000 C 
BRANCH   7   8
ATOM      8  C   UNL     1     -14.814   9.634   8.260  1.00  0.00     0.000 C 
BRANCH   8   9
ATOM      9  C   UNL     1     -15.125  10.123   6.837  1.00  0.00     0.000 C 
BRANCH   9  10
ATOM     10  C   UNL     1     -14.476  11.479   6.509  1.00  0.00     0.000 C 
BRANCH  10  11
ATOM     11  C   UNL     1     -14.146  11.712   5.022  1.00  0.00     0.000 C 
BRANCH  11  12
ATOM     12  C   UNL     1     -15.059  10.975   4.022  1.00  0.00     0.000 C 
BRANCH  12  13
ATOM     13  C   UNL     1     -14.736  11.232   2.539  1.00  0.00     0.006 C 
BRANCH  13  14
ATOM     14  C   UNL     1     -13.603  10.342   2.008  1.00  0.00     0.053 C 
BRANCH  14  15
ATOM     15  C   UNL     1     -12.394  11.162   1.682  1.00  0.00     0.041 C 
ATOM     16  O   UNL     1     -11.990  12.045   2.485  1.00  0.00    -0.550 OA
ATOM     17  O   UNL     1     -11.700  10.939   0.500  1.00  0.00    -0.550 OA
ENDBRANCH  14  15
ENDBRANCH  13  14
ENDBRANCH  12  13
ENDBRANCH  11  12
ENDBRANCH  10  11
ENDBRANCH   9  10
ENDBRANCH   8   9
ENDBRANCH   7   8
ENDBRANCH   6   7
ENDBRANCH   5   6
ENDBRANCH   4   5
ENDBRANCH   3   4
ENDBRANCH   2   3
ENDBRANCH   1   2
BRANCH   1  18
ATOM     18  C   UNL     1      -7.866  10.034   4.947  1.00  0.00     0.000 C 
BRANCH  18  19
ATOM     19  C   UNL     1      -7.608   8.621   5.499  1.00  0.00     0.000 C 
BRANCH  19  20
ATOM     20  C   UNL     1      -8.635   8.216   6.572  1.00  0.00     0.000 C 
BRANCH  20  21
ATOM     21  C   UNL     1      -9.945   7.672   5.973  1.00  0.00     0.000 C 
BRANCH  21  22
ATOM     22  C   UNL     1     -10.464   6.369   6.611  1.00  0.00     0.000 C 
BRANCH  22  23
ATOM     23  C   UNL     1      -9.547   5.839   7.723  1.00  0.00     0.000 C 
BRANCH  23  24
ATOM     24  C   UNL     1     -10.365   5.361   8.929  1.00  0.00    -0.000 C 
BRANCH  24  25
ATOM     25  C   UNL     1     -11.740   4.842   8.493  1.00  0.00    -0.000 C 
BRANCH  25  26
ATOM     26  C   UNL     1     -11.650   3.399   7.983  1.00  0.00    -0.000 C 
BRANCH  26  27
ATOM     27  C   UNL     1     -11.439   3.364   6.462  1.00  0.00    -0.000 C 
BRANCH  27  28
ATOM     28  C   UNL     1     -12.685   3.838   5.684  1.00  0.00    -0.000 C 
BRANCH  28  29
ATOM     29  C   UNL     1     -12.418   5.045   4.767  1.00  0.00    -0.000 C 
BRANCH  29  30
ATOM     30  C   UNL     1     -13.628   5.504   3.931  1.00  0.00    -0.000 C 
BRANCH  30  31
ATOM     31  C   UNL     1     -14.597   6.451   4.661  1.00  0.00    -0.003 C 
ATOM     32  C   UNL     1     -13.883   7.465   5.554  1.00  0.00     0.004 C 
ENDBRANCH  30  31
ENDBRANCH  29  30
ENDBRANCH  28  29
ENDBRANCH  27  28
ENDBRANCH  26  27
ENDBRANCH  25  26
ENDBRANCH  24  25
ENDBRANCH  23  24
ENDBRANCH  22  23
ENDBRANCH  21  22
ENDBRANCH  20  21
ENDBRANCH  19  20
ENDBRANCH  18  19
ENDBRANCH   1  18
TORSDOF 28
ENDMDL
MODEL 9
REMARK VINA RESULT:    -1.760      2.720      5.385
REMARK INTER + INTRA:          -8.601
REMARK INTER:                  -6.576
REMARK INTRA:                  -2.025
REMARK UNBOUND:                -3.961
REMARK SMILES CCCCCCCCCCCCCCCCCCCCCCCCCCCCCC(=O)[O-]
REMARK SMILES IDX 16 1 17 2 18 3 19 4 20 5 21 6 22 7 23 8 24 9 25 10 26 11
REMARK SMILES IDX 27 12 28 13 29 14 30 15 31 16 32 17 15 18 14 19 13 20 12 21
REMARK SMILES IDX 11 22 10 23 9 24 8 25 7 26 6 27 5 28 4 29 3 30 2 31 1 32
REMARK H PARENT
REMARK Flexibility Score: inf
ROOT
ATOM      1  C   UNL     1     -11.346   3.544   8.020  1.00  0.00     0.000 C 
ENDROOT
BRANCH   1   2
ATOM      2  C   UNL     1     -11.944   3.467   6.602  1.00  0.00     0.000 C 
BRANCH   2   3
ATOM      3  C   UNL     1     -12.517   4.797   6.075  1.00  0.00     0.000 C 
BRANCH   3   4
ATOM      4  C   UNL     1     -11.611   5.460   5.028  1.00  0.00     0.000 C 
BRANCH   4   5
ATOM      5  C   UNL     1     -10.301   5.944   5.663  1.00  0.00     0.000 C 
BRANCH   5   6
ATOM      6  C   UNL     1     -10.421   7.402   6.136  1.00  0.00     0.000 C 
BRANCH   6   7
ATOM      7  C   UNL     1     -11.883   7.893   6.166  1.00  0.00     0.000 C 
BRANCH   7   8
ATOM      8  C   UNL     1     -12.041   9.396   5.874  1.00  0.00     0.000 C 
BRANCH   8   9
ATOM      9  C   UNL     1     -13.118   9.687   4.817  1.00  0.00     0.000 C 
BRANCH   9  10
ATOM     10  C   UNL     1     -14.521   9.876   5.420  1.00  0.00     0.000 C 
BRANCH  10  11
ATOM     11  C   UNL     1     -15.086  11.308   5.344  1.00  0.00     0.000 C 
BRANCH  11  12
ATOM     12  C   UNL     1     -15.066  11.950   3.943  1.00  0.00     0.000 C 
BRANCH  12  13
ATOM     13  C   UNL     1     -14.518  11.046   2.824  1.00  0.00     0.006 C 
BRANCH  13  14
ATOM     14  C   UNL     1     -13.739  11.823   1.752  1.00  0.00     0.053 C 
BRANCH  14  15
ATOM     15  C   UNL     1     -12.294  11.430   1.759  1.00  0.00     0.041 C 
ATOM     16  O   UNL     1     -11.558  11.737   2.734  1.00  0.00    -0.550 OA
ATOM     17  O   UNL     1     -11.764  10.710   0.696  1.00  0.00    -0.550 OA
ENDBRANCH  14  15
ENDBRANCH  13  14
ENDBRANCH  12  13
ENDBRANCH  11  12
ENDBRANCH  10  11
ENDBRANCH   9  10
ENDBRANCH   8   9
ENDBRANCH   7   8
ENDBRANCH   6   7
ENDBRANCH   5   6
ENDBRANCH   4   5
ENDBRANCH   3   4
ENDBRANCH   2   3
ENDBRANCH   1   2
BRANCH   1  18
ATOM     18  C   UNL     1     -12.390   3.940   9.080  1.00  0.00     0.000 C 
BRANCH  18  19
ATOM     19  C   UNL     1     -12.666   5.453   9.106  1.00  0.00     0.000 C 
BRANCH  19  20
ATOM     20  C   UNL     1     -14.111   5.792   8.699  1.00  0.00     0.000 C 
BRANCH  20  21
ATOM     21  C   UNL     1     -14.251   7.205   8.105  1.00  0.00     0.000 C 
BRANCH  21  22
ATOM     22  C   UNL     1     -14.113   8.357   9.118  1.00  0.00     0.000 C 
BRANCH  22  23
ATOM     23  C   UNL     1     -15.125   9.487   8.885  1.00  0.00     0.000 C 
BRANCH  23  24
ATOM     24  C   UNL     1     -14.417  10.839   8.731  1.00  0.00    -0.000 C 
BRANCH  24  25
ATOM     25  C   UNL     1     -12.903  10.693   8.930  1.00  0.00    -0.000 C 
BRANCH  25  26
ATOM     26  C   UNL     1     -12.186  12.031   8.716  1.00  0.00    -0.000 C 
BRANCH  26  27
ATOM     27  C   UNL     1     -11.314  11.993   7.452  1.00  0.00    -0.000 C 
BRANCH  27  28
ATOM     28  C   UNL     1      -9.809  12.119   7.772  1.00  0.00    -0.000 C 
BRANCH  28  29
ATOM     29  C   UNL     1      -8.902  11.384   6.769  1.00  0.00    -0.000 C 
BRANCH  29  30
ATOM     30  C   UNL     1      -7.411  11.340   7.155  1.00  0.00    -0.000 C 
BRANCH  30  31
ATOM     31  C   UNL     1      -6.614  10.182   6.528  1.00  0.00    -0.003 C 
ATOM     32  C   UNL     1      -7.312   9.563   5.317  1.00  0.00     0.004 C 
ENDBRANCH  30  31
ENDBRANCH  29  30
ENDBRANCH  28  29
ENDBRANCH  27  28
ENDBRANCH  26  27
ENDBRANCH  25  26
ENDBRANCH  24  25
ENDBRANCH  23  24
ENDBRANCH  22  23
ENDBRANCH  21  22
ENDBRANCH  20  21
ENDBRANCH  19  20
ENDBRANCH  18  19
ENDBRANCH   1  18
TORSDOF 28
ENDMDL
