MODEL 1
REMARK VINA RESULT:    -4.081      0.000      0.000
REMARK INTER + INTRA:          -7.790
REMARK INTER:                  -6.468
REMARK INTRA:                  -1.323
REMARK UNBOUND:                -1.323
REMARK SMILES CCCCCCCCCCCC(=O)[O-]
REMARK SMILES IDX 7 1 8 2 9 3 10 4 11 5 12 6 13 7 14 8 6 9 5 10 4 11 3 12 2 13
REMARK SMILES IDX 1 14
REMARK H PARENT
REMARK Flexibility Score: inf
ROOT
ATOM      1  C   UNL     1      17.385 -33.946  -0.959  1.00  0.00     0.000 C 
ENDROOT
BRANCH   1   2
ATOM      2  C   UNL     1      17.350 -35.483  -0.840  1.00  0.00     0.000 C 
BRANCH   2   3
ATOM      3  C   UNL     1      17.696 -36.246  -2.131  1.00  0.00     0.000 C 
BRANCH   3   4
ATOM      4  C   UNL     1      17.841 -37.759  -1.910  1.00  0.00     0.006 C 
BRANCH   4   5
ATOM      5  C   UNL     1      17.425 -38.148  -0.490  1.00  0.00     0.053 C 
BRANCH   5   6
ATOM      6  C   UNL     1      18.589 -38.709   0.263  1.00  0.00     0.041 C 
ATOM      7  O   UNL     1      19.526 -37.954   0.635  1.00  0.00    -0.550 OA
ATOM      8  O   UNL     1      18.665 -40.074   0.510  1.00  0.00    -0.550 OA
ENDBRANCH   5   6
ENDBRANCH   4   5
ENDBRANCH   3   4
ENDBRANCH   2   3
ENDBRANCH   1   2
BRANCH   1   9
ATOM      9  C   UNL     1      16.809 -33.380  -2.269  1.00  0.00     0.000 C 
BRANCH   9  10
ATOM     10  C   UNL     1      15.450 -32.692  -2.075  1.00  0.00    -0.000 C 
BRANCH  10  11
ATOM     11  C   UNL     1      14.298 -33.652  -2.395  1.00  0.00    -0.000 C 
BRANCH  11  12
ATOM     12  C   UNL     1      13.599 -34.119  -1.113  1.00  0.00    -0.000 C 
BRANCH  12  13
ATOM     13  C   UNL     1      13.718 -35.639  -0.944  1.00  0.00    -0.003 C 
ATOM     14  C   UNL     1      13.987 -36.323  -2.281  1.00  0.00     0.004 C 
ENDBRANCH  12  13
ENDBRANCH  11  12
ENDBRANCH  10  11
ENDBRANCH   9  10
ENDBRANCH   1   9
TORSDOF 10
ENDMDL
MODEL 2
REMARK VINA RESULT:    -4.026      2.010      3.094
REMARK INTER + INTRA:          -7.702
REMARK INTER:                  -6.389
REMARK INTRA:                  -1.314
REMARK UNBOUND:                -1.323
REMARK SMILES CCCCCCCCCCCC(=O)[O-]
REMARK SMILES IDX 7 1 8 2 9 3 10 4 11 5 12 6 13 7 14 8 6 9 5 10 4 11 3 12 2 13
REMARK SMILES IDX 1 14
REMARK H PARENT
REMARK Flexibility Score: inf
ROOT
ATOM      1  C   UNL     1      17.474 -34.273  -0.887  1.00  0.00     0.000 C 
ENDROOT
BRANCH   1   2
ATOM      2  C   UNL     1      17.781 -34.898   0.489  1.00  0.00     0.000 C 
BRANCH   2   3
ATOM      3  C   UNL     1      16.575 -35.544   1.196  1.00  0.00     0.000 C 
BRANCH   3   4
ATOM      4  C   UNL     1      16.964 -36.761   2.049  1.00  0.00     0.006 C 
BRANCH   4   5
ATOM      5  C   UNL     1      17.190 -37.995   1.173  1.00  0.00     0.053 C 
BRANCH   5   6
ATOM      6  C   UNL     1      18.584 -38.509   1.341  1.00  0.00     0.041 C 
ATOM      7  O   UNL     1      19.523 -38.033   0.649  1.00  0.00    -0.550 OA
ATOM      8  O   UNL     1      18.839 -39.551   2.224  1.00  0.00    -0.550 OA
ENDBRANCH   5   6
ENDBRANCH   4   5
ENDBRANCH   3   4
ENDBRANCH   2   3
ENDBRANCH   1   2
BRANCH   1   9
ATOM      9  C   UNL     1      16.935 -35.254  -1.944  1.00  0.00     0.000 C 
BRANCH   9  10
ATOM     10  C   UNL     1      17.892 -36.423  -2.217  1.00  0.00    -0.000 C 
BRANCH  10  11
ATOM     11  C   UNL     1      17.116 -37.726  -2.445  1.00  0.00    -0.000 C 
BRANCH  11  12
ATOM     12  C   UNL     1      15.620 -37.530  -2.175  1.00  0.00    -0.000 C 
BRANCH  12  13
ATOM     13  C   UNL     1      14.826 -38.791  -2.537  1.00  0.00    -0.003 C 
ATOM     14  C   UNL     1      15.274 -39.984  -1.697  1.00  0.00     0.004 C 
ENDBRANCH  12  13
ENDBRANCH  11  12
ENDBRANCH  10  11
ENDBRANCH   9  10
ENDBRANCH   1   9
TORSDOF 10
ENDMDL
MODEL 3
REMARK VINA RESULT:    -3.936      1.205      2.332
REMARK INTER + INTRA:          -7.559
REMARK INTER:                  -6.639
REMARK INTRA:                  -0.920
REMARK UNBOUND:                -1.323
REMARK SMILES CCCCCCCCCCCC(=O)[O-]
REMARK SMILES IDX 7 1 8 2 9 3 10 4 11 5 12 6 13 7 14 8 6 9 5 10 4 11 3 12 2 13
REMARK SMILES IDX 1 14
REMARK H PARENT
REMARK Flexibility Score: inf
ROOT
ATOM      1  C   UNL     1      17.729 -36.431  -2.339  1.00  0.00     0.000 C 
ENDROOT
BRANCH   1   2
ATOM      2  C   UNL     1      16.758 -37.629  -2.320  1.00  0.00     0.000 C 
BRANCH   2   3
ATOM      3  C   UNL     1      15.809 -37.680  -1.109  1.00  0.00     0.000 C 
BRANCH   3   4
ATOM      4  C   UNL     1      16.233 -38.719  -0.060  1.00  0.00     0.006 C 
BRANCH   4   5
ATOM      5  C   UNL     1      17.169 -38.097   0.979  1.00  0.00     0.053 C 
BRANCH   5   6
ATOM      6  C   UNL     1      18.526 -38.723   0.904  1.00  0.00     0.041 C 
ATOM      7  O   UNL     1      19.549 -38.003   0.765  1.00  0.00    -0.550 OA
ATOM      8  O   UNL     1      18.656 -40.106   0.936  1.00  0.00    -0.550 OA
ENDBRANCH   5   6
ENDBRANCH   4   5
ENDBRANCH   3   4
ENDBRANCH   2   3
ENDBRANCH   1   2
BRANCH   1   9
ATOM      9  C   UNL     1      17.361 -35.277  -1.390  1.00  0.00     0.000 C 
BRANCH   9  10
ATOM     10  C   UNL     1      17.524 -33.895  -2.039  1.00  0.00    -0.000 C 
BRANCH  10  11
ATOM     11  C   UNL     1      16.221 -33.090  -1.954  1.00  0.00    -0.000 C 
BRANCH  11  12
ATOM     12  C   UNL     1      14.999 -34.009  -2.059  1.00  0.00    -0.000 C 
BRANCH  12  13
ATOM     13  C   UNL     1      13.744 -33.321  -1.509  1.00  0.00    -0.003 C 
ATOM     14  C   UNL     1      13.999 -31.840  -1.245  1.00  0.00     0.004 C 
ENDBRANCH  12  13
ENDBRANCH  11  12
ENDBRANCH  10  11
ENDBRANCH   9  10
ENDBRANCH   1   9
TORSDOF 10
ENDMDL
MODEL 4
REMARK VINA RESULT:    -3.917      1.475      3.397
REMARK INTER + INTRA:          -7.530
REMARK INTER:                  -6.365
REMARK INTRA:                  -1.164
REMARK UNBOUND:                -1.323
REMARK SMILES CCCCCCCCCCCC(=O)[O-]
REMARK SMILES IDX 7 1 8 2 9 3 10 4 11 5 12 6 13 7 14 8 6 9 5 10 4 11 3 12 2 13
REMARK SMILES IDX 1 14
REMARK H PARENT
REMARK Flexibility Score: inf
ROOT
ATOM      1  C   UNL     1      15.572 -37.274  -1.621  1.00  0.00     0.000 C 
ENDROOT
BRANCH   1   2
ATOM      2  C   UNL     1      15.279 -38.137  -0.378  1.00  0.00     0.000 C 
BRANCH   2   3
ATOM      3  C   UNL     1      15.308 -37.382   0.963  1.00  0.00     0.000 C 
BRANCH   3   4
ATOM      4  C   UNL     1      16.735 -37.105   1.462  1.00  0.00     0.006 C 
BRANCH   4   5
ATOM      5  C   UNL     1      17.407 -38.394   1.941  1.00  0.00     0.053 C 
BRANCH   5   6
ATOM      6  C   UNL     1      18.510 -38.787   1.010  1.00  0.00     0.041 C 
ATOM      7  O   UNL     1      18.522 -39.934   0.490  1.00  0.00    -0.550 OA
ATOM      8  O   UNL     1      19.554 -37.905   0.757  1.00  0.00    -0.550 OA
ENDBRANCH   5   6
ENDBRANCH   4   5
ENDBRANCH   3   4
ENDBRANCH   2   3
ENDBRANCH   1   2
BRANCH   1   9
ATOM      9  C   UNL     1      16.927 -37.544  -2.299  1.00  0.00     0.000 C 
BRANCH   9  10
ATOM     10  C   UNL     1      17.844 -36.313  -2.312  1.00  0.00    -0.000 C 
BRANCH  10  11
ATOM     11  C   UNL     1      17.320 -35.227  -1.364  1.00  0.00    -0.000 C 
BRANCH  11  12
ATOM     12  C   UNL     1      17.474 -33.834  -1.984  1.00  0.00    -0.000 C 
BRANCH  12  13
ATOM     13  C   UNL     1      16.108 -33.173  -2.200  1.00  0.00    -0.003 C 
ATOM     14  C   UNL     1      15.132 -33.550  -1.089  1.00  0.00     0.004 C 
ENDBRANCH  12  13
ENDBRANCH  11  12
ENDBRANCH  10  11
ENDBRANCH   9  10
ENDBRANCH   1   9
TORSDOF 10
ENDMDL
MODEL 5
REMARK VINA RESULT:    -3.882      3.359      5.605
REMARK INTER + INTRA:          -7.473
REMARK INTER:                  -6.129
REMARK INTRA:                  -1.344
REMARK UNBOUND:                -1.323
REMARK SMILES CCCCCCCCCCCC(=O)[O-]
REMARK SMILES IDX 7 1 8 2 9 3 10 4 11 5 12 6 13 7 14 8 6 9 5 10 4 11 3 12 2 13
REMARK SMILES IDX 1 14
REMARK H PARENT
REMARK Flexibility Score: inf
ROOT
ATOM      1  C   UNL     1      16.654 -35.430   0.516  1.00  0.00     0.000 C 
ENDROOT
BRANCH   1   2
ATOM      2  C   UNL     1      17.665 -34.458  -0.126  1.00  0.00     0.000 C 
BRANCH   2   3
ATOM      3  C   UNL     1      17.439 -34.177  -1.623  1.00  0.00     0.000 C 
BRANCH   3   4
ATOM      4  C   UNL     1      15.955 -34.023  -1.985  1.00  0.00     0.006 C 
BRANCH   4   5
ATOM      5  C   UNL     1      15.556 -32.546  -2.042  1.00  0.00     0.053 C 
BRANCH   5   6
ATOM      6  C   UNL     1      14.362 -32.292  -1.177  1.00  0.00     0.041 C 
ATOM      7  O   UNL     1      13.694 -31.234  -1.315  1.00  0.00    -0.550 OA
ATOM      8  O   UNL     1      14.018 -33.199  -0.183  1.00  0.00    -0.550 OA
ENDBRANCH   5   6
ENDBRANCH   4   5
ENDBRANCH   3   4
ENDBRANCH   2   3
ENDBRANCH   1   2
BRANCH   1   9
ATOM      9  C   UNL     1      17.279 -36.619   1.267  1.00  0.00     0.000 C 
BRANCH   9  10
ATOM     10  C   UNL     1      18.561 -37.138   0.602  1.00  0.00    -0.000 C 
BRANCH  10  11
ATOM     11  C   UNL     1      18.243 -38.236  -0.421  1.00  0.00    -0.000 C 
BRANCH  11  12
ATOM     12  C   UNL     1      18.215 -37.670  -1.845  1.00  0.00    -0.000 C 
BRANCH  12  13
ATOM     13  C   UNL     1      16.798 -37.718  -2.428  1.00  0.00    -0.003 C 
ATOM     14  C   UNL     1      15.914 -38.689  -1.651  1.00  0.00     0.004 C 
ENDBRANCH  12  13
ENDBRANCH  11  12
ENDBRANCH  10  11
ENDBRANCH   9  10
ENDBRANCH   1   9
TORSDOF 10
ENDMDL
MODEL 6
REMARK VINA RESULT:    -3.860      1.927      3.132
REMARK INTER + INTRA:          -7.439
REMARK INTER:                  -5.770
REMARK INTRA:                  -1.669
REMARK UNBOUND:                -1.323
REMARK SMILES CCCCCCCCCCCC(=O)[O-]
REMARK SMILES IDX 7 1 8 2 9 3 10 4 11 5 12 6 13 7 14 8 6 9 5 10 4 11 3 12 2 13
REMARK SMILES IDX 1 14
REMARK H PARENT
REMARK Flexibility Score: inf
ROOT
ATOM      1  C   UNL     1      17.222 -37.524  -2.425  1.00  0.00     0.000 C 
ENDROOT
BRANCH   1   2
ATOM      2  C   UNL     1      15.731 -37.682  -2.068  1.00  0.00     0.000 C 
BRANCH   2   3
ATOM      3  C   UNL     1      15.453 -38.311  -0.691  1.00  0.00     0.000 C 
BRANCH   3   4
ATOM      4  C   UNL     1      16.600 -39.207  -0.200  1.00  0.00     0.006 C 
BRANCH   4   5
ATOM      5  C   UNL     1      16.991 -38.858   1.238  1.00  0.00     0.053 C 
BRANCH   5   6
ATOM      6  C   UNL     1      18.480 -38.810   1.380  1.00  0.00     0.041 C 
ATOM      7  O   UNL     1      19.191 -38.348   0.449  1.00  0.00    -0.550 OA
ATOM      8  O   UNL     1      19.086 -39.324   2.519  1.00  0.00    -0.550 OA
ENDBRANCH   5   6
ENDBRANCH   4   5
ENDBRANCH   3   4
ENDBRANCH   2   3
ENDBRANCH   1   2
BRANCH   1   9
ATOM      9  C   UNL     1      17.823 -36.140  -2.123  1.00  0.00     0.000 C 
BRANCH   9  10
ATOM     10  C   UNL     1      16.760 -35.035  -2.029  1.00  0.00    -0.000 C 
BRANCH  10  11
ATOM     11  C   UNL     1      16.725 -34.427  -0.621  1.00  0.00    -0.000 C 
BRANCH  11  12
ATOM     12  C   UNL     1      17.786 -35.066   0.282  1.00  0.00    -0.000 C 
BRANCH  12  13
ATOM     13  C   UNL     1      17.257 -35.245   1.710  1.00  0.00    -0.003 C 
ATOM     14  C   UNL     1      15.745 -35.444   1.717  1.00  0.00     0.004 C 
ENDBRANCH  12  13
ENDBRANCH  11  12
ENDBRANCH  10  11
ENDBRANCH   9  10
ENDBRANCH   1   9
TORSDOF 10
ENDMDL
MODEL 7
REMARK VINA RESULT:    -3.808      3.523      5.579
REMARK INTER + INTRA:          -7.357
REMARK INTER:                  -5.986
REMARK INTRA:                  -1.371
REMARK UNBOUND:                -1.323
REMARK SMILES CCCCCCCCCCCC(=O)[O-]
REMARK SMILES IDX 7 1 8 2 9 3 10 4 11 5 12 6 13 7 14 8 6 9 5 10 4 11 3 12 2 13
REMARK SMILES IDX 1 14
REMARK H PARENT
REMARK Flexibility Score: inf
ROOT
ATOM      1  C   UNL     1      17.553 -37.474  -2.046  1.00  0.00     0.000 C 
ENDROOT
BRANCH   1   2
ATOM      2  C   UNL     1      17.699 -35.940  -2.116  1.00  0.00     0.000 C 
BRANCH   2   3
ATOM      3  C   UNL     1      16.380 -35.154  -2.010  1.00  0.00     0.000 C 
BRANCH   3   4
ATOM      4  C   UNL     1      16.582 -33.708  -1.533  1.00  0.00     0.006 C 
BRANCH   4   5
ATOM      5  C   UNL     1      15.621 -32.755  -2.249  1.00  0.00     0.053 C 
BRANCH   5   6
ATOM      6  C   UNL     1      14.614 -32.207  -1.289  1.00  0.00     0.041 C 
ATOM      7  O   UNL     1      14.111 -32.950  -0.405  1.00  0.00    -0.550 OA
ATOM      8  O   UNL     1      14.191 -30.889  -1.402  1.00  0.00    -0.550 OA
ENDBRANCH   5   6
ENDBRANCH   4   5
ENDBRANCH   3   4
ENDBRANCH   2   3
ENDBRANCH   1   2
BRANCH   1   9
ATOM      9  C   UNL     1      18.014 -38.114  -0.725  1.00  0.00     0.000 C 
BRANCH   9  10
ATOM     10  C   UNL     1      18.438 -37.077   0.325  1.00  0.00    -0.000 C 
BRANCH  10  11
ATOM     11  C   UNL     1      17.397 -36.974   1.447  1.00  0.00    -0.000 C 
BRANCH  11  12
ATOM     12  C   UNL     1      17.043 -35.511   1.736  1.00  0.00    -0.000 C 
BRANCH  12  13
ATOM     13  C   UNL     1      15.523 -35.312   1.783  1.00  0.00    -0.003 C 
ATOM     14  C   UNL     1      14.800 -36.405   1.002  1.00  0.00     0.004 C 
ENDBRANCH  12  13
ENDBRANCH  11  12
ENDBRANCH  10  11
ENDBRANCH   9  10
ENDBRANCH   1   9
TORSDOF 10
ENDMDL
MODEL 8
REMARK VINA RESULT:    -3.756      2.088      3.086
REMARK INTER + INTRA:          -7.275
REMARK INTER:                  -5.821
REMARK INTRA:                  -1.454
REMARK UNBOUND:                -1.323
REMARK SMILES CCCCCCCCCCCC(=O)[O-]
REMARK SMILES IDX 7 1 8 2 9 3 10 4 11 5 12 6 13 7 14 8 6 9 5 10 4 11 3 12 2 13
REMARK SMILES IDX 1 14
REMARK H PARENT
REMARK Flexibility Score: inf
ROOT
ATOM      1  C   UNL     1      16.752 -35.475   0.968  1.00  0.00     0.000 C 
ENDROOT
BRANCH   1   2
ATOM      2  C   UNL     1      17.244 -36.870   1.404  1.00  0.00     0.000 C 
BRANCH   2   3
ATOM      3  C   UNL     1      18.642 -37.259   0.890  1.00  0.00     0.000 C 
BRANCH   3   4
ATOM      4  C   UNL     1      18.720 -38.720   0.419  1.00  0.00     0.006 C 
BRANCH   4   5
ATOM      5  C   UNL     1      17.424 -39.468   0.741  1.00  0.00     0.053 C 
BRANCH   5   6
ATOM      6  C   UNL     1      17.677 -40.941   0.825  1.00  0.00     0.041 C 
ATOM      7  O   UNL     1      16.724 -41.735   1.038  1.00  0.00    -0.550 OA
ATOM      8  O   UNL     1      18.972 -41.431   0.718  1.00  0.00    -0.550 OA
ENDBRANCH   5   6
ENDBRANCH   4   5
ENDBRANCH   3   4
ENDBRANCH   2   3
ENDBRANCH   1   2
BRANCH   1   9
ATOM      9  C   UNL     1      17.756 -34.661   0.132  1.00  0.00     0.000 C 
BRANCH   9  10
ATOM     10  C   UNL     1      17.143 -34.105  -1.162  1.00  0.00    -0.000 C 
BRANCH  10  11
ATOM     11  C   UNL     1      16.606 -35.237  -2.046  1.00  0.00    -0.000 C 
BRANCH  11  12
ATOM     12  C   UNL     1      17.709 -36.249  -2.376  1.00  0.00    -0.000 C 
BRANCH  12  13
ATOM     13  C   UNL     1      17.134 -37.663  -2.522  1.00  0.00    -0.003 C 
ATOM     14  C   UNL     1      15.672 -37.710  -2.089  1.00  0.00     0.004 C 
ENDBRANCH  12  13
ENDBRANCH  11  12
ENDBRANCH  10  11
ENDBRANCH   9  10
ENDBRANCH   1   9
TORSDOF 10
ENDMDL
MODEL 9
REMARK VINA RESULT:    -3.727      3.056      4.023
REMARK INTER + INTRA:          -7.229
REMARK INTER:                  -6.216
REMARK INTRA:                  -1.013
REMARK UNBOUND:                -1.323
REMARK SMILES CCCCCCCCCCCC(=O)[O-]
REMARK SMILES IDX 7 1 8 2 9 3 10 4 11 5 12 6 13 7 14 8 6 9 5 10 4 11 3 12 2 13
REMARK SMILES IDX 1 14
REMARK H PARENT
REMARK Flexibility Score: inf
ROOT
ATOM      1  C   UNL     1      17.802 -36.490  -2.059  1.00  0.00     0.000 C 
ENDROOT
BRANCH   1   2
ATOM      2  C   UNL     1      16.914 -37.657  -2.534  1.00  0.00     0.000 C 
BRANCH   2   3
ATOM      3  C   UNL     1      15.419 -37.520  -2.194  1.00  0.00     0.000 C 
BRANCH   3   4
ATOM      4  C   UNL     1      14.558 -38.626  -2.824  1.00  0.00     0.006 C 
BRANCH   4   5
ATOM      5  C   UNL     1      15.356 -39.925  -2.966  1.00  0.00     0.053 C 
BRANCH   5   6
ATOM      6  C   UNL     1      15.422 -40.345  -4.401  1.00  0.00     0.041 C 
ATOM      7  O   UNL     1      16.528 -40.380  -5.000  1.00  0.00    -0.550 OA
ATOM      8  O   UNL     1      14.255 -40.648  -5.091  1.00  0.00    -0.550 OA
ENDBRANCH   5   6
ENDBRANCH   4   5
ENDBRANCH   3   4
ENDBRANCH   2   3
ENDBRANCH   1   2
BRANCH   1   9
ATOM      9  C   UNL     1      17.505 -35.979  -0.639  1.00  0.00     0.000 C 
BRANCH   9  10
ATOM     10  C   UNL     1      17.228 -34.469  -0.593  1.00  0.00    -0.000 C 
BRANCH  10  11
ATOM     11  C   UNL     1      17.173 -33.877  -2.007  1.00  0.00    -0.000 C 
BRANCH  11  12
ATOM     12  C   UNL     1      15.996 -32.906  -2.151  1.00  0.00    -0.000 C 
BRANCH  12  13
ATOM     13  C   UNL     1      14.737 -33.463  -1.476  1.00  0.00    -0.003 C 
ATOM     14  C   UNL     1      13.835 -34.166  -2.486  1.00  0.00     0.004 C 
ENDBRANCH  12  13
ENDBRANCH  11  12
ENDBRANCH  10  11
ENDBRANCH   9  10
ENDBRANCH   1   9
TORSDOF 10
ENDMDL
