MODEL 1
REMARK VINA RESULT:    -4.295      0.000      0.000
REMARK INTER + INTRA:          -7.356
REMARK INTER:                  -6.555
REMARK INTRA:                  -0.801
REMARK UNBOUND:                -0.801
REMARK SMILES O=C([O-])CCCCCCCCC(=O)[O-]
REMARK SMILES IDX 7 1 6 2 5 3 4 4 2 5 1 6 3 7 8 8 9 9 10 10 11 11 12 12 13 13
REMARK SMILES IDX 14 14
REMARK H PARENT
REMARK Flexibility Score: inf
ROOT
ATOM      1  C   UNL     1      11.111  30.260  26.891  1.00  0.00     0.000 C 
ENDROOT
BRANCH   1   2
ATOM      2  C   UNL     1      10.134  30.674  25.779  1.00  0.00     0.000 C 
BRANCH   2   3
ATOM      3  C   UNL     1       9.583  32.085  26.030  1.00  0.00     0.006 C 
BRANCH   3   4
ATOM      4  C   UNL     1       9.528  32.924  24.746  1.00  0.00     0.053 C 
BRANCH   4   5
ATOM      5  C   UNL     1      10.845  33.571  24.447  1.00  0.00     0.041 C 
ATOM      6  O   UNL     1      11.430  33.344  23.355  1.00  0.00    -0.550 OA
ATOM      7  O   UNL     1      11.411  34.452  25.360  1.00  0.00    -0.550 OA
ENDBRANCH   4   5
ENDBRANCH   3   4
ENDBRANCH   2   3
ENDBRANCH   1   2
BRANCH   1   8
ATOM      8  C   UNL     1      12.306  31.218  27.016  1.00  0.00     0.000 C 
BRANCH   8   9
ATOM      9  C   UNL     1      13.064  31.050  28.343  1.00  0.00     0.000 C 
BRANCH   9  10
ATOM     10  C   UNL     1      12.141  30.489  29.435  1.00  0.00     0.006 C 
BRANCH  10  11
ATOM     11  C   UNL     1      11.717  31.563  30.445  1.00  0.00     0.053 C 
BRANCH  11  12
ATOM     12  C   UNL     1      10.423  32.211  30.058  1.00  0.00     0.041 C 
ATOM     13  O   UNL     1       9.334  31.769  30.510  1.00  0.00    -0.550 OA
ATOM     14  O   UNL     1      10.423  33.323  29.225  1.00  0.00    -0.550 OA
ENDBRANCH  11  12
ENDBRANCH  10  11
ENDBRANCH   9  10
ENDBRANCH   8   9
ENDBRANCH   1   8
TORSDOF 9
ENDMDL
MODEL 2
REMARK VINA RESULT:    -4.246      1.249      5.488
REMARK INTER + INTRA:          -7.281
REMARK INTER:                  -6.665
REMARK INTRA:                  -0.616
REMARK UNBOUND:                -0.801
REMARK SMILES O=C([O-])CCCCCCCCC(=O)[O-]
REMARK SMILES IDX 7 1 6 2 5 3 4 4 2 5 1 6 3 7 8 8 9 9 10 10 11 11 12 12 13 13
REMARK SMILES IDX 14 14
REMARK H PARENT
REMARK Flexibility Score: inf
ROOT
ATOM      1  C   UNL     1      10.982  31.322  27.426  1.00  0.00     0.000 C 
ENDROOT
BRANCH   1   2
ATOM      2  C   UNL     1      12.497  31.575  27.438  1.00  0.00     0.000 C 
BRANCH   2   3
ATOM      3  C   UNL     1      13.164  30.854  28.619  1.00  0.00     0.006 C 
BRANCH   3   4
ATOM      4  C   UNL     1      12.154  30.469  29.709  1.00  0.00     0.053 C 
BRANCH   4   5
ATOM      5  C   UNL     1      12.037  31.530  30.759  1.00  0.00     0.041 C 
ATOM      6  O   UNL     1      13.071  32.013  31.291  1.00  0.00    -0.550 OA
ATOM      7  O   UNL     1      10.786  32.011  31.128  1.00  0.00    -0.550 OA
ENDBRANCH   4   5
ENDBRANCH   3   4
ENDBRANCH   2   3
ENDBRANCH   1   2
BRANCH   1   8
ATOM      8  C   UNL     1      10.558  30.314  26.346  1.00  0.00     0.000 C 
BRANCH   8   9
ATOM      9  C   UNL     1       9.730  30.960  25.224  1.00  0.00     0.000 C 
BRANCH   9  10
ATOM     10  C   UNL     1       9.381  32.416  25.568  1.00  0.00     0.006 C 
BRANCH  10  11
ATOM     11  C   UNL     1       9.707  33.378  24.418  1.00  0.00     0.053 C 
BRANCH  11  12
ATOM     12  C   UNL     1      10.961  34.154  24.679  1.00  0.00     0.041 C 
ATOM     13  O   UNL     1      11.733  34.447  23.727  1.00  0.00    -0.550 OA
ATOM     14  O   UNL     1      11.261  34.582  25.966  1.00  0.00    -0.550 OA
ENDBRANCH  11  12
ENDBRANCH  10  11
ENDBRANCH   9  10
ENDBRANCH   8   9
ENDBRANCH   1   8
TORSDOF 9
ENDMDL
MODEL 3
REMARK VINA RESULT:    -4.162      2.344      3.018
REMARK INTER + INTRA:          -7.153
REMARK INTER:                  -6.655
REMARK INTRA:                  -0.498
REMARK UNBOUND:                -0.801
REMARK SMILES O=C([O-])CCCCCCCCC(=O)[O-]
REMARK SMILES IDX 7 1 6 2 5 3 4 4 2 5 1 6 3 7 8 8 9 9 10 10 11 11 12 12 13 13
REMARK SMILES IDX 14 14
REMARK H PARENT
REMARK Flexibility Score: inf
ROOT
ATOM      1  C   UNL     1      10.642  32.791  27.132  1.00  0.00     0.000 C 
ENDROOT
BRANCH   1   2
ATOM      2  C   UNL     1      11.173  33.865  26.170  1.00  0.00     0.000 C 
BRANCH   2   3
ATOM      3  C   UNL     1      10.647  33.634  24.745  1.00  0.00     0.006 C 
BRANCH   3   4
ATOM      4  C   UNL     1      10.248  32.172  24.503  1.00  0.00     0.053 C 
BRANCH   4   5
ATOM      5  C   UNL     1      11.333  31.407  23.810  1.00  0.00     0.041 C 
ATOM      6  O   UNL     1      11.789  31.811  22.708  1.00  0.00    -0.550 OA
ATOM      7  O   UNL     1      11.865  30.265  24.397  1.00  0.00    -0.550 OA
ENDBRANCH   4   5
ENDBRANCH   3   4
ENDBRANCH   2   3
ENDBRANCH   1   2
BRANCH   1   8
ATOM      8  C   UNL     1      10.506  33.301  28.574  1.00  0.00     0.000 C 
BRANCH   8   9
ATOM      9  C   UNL     1      10.006  32.218  29.542  1.00  0.00     0.000 C 
BRANCH   9  10
ATOM     10  C   UNL     1      11.118  31.793  30.512  1.00  0.00     0.006 C 
BRANCH  10  11
ATOM     11  C   UNL     1      12.061  30.750  29.896  1.00  0.00     0.053 C 
BRANCH  11  12
ATOM     12  C   UNL     1      13.332  31.371  29.405  1.00  0.00     0.041 C 
ATOM     13  O   UNL     1      14.019  32.097  30.173  1.00  0.00    -0.550 OA
ATOM     14  O   UNL     1      13.776  31.123  28.113  1.00  0.00    -0.550 OA
ENDBRANCH  11  12
ENDBRANCH  10  11
ENDBRANCH   9  10
ENDBRANCH   8   9
ENDBRANCH   1   8
TORSDOF 9
ENDMDL
MODEL 4
REMARK VINA RESULT:    -4.147      1.863      2.695
REMARK INTER + INTRA:          -7.130
REMARK INTER:                  -6.151
REMARK INTRA:                  -0.979
REMARK UNBOUND:                -0.801
REMARK SMILES O=C([O-])CCCCCCCCC(=O)[O-]
REMARK SMILES IDX 7 1 6 2 5 3 4 4 2 5 1 6 3 7 8 8 9 9 10 10 11 11 12 12 13 13
REMARK SMILES IDX 14 14
REMARK H PARENT
REMARK Flexibility Score: inf
ROOT
ATOM      1  C   UNL     1       9.047  30.724  26.916  1.00  0.00     0.000 C 
ENDROOT
BRANCH   1   2
ATOM      2  C   UNL     1      10.005  30.298  25.793  1.00  0.00     0.000 C 
BRANCH   2   3
ATOM      3  C   UNL     1      11.238  31.213  25.747  1.00  0.00     0.006 C 
BRANCH   3   4
ATOM      4  C   UNL     1      10.886  32.677  26.046  1.00  0.00     0.053 C 
BRANCH   4   5
ATOM      5  C   UNL     1      10.984  33.534  24.822  1.00  0.00     0.041 C 
ATOM      6  O   UNL     1      11.086  34.784  24.930  1.00  0.00    -0.550 OA
ATOM      7  O   UNL     1      10.996  32.950  23.561  1.00  0.00    -0.550 OA
ENDBRANCH   4   5
ENDBRANCH   3   4
ENDBRANCH   2   3
ENDBRANCH   1   2
BRANCH   1   8
ATOM      8  C   UNL     1       9.306  29.977  28.233  1.00  0.00     0.000 C 
BRANCH   8   9
ATOM      9  C   UNL     1       9.326  30.912  29.451  1.00  0.00     0.000 C 
BRANCH   9  10
ATOM     10  C   UNL     1      10.710  31.556  29.627  1.00  0.00     0.006 C 
BRANCH  10  11
ATOM     11  C   UNL     1      11.850  30.554  29.400  1.00  0.00     0.053 C 
BRANCH  11  12
ATOM     12  C   UNL     1      13.162  31.244  29.184  1.00  0.00     0.041 C 
ATOM     13  O   UNL     1      13.607  32.042  30.052  1.00  0.00    -0.550 OA
ATOM     14  O   UNL     1      13.908  30.983  28.042  1.00  0.00    -0.550 OA
ENDBRANCH  11  12
ENDBRANCH  10  11
ENDBRANCH   9  10
ENDBRANCH   8   9
ENDBRANCH   1   8
TORSDOF 9
ENDMDL
MODEL 5
REMARK VINA RESULT:    -4.122      1.623      2.016
REMARK INTER + INTRA:          -7.092
REMARK INTER:                  -6.355
REMARK INTRA:                  -0.737
REMARK UNBOUND:                -0.801
REMARK SMILES O=C([O-])CCCCCCCCC(=O)[O-]
REMARK SMILES IDX 7 1 6 2 5 3 4 4 2 5 1 6 3 7 8 8 9 9 10 10 11 11 12 12 13 13
REMARK SMILES IDX 14 14
REMARK H PARENT
REMARK Flexibility Score: inf
ROOT
ATOM      1  C   UNL     1       9.247  31.248  27.822  1.00  0.00     0.000 C 
ENDROOT
BRANCH   1   2
ATOM      2  C   UNL     1       8.923  30.974  26.345  1.00  0.00     0.000 C 
BRANCH   2   3
ATOM      3  C   UNL     1       9.296  32.179  25.469  1.00  0.00     0.006 C 
BRANCH   3   4
ATOM      4  C   UNL     1      10.578  31.935  24.662  1.00  0.00     0.053 C 
BRANCH   4   5
ATOM      5  C   UNL     1      11.067  33.187  24.001  1.00  0.00     0.041 C 
ATOM      6  O   UNL     1      11.557  33.143  22.842  1.00  0.00    -0.550 OA
ATOM      7  O   UNL     1      10.952  34.409  24.652  1.00  0.00    -0.550 OA
ENDBRANCH   4   5
ENDBRANCH   3   4
ENDBRANCH   2   3
ENDBRANCH   1   2
BRANCH   1   8
ATOM      8  C   UNL     1       9.954  30.067  28.504  1.00  0.00     0.000 C 
BRANCH   8   9
ATOM      9  C   UNL     1      11.428  29.938  28.087  1.00  0.00     0.000 C 
BRANCH   9  10
ATOM     10  C   UNL     1      12.120  31.309  28.086  1.00  0.00     0.006 C 
BRANCH  10  11
ATOM     11  C   UNL     1      13.220  31.405  29.152  1.00  0.00     0.053 C 
BRANCH  11  12
ATOM     12  C   UNL     1      12.730  32.079  30.398  1.00  0.00     0.041 C 
ATOM     13  O   UNL     1      13.452  32.103  31.429  1.00  0.00    -0.550 OA
ATOM     14  O   UNL     1      11.492  32.708  30.409  1.00  0.00    -0.550 OA
ENDBRANCH  11  12
ENDBRANCH  10  11
ENDBRANCH   9  10
ENDBRANCH   8   9
ENDBRANCH   1   8
TORSDOF 9
ENDMDL
MODEL 6
REMARK VINA RESULT:    -4.104      1.892      5.018
REMARK INTER + INTRA:          -7.064
REMARK INTER:                  -6.363
REMARK INTRA:                  -0.701
REMARK UNBOUND:                -0.801
REMARK SMILES O=C([O-])CCCCCCCCC(=O)[O-]
REMARK SMILES IDX 7 1 6 2 5 3 4 4 2 5 1 6 3 7 8 8 9 9 10 10 11 11 12 12 13 13
REMARK SMILES IDX 14 14
REMARK H PARENT
REMARK Flexibility Score: inf
ROOT
ATOM      1  C   UNL     1       9.530  29.963  27.890  1.00  0.00     0.000 C 
ENDROOT
BRANCH   1   2
ATOM      2  C   UNL     1       9.968  31.332  28.432  1.00  0.00     0.000 C 
BRANCH   2   3
ATOM      3  C   UNL     1      10.980  31.171  29.576  1.00  0.00     0.006 C 
BRANCH   3   4
ATOM      4  C   UNL     1      12.162  30.274  29.184  1.00  0.00     0.053 C 
BRANCH   4   5
ATOM      5  C   UNL     1      13.387  31.075  28.865  1.00  0.00     0.041 C 
ATOM      6  O   UNL     1      13.845  31.093  27.692  1.00  0.00    -0.550 OA
ATOM      7  O   UNL     1      14.003  31.830  29.855  1.00  0.00    -0.550 OA
ENDBRANCH   4   5
ENDBRANCH   3   4
ENDBRANCH   2   3
ENDBRANCH   1   2
BRANCH   1   8
ATOM      8  C   UNL     1       9.568  29.892  26.356  1.00  0.00     0.000 C 
BRANCH   8   9
ATOM      9  C   UNL     1      10.900  30.386  25.772  1.00  0.00     0.000 C 
BRANCH   9  10
ATOM     10  C   UNL     1      10.666  31.265  24.534  1.00  0.00     0.006 C 
BRANCH  10  11
ATOM     11  C   UNL     1      10.101  32.644  24.899  1.00  0.00     0.053 C 
BRANCH  11  12
ATOM     12  C   UNL     1      10.983  33.753  24.413  1.00  0.00     0.041 C 
ATOM     13  O   UNL     1      11.199  34.756  25.144  1.00  0.00    -0.550 OA
ATOM     14  O   UNL     1      11.593  33.664  23.168  1.00  0.00    -0.550 OA
ENDBRANCH  11  12
ENDBRANCH  10  11
ENDBRANCH   9  10
ENDBRANCH   8   9
ENDBRANCH   1   8
TORSDOF 9
ENDMDL
MODEL 7
REMARK VINA RESULT:    -4.051      2.502      5.494
REMARK INTER + INTRA:          -6.984
REMARK INTER:                  -6.282
REMARK INTRA:                  -0.703
REMARK UNBOUND:                -0.801
REMARK SMILES O=C([O-])CCCCCCCCC(=O)[O-]
REMARK SMILES IDX 7 1 6 2 5 3 4 4 2 5 1 6 3 7 8 8 9 9 10 10 11 11 12 12 13 13
REMARK SMILES IDX 14 14
REMARK H PARENT
REMARK Flexibility Score: inf
ROOT
ATOM      1  C   UNL     1      10.566  33.182  28.420  1.00  0.00     0.000 C 
ENDROOT
BRANCH   1   2
ATOM      2  C   UNL     1       9.990  32.052  29.287  1.00  0.00     0.000 C 
BRANCH   2   3
ATOM      3  C   UNL     1      11.063  31.001  29.605  1.00  0.00     0.006 C 
BRANCH   3   4
ATOM      4  C   UNL     1      12.076  31.502  30.644  1.00  0.00     0.053 C 
BRANCH   4   5
ATOM      5  C   UNL     1      13.437  31.694  30.048  1.00  0.00     0.041 C 
ATOM      6  O   UNL     1      14.264  32.472  30.593  1.00  0.00    -0.550 OA
ATOM      7  O   UNL     1      13.805  30.987  28.910  1.00  0.00    -0.550 OA
ENDBRANCH   4   5
ENDBRANCH   3   4
ENDBRANCH   2   3
ENDBRANCH   1   2
BRANCH   1   8
ATOM      8  C   UNL     1      11.273  32.660  27.159  1.00  0.00     0.000 C 
BRANCH   8   9
ATOM      9  C   UNL     1      10.811  33.378  25.881  1.00  0.00     0.000 C 
BRANCH   9  10
ATOM     10  C   UNL     1       9.971  32.443  24.999  1.00  0.00     0.006 C 
BRANCH  10  11
ATOM     11  C   UNL     1      10.144  30.968  25.385  1.00  0.00     0.053 C 
BRANCH  11  12
ATOM     12  C   UNL     1      10.955  30.219  24.373  1.00  0.00     0.041 C 
ATOM     13  O   UNL     1      10.381  29.558  23.466  1.00  0.00    -0.550 OA
ATOM     14  O   UNL     1      12.342  30.275  24.410  1.00  0.00    -0.550 OA
ENDBRANCH  11  12
ENDBRANCH  10  11
ENDBRANCH   9  10
ENDBRANCH   8   9
ENDBRANCH   1   8
TORSDOF 9
ENDMDL
MODEL 8
REMARK VINA RESULT:    -4.017     10.209     11.694
REMARK INTER + INTRA:          -6.932
REMARK INTER:                  -6.095
REMARK INTRA:                  -0.837
REMARK UNBOUND:                -0.801
REMARK SMILES O=C([O-])CCCCCCCCC(=O)[O-]
REMARK SMILES IDX 7 1 6 2 5 3 4 4 2 5 1 6 3 7 8 8 9 9 10 10 11 11 12 12 13 13
REMARK SMILES IDX 14 14
REMARK H PARENT
REMARK Flexibility Score: inf
ROOT
ATOM      1  C   UNL     1       2.550  30.941  17.875  1.00  0.00     0.000 C 
ENDROOT
BRANCH   1   2
ATOM      2  C   UNL     1       2.566  32.411  17.429  1.00  0.00     0.000 C 
BRANCH   2   3
ATOM      3  C   UNL     1       3.992  32.979  17.460  1.00  0.00     0.006 C 
BRANCH   3   4
ATOM      4  C   UNL     1       4.559  33.046  18.885  1.00  0.00     0.053 C 
BRANCH   4   5
ATOM      5  C   UNL     1       4.767  34.459  19.335  1.00  0.00     0.041 C 
ATOM      6  O   UNL     1       5.846  34.795  19.891  1.00  0.00    -0.550 OA
ATOM      7  O   UNL     1       3.782  35.413  19.112  1.00  0.00    -0.550 OA
ENDBRANCH   4   5
ENDBRANCH   3   4
ENDBRANCH   2   3
ENDBRANCH   1   2
BRANCH   1   8
ATOM      8  C   UNL     1       3.262  30.011  16.879  1.00  0.00     0.000 C 
BRANCH   8   9
ATOM      9  C   UNL     1       3.882  28.780  17.557  1.00  0.00     0.000 C 
BRANCH   9  10
ATOM     10  C   UNL     1       4.999  29.192  18.528  1.00  0.00     0.006 C 
BRANCH  10  11
ATOM     11  C   UNL     1       6.170  29.875  17.811  1.00  0.00     0.053 C 
BRANCH  11  12
ATOM     12  C   UNL     1       7.419  29.049  17.873  1.00  0.00     0.041 C 
ATOM     13  O   UNL     1       8.546  29.610  17.924  1.00  0.00    -0.550 OA
ATOM     14  O   UNL     1       7.337  27.663  17.908  1.00  0.00    -0.550 OA
ENDBRANCH  11  12
ENDBRANCH  10  11
ENDBRANCH   9  10
ENDBRANCH   8   9
ENDBRANCH   1   8
TORSDOF 9
ENDMDL
MODEL 9
REMARK VINA RESULT:    -4.006      1.231      5.466
REMARK INTER + INTRA:          -6.916
REMARK INTER:                  -6.343
REMARK INTRA:                  -0.572
REMARK UNBOUND:                -0.801
REMARK SMILES O=C([O-])CCCCCCCCC(=O)[O-]
REMARK SMILES IDX 7 1 6 2 5 3 4 4 2 5 1 6 3 7 8 8 9 9 10 10 11 11 12 12 13 13
REMARK SMILES IDX 14 14
REMARK H PARENT
REMARK Flexibility Score: inf
ROOT
ATOM      1  C   UNL     1      13.321  31.206  28.889  1.00  0.00     0.000 C 
ENDROOT
BRANCH   1   2
ATOM      2  C   UNL     1      12.144  30.498  29.578  1.00  0.00     0.000 C 
BRANCH   2   3
ATOM      3  C   UNL     1      11.598  31.344  30.738  1.00  0.00     0.006 C 
BRANCH   3   4
ATOM      4  C   UNL     1      10.333  32.120  30.345  1.00  0.00     0.053 C 
BRANCH   4   5
ATOM      5  C   UNL     1       9.087  31.396  30.754  1.00  0.00     0.041 C 
ATOM      6  O   UNL     1       8.489  30.652  29.933  1.00  0.00    -0.550 OA
ATOM      7  O   UNL     1       8.605  31.516  32.051  1.00  0.00    -0.550 OA
ENDBRANCH   4   5
ENDBRANCH   3   4
ENDBRANCH   2   3
ENDBRANCH   1   2
BRANCH   1   8
ATOM      8  C   UNL     1      13.102  31.387  27.379  1.00  0.00     0.000 C 
BRANCH   8   9
ATOM      9  C   UNL     1      11.854  32.223  27.057  1.00  0.00     0.000 C 
BRANCH   9  10
ATOM     10  C   UNL     1      10.962  31.506  26.032  1.00  0.00     0.006 C 
BRANCH  10  11
ATOM     11  C   UNL     1      10.044  32.478  25.280  1.00  0.00     0.053 C 
BRANCH  11  12
ATOM     12  C   UNL     1      10.821  33.412  24.403  1.00  0.00     0.041 C 
ATOM     13  O   UNL     1      11.233  33.026  23.277  1.00  0.00    -0.550 OA
ATOM     14  O   UNL     1      11.062  34.716  24.814  1.00  0.00    -0.550 OA
ENDBRANCH  11  12
ENDBRANCH  10  11
ENDBRANCH   9  10
ENDBRANCH   8   9
ENDBRANCH   1   8
TORSDOF 9
ENDMDL
