MODEL 1
REMARK VINA RESULT:    -3.044      0.000      0.000
REMARK INTER + INTRA:          -3.133
REMARK INTER:                  -3.133
REMARK INTRA:                   0.000
REMARK UNBOUND:                 0.000
REMARK SMILES Oc1ccc2[nH]ccc2c1
REMARK SMILES IDX 3 1 4 2 5 3 9 4 8 5 7 6 6 7 10 8 2 9 1 11
REMARK H PARENT 6 10 1 12
REMARK Flexibility Score: inf
ROOT
ATOM      1  C   UNL     1      95.875  99.375 104.574  1.00  0.00     0.048 A 
ATOM      2  C   UNL     1      96.259 100.566 105.218  1.00  0.00     0.030 A 
ATOM      3  C   UNL     1      97.390 101.226 104.743  1.00  0.00     0.046 A 
ATOM      4  C   UNL     1      98.115 100.744 103.686  1.00  0.00     0.003 A 
ATOM      5  C   UNL     1      99.159 101.618 103.469  1.00  0.00     0.028 A 
ATOM      6  C   UNL     1      99.007 102.610 104.432  1.00  0.00     0.083 A 
ATOM      7  N   UNL     1      97.927 102.367 105.208  1.00  0.00    -0.361 N 
ATOM      8  C   UNL     1      97.762  99.569 103.027  1.00  0.00     0.056 A 
ATOM      9  C   UNL     1      96.624  98.875 103.480  1.00  0.00     0.116 A 
ATOM     10  H   UNL     1      97.583 102.949 106.004  1.00  0.00     0.166 HD
ENDROOT
BRANCH   9  11
ATOM     11  O   UNL     1      96.244  97.697 102.843  1.00  0.00    -0.508 OA
ATOM     12  H   UNL     1      96.921  96.978 102.614  1.00  0.00     0.293 HD
ENDBRANCH   9  11
TORSDOF 1
ENDMDL
MODEL 2
REMARK VINA RESULT:    -3.033     14.609     15.684
REMARK INTER + INTRA:          -3.122
REMARK INTER:                  -3.122
REMARK INTRA:                   0.000
REMARK UNBOUND:                 0.000
REMARK SMILES Oc1ccc2[nH]ccc2c1
REMARK SMILES IDX 3 1 4 2 5 3 9 4 8 5 7 6 6 7 10 8 2 9 1 11
REMARK H PARENT 6 10 1 12
REMARK Flexibility Score: inf
ROOT
ATOM      1  C   UNL     1     113.705  95.875 104.478  1.00  0.00     0.048 A 
ATOM      2  C   UNL     1     112.506  96.246 105.115  1.00  0.00     0.030 A 
ATOM      3  C   UNL     1     111.828  97.361 104.626  1.00  0.00     0.046 A 
ATOM      4  C   UNL     1     112.301  98.083 103.562  1.00  0.00     0.003 A 
ATOM      5  C   UNL     1     111.411  99.109 103.332  1.00  0.00     0.028 A 
ATOM      6  C   UNL     1     110.418  98.951 104.294  1.00  0.00     0.083 A 
ATOM      7  N   UNL     1     110.677  97.883 105.082  1.00  0.00    -0.361 N 
ATOM      8  C   UNL     1     113.485  97.742 102.910  1.00  0.00     0.056 A 
ATOM      9  C   UNL     1     114.196  96.621 103.378  1.00  0.00     0.116 A 
ATOM     10  H   UNL     1     110.098  97.538 105.880  1.00  0.00     0.166 HD
ENDROOT
BRANCH   9  11
ATOM     11  O   UNL     1     115.382  96.253 102.748  1.00  0.00    -0.508 OA
ATOM     12  H   UNL     1     115.884  96.899 102.149  1.00  0.00     0.293 HD
ENDBRANCH   9  11
TORSDOF 1
ENDMDL
MODEL 3
REMARK VINA RESULT:    -2.919      2.092      3.335
REMARK INTER + INTRA:          -3.005
REMARK INTER:                  -3.005
REMARK INTRA:                   0.000
REMARK UNBOUND:                 0.000
REMARK SMILES Oc1ccc2[nH]ccc2c1
REMARK SMILES IDX 3 1 4 2 5 3 9 4 8 5 7 6 6 7 10 8 2 9 1 11
REMARK H PARENT 6 10 1 12
REMARK Flexibility Score: inf
ROOT
ATOM      1  C   UNL     1     100.452 101.971 104.011  1.00  0.00     0.048 A 
ATOM      2  C   UNL     1      99.527 102.527 104.914  1.00  0.00     0.030 A 
ATOM      3  C   UNL     1      98.217 102.054 104.877  1.00  0.00     0.046 A 
ATOM      4  C   UNL     1      97.827 101.081 103.996  1.00  0.00     0.003 A 
ATOM      5  C   UNL     1      96.488 100.841 104.212  1.00  0.00     0.028 A 
ATOM      6  C   UNL     1      96.126 101.705 105.241  1.00  0.00     0.083 A 
ATOM      7  N   UNL     1      97.185 102.444 105.644  1.00  0.00    -0.361 N 
ATOM      8  C   UNL     1      98.717 100.510 103.088  1.00  0.00     0.056 A 
ATOM      9  C   UNL     1     100.050 100.964 103.098  1.00  0.00     0.116 A 
ATOM     10  H   UNL     1      97.194 103.167 106.397  1.00  0.00     0.166 HD
ENDROOT
BRANCH   9  11
ATOM     11  O   UNL     1     100.965 100.414 102.204  1.00  0.00    -0.508 OA
ATOM     12  H   UNL     1     101.122 100.824 101.290  1.00  0.00     0.293 HD
ENDBRANCH   9  11
TORSDOF 1
ENDMDL
MODEL 4
REMARK VINA RESULT:    -2.909      2.577      3.757
REMARK INTER + INTRA:          -2.994
REMARK INTER:                  -2.994
REMARK INTRA:                   0.000
REMARK UNBOUND:                 0.000
REMARK SMILES Oc1ccc2[nH]ccc2c1
REMARK SMILES IDX 3 1 4 2 5 3 9 4 8 5 7 6 6 7 10 8 2 9 1 11
REMARK H PARENT 6 10 1 12
REMARK Flexibility Score: inf
ROOT
ATOM      1  C   UNL     1      99.991 102.171 104.611  1.00  0.00     0.048 A 
ATOM      2  C   UNL     1      98.594 102.061 104.731  1.00  0.00     0.030 A 
ATOM      3  C   UNL     1      97.955 101.061 103.999  1.00  0.00     0.046 A 
ATOM      4  C   UNL     1      98.652 100.208 103.185  1.00  0.00     0.003 A 
ATOM      5  C   UNL     1      97.739  99.349 102.611  1.00  0.00     0.028 A 
ATOM      6  C   UNL     1      96.505  99.738 103.122  1.00  0.00     0.083 A 
ATOM      7  N   UNL     1      96.641 100.784 103.968  1.00  0.00    -0.361 N 
ATOM      8  C   UNL     1     100.035 100.291 103.044  1.00  0.00     0.056 A 
ATOM      9  C   UNL     1     100.713 101.289 103.768  1.00  0.00     0.116 A 
ATOM     10  H   UNL     1      95.879 101.272 104.489  1.00  0.00     0.166 HD
ENDROOT
BRANCH   9  11
ATOM     11  O   UNL     1     102.096 101.399 103.650  1.00  0.00    -0.508 OA
ATOM     12  H   UNL     1     102.718 100.710 104.058  1.00  0.00     0.293 HD
ENDBRANCH   9  11
TORSDOF 1
ENDMDL
MODEL 5
REMARK VINA RESULT:    -2.869     13.955     15.156
REMARK INTER + INTRA:          -2.952
REMARK INTER:                  -2.952
REMARK INTRA:                   0.000
REMARK UNBOUND:                 0.000
REMARK SMILES Oc1ccc2[nH]ccc2c1
REMARK SMILES IDX 3 1 4 2 5 3 9 4 8 5 7 6 6 7 10 8 2 9 1 11
REMARK H PARENT 6 10 1 12
REMARK Flexibility Score: inf
ROOT
ATOM      1  C   UNL     1     110.842  99.867 104.720  1.00  0.00     0.048 A 
ATOM      2  C   UNL     1     110.955  98.466 104.796  1.00  0.00     0.030 A 
ATOM      3  C   UNL     1     111.917  97.847 104.001  1.00  0.00     0.046 A 
ATOM      4  C   UNL     1     112.732  98.564 103.166  1.00  0.00     0.003 A 
ATOM      5  C   UNL     1     113.560  97.667 102.527  1.00  0.00     0.028 A 
ATOM      6  C   UNL     1     113.193  96.419 103.021  1.00  0.00     0.083 A 
ATOM      7  N   UNL     1     112.189  96.534 103.920  1.00  0.00    -0.361 N 
ATOM      8  C   UNL     1     112.646  99.952 103.067  1.00  0.00     0.056 A 
ATOM      9  C   UNL     1     111.685 100.611 103.857  1.00  0.00     0.116 A 
ATOM     10  H   UNL     1     111.725  95.758 104.443  1.00  0.00     0.166 HD
ENDROOT
BRANCH   9  11
ATOM     11  O   UNL     1     111.573 101.996 103.781  1.00  0.00    -0.508 OA
ATOM     12  H   UNL     1     111.643 102.485 102.896  1.00  0.00     0.293 HD
ENDBRANCH   9  11
TORSDOF 1
ENDMDL
MODEL 6
REMARK VINA RESULT:    -2.860     13.225     14.389
REMARK INTER + INTRA:          -2.943
REMARK INTER:                  -2.943
REMARK INTRA:                   0.000
REMARK UNBOUND:                 0.000
REMARK SMILES Oc1ccc2[nH]ccc2c1
REMARK SMILES IDX 3 1 4 2 5 3 9 4 8 5 7 6 6 7 10 8 2 9 1 11
REMARK H PARENT 6 10 1 12
REMARK Flexibility Score: inf
ROOT
ATOM      1  C   UNL     1     110.625 100.712 103.725  1.00  0.00     0.048 A 
ATOM      2  C   UNL     1     110.100  99.760 104.619  1.00  0.00     0.030 A 
ATOM      3  C   UNL     1     110.733  98.521 104.696  1.00  0.00     0.046 A 
ATOM      4  C   UNL     1     111.831  98.225 103.932  1.00  0.00     0.003 A 
ATOM      5  C   UNL     1     112.212  96.937 104.241  1.00  0.00     0.028 A 
ATOM      6  C   UNL     1     111.301  96.509 105.201  1.00  0.00     0.083 A 
ATOM      7  N   UNL     1     110.399  97.479 105.476  1.00  0.00    -0.361 N 
ATOM      8  C   UNL     1     112.375  99.144 103.037  1.00  0.00     0.056 A 
ATOM      9  C   UNL     1     111.760 100.406 102.934  1.00  0.00     0.116 A 
ATOM     10  H   UNL     1     109.608  97.426 106.156  1.00  0.00     0.166 HD
ENDROOT
BRANCH   9  11
ATOM     11  O   UNL     1     112.279 101.348 102.049  1.00  0.00    -0.508 OA
ATOM     12  H   UNL     1     112.567 101.090 101.112  1.00  0.00     0.293 HD
ENDBRANCH   9  11
TORSDOF 1
ENDMDL
MODEL 7
REMARK VINA RESULT:    -2.852     18.014     19.172
REMARK INTER + INTRA:          -2.936
REMARK INTER:                  -2.936
REMARK INTRA:                   0.000
REMARK UNBOUND:                 0.000
REMARK SMILES Oc1ccc2[nH]ccc2c1
REMARK SMILES IDX 3 1 4 2 5 3 9 4 8 5 7 6 6 7 10 8 2 9 1 11
REMARK H PARENT 6 10 1 12
REMARK Flexibility Score: inf
ROOT
ATOM      1  C   UNL     1     114.355 111.378 104.540  1.00  0.00     0.048 A 
ATOM      2  C   UNL     1     115.185 110.622 103.691  1.00  0.00     0.030 A 
ATOM      3  C   UNL     1     114.721 109.380 103.264  1.00  0.00     0.046 A 
ATOM      4  C   UNL     1     113.499 108.896 103.651  1.00  0.00     0.003 A 
ATOM      5  C   UNL     1     113.341 107.659 103.065  1.00  0.00     0.028 A 
ATOM      6  C   UNL     1     114.507 107.453 102.333  1.00  0.00     0.083 A 
ATOM      7  N   UNL     1     115.346 108.506 102.458  1.00  0.00    -0.361 N 
ATOM      8  C   UNL     1     112.654 109.618 104.491  1.00  0.00     0.056 A 
ATOM      9  C   UNL     1     113.091 110.878 104.942  1.00  0.00     0.116 A 
ATOM     10  H   UNL     1     116.287 108.614 102.017  1.00  0.00     0.166 HD
ENDROOT
BRANCH   9  11
ATOM     11  O   UNL     1     112.271 111.625 105.783  1.00  0.00    -0.508 OA
ATOM     12  H   UNL     1     111.624 111.179 106.423  1.00  0.00     0.293 HD
ENDBRANCH   9  11
TORSDOF 1
ENDMDL
MODEL 8
REMARK VINA RESULT:    -2.851     13.392     14.609
REMARK INTER + INTRA:          -2.934
REMARK INTER:                  -2.934
REMARK INTRA:                   0.000
REMARK UNBOUND:                 0.000
REMARK SMILES Oc1ccc2[nH]ccc2c1
REMARK SMILES IDX 3 1 4 2 5 3 9 4 8 5 7 6 6 7 10 8 2 9 1 11
REMARK H PARENT 6 10 1 12
REMARK Flexibility Score: inf
ROOT
ATOM      1  C   UNL     1     100.051 116.125 103.729  1.00  0.00     0.048 A 
ATOM      2  C   UNL     1     101.084 115.822 104.635  1.00  0.00     0.030 A 
ATOM      3  C   UNL     1     101.640 114.545 104.585  1.00  0.00     0.046 A 
ATOM      4  C   UNL     1     101.204 113.604 103.690  1.00  0.00     0.003 A 
ATOM      5  C   UNL     1     101.947 112.463 103.897  1.00  0.00     0.028 A 
ATOM      6  C   UNL     1     102.818 112.780 104.935  1.00  0.00     0.083 A 
ATOM      7  N   UNL     1     102.627 114.052 105.352  1.00  0.00    -0.361 N 
ATOM      8  C   UNL     1     100.182 113.871 102.781  1.00  0.00     0.056 A 
ATOM      9  C   UNL     1      99.598 115.152 102.803  1.00  0.00     0.116 A 
ATOM     10  H   UNL     1     103.143 114.546 106.114  1.00  0.00     0.166 HD
ENDROOT
BRANCH   9  11
ATOM     11  O   UNL     1      98.575 115.452 101.907  1.00  0.00    -0.508 OA
ATOM     12  H   UNL     1      97.660 115.023 101.988  1.00  0.00     0.293 HD
ENDBRANCH   9  11
TORSDOF 1
ENDMDL
MODEL 9
REMARK VINA RESULT:    -2.835     11.390     12.686
REMARK INTER + INTRA:          -2.918
REMARK INTER:                  -2.918
REMARK INTRA:                   0.000
REMARK UNBOUND:                 0.000
REMARK SMILES Oc1ccc2[nH]ccc2c1
REMARK SMILES IDX 3 1 4 2 5 3 9 4 8 5 7 6 6 7 10 8 2 9 1 11
REMARK H PARENT 6 10 1 12
REMARK Flexibility Score: inf
ROOT
ATOM      1  C   UNL     1     111.259  98.597 104.599  1.00  0.00     0.048 A 
ATOM      2  C   UNL     1     110.382  97.794 103.848  1.00  0.00     0.030 A 
ATOM      3  C   UNL     1     109.149  98.336 103.490  1.00  0.00     0.046 A 
ATOM      4  C   UNL     1     108.789  99.607 103.851  1.00  0.00     0.003 A 
ATOM      5  C   UNL     1     107.526  99.836 103.349  1.00  0.00     0.028 A 
ATOM      6  C   UNL     1     107.178  98.660 102.692  1.00  0.00     0.083 A 
ATOM      7  N   UNL     1     108.171  97.747 102.781  1.00  0.00    -0.361 N 
ATOM      8  C   UNL     1     109.634 100.428 104.595  1.00  0.00     0.056 A 
ATOM      9  C   UNL     1     110.888  99.913 104.974  1.00  0.00     0.116 A 
ATOM     10  H   UNL     1     108.175  96.783 102.379  1.00  0.00     0.166 HD
ENDROOT
BRANCH   9  11
ATOM     11  O   UNL     1     111.756 100.707 105.718  1.00  0.00    -0.508 OA
ATOM     12  H   UNL     1     111.596 100.885 106.703  1.00  0.00     0.293 HD
ENDBRANCH   9  11
TORSDOF 1
ENDMDL
