MODEL 1
REMARK VINA RESULT:    -2.921      0.000      0.000
REMARK INTER + INTRA:          -4.433
REMARK INTER:                  -3.945
REMARK INTRA:                  -0.489
REMARK UNBOUND:                -0.489
REMARK SMILES O=C[C@@H](O)[C@@H](O)[C@H](O)CO
REMARK SMILES IDX 7 1 9 2 10 3 5 5 3 6 2 7 1 8 4 9 6 11 8 13
REMARK H PARENT 10 4 4 10 6 12 8 14
REMARK Flexibility Score: inf
ROOT
ATOM      1  C   UNL     1      62.090  53.048   5.786  1.00  0.00     0.171 C 
ENDROOT
BRANCH   1   2
ATOM      2  C   UNL     1      60.601  53.408   5.620  1.00  0.00     0.190 C 
BRANCH   2   3
ATOM      3  O   UNL     1      60.065  53.856   6.836  1.00  0.00    -0.394 OA
ATOM      4  H   UNL     1      60.824  54.213   7.366  1.00  0.00     0.210 HD
ENDBRANCH   2   3
ENDBRANCH   1   2
BRANCH   1   5
ATOM      5  C   UNL     1      62.307  51.748   6.615  1.00  0.00     0.181 C 
BRANCH   5   6
ATOM      6  C   UNL     1      63.796  51.359   6.824  1.00  0.00     0.209 C 
BRANCH   6   7
ATOM      7  C   UNL     1      64.548  51.206   5.529  1.00  0.00     0.258 C 
ATOM      8  O   UNL     1      65.691  51.621   5.414  1.00  0.00    -0.300 OA
ENDBRANCH   6   7
BRANCH   6   9
ATOM      9  O   UNL     1      64.441  52.324   7.613  1.00  0.00    -0.383 OA
ATOM     10  H   UNL     1      64.746  53.041   7.000  1.00  0.00     0.211 HD
ENDBRANCH   6   9
ENDBRANCH   5   6
BRANCH   5  11
ATOM     11  O   UNL     1      61.635  51.824   7.850  1.00  0.00    -0.387 OA
ATOM     12  H   UNL     1      62.219  52.314   8.485  1.00  0.00     0.211 HD
ENDBRANCH   5  11
ENDBRANCH   1   5
BRANCH   1  13
ATOM     13  O   UNL     1      62.782  54.119   6.380  1.00  0.00    -0.388 OA
ATOM     14  H   UNL     1      62.135  54.614   6.948  1.00  0.00     0.211 HD
ENDBRANCH   1  13
TORSDOF 8
ENDMDL
MODEL 2
REMARK VINA RESULT:    -2.790      1.935      3.334
REMARK INTER + INTRA:          -4.258
REMARK INTER:                  -3.563
REMARK INTRA:                  -0.694
REMARK UNBOUND:                -0.489
REMARK SMILES O=C[C@@H](O)[C@@H](O)[C@H](O)CO
REMARK SMILES IDX 7 1 9 2 10 3 5 5 3 6 2 7 1 8 4 9 6 11 8 13
REMARK H PARENT 10 4 4 10 6 12 8 14
REMARK Flexibility Score: inf
ROOT
ATOM      1  C   UNL     1      63.553  51.805   6.624  1.00  0.00     0.171 C 
ENDROOT
BRANCH   1   2
ATOM      2  C   UNL     1      62.968  52.892   5.699  1.00  0.00     0.190 C 
BRANCH   2   3
ATOM      3  O   UNL     1      62.913  54.125   6.364  1.00  0.00    -0.394 OA
ATOM      4  H   UNL     1      62.055  54.140   6.864  1.00  0.00     0.210 HD
ENDBRANCH   2   3
ENDBRANCH   1   2
BRANCH   1   5
ATOM      5  C   UNL     1      62.458  51.049   7.432  1.00  0.00     0.181 C 
BRANCH   5   6
ATOM      6  C   UNL     1      62.981  50.327   8.704  1.00  0.00     0.209 C 
BRANCH   6   7
ATOM      7  C   UNL     1      61.926  49.491   9.377  1.00  0.00     0.258 C 
ATOM      8  O   UNL     1      61.008  50.012   9.991  1.00  0.00    -0.300 OA
ENDBRANCH   6   7
BRANCH   6   9
ATOM      9  O   UNL     1      64.073  49.506   8.380  1.00  0.00    -0.383 OA
ATOM     10  H   UNL     1      63.722  48.771   7.814  1.00  0.00     0.211 HD
ENDBRANCH   6   9
ENDBRANCH   5   6
BRANCH   5  11
ATOM     11  O   UNL     1      61.390  51.907   7.752  1.00  0.00    -0.387 OA
ATOM     12  H   UNL     1      60.836  51.461   8.445  1.00  0.00     0.211 HD
ENDBRANCH   5  11
ENDBRANCH   1   5
BRANCH   1  13
ATOM     13  O   UNL     1      64.493  52.375   7.502  1.00  0.00    -0.388 OA
ATOM     14  H   UNL     1      64.352  51.966   8.396  1.00  0.00     0.211 HD
ENDBRANCH   1  13
TORSDOF 8
ENDMDL
MODEL 3
REMARK VINA RESULT:    -2.667      1.723      3.056
REMARK INTER + INTRA:          -4.091
REMARK INTER:                  -3.350
REMARK INTRA:                  -0.741
REMARK UNBOUND:                -0.489
REMARK SMILES O=C[C@@H](O)[C@@H](O)[C@H](O)CO
REMARK SMILES IDX 7 1 9 2 10 3 5 5 3 6 2 7 1 8 4 9 6 11 8 13
REMARK H PARENT 10 4 4 10 6 12 8 14
REMARK Flexibility Score: inf
ROOT
ATOM      1  C   UNL     1      62.300  51.031   7.263  1.00  0.00     0.171 C 
ENDROOT
BRANCH   1   2
ATOM      2  C   UNL     1      63.138  50.687   8.511  1.00  0.00     0.190 C 
BRANCH   2   3
ATOM      3  O   UNL     1      64.006  49.620   8.241  1.00  0.00    -0.394 OA
ATOM      4  H   UNL     1      64.758  49.992   7.711  1.00  0.00     0.210 HD
ENDBRANCH   2   3
ENDBRANCH   1   2
BRANCH   1   5
ATOM      5  C   UNL     1      63.178  51.399   6.031  1.00  0.00     0.181 C 
BRANCH   5   6
ATOM      6  C   UNL     1      64.286  52.448   6.322  1.00  0.00     0.209 C 
BRANCH   6   7
ATOM      7  C   UNL     1      65.303  52.547   5.215  1.00  0.00     0.258 C 
ATOM      8  O   UNL     1      66.217  51.743   5.129  1.00  0.00    -0.300 OA
ENDBRANCH   6   7
BRANCH   6   9
ATOM      9  O   UNL     1      63.713  53.713   6.526  1.00  0.00    -0.383 OA
ATOM     10  H   UNL     1      64.024  54.294   5.784  1.00  0.00     0.211 HD
ENDBRANCH   6   9
ENDBRANCH   5   6
BRANCH   5  11
ATOM     11  O   UNL     1      63.730  50.243   5.447  1.00  0.00    -0.387 OA
ATOM     12  H   UNL     1      64.255  50.524   4.653  1.00  0.00     0.211 HD
ENDBRANCH   5  11
ENDBRANCH   1   5
BRANCH   1  13
ATOM     13  O   UNL     1      61.412  52.083   7.554  1.00  0.00    -0.388 OA
ATOM     14  H   UNL     1      60.929  52.305   6.716  1.00  0.00     0.211 HD
ENDBRANCH   1  13
TORSDOF 8
ENDMDL
MODEL 4
REMARK VINA RESULT:    -2.652      1.519      3.981
REMARK INTER + INTRA:          -4.071
REMARK INTER:                  -3.570
REMARK INTRA:                  -0.501
REMARK UNBOUND:                -0.489
REMARK SMILES O=C[C@@H](O)[C@@H](O)[C@H](O)CO
REMARK SMILES IDX 7 1 9 2 10 3 5 5 3 6 2 7 1 8 4 9 6 11 8 13
REMARK H PARENT 10 4 4 10 6 12 8 14
REMARK Flexibility Score: inf
ROOT
ATOM      1  C   UNL     1      63.174  50.896   7.344  1.00  0.00     0.171 C 
ENDROOT
BRANCH   1   2
ATOM      2  C   UNL     1      63.508  49.391   7.380  1.00  0.00     0.190 C 
BRANCH   2   3
ATOM      3  O   UNL     1      64.881  49.198   7.590  1.00  0.00    -0.394 OA
ATOM      4  H   UNL     1      65.277  50.097   7.725  1.00  0.00     0.210 HD
ENDBRANCH   2   3
ENDBRANCH   1   2
BRANCH   1   5
ATOM      5  C   UNL     1      63.851  51.634   6.151  1.00  0.00     0.181 C 
BRANCH   5   6
ATOM      6  C   UNL     1      63.226  53.016   5.812  1.00  0.00     0.209 C 
BRANCH   6   7
ATOM      7  C   UNL     1      61.726  53.028   5.945  1.00  0.00     0.258 C 
ATOM      8  O   UNL     1      61.137  54.032   6.312  1.00  0.00    -0.300 OA
ENDBRANCH   6   7
BRANCH   6   9
ATOM      9  O   UNL     1      63.764  54.008   6.647  1.00  0.00    -0.383 OA
ATOM     10  H   UNL     1      64.209  53.540   7.401  1.00  0.00     0.211 HD
ENDBRANCH   6   9
ENDBRANCH   5   6
BRANCH   5  11
ATOM     11  O   UNL     1      65.238  51.755   6.360  1.00  0.00    -0.387 OA
ATOM     12  H   UNL     1      65.511  52.666   6.079  1.00  0.00     0.211 HD
ENDBRANCH   5  11
ENDBRANCH   1   5
BRANCH   1  13
ATOM     13  O   UNL     1      63.544  51.501   8.558  1.00  0.00    -0.388 OA
ATOM     14  H   UNL     1      64.271  50.954   8.955  1.00  0.00     0.211 HD
ENDBRANCH   1  13
TORSDOF 8
ENDMDL
MODEL 5
REMARK VINA RESULT:    -2.633      5.524      6.384
REMARK INTER + INTRA:          -4.046
REMARK INTER:                  -3.556
REMARK INTRA:                  -0.490
REMARK UNBOUND:                -0.489
REMARK SMILES O=C[C@@H](O)[C@@H](O)[C@H](O)CO
REMARK SMILES IDX 7 1 9 2 10 3 5 5 3 6 2 7 1 8 4 9 6 11 8 13
REMARK H PARENT 10 4 4 10 6 12 8 14
REMARK Flexibility Score: inf
ROOT
ATOM      1  C   UNL     1      60.670  50.775  11.449  1.00  0.00     0.171 C 
ENDROOT
BRANCH   1   2
ATOM      2  C   UNL     1      59.405  51.462  12.003  1.00  0.00     0.190 C 
BRANCH   2   3
ATOM      3  O   UNL     1      59.589  52.851  12.068  1.00  0.00    -0.394 OA
ATOM      4  H   UNL     1      58.854  53.260  11.541  1.00  0.00     0.210 HD
ENDBRANCH   2   3
ENDBRANCH   1   2
BRANCH   1   5
ATOM      5  C   UNL     1      61.948  51.112  12.273  1.00  0.00     0.181 C 
BRANCH   5   6
ATOM      6  C   UNL     1      63.031  49.999  12.262  1.00  0.00     0.209 C 
BRANCH   6   7
ATOM      7  C   UNL     1      63.255  49.387  13.620  1.00  0.00     0.258 C 
ATOM      8  O   UNL     1      64.025  49.896  14.418  1.00  0.00    -0.300 OA
ENDBRANCH   6   7
BRANCH   6   9
ATOM      9  O   UNL     1      62.674  48.985  11.360  1.00  0.00    -0.383 OA
ATOM     10  H   UNL     1      62.189  48.294  11.881  1.00  0.00     0.211 HD
ENDBRANCH   6   9
ENDBRANCH   5   6
BRANCH   5  11
ATOM     11  O   UNL     1      62.496  52.343  11.866  1.00  0.00    -0.387 OA
ATOM     12  H   UNL     1      62.535  52.347  10.874  1.00  0.00     0.211 HD
ENDBRANCH   5  11
ENDBRANCH   1   5
BRANCH   1  13
ATOM     13  O   UNL     1      60.859  51.129  10.100  1.00  0.00    -0.388 OA
ATOM     14  H   UNL     1      61.525  51.864  10.076  1.00  0.00     0.211 HD
ENDBRANCH   1  13
TORSDOF 8
ENDMDL
MODEL 6
REMARK VINA RESULT:    -2.610      1.606      2.793
REMARK INTER + INTRA:          -4.014
REMARK INTER:                  -3.340
REMARK INTRA:                  -0.673
REMARK UNBOUND:                -0.489
REMARK SMILES O=C[C@@H](O)[C@@H](O)[C@H](O)CO
REMARK SMILES IDX 7 1 9 2 10 3 5 5 3 6 2 7 1 8 4 9 6 11 8 13
REMARK H PARENT 10 4 4 10 6 12 8 14
REMARK Flexibility Score: inf
ROOT
ATOM      1  C   UNL     1      61.913  51.081   7.400  1.00  0.00     0.171 C 
ENDROOT
BRANCH   1   2
ATOM      2  C   UNL     1      61.848  50.288   8.720  1.00  0.00     0.190 C 
BRANCH   2   3
ATOM      3  O   UNL     1      62.019  51.145   9.817  1.00  0.00    -0.394 OA
ATOM      4  H   UNL     1      62.998  51.239   9.954  1.00  0.00     0.210 HD
ENDBRANCH   2   3
ENDBRANCH   1   2
BRANCH   1   5
ATOM      5  C   UNL     1      63.370  51.444   6.986  1.00  0.00     0.181 C 
BRANCH   5   6
ATOM      6  C   UNL     1      63.471  52.479   5.831  1.00  0.00     0.209 C 
BRANCH   6   7
ATOM      7  C   UNL     1      64.813  52.463   5.149  1.00  0.00     0.258 C 
ATOM      8  O   UNL     1      65.633  51.593   5.396  1.00  0.00    -0.300 OA
ENDBRANCH   6   7
BRANCH   6   9
ATOM      9  O   UNL     1      62.473  52.235   4.875  1.00  0.00    -0.383 OA
ATOM     10  H   UNL     1      61.800  52.958   4.970  1.00  0.00     0.211 HD
ENDBRANCH   6   9
ENDBRANCH   5   6
BRANCH   5  11
ATOM     11  O   UNL     1      64.115  51.872   8.101  1.00  0.00    -0.387 OA
ATOM     12  H   UNL     1      64.389  52.812   7.943  1.00  0.00     0.211 HD
ENDBRANCH   5  11
ENDBRANCH   1   5
BRANCH   1  13
ATOM     13  O   UNL     1      61.135  52.249   7.500  1.00  0.00    -0.388 OA
ATOM     14  H   UNL     1      61.131  52.524   8.454  1.00  0.00     0.211 HD
ENDBRANCH   1  13
TORSDOF 8
ENDMDL
MODEL 7
REMARK VINA RESULT:    -2.592      0.895      3.912
REMARK INTER + INTRA:          -3.989
REMARK INTER:                  -3.819
REMARK INTRA:                  -0.170
REMARK UNBOUND:                -0.489
REMARK SMILES O=C[C@@H](O)[C@@H](O)[C@H](O)CO
REMARK SMILES IDX 7 1 9 2 10 3 5 5 3 6 2 7 1 8 4 9 6 11 8 13
REMARK H PARENT 10 4 4 10 6 12 8 14
REMARK Flexibility Score: inf
ROOT
ATOM      1  C   UNL     1      64.068  51.863   6.408  1.00  0.00     0.171 C 
ENDROOT
BRANCH   1   2
ATOM      2  C   UNL     1      65.031  51.486   5.265  1.00  0.00     0.190 C 
BRANCH   2   3
ATOM      3  O   UNL     1      66.165  52.310   5.286  1.00  0.00    -0.394 OA
ATOM      4  H   UNL     1      66.080  52.891   6.085  1.00  0.00     0.210 HD
ENDBRANCH   2   3
ENDBRANCH   1   2
BRANCH   1   5
ATOM      5  C   UNL     1      62.914  52.797   5.940  1.00  0.00     0.181 C 
BRANCH   5   6
ATOM      6  C   UNL     1      61.491  52.300   6.318  1.00  0.00     0.209 C 
BRANCH   6   7
ATOM      7  C   UNL     1      61.513  51.070   7.186  1.00  0.00     0.258 C 
ATOM      8  O   UNL     1      61.169  51.122   8.356  1.00  0.00    -0.300 OA
ENDBRANCH   6   7
BRANCH   6   9
ATOM      9  O   UNL     1      60.785  53.314   6.983  1.00  0.00    -0.383 OA
ATOM     10  H   UNL     1      59.847  53.003   7.070  1.00  0.00     0.211 HD
ENDBRANCH   6   9
ENDBRANCH   5   6
BRANCH   5  11
ATOM     11  O   UNL     1      63.117  54.112   6.398  1.00  0.00    -0.387 OA
ATOM     12  H   UNL     1      63.001  54.726   5.627  1.00  0.00     0.211 HD
ENDBRANCH   5  11
ENDBRANCH   1   5
BRANCH   1  13
ATOM     13  O   UNL     1      64.782  52.468   7.460  1.00  0.00    -0.388 OA
ATOM     14  H   UNL     1      64.397  53.372   7.600  1.00  0.00     0.211 HD
ENDBRANCH   1  13
TORSDOF 8
ENDMDL
MODEL 8
REMARK VINA RESULT:    -2.583      1.574      3.654
REMARK INTER + INTRA:          -3.977
REMARK INTER:                  -3.084
REMARK INTRA:                  -0.893
REMARK UNBOUND:                -0.489
REMARK SMILES O=C[C@@H](O)[C@@H](O)[C@H](O)CO
REMARK SMILES IDX 7 1 9 2 10 3 5 5 3 6 2 7 1 8 4 9 6 11 8 13
REMARK H PARENT 10 4 4 10 6 12 8 14
REMARK Flexibility Score: inf
ROOT
ATOM      1  C   UNL     1      63.798  51.368   6.840  1.00  0.00     0.171 C 
ENDROOT
BRANCH   1   2
ATOM      2  C   UNL     1      64.504  52.567   6.177  1.00  0.00     0.190 C 
BRANCH   2   3
ATOM      3  O   UNL     1      63.818  53.757   6.457  1.00  0.00    -0.394 OA
ATOM      4  H   UNL     1      64.171  54.443   5.832  1.00  0.00     0.210 HD
ENDBRANCH   2   3
ENDBRANCH   1   2
BRANCH   1   5
ATOM      5  C   UNL     1      62.383  51.100   6.248  1.00  0.00     0.181 C 
BRANCH   5   6
ATOM      6  C   UNL     1      61.208  51.506   7.179  1.00  0.00     0.209 C 
BRANCH   6   7
ATOM      7  C   UNL     1      60.401  52.655   6.635  1.00  0.00     0.258 C 
ATOM      8  O   UNL     1      60.910  53.750   6.456  1.00  0.00    -0.300 OA
ENDBRANCH   6   7
BRANCH   6   9
ATOM      9  O   UNL     1      60.356  50.411   7.388  1.00  0.00    -0.383 OA
ATOM     10  H   UNL     1      59.851  50.273   6.545  1.00  0.00     0.211 HD
ENDBRANCH   6   9
ENDBRANCH   5   6
BRANCH   5  11
ATOM     11  O   UNL     1      62.246  51.705   4.984  1.00  0.00    -0.387 OA
ATOM     12  H   UNL     1      61.408  52.236   4.989  1.00  0.00     0.211 HD
ENDBRANCH   5  11
ENDBRANCH   1   5
BRANCH   1  13
ATOM     13  O   UNL     1      63.709  51.570   8.230  1.00  0.00    -0.388 OA
ATOM     14  H   UNL     1      64.571  51.284   8.629  1.00  0.00     0.211 HD
ENDBRANCH   1  13
TORSDOF 8
ENDMDL
MODEL 9
REMARK VINA RESULT:    -2.538      1.119      4.189
REMARK INTER + INTRA:          -3.917
REMARK INTER:                  -3.374
REMARK INTRA:                  -0.543
REMARK UNBOUND:                -0.489
REMARK SMILES O=C[C@@H](O)[C@@H](O)[C@H](O)CO
REMARK SMILES IDX 7 1 9 2 10 3 5 5 3 6 2 7 1 8 4 9 6 11 8 13
REMARK H PARENT 10 4 4 10 6 12 8 14
REMARK Flexibility Score: inf
ROOT
ATOM      1  C   UNL     1      62.007  51.671   6.709  1.00  0.00     0.171 C 
ENDROOT
BRANCH   1   2
ATOM      2  C   UNL     1      63.452  51.156   6.867  1.00  0.00     0.190 C 
BRANCH   2   3
ATOM      3  O   UNL     1      64.121  51.871   7.870  1.00  0.00    -0.394 OA
ATOM      4  H   UNL     1      63.603  51.741   8.706  1.00  0.00     0.210 HD
ENDBRANCH   2   3
ENDBRANCH   1   2
BRANCH   1   5
ATOM      5  C   UNL     1      61.926  52.992   5.888  1.00  0.00     0.181 C 
BRANCH   5   6
ATOM      6  C   UNL     1      60.500  53.600   5.787  1.00  0.00     0.209 C 
BRANCH   6   7
ATOM      7  C   UNL     1      59.469  52.600   5.335  1.00  0.00     0.258 C 
ATOM      8  O   UNL     1      58.705  52.082   6.133  1.00  0.00    -0.300 OA
ENDBRANCH   6   7
BRANCH   6   9
ATOM      9  O   UNL     1      60.109  54.125   7.029  1.00  0.00    -0.383 OA
ATOM     10  H   UNL     1      59.413  54.808   6.847  1.00  0.00     0.211 HD
ENDBRANCH   6   9
ENDBRANCH   5   6
BRANCH   5  11
ATOM     11  O   UNL     1      62.838  53.945   6.380  1.00  0.00    -0.387 OA
ATOM     12  H   UNL     1      63.609  53.456   6.770  1.00  0.00     0.211 HD
ENDBRANCH   5  11
ENDBRANCH   1   5
BRANCH   1  13
ATOM     13  O   UNL     1      61.419  51.854   7.974  1.00  0.00    -0.388 OA
ATOM     14  H   UNL     1      62.145  51.809   8.650  1.00  0.00     0.211 HD
ENDBRANCH   1  13
TORSDOF 8
ENDMDL
