MODEL 1
REMARK VINA RESULT:    -3.772      0.000      0.000
REMARK INTER + INTRA:          -3.772
REMARK INTER:                  -3.772
REMARK INTRA:                   0.000
REMARK UNBOUND:                 0.000
REMARK SMILES CC1=CC(=O)[C@H]2C[C@@H]1C2(C)C
REMARK SMILES IDX 1 1 2 2 3 3 4 4 5 5 6 6 7 7 8 8 9 9 10 10 11 11
REMARK H PARENT
REMARK Flexibility Score: inf
ROOT
ATOM      1  C   UNL     1      24.106 -33.627 -14.025  1.00  0.00     0.040 C 
ATOM      2  C   UNL     1      24.571 -32.640 -13.003  1.00  0.00    -0.066 C 
ATOM      3  C   UNL     1      25.767 -32.788 -12.368  1.00  0.00     0.047 C 
ATOM      4  C   UNL     1      26.107 -31.750 -11.342  1.00  0.00     0.159 C 
ATOM      5  O   UNL     1      27.165 -31.798 -10.661  1.00  0.00    -0.295 OA
ATOM      6  C   UNL     1      25.080 -30.629 -11.180  1.00  0.00     0.067 C 
ATOM      7  C   UNL     1      24.734 -30.221 -12.629  1.00  0.00     0.021 C 
ATOM      8  C   UNL     1      23.733 -31.399 -12.630  1.00  0.00     0.022 C 
ATOM      9  C   UNL     1      23.665 -31.266 -11.080  1.00  0.00    -0.019 C 
ATOM     10  C   UNL     1      23.496 -32.564 -10.239  1.00  0.00     0.012 C 
ATOM     11  C   UNL     1      22.590 -30.249 -10.622  1.00  0.00     0.012 C 
ENDROOT
TORSDOF 0
ENDMDL
MODEL 2
REMARK VINA RESULT:    -3.745     12.518     13.722
REMARK INTER + INTRA:          -3.745
REMARK INTER:                  -3.745
REMARK INTRA:                   0.000
REMARK UNBOUND:                 0.000
REMARK SMILES CC1=CC(=O)[C@H]2C[C@@H]1C2(C)C
REMARK SMILES IDX 1 1 2 2 3 3 4 4 5 5 6 6 7 7 8 8 9 9 10 10 11 11
REMARK H PARENT
REMARK Flexibility Score: inf
ROOT
ATOM      1  C   UNL     1      25.567 -46.942 -11.344  1.00  0.00     0.040 C 
ATOM      2  C   UNL     1      25.721 -45.786 -10.408  1.00  0.00    -0.066 C 
ATOM      3  C   UNL     1      25.848 -44.511 -10.871  1.00  0.00     0.047 C 
ATOM      4  C   UNL     1      26.027 -43.443  -9.835  1.00  0.00     0.159 C 
ATOM      5  O   UNL     1      26.193 -42.233 -10.138  1.00  0.00    -0.295 OA
ATOM      6  C   UNL     1      25.994 -43.927  -8.385  1.00  0.00     0.067 C 
ATOM      7  C   UNL     1      24.781 -44.881  -8.331  1.00  0.00     0.021 C 
ATOM      8  C   UNL     1      25.727 -45.975  -8.877  1.00  0.00     0.022 C 
ATOM      9  C   UNL     1      26.912 -45.176  -8.260  1.00  0.00    -0.019 C 
ATOM     10  C   UNL     1      28.270 -45.175  -9.018  1.00  0.00     0.012 C 
ATOM     11  C   UNL     1      27.182 -45.565  -6.784  1.00  0.00     0.012 C 
ENDROOT
TORSDOF 0
ENDMDL
MODEL 3
REMARK VINA RESULT:    -3.723     11.517     12.828
REMARK INTER + INTRA:          -3.723
REMARK INTER:                  -3.723
REMARK INTRA:                   0.000
REMARK UNBOUND:                 0.000
REMARK SMILES CC1=CC(=O)[C@H]2C[C@@H]1C2(C)C
REMARK SMILES IDX 1 1 2 2 3 3 4 4 5 5 6 6 7 7 8 8 9 9 10 10 11 11
REMARK H PARENT
REMARK Flexibility Score: inf
ROOT
ATOM      1  C   UNL     1      28.908 -45.669  -8.860  1.00  0.00     0.040 C 
ATOM      2  C   UNL     1      27.841 -44.674  -9.189  1.00  0.00    -0.066 C 
ATOM      3  C   UNL     1      26.720 -44.558  -8.425  1.00  0.00     0.047 C 
ATOM      4  C   UNL     1      25.711 -43.545  -8.876  1.00  0.00     0.159 C 
ATOM      5  O   UNL     1      24.618 -43.371  -8.277  1.00  0.00    -0.295 OA
ATOM      6  C   UNL     1      26.102 -42.740 -10.116  1.00  0.00     0.067 C 
ATOM      7  C   UNL     1      27.568 -42.329  -9.854  1.00  0.00     0.021 C 
ATOM      8  C   UNL     1      27.965 -43.721 -10.396  1.00  0.00     0.022 C 
ATOM      9  C   UNL     1      26.630 -43.724 -11.199  1.00  0.00    -0.019 C 
ATOM     10  C   UNL     1      25.892 -45.080 -11.388  1.00  0.00     0.012 C 
ATOM     11  C   UNL     1      26.775 -43.052 -12.587  1.00  0.00     0.012 C 
ENDROOT
TORSDOF 0
ENDMDL
MODEL 4
REMARK VINA RESULT:    -3.689     19.433     20.988
REMARK INTER + INTRA:          -3.689
REMARK INTER:                  -3.689
REMARK INTRA:                   0.000
REMARK UNBOUND:                 0.000
REMARK SMILES CC1=CC(=O)[C@H]2C[C@@H]1C2(C)C
REMARK SMILES IDX 1 1 2 2 3 3 4 4 5 5 6 6 7 7 8 8 9 9 10 10 11 11
REMARK H PARENT
REMARK Flexibility Score: inf
ROOT
ATOM      1  C   UNL     1      12.553 -45.154  -7.087  1.00  0.00     0.040 C 
ATOM      2  C   UNL     1      12.597 -46.528  -6.498  1.00  0.00    -0.066 C 
ATOM      3  C   UNL     1      11.525 -47.051  -5.840  1.00  0.00     0.047 C 
ATOM      4  C   UNL     1      11.704 -48.426  -5.269  1.00  0.00     0.159 C 
ATOM      5  O   UNL     1      10.802 -49.001  -4.607  1.00  0.00    -0.295 OA
ATOM      6  C   UNL     1      13.058 -49.078  -5.547  1.00  0.00     0.067 C 
ATOM      7  C   UNL     1      13.307 -48.811  -7.047  1.00  0.00     0.021 C 
ATOM      8  C   UNL     1      13.846 -47.426  -6.622  1.00  0.00     0.022 C 
ATOM      9  C   UNL     1      14.179 -48.046  -5.233  1.00  0.00    -0.019 C 
ATOM     10  C   UNL     1      14.025 -47.148  -3.973  1.00  0.00     0.012 C 
ATOM     11  C   UNL     1      15.586 -48.694  -5.198  1.00  0.00     0.012 C 
ENDROOT
TORSDOF 0
ENDMDL
MODEL 5
REMARK VINA RESULT:    -3.646     12.626     13.840
REMARK INTER + INTRA:          -3.646
REMARK INTER:                  -3.646
REMARK INTRA:                   0.000
REMARK UNBOUND:                 0.000
REMARK SMILES CC1=CC(=O)[C@H]2C[C@@H]1C2(C)C
REMARK SMILES IDX 1 1 2 2 3 3 4 4 5 5 6 6 7 7 8 8 9 9 10 10 11 11
REMARK H PARENT
REMARK Flexibility Score: inf
ROOT
ATOM      1  C   UNL     1      28.954 -43.735 -10.475  1.00  0.00     0.040 C 
ATOM      2  C   UNL     1      27.639 -44.123  -9.879  1.00  0.00    -0.066 C 
ATOM      3  C   UNL     1      26.766 -43.185  -9.416  1.00  0.00     0.047 C 
ATOM      4  C   UNL     1      25.495 -43.701  -8.813  1.00  0.00     0.159 C 
ATOM      5  O   UNL     1      24.627 -42.938  -8.316  1.00  0.00    -0.295 OA
ATOM      6  C   UNL     1      25.327 -45.221  -8.843  1.00  0.00     0.067 C 
ATOM      7  C   UNL     1      25.736 -45.619 -10.278  1.00  0.00     0.021 C 
ATOM      8  C   UNL     1      27.197 -45.598  -9.774  1.00  0.00     0.022 C 
ATOM      9  C   UNL     1      26.647 -45.875  -8.344  1.00  0.00    -0.019 C 
ATOM     10  C   UNL     1      27.383 -45.226  -7.137  1.00  0.00     0.012 C 
ATOM     11  C   UNL     1      26.485 -47.389  -8.056  1.00  0.00     0.012 C 
ENDROOT
TORSDOF 0
ENDMDL
MODEL 6
REMARK VINA RESULT:    -3.643     11.729     13.055
REMARK INTER + INTRA:          -3.643
REMARK INTER:                  -3.643
REMARK INTRA:                   0.000
REMARK UNBOUND:                 0.000
REMARK SMILES CC1=CC(=O)[C@H]2C[C@@H]1C2(C)C
REMARK SMILES IDX 1 1 2 2 3 3 4 4 5 5 6 6 7 7 8 8 9 9 10 10 11 11
REMARK H PARENT
REMARK Flexibility Score: inf
ROOT
ATOM      1  C   UNL     1      24.988 -44.394  -7.482  1.00  0.00     0.040 C 
ATOM      2  C   UNL     1      25.555 -44.303  -8.862  1.00  0.00    -0.066 C 
ATOM      3  C   UNL     1      25.379 -45.304  -9.768  1.00  0.00     0.047 C 
ATOM      4  C   UNL     1      26.022 -45.108 -11.108  1.00  0.00     0.159 C 
ATOM      5  O   UNL     1      25.964 -45.977 -12.016  1.00  0.00    -0.295 OA
ATOM      6  C   UNL     1      26.753 -43.778 -11.294  1.00  0.00     0.067 C 
ATOM      7  C   UNL     1      25.774 -42.726 -10.728  1.00  0.00     0.021 C 
ATOM      8  C   UNL     1      26.349 -43.066  -9.334  1.00  0.00     0.022 C 
ATOM      9  C   UNL     1      27.652 -43.529 -10.049  1.00  0.00    -0.019 C 
ATOM     10  C   UNL     1      28.431 -44.734  -9.448  1.00  0.00     0.012 C 
ATOM     11  C   UNL     1      28.652 -42.366 -10.266  1.00  0.00     0.012 C 
ENDROOT
TORSDOF 0
ENDMDL
MODEL 7
REMARK VINA RESULT:    -3.599     13.059     14.254
REMARK INTER + INTRA:          -3.599
REMARK INTER:                  -3.599
REMARK INTRA:                   0.000
REMARK UNBOUND:                 0.000
REMARK SMILES CC1=CC(=O)[C@H]2C[C@@H]1C2(C)C
REMARK SMILES IDX 1 1 2 2 3 3 4 4 5 5 6 6 7 7 8 8 9 9 10 10 11 11
REMARK H PARENT
REMARK Flexibility Score: inf
ROOT
ATOM      1  C   UNL     1      28.057 -46.474  -6.952  1.00  0.00     0.040 C 
ATOM      2  C   UNL     1      27.134 -46.024  -8.040  1.00  0.00    -0.066 C 
ATOM      3  C   UNL     1      26.721 -46.879  -9.017  1.00  0.00     0.047 C 
ATOM      4  C   UNL     1      25.821 -46.301 -10.067  1.00  0.00     0.159 C 
ATOM      5  O   UNL     1      25.403 -46.977 -11.042  1.00  0.00    -0.295 OA
ATOM      6  C   UNL     1      25.447 -44.831  -9.871  1.00  0.00     0.067 C 
ATOM      7  C   UNL     1      25.077 -44.731  -8.375  1.00  0.00     0.021 C 
ATOM      8  C   UNL     1      26.591 -44.581  -8.099  1.00  0.00     0.022 C 
ATOM      9  C   UNL     1      26.741 -44.030  -9.548  1.00  0.00    -0.019 C 
ATOM     10  C   UNL     1      28.039 -44.375 -10.333  1.00  0.00     0.012 C 
ATOM     11  C   UNL     1      26.522 -42.498  -9.622  1.00  0.00     0.012 C 
ENDROOT
TORSDOF 0
ENDMDL
MODEL 8
REMARK VINA RESULT:    -3.542     19.653     20.989
REMARK INTER + INTRA:          -3.542
REMARK INTER:                  -3.542
REMARK INTRA:                   0.000
REMARK UNBOUND:                 0.000
REMARK SMILES CC1=CC(=O)[C@H]2C[C@@H]1C2(C)C
REMARK SMILES IDX 1 1 2 2 3 3 4 4 5 5 6 6 7 7 8 8 9 9 10 10 11 11
REMARK H PARENT
REMARK Flexibility Score: inf
ROOT
ATOM      1  C   UNL     1      15.993 -48.442  -8.394  1.00  0.00     0.040 C 
ATOM      2  C   UNL     1      14.826 -48.729  -7.505  1.00  0.00    -0.066 C 
ATOM      3  C   UNL     1      13.691 -49.306  -7.989  1.00  0.00     0.047 C 
ATOM      4  C   UNL     1      12.581 -49.514  -7.004  1.00  0.00     0.159 C 
ATOM      5  O   UNL     1      11.469 -50.001  -7.337  1.00  0.00    -0.295 OA
ATOM      6  C   UNL     1      12.892 -49.091  -5.568  1.00  0.00     0.067 C 
ATOM      7  C   UNL     1      14.300 -49.668  -5.301  1.00  0.00     0.021 C 
ATOM      8  C   UNL     1      14.855 -48.404  -5.996  1.00  0.00     0.022 C 
ATOM      9  C   UNL     1      13.538 -47.676  -5.597  1.00  0.00    -0.019 C 
ATOM     10  C   UNL     1      12.957 -46.619  -6.579  1.00  0.00     0.012 C 
ATOM     11  C   UNL     1      13.621 -47.036  -4.189  1.00  0.00     0.012 C 
ENDROOT
TORSDOF 0
ENDMDL
MODEL 9
REMARK VINA RESULT:    -3.540     12.320     13.625
REMARK INTER + INTRA:          -3.540
REMARK INTER:                  -3.540
REMARK INTRA:                   0.000
REMARK UNBOUND:                 0.000
REMARK SMILES CC1=CC(=O)[C@H]2C[C@@H]1C2(C)C
REMARK SMILES IDX 1 1 2 2 3 3 4 4 5 5 6 6 7 7 8 8 9 9 10 10 11 11
REMARK H PARENT
REMARK Flexibility Score: inf
ROOT
ATOM      1  C   UNL     1      24.543 -44.506  -7.161  1.00  0.00     0.040 C 
ATOM      2  C   UNL     1      25.633 -44.777  -8.148  1.00  0.00    -0.066 C 
ATOM      3  C   UNL     1      26.903 -45.058  -7.743  1.00  0.00     0.047 C 
ATOM      4  C   UNL     1      27.912 -45.281  -8.828  1.00  0.00     0.159 C 
ATOM      5  O   UNL     1      29.125 -45.510  -8.583  1.00  0.00    -0.295 OA
ATOM      6  C   UNL     1      27.365 -45.210 -10.254  1.00  0.00     0.067 C 
ATOM      7  C   UNL     1      26.066 -46.044 -10.204  1.00  0.00     0.021 C 
ATOM      8  C   UNL     1      25.372 -44.771  -9.669  1.00  0.00     0.022 C 
ATOM      9  C   UNL     1      26.479 -43.939 -10.382  1.00  0.00    -0.019 C 
ATOM     10  C   UNL     1      26.964 -42.628  -9.700  1.00  0.00     0.012 C 
ATOM     11  C   UNL     1      26.118 -43.615 -11.854  1.00  0.00     0.012 C 
ENDROOT
TORSDOF 0
ENDMDL
