MODEL 1
REMARK VINA RESULT:    -4.051      0.000      0.000
REMARK INTER + INTRA:          -9.667
REMARK INTER:                  -7.367
REMARK INTRA:                  -2.300
REMARK UNBOUND:                -2.300
REMARK SMILES CCCCCC=CCC=CCCCCCCCC(=O)[O-]
REMARK SMILES IDX 11 1 12 2 13 3 14 4 15 5 16 6 17 7 18 8 19 9 20 10 10 11
REMARK SMILES IDX 9 12 8 13 7 14 6 15 5 16 4 17 3 18 2 19 1 20
REMARK H PARENT
REMARK Flexibility Score: inf
ROOT
ATOM      1  C   UNL     1       5.077  -6.967  11.870  1.00  0.00     0.027 C 
ENDROOT
BRANCH   1   2
ATOM      2  C   UNL     1       3.653  -7.190  11.337  1.00  0.00     0.004 C 
BRANCH   2   3
ATOM      3  C   UNL     1       3.244  -8.674  11.320  1.00  0.00     0.000 C 
BRANCH   3   4
ATOM      4  C   UNL     1       3.261  -9.372  12.692  1.00  0.00     0.000 C 
BRANCH   4   5
ATOM      5  C   UNL     1       1.891  -9.352  13.391  1.00  0.00     0.000 C 
BRANCH   5   6
ATOM      6  C   UNL     1       1.634  -8.037  14.145  1.00  0.00     0.006 C 
BRANCH   6   7
ATOM      7  C   UNL     1       0.143  -7.794  14.416  1.00  0.00     0.053 C 
BRANCH   7   8
ATOM      8  C   UNL     1      -0.187  -6.344  14.257  1.00  0.00     0.041 C 
ATOM      9  O   UNL     1       0.722  -5.476  14.332  1.00  0.00    -0.550 OA
ATOM     10  O   UNL     1      -1.492  -5.954  13.981  1.00  0.00    -0.550 OA
ENDBRANCH   7   8
ENDBRANCH   6   7
ENDBRANCH   5   6
ENDBRANCH   4   5
ENDBRANCH   3   4
ENDBRANCH   2   3
ENDBRANCH   1   2
BRANCH   1  11
ATOM     11  C   UNL     1       5.057  -6.175  13.152  1.00  0.00    -0.031 C 
ATOM     12  C   UNL     1       5.436  -6.645  14.356  1.00  0.00    -0.027 C 
BRANCH  12  13
ATOM     13  C   UNL     1       5.890  -8.057  14.633  1.00  0.00     0.054 C 
BRANCH  13  14
ATOM     14  C   UNL     1       5.335  -8.532  15.943  1.00  0.00    -0.027 C 
ATOM     15  C   UNL     1       4.333  -7.881  16.556  1.00  0.00    -0.031 C 
BRANCH  15  16
ATOM     16  C   UNL     1       3.771  -8.357  17.866  1.00  0.00     0.027 C 
BRANCH  16  17
ATOM     17  C   UNL     1       2.481  -9.158  17.658  1.00  0.00     0.004 C 
BRANCH  17  18
ATOM     18  C   UNL     1       1.245  -8.276  17.867  1.00  0.00     0.000 C 
BRANCH  18  19
ATOM     19  C   UNL     1       1.550  -7.122  18.829  1.00  0.00    -0.003 C 
ATOM     20  C   UNL     1       0.622  -7.152  20.040  1.00  0.00     0.004 C 
ENDBRANCH  18  19
ENDBRANCH  17  18
ENDBRANCH  16  17
ENDBRANCH  15  16
ENDBRANCH  13  14
ENDBRANCH  12  13
ENDBRANCH   1  11
TORSDOF 14
ENDMDL
MODEL 2
REMARK VINA RESULT:    -4.044      2.191      4.595
REMARK INTER + INTRA:          -9.654
REMARK INTER:                  -7.320
REMARK INTRA:                  -2.333
REMARK UNBOUND:                -2.300
REMARK SMILES CCCCCC=CCC=CCCCCCCCC(=O)[O-]
REMARK SMILES IDX 11 1 12 2 13 3 14 4 15 5 16 6 17 7 18 8 19 9 20 10 10 11
REMARK SMILES IDX 9 12 8 13 7 14 6 15 5 16 4 17 3 18 2 19 1 20
REMARK H PARENT
REMARK Flexibility Score: inf
ROOT
ATOM      1  C   UNL     1       5.025  -7.182  11.233  1.00  0.00     0.027 C 
ENDROOT
BRANCH   1   2
ATOM      2  C   UNL     1       5.410  -5.908  12.002  1.00  0.00     0.004 C 
BRANCH   2   3
ATOM      3  C   UNL     1       5.357  -6.090  13.530  1.00  0.00     0.000 C 
BRANCH   3   4
ATOM      4  C   UNL     1       5.099  -7.530  14.009  1.00  0.00     0.000 C 
BRANCH   4   5
ATOM      5  C   UNL     1       4.108  -7.603  15.182  1.00  0.00     0.000 C 
BRANCH   5   6
ATOM      6  C   UNL     1       2.900  -6.670  14.992  1.00  0.00     0.006 C 
BRANCH   6   7
ATOM      7  C   UNL     1       1.605  -7.435  14.689  1.00  0.00     0.053 C 
BRANCH   7   8
ATOM      8  C   UNL     1       0.553  -6.500  14.183  1.00  0.00     0.041 C 
ATOM      9  O   UNL     1      -0.179  -5.873  14.994  1.00  0.00    -0.550 OA
ATOM     10  O   UNL     1       0.410  -6.285  12.818  1.00  0.00    -0.550 OA
ENDBRANCH   7   8
ENDBRANCH   6   7
ENDBRANCH   5   6
ENDBRANCH   4   5
ENDBRANCH   3   4
ENDBRANCH   2   3
ENDBRANCH   1   2
BRANCH   1  11
ATOM     11  C   UNL     1       3.581  -7.139  10.803  1.00  0.00    -0.031 C 
ATOM     12  C   UNL     1       2.685  -8.123  11.009  1.00  0.00    -0.027 C 
BRANCH  12  13
ATOM     13  C   UNL     1       2.988  -9.453  11.655  1.00  0.00     0.054 C 
BRANCH  13  14
ATOM     14  C   UNL     1       1.721 -10.092  12.143  1.00  0.00    -0.027 C 
ATOM     15  C   UNL     1       0.517  -9.648  11.751  1.00  0.00    -0.031 C 
BRANCH  15  16
ATOM     16  C   UNL     1      -0.754 -10.288  12.235  1.00  0.00     0.027 C 
BRANCH  16  17
ATOM     17  C   UNL     1      -1.767  -9.231  12.694  1.00  0.00     0.004 C 
BRANCH  17  18
ATOM     18  C   UNL     1      -2.052  -9.357  14.194  1.00  0.00     0.000 C 
BRANCH  18  19
ATOM     19  C   UNL     1      -2.733 -10.692  14.514  1.00  0.00    -0.003 C 
ATOM     20  C   UNL     1      -4.101 -10.790  13.845  1.00  0.00     0.004 C 
ENDBRANCH  18  19
ENDBRANCH  17  18
ENDBRANCH  16  17
ENDBRANCH  15  16
ENDBRANCH  13  14
ENDBRANCH  12  13
ENDBRANCH   1  11
TORSDOF 14
ENDMDL
MODEL 3
REMARK VINA RESULT:    -4.032      7.725     11.173
REMARK INTER + INTRA:          -9.632
REMARK INTER:                  -7.146
REMARK INTRA:                  -2.487
REMARK UNBOUND:                -2.300
REMARK SMILES CCCCCC=CCC=CCCCCCCCC(=O)[O-]
REMARK SMILES IDX 11 1 12 2 13 3 14 4 15 5 16 6 17 7 18 8 19 9 20 10 10 11
REMARK SMILES IDX 9 12 8 13 7 14 6 15 5 16 4 17 3 18 2 19 1 20
REMARK H PARENT
REMARK Flexibility Score: inf
ROOT
ATOM      1  C   UNL     1      -7.439  -3.603  13.572  1.00  0.00     0.027 C 
ENDROOT
BRANCH   1   2
ATOM      2  C   UNL     1      -8.008  -3.477  14.994  1.00  0.00     0.004 C 
BRANCH   2   3
ATOM      3  C   UNL     1      -7.149  -4.196  16.050  1.00  0.00     0.000 C 
BRANCH   3   4
ATOM      4  C   UNL     1      -5.651  -4.303  15.712  1.00  0.00     0.000 C 
BRANCH   4   5
ATOM      5  C   UNL     1      -5.042  -5.658  16.111  1.00  0.00     0.000 C 
BRANCH   5   6
ATOM      6  C   UNL     1      -3.631  -5.862  15.536  1.00  0.00     0.006 C 
BRANCH   6   7
ATOM      7  C   UNL     1      -3.641  -6.615  14.199  1.00  0.00     0.053 C 
BRANCH   7   8
ATOM      8  C   UNL     1      -2.278  -6.603  13.583  1.00  0.00     0.041 C 
ATOM      9  O   UNL     1      -1.333  -5.993  14.149  1.00  0.00    -0.550 OA
ATOM     10  O   UNL     1      -2.041  -7.302  12.406  1.00  0.00    -0.550 OA
ENDBRANCH   7   8
ENDBRANCH   6   7
ENDBRANCH   5   6
ENDBRANCH   4   5
ENDBRANCH   3   4
ENDBRANCH   2   3
ENDBRANCH   1   2
BRANCH   1  11
ATOM     11  C   UNL     1      -8.378  -4.376  12.680  1.00  0.00    -0.031 C 
ATOM     12  C   UNL     1      -8.273  -5.690  12.404  1.00  0.00    -0.027 C 
BRANCH  12  13
ATOM     13  C   UNL     1      -7.172  -6.596  12.895  1.00  0.00     0.054 C 
BRANCH  13  14
ATOM     14  C   UNL     1      -7.644  -7.392  14.076  1.00  0.00    -0.027 C 
ATOM     15  C   UNL     1      -8.774  -8.116  14.026  1.00  0.00    -0.031 C 
BRANCH  15  16
ATOM     16  C   UNL     1      -9.249  -8.918  15.205  1.00  0.00     0.027 C 
BRANCH  16  17
ATOM     17  C   UNL     1     -10.654  -8.484  15.641  1.00  0.00     0.004 C 
BRANCH  17  18
ATOM     18  C   UNL     1     -11.311  -7.599  14.578  1.00  0.00     0.000 C 
BRANCH  18  19
ATOM     19  C   UNL     1     -11.784  -6.272  15.183  1.00  0.00    -0.003 C 
ATOM     20  C   UNL     1     -10.708  -5.655  16.072  1.00  0.00     0.004 C 
ENDBRANCH  18  19
ENDBRANCH  17  18
ENDBRANCH  16  17
ENDBRANCH  15  16
ENDBRANCH  13  14
ENDBRANCH  12  13
ENDBRANCH   1  11
TORSDOF 14
ENDMDL
MODEL 4
REMARK VINA RESULT:    -4.009      8.871     11.857
REMARK INTER + INTRA:          -9.590
REMARK INTER:                  -7.138
REMARK INTRA:                  -2.452
REMARK UNBOUND:                -2.300
REMARK SMILES CCCCCC=CCC=CCCCCCCCC(=O)[O-]
REMARK SMILES IDX 11 1 12 2 13 3 14 4 15 5 16 6 17 7 18 8 19 9 20 10 10 11
REMARK SMILES IDX 9 12 8 13 7 14 6 15 5 16 4 17 3 18 2 19 1 20
REMARK H PARENT
REMARK Flexibility Score: inf
ROOT
ATOM      1  C   UNL     1      -4.986  -6.673  14.050  1.00  0.00     0.027 C 
ENDROOT
BRANCH   1   2
ATOM      2  C   UNL     1      -5.737  -5.445  14.588  1.00  0.00     0.004 C 
BRANCH   2   3
ATOM      3  C   UNL     1      -7.111  -5.243  13.924  1.00  0.00     0.000 C 
BRANCH   3   4
ATOM      4  C   UNL     1      -7.495  -3.778  13.650  1.00  0.00     0.000 C 
BRANCH   4   5
ATOM      5  C   UNL     1      -8.647  -3.639  12.640  1.00  0.00     0.000 C 
BRANCH   5   6
ATOM      6  C   UNL     1      -8.798  -4.879  11.744  1.00  0.00     0.006 C 
BRANCH   6   7
ATOM      7  C   UNL     1     -10.237  -5.411  11.711  1.00  0.00     0.053 C 
BRANCH   7   8
ATOM      8  C   UNL     1     -10.247  -6.866  11.363  1.00  0.00     0.041 C 
ATOM      9  O   UNL     1      -9.163  -7.495  11.240  1.00  0.00    -0.550 OA
ATOM     10  O   UNL     1     -11.454  -7.538  11.219  1.00  0.00    -0.550 OA
ENDBRANCH   7   8
ENDBRANCH   6   7
ENDBRANCH   5   6
ENDBRANCH   4   5
ENDBRANCH   3   4
ENDBRANCH   2   3
ENDBRANCH   1   2
BRANCH   1  11
ATOM     11  C   UNL     1      -5.765  -7.344  12.947  1.00  0.00    -0.031 C 
ATOM     12  C   UNL     1      -6.330  -8.563  13.033  1.00  0.00    -0.027 C 
BRANCH  12  13
ATOM     13  C   UNL     1      -6.232  -9.484  14.223  1.00  0.00     0.054 C 
BRANCH  13  14
ATOM     14  C   UNL     1      -7.437  -9.324  15.102  1.00  0.00    -0.027 C 
ATOM     15  C   UNL     1      -8.580  -8.797  14.634  1.00  0.00    -0.031 C 
BRANCH  15  16
ATOM     16  C   UNL     1      -9.791  -8.638  15.511  1.00  0.00     0.027 C 
BRANCH  16  17
ATOM     17  C   UNL     1     -10.937  -7.956  14.755  1.00  0.00     0.004 C 
BRANCH  17  18
ATOM     18  C   UNL     1     -11.407  -6.695  15.488  1.00  0.00     0.000 C 
BRANCH  18  19
ATOM     19  C   UNL     1     -10.366  -5.576  15.379  1.00  0.00    -0.003 C 
ATOM     20  C   UNL     1     -10.921  -4.252  15.898  1.00  0.00     0.004 C 
ENDBRANCH  18  19
ENDBRANCH  17  18
ENDBRANCH  16  17
ENDBRANCH  15  16
ENDBRANCH  13  14
ENDBRANCH  12  13
ENDBRANCH   1  11
TORSDOF 14
ENDMDL
MODEL 5
REMARK VINA RESULT:    -3.983      1.619      4.665
REMARK INTER + INTRA:          -9.543
REMARK INTER:                  -6.872
REMARK INTRA:                  -2.671
REMARK UNBOUND:                -2.300
REMARK SMILES CCCCCC=CCC=CCCCCCCCC(=O)[O-]
REMARK SMILES IDX 11 1 12 2 13 3 14 4 15 5 16 6 17 7 18 8 19 9 20 10 10 11
REMARK SMILES IDX 9 12 8 13 7 14 6 15 5 16 4 17 3 18 2 19 1 20
REMARK H PARENT
REMARK Flexibility Score: inf
ROOT
ATOM      1  C   UNL     1       4.349  -7.593  16.865  1.00  0.00     0.027 C 
ENDROOT
BRANCH   1   2
ATOM      2  C   UNL     1       3.536  -8.567  17.731  1.00  0.00     0.004 C 
BRANCH   2   3
ATOM      3  C   UNL     1       3.361  -9.950  17.077  1.00  0.00     0.000 C 
BRANCH   3   4
ATOM      4  C   UNL     1       2.213 -10.050  16.056  1.00  0.00     0.000 C 
BRANCH   4   5
ATOM      5  C   UNL     1       1.015  -9.154  16.412  1.00  0.00     0.000 C 
BRANCH   5   6
ATOM      6  C   UNL     1       0.887  -7.942  15.475  1.00  0.00     0.006 C 
BRANCH   6   7
ATOM      7  C   UNL     1      -0.391  -7.131  15.730  1.00  0.00     0.053 C 
BRANCH   7   8
ATOM      8  C   UNL     1      -0.616  -6.151  14.623  1.00  0.00     0.041 C 
ATOM      9  O   UNL     1      -1.787  -5.877  14.248  1.00  0.00    -0.550 OA
ATOM     10  O   UNL     1       0.464  -5.505  14.035  1.00  0.00    -0.550 OA
ENDBRANCH   7   8
ENDBRANCH   6   7
ENDBRANCH   5   6
ENDBRANCH   4   5
ENDBRANCH   3   4
ENDBRANCH   2   3
ENDBRANCH   1   2
BRANCH   1  11
ATOM     11  C   UNL     1       5.166  -8.334  15.838  1.00  0.00    -0.031 C 
ATOM     12  C   UNL     1       5.207  -8.039  14.525  1.00  0.00    -0.027 C 
BRANCH  12  13
ATOM     13  C   UNL     1       4.401  -6.956  13.852  1.00  0.00     0.054 C 
BRANCH  13  14
ATOM     14  C   UNL     1       3.295  -7.561  13.040  1.00  0.00    -0.027 C 
ATOM     15  C   UNL     1       3.269  -8.874  12.761  1.00  0.00    -0.031 C 
BRANCH  15  16
ATOM     16  C   UNL     1       2.160  -9.485  11.951  1.00  0.00     0.027 C 
BRANCH  16  17
ATOM     17  C   UNL     1       1.060  -8.458  11.654  1.00  0.00     0.004 C 
BRANCH  17  18
ATOM     18  C   UNL     1      -0.285  -8.911  12.230  1.00  0.00     0.000 C 
BRANCH  18  19
ATOM     19  C   UNL     1      -0.212 -10.359  12.727  1.00  0.00    -0.003 C 
ATOM     20  C   UNL     1      -1.340 -11.203  12.139  1.00  0.00     0.004 C 
ENDBRANCH  18  19
ENDBRANCH  17  18
ENDBRANCH  16  17
ENDBRANCH  15  16
ENDBRANCH  13  14
ENDBRANCH  12  13
ENDBRANCH   1  11
TORSDOF 14
ENDMDL
MODEL 6
REMARK VINA RESULT:    -3.971      8.208     11.083
REMARK INTER + INTRA:          -9.522
REMARK INTER:                  -6.645
REMARK INTRA:                  -2.877
REMARK UNBOUND:                -2.300
REMARK SMILES CCCCCC=CCC=CCCCCCCCC(=O)[O-]
REMARK SMILES IDX 11 1 12 2 13 3 14 4 15 5 16 6 17 7 18 8 19 9 20 10 10 11
REMARK SMILES IDX 9 12 8 13 7 14 6 15 5 16 4 17 3 18 2 19 1 20
REMARK H PARENT
REMARK Flexibility Score: inf
ROOT
ATOM      1  C   UNL     1      -5.237  -4.052  15.872  1.00  0.00     0.027 C 
ENDROOT
BRANCH   1   2
ATOM      2  C   UNL     1      -6.498  -4.469  16.644  1.00  0.00     0.004 C 
BRANCH   2   3
ATOM      3  C   UNL     1      -7.768  -4.454  15.773  1.00  0.00     0.000 C 
BRANCH   3   4
ATOM      4  C   UNL     1      -7.679  -3.590  14.502  1.00  0.00     0.000 C 
BRANCH   4   5
ATOM      5  C   UNL     1      -7.913  -4.394  13.213  1.00  0.00     0.000 C 
BRANCH   5   6
ATOM      6  C   UNL     1      -8.751  -5.661  13.452  1.00  0.00     0.006 C 
BRANCH   6   7
ATOM      7  C   UNL     1      -8.511  -6.738  12.385  1.00  0.00     0.053 C 
BRANCH   7   8
ATOM      8  C   UNL     1      -9.699  -6.850  11.482  1.00  0.00     0.041 C 
ATOM      9  O   UNL     1     -10.343  -7.931  11.415  1.00  0.00    -0.550 OA
ATOM     10  O   UNL     1     -10.122  -5.749  10.749  1.00  0.00    -0.550 OA
ENDBRANCH   7   8
ENDBRANCH   6   7
ENDBRANCH   5   6
ENDBRANCH   4   5
ENDBRANCH   3   4
ENDBRANCH   2   3
ENDBRANCH   1   2
BRANCH   1  11
ATOM     11  C   UNL     1      -4.157  -5.096  15.995  1.00  0.00    -0.031 C 
ATOM     12  C   UNL     1      -3.987  -6.133  15.153  1.00  0.00    -0.027 C 
BRANCH  12  13
ATOM     13  C   UNL     1      -4.880  -6.456  13.980  1.00  0.00     0.054 C 
BRANCH  13  14
ATOM     14  C   UNL     1      -5.497  -7.812  14.157  1.00  0.00    -0.027 C 
ATOM     15  C   UNL     1      -6.398  -8.051  15.122  1.00  0.00    -0.031 C 
BRANCH  15  16
ATOM     16  C   UNL     1      -7.021  -9.407  15.299  1.00  0.00     0.027 C 
BRANCH  16  17
ATOM     17  C   UNL     1      -8.484  -9.410  14.838  1.00  0.00     0.004 C 
BRANCH  17  18
ATOM     18  C   UNL     1      -9.378  -8.672  15.839  1.00  0.00     0.000 C 
BRANCH  18  19
ATOM     19  C   UNL     1     -10.695  -8.239  15.184  1.00  0.00    -0.003 C 
ATOM     20  C   UNL     1     -11.448  -7.243  16.062  1.00  0.00     0.004 C 
ENDBRANCH  18  19
ENDBRANCH  17  18
ENDBRANCH  16  17
ENDBRANCH  15  16
ENDBRANCH  13  14
ENDBRANCH  12  13
ENDBRANCH   1  11
TORSDOF 14
ENDMDL
MODEL 7
REMARK VINA RESULT:    -3.966      4.709      8.527
REMARK INTER + INTRA:          -9.513
REMARK INTER:                  -6.790
REMARK INTRA:                  -2.723
REMARK UNBOUND:                -2.300
REMARK SMILES CCCCCC=CCC=CCCCCCCCC(=O)[O-]
REMARK SMILES IDX 11 1 12 2 13 3 14 4 15 5 16 6 17 7 18 8 19 9 20 10 10 11
REMARK SMILES IDX 9 12 8 13 7 14 6 15 5 16 4 17 3 18 2 19 1 20
REMARK H PARENT
REMARK Flexibility Score: inf
ROOT
ATOM      1  C   UNL     1      -4.654  -4.520  17.322  1.00  0.00     0.027 C 
ENDROOT
BRANCH   1   2
ATOM      2  C   UNL     1      -3.752  -5.763  17.376  1.00  0.00     0.004 C 
BRANCH   2   3
ATOM      3  C   UNL     1      -2.673  -5.769  16.279  1.00  0.00     0.000 C 
BRANCH   3   4
ATOM      4  C   UNL     1      -2.625  -7.042  15.416  1.00  0.00     0.000 C 
BRANCH   4   5
ATOM      5  C   UNL     1      -2.799  -6.756  13.915  1.00  0.00     0.000 C 
BRANCH   5   6
ATOM      6  C   UNL     1      -1.903  -7.646  13.037  1.00  0.00     0.006 C 
BRANCH   6   7
ATOM      7  C   UNL     1      -0.507  -7.855  13.640  1.00  0.00     0.053 C 
BRANCH   7   8
ATOM      8  C   UNL     1       0.380  -6.694  13.319  1.00  0.00     0.041 C 
ATOM      9  O   UNL     1       1.036  -6.677  12.245  1.00  0.00    -0.550 OA
ATOM     10  O   UNL     1       0.447  -5.610  14.185  1.00  0.00    -0.550 OA
ENDBRANCH   7   8
ENDBRANCH   6   7
ENDBRANCH   5   6
ENDBRANCH   4   5
ENDBRANCH   3   4
ENDBRANCH   2   3
ENDBRANCH   1   2
BRANCH   1  11
ATOM     11  C   UNL     1      -5.036  -4.189  15.902  1.00  0.00    -0.031 C 
ATOM     12  C   UNL     1      -6.037  -4.774  15.216  1.00  0.00    -0.027 C 
BRANCH  12  13
ATOM     13  C   UNL     1      -6.906  -5.893  15.732  1.00  0.00     0.054 C 
BRANCH  13  14
ATOM     14  C   UNL     1      -6.489  -7.198  15.120  1.00  0.00    -0.027 C 
ATOM     15  C   UNL     1      -6.351  -7.336  13.792  1.00  0.00    -0.031 C 
BRANCH  15  16
ATOM     16  C   UNL     1      -5.929  -8.640  13.176  1.00  0.00     0.027 C 
BRANCH  16  17
ATOM     17  C   UNL     1      -5.910  -9.765  14.217  1.00  0.00     0.004 C 
BRANCH  17  18
ATOM     18  C   UNL     1      -4.479 -10.072  14.669  1.00  0.00     0.000 C 
BRANCH  18  19
ATOM     19  C   UNL     1      -3.734 -10.898  13.615  1.00  0.00    -0.003 C 
ATOM     20  C   UNL     1      -2.435 -11.469  14.176  1.00  0.00     0.004 C 
ENDBRANCH  18  19
ENDBRANCH  17  18
ENDBRANCH  16  17
ENDBRANCH  15  16
ENDBRANCH  13  14
ENDBRANCH  12  13
ENDBRANCH   1  11
TORSDOF 14
ENDMDL
MODEL 8
REMARK VINA RESULT:    -3.930     11.491     14.793
REMARK INTER + INTRA:          -9.446
REMARK INTER:                  -6.886
REMARK INTRA:                  -2.560
REMARK UNBOUND:                -2.300
REMARK SMILES CCCCCC=CCC=CCCCCCCCC(=O)[O-]
REMARK SMILES IDX 11 1 12 2 13 3 14 4 15 5 16 6 17 7 18 8 19 9 20 10 10 11
REMARK SMILES IDX 9 12 8 13 7 14 6 15 5 16 4 17 3 18 2 19 1 20
REMARK H PARENT
REMARK Flexibility Score: inf
ROOT
ATOM      1  C   UNL     1     -11.546  -3.295   8.515  1.00  0.00     0.027 C 
ENDROOT
BRANCH   1   2
ATOM      2  C   UNL     1     -11.011  -2.476   9.699  1.00  0.00     0.004 C 
BRANCH   2   3
ATOM      3  C   UNL     1      -9.718  -3.059  10.297  1.00  0.00     0.000 C 
BRANCH   3   4
ATOM      4  C   UNL     1      -9.686  -3.140  11.834  1.00  0.00     0.000 C 
BRANCH   4   5
ATOM      5  C   UNL     1      -9.655  -4.586  12.357  1.00  0.00     0.000 C 
BRANCH   5   6
ATOM      6  C   UNL     1      -8.238  -5.042  12.743  1.00  0.00     0.006 C 
BRANCH   6   7
ATOM      7  C   UNL     1      -8.245  -6.233  13.712  1.00  0.00     0.053 C 
BRANCH   7   8
ATOM      8  C   UNL     1      -8.148  -7.520  12.957  1.00  0.00     0.041 C 
ATOM      9  O   UNL     1      -8.219  -7.524  11.700  1.00  0.00    -0.550 OA
ATOM     10  O   UNL     1      -7.934  -8.712  13.639  1.00  0.00    -0.550 OA
ENDBRANCH   7   8
ENDBRANCH   6   7
ENDBRANCH   5   6
ENDBRANCH   4   5
ENDBRANCH   3   4
ENDBRANCH   2   3
ENDBRANCH   1   2
BRANCH   1  11
ATOM     11  C   UNL     1     -11.187  -4.752   8.657  1.00  0.00    -0.031 C 
ATOM     12  C   UNL     1     -11.974  -5.689   9.221  1.00  0.00    -0.027 C 
BRANCH  12  13
ATOM     13  C   UNL     1     -13.320  -5.430   9.851  1.00  0.00     0.054 C 
BRANCH  13  14
ATOM     14  C   UNL     1     -13.201  -5.436  11.346  1.00  0.00    -0.027 C 
ATOM     15  C   UNL     1     -13.326  -4.309  12.064  1.00  0.00    -0.031 C 
BRANCH  15  16
ATOM     16  C   UNL     1     -13.211  -4.312  13.562  1.00  0.00     0.027 C 
BRANCH  16  17
ATOM     17  C   UNL     1     -13.482  -5.708  14.136  1.00  0.00     0.004 C 
BRANCH  17  18
ATOM     18  C   UNL     1     -12.324  -6.173  15.025  1.00  0.00     0.000 C 
BRANCH  18  19
ATOM     19  C   UNL     1     -11.600  -7.372  14.404  1.00  0.00    -0.003 C 
ATOM     20  C   UNL     1     -10.969  -8.254  15.478  1.00  0.00     0.004 C 
ENDBRANCH  18  19
ENDBRANCH  17  18
ENDBRANCH  16  17
ENDBRANCH  15  16
ENDBRANCH  13  14
ENDBRANCH  12  13
ENDBRANCH   1  11
TORSDOF 14
ENDMDL
MODEL 9
REMARK VINA RESULT:    -3.919      9.214     12.525
REMARK INTER + INTRA:          -9.426
REMARK INTER:                  -6.505
REMARK INTRA:                  -2.922
REMARK UNBOUND:                -2.300
REMARK SMILES CCCCCC=CCC=CCCCCCCCC(=O)[O-]
REMARK SMILES IDX 11 1 12 2 13 3 14 4 15 5 16 6 17 7 18 8 19 9 20 10 10 11
REMARK SMILES IDX 9 12 8 13 7 14 6 15 5 16 4 17 3 18 2 19 1 20
REMARK H PARENT
REMARK Flexibility Score: inf
ROOT
ATOM      1  C   UNL     1      -8.738  -9.757  16.665  1.00  0.00     0.027 C 
ENDROOT
BRANCH   1   2
ATOM      2  C   UNL     1      -9.798  -8.863  17.328  1.00  0.00     0.004 C 
BRANCH   2   3
ATOM      3  C   UNL     1     -11.017  -8.606  16.423  1.00  0.00     0.000 C 
BRANCH   3   4
ATOM      4  C   UNL     1     -11.499  -7.145  16.375  1.00  0.00     0.000 C 
BRANCH   4   5
ATOM      5  C   UNL     1     -12.186  -6.784  15.047  1.00  0.00     0.000 C 
BRANCH   5   6
ATOM      6  C   UNL     1     -11.346  -7.181  13.822  1.00  0.00     0.006 C 
BRANCH   6   7
ATOM      7  C   UNL     1     -10.898  -5.969  12.995  1.00  0.00     0.053 C 
BRANCH   7   8
ATOM      8  C   UNL     1     -10.146  -6.414  11.781  1.00  0.00     0.041 C 
ATOM      9  O   UNL     1      -9.664  -5.564  10.988  1.00  0.00    -0.550 OA
ATOM     10  O   UNL     1      -9.939  -7.768  11.549  1.00  0.00    -0.550 OA
ENDBRANCH   7   8
ENDBRANCH   6   7
ENDBRANCH   5   6
ENDBRANCH   4   5
ENDBRANCH   3   4
ENDBRANCH   2   3
ENDBRANCH   1   2
BRANCH   1  11
ATOM     11  C   UNL     1      -8.817  -9.668  15.163  1.00  0.00    -0.031 C 
ATOM     12  C   UNL     1      -8.071  -8.847  14.399  1.00  0.00    -0.027 C 
BRANCH  12  13
ATOM     13  C   UNL     1      -7.073  -7.843  14.920  1.00  0.00     0.054 C 
BRANCH  13  14
ATOM     14  C   UNL     1      -7.604  -6.450  14.750  1.00  0.00    -0.027 C 
ATOM     15  C   UNL     1      -8.207  -5.802  15.759  1.00  0.00    -0.031 C 
BRANCH  15  16
ATOM     16  C   UNL     1      -8.736  -4.405  15.594  1.00  0.00     0.027 C 
BRANCH  16  17
ATOM     17  C   UNL     1      -7.594  -3.394  15.443  1.00  0.00     0.004 C 
BRANCH  17  18
ATOM     18  C   UNL     1      -6.751  -3.321  16.721  1.00  0.00     0.000 C 
BRANCH  18  19
ATOM     19  C   UNL     1      -5.254  -3.304  16.392  1.00  0.00    -0.003 C 
ATOM     20  C   UNL     1      -4.694  -4.720  16.291  1.00  0.00     0.004 C 
ENDBRANCH  18  19
ENDBRANCH  17  18
ENDBRANCH  16  17
ENDBRANCH  15  16
ENDBRANCH  13  14
ENDBRANCH  12  13
ENDBRANCH   1  11
TORSDOF 14
ENDMDL
