MODEL 1
REMARK VINA RESULT:    -1.882      0.000      0.000
REMARK INTER + INTRA:          -1.882
REMARK INTER:                  -1.882
REMARK INTRA:                   0.000
REMARK UNBOUND:                 0.000
REMARK SMILES CC(=O)[O-]
REMARK SMILES IDX 1 1 2 2 3 3 4 4
REMARK H PARENT
REMARK Flexibility Score: inf
ROOT
ATOM      1  C   UNL     1      -1.850 -16.632  43.644  1.00  0.00     0.063 C 
ATOM      2  C   UNL     1      -2.495 -15.299  43.468  1.00  0.00     0.038 C 
ATOM      3  O   UNL     1      -3.708 -15.140  43.764  1.00  0.00    -0.550 OA
ATOM      4  O   UNL     1      -1.774 -14.243  42.926  1.00  0.00    -0.550 OA
ENDROOT
TORSDOF 0
ENDMDL
MODEL 2
REMARK VINA RESULT:    -1.878      0.143      1.621
REMARK INTER + INTRA:          -1.878
REMARK INTER:                  -1.878
REMARK INTRA:                   0.000
REMARK UNBOUND:                 0.000
REMARK SMILES CC(=O)[O-]
REMARK SMILES IDX 1 1 2 2 3 3 4 4
REMARK H PARENT
REMARK Flexibility Score: inf
ROOT
ATOM      1  C   UNL     1      -1.923 -16.561  43.741  1.00  0.00     0.063 C 
ATOM      2  C   UNL     1      -2.530 -15.234  43.432  1.00  0.00     0.038 C 
ATOM      3  O   UNL     1      -1.826 -14.318  42.932  1.00  0.00    -0.550 OA
ATOM      4  O   UNL     1      -3.860 -14.988  43.745  1.00  0.00    -0.550 OA
ENDROOT
TORSDOF 0
ENDMDL
MODEL 3
REMARK VINA RESULT:    -1.856      4.310      4.740
REMARK INTER + INTRA:          -1.856
REMARK INTER:                  -1.856
REMARK INTRA:                   0.000
REMARK UNBOUND:                 0.000
REMARK SMILES CC(=O)[O-]
REMARK SMILES IDX 1 1 2 2 3 3 4 4
REMARK H PARENT
REMARK Flexibility Score: inf
ROOT
ATOM      1  C   UNL     1      -2.795 -11.208  42.248  1.00  0.00     0.063 C 
ATOM      2  C   UNL     1      -1.347 -11.437  41.972  1.00  0.00     0.038 C 
ATOM      3  O   UNL     1      -0.849 -11.073  40.875  1.00  0.00    -0.550 OA
ATOM      4  O   UNL     1      -0.558 -12.102  42.900  1.00  0.00    -0.550 OA
ENDROOT
TORSDOF 0
ENDMDL
MODEL 4
REMARK VINA RESULT:    -1.838      4.362      4.697
REMARK INTER + INTRA:          -1.838
REMARK INTER:                  -1.838
REMARK INTRA:                   0.000
REMARK UNBOUND:                 0.000
REMARK SMILES CC(=O)[O-]
REMARK SMILES IDX 1 1 2 2 3 3 4 4
REMARK H PARENT
REMARK Flexibility Score: inf
ROOT
ATOM      1  C   UNL     1      -2.826 -11.185  42.239  1.00  0.00     0.063 C 
ATOM      2  C   UNL     1      -1.383 -11.409  41.936  1.00  0.00     0.038 C 
ATOM      3  O   UNL     1      -0.634 -11.948  42.793  1.00  0.00    -0.550 OA
ATOM      4  O   UNL     1      -0.849 -10.976  40.731  1.00  0.00    -0.550 OA
ENDROOT
TORSDOF 0
ENDMDL
MODEL 5
REMARK VINA RESULT:    -1.789      4.883      5.323
REMARK INTER + INTRA:          -1.789
REMARK INTER:                  -1.789
REMARK INTRA:                   0.000
REMARK UNBOUND:                 0.000
REMARK SMILES CC(=O)[O-]
REMARK SMILES IDX 1 1 2 2 3 3 4 4
REMARK H PARENT
REMARK Flexibility Score: inf
ROOT
ATOM      1  C   UNL     1      -1.362 -11.910  42.305  1.00  0.00     0.063 C 
ATOM      2  C   UNL     1      -1.385 -10.791  41.320  1.00  0.00     0.038 C 
ATOM      3  O   UNL     1      -0.653 -10.834  40.297  1.00  0.00    -0.550 OA
ATOM      4  O   UNL     1      -2.173  -9.672  41.555  1.00  0.00    -0.550 OA
ENDROOT
TORSDOF 0
ENDMDL
MODEL 6
REMARK VINA RESULT:    -1.708      6.258      6.734
REMARK INTER + INTRA:          -1.708
REMARK INTER:                  -1.708
REMARK INTRA:                   0.000
REMARK UNBOUND:                 0.000
REMARK SMILES CC(=O)[O-]
REMARK SMILES IDX 1 1 2 2 3 3 4 4
REMARK H PARENT
REMARK Flexibility Score: inf
ROOT
ATOM      1  C   UNL     1      -1.394  -8.237  40.046  1.00  0.00     0.063 C 
ATOM      2  C   UNL     1      -1.670  -9.544  40.709  1.00  0.00     0.038 C 
ATOM      3  O   UNL     1      -2.595  -9.639  41.557  1.00  0.00    -0.550 OA
ATOM      4  O   UNL     1      -0.872 -10.646  40.434  1.00  0.00    -0.550 OA
ENDROOT
TORSDOF 0
ENDMDL
MODEL 7
REMARK VINA RESULT:    -1.684     13.770     14.387
REMARK INTER + INTRA:          -1.684
REMARK INTER:                  -1.684
REMARK INTRA:                   0.000
REMARK UNBOUND:                 0.000
REMARK SMILES CC(=O)[O-]
REMARK SMILES IDX 1 1 2 2 3 3 4 4
REMARK H PARENT
REMARK Flexibility Score: inf
ROOT
ATOM      1  C   UNL     1      -5.604  -4.686  33.756  1.00  0.00     0.063 C 
ATOM      2  C   UNL     1      -4.560  -4.245  34.725  1.00  0.00     0.038 C 
ATOM      3  O   UNL     1      -3.699  -3.393  34.382  1.00  0.00    -0.550 OA
ATOM      4  O   UNL     1      -4.501  -4.812  35.991  1.00  0.00    -0.550 OA
ENDROOT
TORSDOF 0
ENDMDL
MODEL 8
REMARK VINA RESULT:    -1.575     13.759     14.213
REMARK INTER + INTRA:          -1.575
REMARK INTER:                  -1.575
REMARK INTRA:                   0.000
REMARK UNBOUND:                 0.000
REMARK SMILES CC(=O)[O-]
REMARK SMILES IDX 1 1 2 2 3 3 4 4
REMARK H PARENT
REMARK Flexibility Score: inf
ROOT
ATOM      1  C   UNL     1      -3.962  -5.734  35.207  1.00  0.00     0.063 C 
ATOM      2  C   UNL     1      -3.716  -4.693  34.169  1.00  0.00     0.038 C 
ATOM      3  O   UNL     1      -3.120  -4.993  33.101  1.00  0.00    -0.550 OA
ATOM      4  O   UNL     1      -4.095  -3.377  34.399  1.00  0.00    -0.550 OA
ENDROOT
TORSDOF 0
ENDMDL
MODEL 9
REMARK VINA RESULT:    -1.570      7.907      8.362
REMARK INTER + INTRA:          -1.570
REMARK INTER:                  -1.570
REMARK INTRA:                   0.000
REMARK UNBOUND:                 0.000
REMARK SMILES CC(=O)[O-]
REMARK SMILES IDX 1 1 2 2 3 3 4 4
REMARK H PARENT
REMARK Flexibility Score: inf
ROOT
ATOM      1  C   UNL     1      -1.069  -7.996  37.876  1.00  0.00     0.063 C 
ATOM      2  C   UNL     1      -0.808  -8.586  39.220  1.00  0.00     0.038 C 
ATOM      3  O   UNL     1      -1.255  -8.024  40.254  1.00  0.00    -0.550 OA
ATOM      4  O   UNL     1      -0.025  -9.726  39.341  1.00  0.00    -0.550 OA
ENDROOT
TORSDOF 0
ENDMDL
