MODEL 1
REMARK VINA RESULT:    -2.941      0.000      0.000
REMARK INTER + INTRA:          -3.585
REMARK INTER:                  -3.456
REMARK INTRA:                  -0.129
REMARK UNBOUND:                -0.129
REMARK SMILES O=C([O-])CCC(=O)[O-]
REMARK SMILES IDX 4 1 2 2 1 3 3 4 5 5 6 6 7 7 8 8
REMARK H PARENT
REMARK Flexibility Score: inf
ROOT
ATOM      1  C   UNL     1      13.050  -4.491 -22.885  1.00  0.00     0.059 C 
ENDROOT
BRANCH   1   2
ATOM      2  C   UNL     1      13.029  -3.016 -22.632  1.00  0.00     0.042 C 
ATOM      3  O   UNL     1      13.873  -2.265 -23.188  1.00  0.00    -0.550 OA
ATOM      4  O   UNL     1      12.052  -2.464 -21.813  1.00  0.00    -0.550 OA
ENDBRANCH   1   2
BRANCH   1   5
ATOM      5  C   UNL     1      14.017  -5.213 -21.940  1.00  0.00     0.059 C 
BRANCH   5   6
ATOM      6  C   UNL     1      13.366  -5.537 -20.630  1.00  0.00     0.042 C 
ATOM      7  O   UNL     1      12.139  -5.813 -20.583  1.00  0.00    -0.550 OA
ATOM      8  O   UNL     1      14.125  -5.572 -19.467  1.00  0.00    -0.550 OA
ENDBRANCH   5   6
ENDBRANCH   1   5
TORSDOF 3
ENDMDL
MODEL 2
REMARK VINA RESULT:    -2.876      0.199      3.657
REMARK INTER + INTRA:          -3.510
REMARK INTER:                  -3.391
REMARK INTRA:                  -0.119
REMARK UNBOUND:                -0.129
REMARK SMILES O=C([O-])CCC(=O)[O-]
REMARK SMILES IDX 4 1 2 2 1 3 3 4 5 5 6 6 7 7 8 8
REMARK H PARENT
REMARK Flexibility Score: inf
ROOT
ATOM      1  C   UNL     1      13.849  -5.176 -21.928  1.00  0.00     0.059 C 
ENDROOT
BRANCH   1   2
ATOM      2  C   UNL     1      13.313  -5.578 -20.589  1.00  0.00     0.042 C 
ATOM      3  O   UNL     1      12.139  -6.020 -20.483  1.00  0.00    -0.550 OA
ATOM      4  O   UNL     1      14.125  -5.504 -19.465  1.00  0.00    -0.550 OA
ENDBRANCH   1   2
BRANCH   1   5
ATOM      5  C   UNL     1      12.783  -4.469 -22.773  1.00  0.00     0.059 C 
BRANCH   5   6
ATOM      6  C   UNL     1      12.770  -2.992 -22.521  1.00  0.00     0.042 C 
ATOM      7  O   UNL     1      11.924  -2.491 -21.735  1.00  0.00    -0.550 OA
ATOM      8  O   UNL     1      13.719  -2.176 -23.124  1.00  0.00    -0.550 OA
ENDBRANCH   5   6
ENDBRANCH   1   5
TORSDOF 3
ENDMDL
MODEL 3
REMARK VINA RESULT:    -2.833      0.608      1.722
REMARK INTER + INTRA:          -3.459
REMARK INTER:                  -3.334
REMARK INTRA:                  -0.125
REMARK UNBOUND:                -0.129
REMARK SMILES O=C([O-])CCC(=O)[O-]
REMARK SMILES IDX 4 1 2 2 1 3 3 4 5 5 6 6 7 7 8 8
REMARK H PARENT
REMARK Flexibility Score: inf
ROOT
ATOM      1  C   UNL     1      12.776  -4.675 -22.313  1.00  0.00     0.059 C 
ENDROOT
BRANCH   1   2
ATOM      2  C   UNL     1      12.790  -3.178 -22.338  1.00  0.00     0.042 C 
ATOM      3  O   UNL     1      11.941  -2.525 -21.676  1.00  0.00    -0.550 OA
ATOM      4  O   UNL     1      13.766  -2.503 -23.060  1.00  0.00    -0.550 OA
ENDBRANCH   1   2
BRANCH   1   5
ATOM      5  C   UNL     1      13.760  -5.231 -21.279  1.00  0.00     0.059 C 
BRANCH   5   6
ATOM      6  C   UNL     1      13.091  -5.485 -19.963  1.00  0.00     0.042 C 
ATOM      7  O   UNL     1      13.780  -5.650 -18.922  1.00  0.00    -0.550 OA
ATOM      8  O   UNL     1      11.704  -5.499 -19.880  1.00  0.00    -0.550 OA
ENDBRANCH   5   6
ENDBRANCH   1   5
TORSDOF 3
ENDMDL
MODEL 4
REMARK VINA RESULT:    -2.802      1.476      1.832
REMARK INTER + INTRA:          -3.422
REMARK INTER:                  -3.330
REMARK INTRA:                  -0.093
REMARK UNBOUND:                -0.129
REMARK SMILES O=C([O-])CCC(=O)[O-]
REMARK SMILES IDX 4 1 2 2 1 3 3 4 5 5 6 6 7 7 8 8
REMARK H PARENT
REMARK Flexibility Score: inf
ROOT
ATOM      1  C   UNL     1      12.391  -3.756 -23.453  1.00  0.00     0.059 C 
ENDROOT
BRANCH   1   2
ATOM      2  C   UNL     1      13.133  -2.531 -23.890  1.00  0.00     0.042 C 
ATOM      3  O   UNL     1      14.125  -2.122 -23.231  1.00  0.00    -0.550 OA
ATOM      4  O   UNL     1      12.754  -1.864 -25.048  1.00  0.00    -0.550 OA
ENDBRANCH   1   2
BRANCH   1   5
ATOM      5  C   UNL     1      12.549  -4.006 -21.949  1.00  0.00     0.059 C 
BRANCH   5   6
ATOM      6  C   UNL     1      13.394  -5.213 -21.678  1.00  0.00     0.042 C 
ATOM      7  O   UNL     1      13.696  -5.999 -22.614  1.00  0.00    -0.550 OA
ATOM      8  O   UNL     1      13.879  -5.448 -20.397  1.00  0.00    -0.550 OA
ENDBRANCH   5   6
ENDBRANCH   1   5
TORSDOF 3
ENDMDL
MODEL 5
REMARK VINA RESULT:    -2.797      6.411      6.986
REMARK INTER + INTRA:          -3.417
REMARK INTER:                  -3.297
REMARK INTRA:                  -0.120
REMARK UNBOUND:                -0.129
REMARK SMILES O=C([O-])CCC(=O)[O-]
REMARK SMILES IDX 4 1 2 2 1 3 3 4 5 5 6 6 7 7 8 8
REMARK H PARENT
REMARK Flexibility Score: inf
ROOT
ATOM      1  C   UNL     1      13.865  -9.030 -25.076  1.00  0.00     0.059 C 
ENDROOT
BRANCH   1   2
ATOM      2  C   UNL     1      13.127  -8.822 -26.362  1.00  0.00     0.042 C 
ATOM      3  O   UNL     1      11.889  -8.594 -26.354  1.00  0.00    -0.550 OA
ATOM      4  O   UNL     1      13.815  -8.840 -27.569  1.00  0.00    -0.550 OA
ENDBRANCH   1   2
BRANCH   1   5
ATOM      5  C   UNL     1      12.957  -9.626 -23.995  1.00  0.00     0.059 C 
BRANCH   5   6
ATOM      6  C   UNL     1      12.943 -11.123 -24.051  1.00  0.00     0.042 C 
ATOM      7  O   UNL     1      13.749 -11.791 -23.352  1.00  0.00    -0.550 OA
ATOM      8  O   UNL     1      12.012 -11.780 -24.847  1.00  0.00    -0.550 OA
ENDBRANCH   5   6
ENDBRANCH   1   5
TORSDOF 3
ENDMDL
MODEL 6
REMARK VINA RESULT:    -2.792      6.394      7.654
REMARK INTER + INTRA:          -3.411
REMARK INTER:                  -3.301
REMARK INTRA:                  -0.110
REMARK UNBOUND:                -0.129
REMARK SMILES O=C([O-])CCC(=O)[O-]
REMARK SMILES IDX 4 1 2 2 1 3 3 4 5 5 6 6 7 7 8 8
REMARK H PARENT
REMARK Flexibility Score: inf
ROOT
ATOM      1  C   UNL     1      12.935  -9.676 -23.929  1.00  0.00     0.059 C 
ENDROOT
BRANCH   1   2
ATOM      2  C   UNL     1      12.921 -11.172 -23.993  1.00  0.00     0.042 C 
ATOM      3  O   UNL     1      12.104 -11.767 -24.744  1.00  0.00    -0.550 OA
ATOM      4  O   UNL     1      13.838 -11.908 -23.254  1.00  0.00    -0.550 OA
ENDBRANCH   1   2
BRANCH   1   5
ATOM      5  C   UNL     1      13.857  -9.074 -24.995  1.00  0.00     0.059 C 
BRANCH   5   6
ATOM      6  C   UNL     1      13.125  -8.826 -26.279  1.00  0.00     0.042 C 
ATOM      7  O   UNL     1      11.889  -8.590 -26.268  1.00  0.00    -0.550 OA
ATOM      8  O   UNL     1      13.817  -8.818 -27.483  1.00  0.00    -0.550 OA
ENDBRANCH   5   6
ENDBRANCH   1   5
TORSDOF 3
ENDMDL
MODEL 7
REMARK VINA RESULT:    -2.720      1.777      4.091
REMARK INTER + INTRA:          -3.326
REMARK INTER:                  -3.210
REMARK INTRA:                  -0.116
REMARK UNBOUND:                -0.129
REMARK SMILES O=C([O-])CCC(=O)[O-]
REMARK SMILES IDX 4 1 2 2 1 3 3 4 5 5 6 6 7 7 8 8
REMARK H PARENT
REMARK Flexibility Score: inf
ROOT
ATOM      1  C   UNL     1      12.617  -3.948 -21.947  1.00  0.00     0.059 C 
ENDROOT
BRANCH   1   2
ATOM      2  C   UNL     1      13.471  -5.161 -21.740  1.00  0.00     0.042 C 
ATOM      3  O   UNL     1      13.642  -5.984 -22.678  1.00  0.00    -0.550 OA
ATOM      4  O   UNL     1      14.111  -5.361 -20.524  1.00  0.00    -0.550 OA
ENDBRANCH   1   2
BRANCH   1   5
ATOM      5  C   UNL     1      13.310  -2.917 -22.845  1.00  0.00     0.059 C 
BRANCH   5   6
ATOM      6  C   UNL     1      12.580  -2.737 -24.141  1.00  0.00     0.042 C 
ATOM      7  O   UNL     1      12.875  -1.783 -24.907  1.00  0.00    -0.550 OA
ATOM      8  O   UNL     1      11.602  -3.648 -24.520  1.00  0.00    -0.550 OA
ENDBRANCH   5   6
ENDBRANCH   1   5
TORSDOF 3
ENDMDL
MODEL 8
REMARK VINA RESULT:    -2.662      2.189      2.742
REMARK INTER + INTRA:          -3.258
REMARK INTER:                  -3.145
REMARK INTRA:                  -0.113
REMARK UNBOUND:                -0.129
REMARK SMILES O=C([O-])CCC(=O)[O-]
REMARK SMILES IDX 4 1 2 2 1 3 3 4 5 5 6 6 7 7 8 8
REMARK H PARENT
REMARK Flexibility Score: inf
ROOT
ATOM      1  C   UNL     1      13.427  -2.431 -23.824  1.00  0.00     0.059 C 
ENDROOT
BRANCH   1   2
ATOM      2  C   UNL     1      12.405  -2.113 -24.871  1.00  0.00     0.042 C 
ATOM      3  O   UNL     1      12.684  -1.321 -25.809  1.00  0.00    -0.550 OA
ATOM      4  O   UNL     1      11.158  -2.723 -24.834  1.00  0.00    -0.550 OA
ENDBRANCH   1   2
BRANCH   1   5
ATOM      5  C   UNL     1      12.771  -2.817 -22.494  1.00  0.00     0.059 C 
BRANCH   5   6
ATOM      6  C   UNL     1      12.930  -4.278 -22.205  1.00  0.00     0.042 C 
ATOM      7  O   UNL     1      12.916  -4.694 -21.017  1.00  0.00    -0.550 OA
ATOM      8  O   UNL     1      13.054  -5.184 -23.250  1.00  0.00    -0.550 OA
ENDBRANCH   5   6
ENDBRANCH   1   5
TORSDOF 3
ENDMDL
MODEL 9
REMARK VINA RESULT:    -2.605      8.566      9.529
REMARK INTER + INTRA:          -3.191
REMARK INTER:                  -3.080
REMARK INTRA:                  -0.111
REMARK UNBOUND:                -0.129
REMARK SMILES O=C([O-])CCC(=O)[O-]
REMARK SMILES IDX 4 1 2 2 1 3 3 4 5 5 6 6 7 7 8 8
REMARK H PARENT
REMARK Flexibility Score: inf
ROOT
ATOM      1  C   UNL     1      12.229 -13.820 -19.257  1.00  0.00     0.059 C 
ENDROOT
BRANCH   1   2
ATOM      2  C   UNL     1      11.847 -12.663 -20.127  1.00  0.00     0.042 C 
ATOM      3  O   UNL     1      10.850 -11.952 -19.835  1.00  0.00    -0.550 OA
ATOM      4  O   UNL     1      12.617 -12.345 -21.238  1.00  0.00    -0.550 OA
ENDBRANCH   1   2
BRANCH   1   5
ATOM      5  C   UNL     1      13.324 -13.436 -18.256  1.00  0.00     0.059 C 
BRANCH   5   6
ATOM      6  C   UNL     1      12.806 -13.429 -16.850  1.00  0.00     0.042 C 
ATOM      7  O   UNL     1      11.999 -12.539 -16.476  1.00  0.00    -0.550 OA
ATOM      8  O   UNL     1      13.187 -14.429 -15.964  1.00  0.00    -0.550 OA
ENDBRANCH   5   6
ENDBRANCH   1   5
TORSDOF 3
ENDMDL
