MODEL 1
REMARK VINA RESULT:    -4.290      0.000      0.000
REMARK INTER + INTRA:          -4.290
REMARK INTER:                  -4.290
REMARK INTRA:                   0.000
REMARK UNBOUND:                 0.000
REMARK SMILES CC1=CC[C@@H]2[C@@H](C1)C2(C)C
REMARK SMILES IDX 1 1 2 2 3 3 4 4 5 5 6 6 7 7 8 8 9 9 10 10
REMARK H PARENT
REMARK Flexibility Score: inf
ROOT
ATOM      1  C   UNL     1     138.899 144.382 130.933  1.00  0.00     0.039 C 
ATOM      2  C   UNL     1     138.772 143.698 132.265  1.00  0.00    -0.077 C 
ATOM      3  C   UNL     1     139.324 144.276 133.371  1.00  0.00    -0.028 C 
ATOM      4  C   UNL     1     139.251 143.619 134.749  1.00  0.00     0.031 C 
ATOM      5  C   UNL     1     139.038 142.115 134.540  1.00  0.00     0.003 C 
ATOM      6  C   UNL     1     137.647 142.105 133.801  1.00  0.00     0.003 C 
ATOM      7  C   UNL     1     138.079 142.332 132.348  1.00  0.00     0.034 C 
ATOM      8  C   UNL     1     137.966 141.106 134.891  1.00  0.00    -0.029 C 
ATOM      9  C   UNL     1     137.280 141.312 136.244  1.00  0.00     0.012 C 
ATOM     10  C   UNL     1     138.192 139.665 134.424  1.00  0.00     0.012 C 
ENDROOT
TORSDOF 0
ENDMDL
MODEL 2
REMARK VINA RESULT:    -4.281      4.251      5.829
REMARK INTER + INTRA:          -4.281
REMARK INTER:                  -4.281
REMARK INTRA:                   0.000
REMARK UNBOUND:                 0.000
REMARK SMILES CC1=CC[C@@H]2[C@@H](C1)C2(C)C
REMARK SMILES IDX 1 1 2 2 3 3 4 4 5 5 6 6 7 7 8 8 9 9 10 10
REMARK H PARENT
REMARK Flexibility Score: inf
ROOT
ATOM      1  C   UNL     1     141.487 144.757 136.713  1.00  0.00     0.039 C 
ATOM      2  C   UNL     1     142.044 144.319 135.389  1.00  0.00    -0.077 C 
ATOM      3  C   UNL     1     141.476 144.779 134.236  1.00  0.00    -0.028 C 
ATOM      4  C   UNL     1     141.980 144.351 132.859  1.00  0.00     0.031 C 
ATOM      5  C   UNL     1     142.708 143.011 133.021  1.00  0.00     0.003 C 
ATOM      6  C   UNL     1     143.884 143.420 133.985  1.00  0.00     0.003 C 
ATOM      7  C   UNL     1     143.201 143.312 135.353  1.00  0.00     0.034 C 
ATOM      8  C   UNL     1     144.116 142.501 132.806  1.00  0.00    -0.029 C 
ATOM      9  C   UNL     1     144.857 143.090 131.602  1.00  0.00     0.012 C 
ATOM     10  C   UNL     1     144.382 141.033 133.152  1.00  0.00     0.012 C 
ENDROOT
TORSDOF 0
ENDMDL
MODEL 3
REMARK VINA RESULT:    -4.277      5.588      6.783
REMARK INTER + INTRA:          -4.277
REMARK INTER:                  -4.277
REMARK INTRA:                   0.000
REMARK UNBOUND:                 0.000
REMARK SMILES CC1=CC[C@@H]2[C@@H](C1)C2(C)C
REMARK SMILES IDX 1 1 2 2 3 3 4 4 5 5 6 6 7 7 8 8 9 9 10 10
REMARK H PARENT
REMARK Flexibility Score: inf
ROOT
ATOM      1  C   UNL     1     143.555 137.916 130.943  1.00  0.00     0.039 C 
ATOM      2  C   UNL     1     143.594 138.585 132.288  1.00  0.00    -0.077 C 
ATOM      3  C   UNL     1     142.977 137.991 133.351  1.00  0.00    -0.028 C 
ATOM      4  C   UNL     1     142.960 138.633 134.738  1.00  0.00     0.031 C 
ATOM      5  C   UNL     1     143.175 140.140 134.560  1.00  0.00     0.003 C 
ATOM      6  C   UNL     1     144.609 140.168 133.910  1.00  0.00     0.003 C 
ATOM      7  C   UNL     1     144.271 139.954 132.430  1.00  0.00     0.034 C 
ATOM      8  C   UNL     1     144.216 141.152 134.988  1.00  0.00    -0.029 C 
ATOM      9  C   UNL     1     144.817 140.935 136.379  1.00  0.00     0.012 C 
ATOM     10  C   UNL     1     144.010 142.597 134.524  1.00  0.00     0.012 C 
ENDROOT
TORSDOF 0
ENDMDL
MODEL 4
REMARK VINA RESULT:    -4.264      1.076      4.257
REMARK INTER + INTRA:          -4.264
REMARK INTER:                  -4.264
REMARK INTRA:                   0.000
REMARK UNBOUND:                 0.000
REMARK SMILES CC1=CC[C@@H]2[C@@H](C1)C2(C)C
REMARK SMILES IDX 1 1 2 2 3 3 4 4 5 5 6 6 7 7 8 8 9 9 10 10
REMARK H PARENT
REMARK Flexibility Score: inf
ROOT
ATOM      1  C   UNL     1     137.414 141.445 136.747  1.00  0.00     0.039 C 
ATOM      2  C   UNL     1     137.838 142.017 135.424  1.00  0.00    -0.077 C 
ATOM      3  C   UNL     1     137.334 141.486 134.271  1.00  0.00    -0.028 C 
ATOM      4  C   UNL     1     137.744 142.006 132.895  1.00  0.00     0.031 C 
ATOM      5  C   UNL     1     139.108 142.690 133.039  1.00  0.00     0.003 C 
ATOM      6  C   UNL     1     138.758 143.858 134.036  1.00  0.00     0.003 C 
ATOM      7  C   UNL     1     138.877 143.143 135.387  1.00  0.00     0.034 C 
ATOM      8  C   UNL     1     139.656 144.087 132.840  1.00  0.00    -0.029 C 
ATOM      9  C   UNL     1     139.061 144.870 131.666  1.00  0.00     0.012 C 
ATOM     10  C   UNL     1     141.138 144.302 133.156  1.00  0.00     0.012 C 
ENDROOT
TORSDOF 0
ENDMDL
MODEL 5
REMARK VINA RESULT:    -4.261      5.607      6.752
REMARK INTER + INTRA:          -4.261
REMARK INTER:                  -4.261
REMARK INTRA:                   0.000
REMARK UNBOUND:                 0.000
REMARK SMILES CC1=CC[C@@H]2[C@@H](C1)C2(C)C
REMARK SMILES IDX 1 1 2 2 3 3 4 4 5 5 6 6 7 7 8 8 9 9 10 10
REMARK H PARENT
REMARK Flexibility Score: inf
ROOT
ATOM      1  C   UNL     1     144.685 140.904 136.656  1.00  0.00     0.039 C 
ATOM      2  C   UNL     1     144.300 140.288 135.341  1.00  0.00    -0.077 C 
ATOM      3  C   UNL     1     144.794 140.816 134.183  1.00  0.00    -0.028 C 
ATOM      4  C   UNL     1     144.421 140.251 132.813  1.00  0.00     0.031 C 
ATOM      5  C   UNL     1     143.085 139.514 132.958  1.00  0.00     0.003 C 
ATOM      6  C   UNL     1     143.472 138.382 133.982  1.00  0.00     0.003 C 
ATOM      7  C   UNL     1     143.309 139.118 135.317  1.00  0.00     0.034 C 
ATOM      8  C   UNL     1     142.599 138.092 132.782  1.00  0.00    -0.029 C 
ATOM      9  C   UNL     1     143.238 137.311 131.630  1.00  0.00     0.012 C 
ATOM     10  C   UNL     1     141.123 137.821 133.087  1.00  0.00     0.012 C 
ENDROOT
TORSDOF 0
ENDMDL
MODEL 6
REMARK VINA RESULT:    -4.257      3.752      4.837
REMARK INTER + INTRA:          -4.257
REMARK INTER:                  -4.257
REMARK INTRA:                   0.000
REMARK UNBOUND:                 0.000
REMARK SMILES CC1=CC[C@@H]2[C@@H](C1)C2(C)C
REMARK SMILES IDX 1 1 2 2 3 3 4 4 5 5 6 6 7 7 8 8 9 9 10 10
REMARK H PARENT
REMARK Flexibility Score: inf
ROOT
ATOM      1  C   UNL     1     144.420 143.111 130.933  1.00  0.00     0.039 C 
ATOM      2  C   UNL     1     143.734 143.301 132.257  1.00  0.00    -0.077 C 
ATOM      3  C   UNL     1     144.290 142.768 133.383  1.00  0.00    -0.028 C 
ATOM      4  C   UNL     1     143.629 142.904 134.754  1.00  0.00     0.031 C 
ATOM      5  C   UNL     1     142.133 143.154 134.531  1.00  0.00     0.003 C 
ATOM      6  C   UNL     1     142.167 144.519 133.748  1.00  0.00     0.003 C 
ATOM      7  C   UNL     1     142.388 144.034 132.310  1.00  0.00     0.034 C 
ATOM      8  C   UNL     1     141.154 144.264 134.841  1.00  0.00    -0.029 C 
ATOM      9  C   UNL     1     141.373 144.987 136.173  1.00  0.00     0.012 C 
ATOM     10  C   UNL     1     139.709 144.065 134.374  1.00  0.00     0.012 C 
ENDROOT
TORSDOF 0
ENDMDL
MODEL 7
REMARK VINA RESULT:    -4.256      3.864      4.899
REMARK INTER + INTRA:          -4.256
REMARK INTER:                  -4.256
REMARK INTRA:                   0.000
REMARK UNBOUND:                 0.000
REMARK SMILES CC1=CC[C@@H]2[C@@H](C1)C2(C)C
REMARK SMILES IDX 1 1 2 2 3 3 4 4 5 5 6 6 7 7 8 8 9 9 10 10
REMARK H PARENT
REMARK Flexibility Score: inf
ROOT
ATOM      1  C   UNL     1     138.358 138.607 130.520  1.00  0.00     0.039 C 
ATOM      2  C   UNL     1     138.854 138.561 131.937  1.00  0.00    -0.077 C 
ATOM      3  C   UNL     1     138.088 139.095 132.934  1.00  0.00    -0.028 C 
ATOM      4  C   UNL     1     138.547 139.101 134.391  1.00  0.00     0.031 C 
ATOM      5  C   UNL     1     140.076 138.996 134.401  1.00  0.00     0.003 C 
ATOM      6  C   UNL     1     140.288 137.593 133.717  1.00  0.00     0.003 C 
ATOM      7  C   UNL     1     140.239 137.974 132.233  1.00  0.00     0.034 C 
ATOM      8  C   UNL     1     141.099 138.011 134.925  1.00  0.00    -0.029 C 
ATOM      9  C   UNL     1     140.752 137.342 136.258  1.00  0.00     0.012 C 
ATOM     10  C   UNL     1     142.571 138.331 134.655  1.00  0.00     0.012 C 
ENDROOT
TORSDOF 0
ENDMDL
MODEL 8
REMARK VINA RESULT:    -4.245      2.696      5.493
REMARK INTER + INTRA:          -4.245
REMARK INTER:                  -4.245
REMARK INTRA:                   0.000
REMARK UNBOUND:                 0.000
REMARK SMILES CC1=CC[C@@H]2[C@@H](C1)C2(C)C
REMARK SMILES IDX 1 1 2 2 3 3 4 4 5 5 6 6 7 7 8 8 9 9 10 10
REMARK H PARENT
REMARK Flexibility Score: inf
ROOT
ATOM      1  C   UNL     1     140.828 137.609 136.682  1.00  0.00     0.039 C 
ATOM      2  C   UNL     1     140.229 137.942 135.345  1.00  0.00    -0.077 C 
ATOM      3  C   UNL     1     140.749 137.376 134.217  1.00  0.00    -0.028 C 
ATOM      4  C   UNL     1     140.201 137.693 132.827  1.00  0.00     0.031 C 
ATOM      5  C   UNL     1     139.496 139.052 132.899  1.00  0.00     0.003 C 
ATOM      6  C   UNL     1     138.351 138.746 133.935  1.00  0.00     0.003 C 
ATOM      7  C   UNL     1     139.084 138.959 135.264  1.00  0.00     0.034 C 
ATOM      8  C   UNL     1     138.088 139.564 132.690  1.00  0.00    -0.029 C 
ATOM      9  C   UNL     1     137.296 138.886 131.568  1.00  0.00     0.012 C 
ATOM     10  C   UNL     1     137.853 141.060 132.918  1.00  0.00     0.012 C 
ENDROOT
TORSDOF 0
ENDMDL
MODEL 9
REMARK VINA RESULT:    -4.181      5.860      7.011
REMARK INTER + INTRA:          -4.181
REMARK INTER:                  -4.181
REMARK INTRA:                   0.000
REMARK UNBOUND:                 0.000
REMARK SMILES CC1=CC[C@@H]2[C@@H](C1)C2(C)C
REMARK SMILES IDX 1 1 2 2 3 3 4 4 5 5 6 6 7 7 8 8 9 9 10 10
REMARK H PARENT
REMARK Flexibility Score: inf
ROOT
ATOM      1  C   UNL     1     144.674 140.567 136.080  1.00  0.00     0.039 C 
ATOM      2  C   UNL     1     143.998 139.811 134.972  1.00  0.00    -0.077 C 
ATOM      3  C   UNL     1     143.054 138.874 135.277  1.00  0.00    -0.028 C 
ATOM      4  C   UNL     1     142.349 138.055 134.197  1.00  0.00     0.031 C 
ATOM      5  C   UNL     1     143.248 138.043 132.956  1.00  0.00     0.003 C 
ATOM      6  C   UNL     1     143.297 139.576 132.602  1.00  0.00     0.003 C 
ATOM      7  C   UNL     1     144.426 140.059 133.520  1.00  0.00     0.034 C 
ATOM      8  C   UNL     1     143.141 138.525 131.526  1.00  0.00    -0.029 C 
ATOM      9  C   UNL     1     141.757 138.390 130.884  1.00  0.00     0.012 C 
ATOM     10  C   UNL     1     144.362 138.308 130.628  1.00  0.00     0.012 C 
ENDROOT
TORSDOF 0
ENDMDL
