MODEL 1
REMARK VINA RESULT:    -8.033      0.000      0.000
REMARK INTER + INTRA:         -15.536
REMARK INTER:                 -13.198
REMARK INTRA:                  -2.338
REMARK UNBOUND:                -2.338
REMARK SMILES C[C@@H]1O[C@H](OC[C@H]2O[C@H](Oc3c(-c4ccc(O)c(O)c4)oc4cc(O)cc(O)c4c3=O)[C@H](O)[C@@H](O)[C@@H]2O)[C@H](O)[C@H](O)[C@@H]1O
REMARK SMILES IDX 7 1 36 2 34 3 32 4 9 5 8 6 6 7 5 8 4 9 1 10 2 11 42 12 3 13
REMARK SMILES IDX 40 14 38 15 43 16 41 18 39 20 37 22 35 24 10 26 11 27 12 28
REMARK SMILES IDX 30 29 21 30 29 31 31 32 22 33 27 34 23 35 26 36 24 37 13 38
REMARK SMILES IDX 20 39 14 40 18 41 15 42 16 43 19 44 17 46 28 48 25 50 33 52
REMARK H PARENT 43 17 41 19 39 21 37 23 35 25 19 45 17 47 28 49 25 51 33 53
REMARK Flexibility Score: inf
ROOT
ATOM      1  C   UNL     1     -15.070  16.238  36.474  1.00  0.00     0.180 C 
ATOM      2  C   UNL     1     -14.631  16.777  37.862  1.00  0.00     0.177 C 
ATOM      3  C   UNL     1     -15.328  15.980  38.988  1.00  0.00     0.180 C 
ATOM      4  C   UNL     1     -15.206  14.464  38.745  1.00  0.00     0.214 C 
ATOM      5  C   UNL     1     -15.637  14.117  37.303  1.00  0.00     0.339 C 
ATOM      6  O   UNL     1     -14.846  14.830  36.359  1.00  0.00    -0.332 OA
ENDROOT
BRANCH   1   7
ATOM      7  C   UNL     1     -14.368  16.976  35.319  1.00  0.00     0.198 C 
BRANCH   7   8
ATOM      8  O   UNL     1     -14.548  16.226  34.132  1.00  0.00    -0.347 OA
BRANCH   8   9
ATOM      9  C   UNL     1     -13.406  15.586  33.546  1.00  0.00     0.281 C 
ATOM     10  C   UNL     1      -9.932  16.670  33.406  1.00  0.00     0.041 C 
ATOM     11  C   UNL     1     -11.090  15.681  33.425  1.00  0.00     0.150 C 
ATOM     12  C   UNL     1     -10.765  14.368  34.182  1.00  0.00     0.174 C 
ATOM     13  O   UNL     1     -12.237  16.285  33.983  1.00  0.00    -0.344 OA
ATOM     14  C   UNL     1     -12.076  13.566  34.478  1.00  0.00     0.179 C 
ATOM     15  C   UNL     1     -13.240  14.002  33.549  1.00  0.00     0.202 C 
BRANCH  12  16
ATOM     16  O   UNL     1     -10.102  14.647  35.393  1.00  0.00    -0.388 OA
ATOM     17  H   UNL     1     -10.640  14.235  36.128  1.00  0.00     0.211 HD
ENDBRANCH  12  16
BRANCH  14  18
ATOM     18  O   UNL     1     -12.446  13.665  35.838  1.00  0.00    -0.387 OA
ATOM     19  H   UNL     1     -13.420  13.514  35.894  1.00  0.00     0.211 HD
ENDBRANCH  14  18
BRANCH  15  20
ATOM     20  O   UNL     1     -14.415  13.287  33.830  1.00  0.00    -0.385 OA
ATOM     21  H   UNL     1     -14.166  12.331  33.959  1.00  0.00     0.211 HD
ENDBRANCH  15  20
ENDBRANCH   8   9
ENDBRANCH   7   8
ENDBRANCH   1   7
BRANCH   2  22
ATOM     22  O   UNL     1     -15.006  18.125  37.985  1.00  0.00    -0.387 OA
ATOM     23  H   UNL     1     -15.931  18.126  38.346  1.00  0.00     0.211 HD
ENDBRANCH   2  22
BRANCH   3  24
ATOM     24  O   UNL     1     -14.815  16.330  40.246  1.00  0.00    -0.387 OA
ATOM     25  H   UNL     1     -15.221  17.203  40.506  1.00  0.00     0.211 HD
ENDBRANCH   3  24
BRANCH   5  26
ATOM     26  O   UNL     1     -17.034  14.400  37.115  1.00  0.00    -0.454 OA
BRANCH  26  27
ATOM     27  C   UNL     1     -18.119  13.514  37.248  1.00  0.00     0.214 A 
ATOM     28  C   UNL     1     -18.993  13.629  38.366  1.00  0.00     0.180 A 
ATOM     29  C   UNL     1     -18.335  12.425  36.381  1.00  0.00     0.239 A 
ATOM     30  O   UNL     1     -19.573  12.521  38.814  1.00  0.00    -0.452 OA
ATOM     31  C   UNL     1     -19.048  11.296  36.841  1.00  0.00     0.111 A 
ATOM     32  O   UNL     1     -17.898  12.477  35.201  1.00  0.00    -0.285 OA
ATOM     33  C   UNL     1     -19.547  11.366  38.159  1.00  0.00     0.146 A 
ATOM     34  C   UNL     1     -19.237  10.107  36.105  1.00  0.00     0.134 A 
ATOM     35  C   UNL     1     -20.076  10.226  38.780  1.00  0.00     0.094 A 
ATOM     36  C   UNL     1     -19.730   8.966  36.745  1.00  0.00     0.093 A 
ATOM     37  C   UNL     1     -20.128   9.014  38.082  1.00  0.00     0.123 A 
BRANCH  28  38
ATOM     38  C   UNL     1     -19.420  14.936  38.969  1.00  0.00     0.025 A 
ATOM     39  C   UNL     1     -20.463  15.725  38.442  1.00  0.00     0.062 A 
ATOM     40  C   UNL     1     -18.911  15.275  40.240  1.00  0.00     0.016 A 
ATOM     41  C   UNL     1     -21.060  16.739  39.210  1.00  0.00     0.158 A 
ATOM     42  C   UNL     1     -19.508  16.280  40.998  1.00  0.00     0.051 A 
ATOM     43  C   UNL     1     -20.595  17.004  40.499  1.00  0.00     0.157 A 
BRANCH  41  44
ATOM     44  O   UNL     1     -22.125  17.482  38.707  1.00  0.00    -0.504 OA
ATOM     45  H   UNL     1     -21.991  18.228  38.038  1.00  0.00     0.293 HD
ENDBRANCH  41  44
BRANCH  43  46
ATOM     46  O   UNL     1     -21.228  17.973  41.273  1.00  0.00    -0.504 OA
ATOM     47  H   UNL     1     -22.176  17.843  41.589  1.00  0.00     0.293 HD
ENDBRANCH  43  46
ENDBRANCH  28  38
BRANCH  34  48
ATOM     48  O   UNL     1     -18.983  10.014  34.741  1.00  0.00    -0.507 OA
ATOM     49  H   UNL     1     -18.159  10.425  34.325  1.00  0.00     0.293 HD
ENDBRANCH  34  48
BRANCH  37  50
ATOM     50  O   UNL     1     -20.570   7.850  38.701  1.00  0.00    -0.508 OA
ATOM     51  H   UNL     1     -19.921   7.222  39.174  1.00  0.00     0.293 HD
ENDBRANCH  37  50
ENDBRANCH  26  27
ENDBRANCH   5  26
BRANCH   4  52
ATOM     52  O   UNL     1     -16.014  13.769  39.669  1.00  0.00    -0.384 OA
ATOM     53  H   UNL     1     -15.514  12.964  39.949  1.00  0.00     0.211 HD
ENDBRANCH   4  52
TORSDOF 16
ENDMDL
MODEL 2
REMARK VINA RESULT:    -7.789     10.110     13.520
REMARK INTER + INTRA:         -15.137
REMARK INTER:                 -12.687
REMARK INTRA:                  -2.449
REMARK UNBOUND:                -2.338
REMARK SMILES C[C@@H]1O[C@H](OC[C@H]2O[C@H](Oc3c(-c4ccc(O)c(O)c4)oc4cc(O)cc(O)c4c3=O)[C@H](O)[C@@H](O)[C@@H]2O)[C@H](O)[C@H](O)[C@@H]1O
REMARK SMILES IDX 7 1 36 2 34 3 32 4 9 5 8 6 6 7 5 8 4 9 1 10 2 11 42 12 3 13
REMARK SMILES IDX 40 14 38 15 43 16 41 18 39 20 37 22 35 24 10 26 11 27 12 28
REMARK SMILES IDX 30 29 21 30 29 31 31 32 22 33 27 34 23 35 26 36 24 37 13 38
REMARK SMILES IDX 20 39 14 40 18 41 15 42 16 43 19 44 17 46 28 48 25 50 33 52
REMARK H PARENT 43 17 41 19 39 21 37 23 35 25 19 45 17 47 28 49 25 51 33 53
REMARK Flexibility Score: inf
ROOT
ATOM      1  C   UNL     1      -9.073   2.237  35.903  1.00  0.00     0.180 C 
ATOM      2  C   UNL     1      -9.757   1.205  36.839  1.00  0.00     0.177 C 
ATOM      3  C   UNL     1     -11.249   1.561  37.027  1.00  0.00     0.180 C 
ATOM      4  C   UNL     1     -11.921   1.842  35.670  1.00  0.00     0.214 C 
ATOM      5  C   UNL     1     -11.081   2.849  34.855  1.00  0.00     0.339 C 
ATOM      6  O   UNL     1      -9.762   2.355  34.656  1.00  0.00    -0.332 OA
ENDROOT
BRANCH   1   7
ATOM      7  C   UNL     1      -7.592   1.898  35.653  1.00  0.00     0.198 C 
BRANCH   7   8
ATOM      8  O   UNL     1      -7.151   2.622  34.519  1.00  0.00    -0.347 OA
BRANCH   8   9
ATOM      9  C   UNL     1      -6.569   1.897  33.428  1.00  0.00     0.281 C 
ATOM     10  C   UNL     1      -8.171   0.069  30.716  1.00  0.00     0.041 C 
ATOM     11  C   UNL     1      -7.076   0.868  31.409  1.00  0.00     0.150 C 
ATOM     12  C   UNL     1      -6.327   1.838  30.461  1.00  0.00     0.174 C 
ATOM     13  O   UNL     1      -7.613   1.583  32.501  1.00  0.00    -0.344 OA
ATOM     14  C   UNL     1      -5.486   2.869  31.283  1.00  0.00     0.179 C 
ATOM     15  C   UNL     1      -5.219   2.373  32.729  1.00  0.00     0.202 C 
BRANCH  12  16
ATOM     16  O   UNL     1      -7.238   2.526  29.638  1.00  0.00    -0.388 OA
ATOM     17  H   UNL     1      -7.855   3.034  30.237  1.00  0.00     0.211 HD
ENDBRANCH  12  16
BRANCH  14  18
ATOM     18  O   UNL     1      -6.093   4.145  31.287  1.00  0.00    -0.387 OA
ATOM     19  H   UNL     1      -6.061   4.488  32.212  1.00  0.00     0.211 HD
ENDBRANCH  14  18
BRANCH  15  20
ATOM     20  O   UNL     1      -4.475   3.310  33.464  1.00  0.00    -0.385 OA
ATOM     21  H   UNL     1      -4.648   3.147  34.431  1.00  0.00     0.211 HD
ENDBRANCH  15  20
ENDBRANCH   8   9
ENDBRANCH   7   8
ENDBRANCH   1   7
BRANCH   2  22
ATOM     22  O   UNL     1      -9.140   1.231  38.101  1.00  0.00    -0.387 OA
ATOM     23  H   UNL     1      -9.323   0.349  38.521  1.00  0.00     0.211 HD
ENDBRANCH   2  22
BRANCH   3  24
ATOM     24  O   UNL     1     -11.926   0.549  37.723  1.00  0.00    -0.387 OA
ATOM     25  H   UNL     1     -12.438   0.981  38.462  1.00  0.00     0.211 HD
ENDBRANCH   3  24
BRANCH   5  26
ATOM     26  O   UNL     1     -11.053   4.128  35.513  1.00  0.00    -0.454 OA
BRANCH  26  27
ATOM     27  C   UNL     1     -11.602   5.343  35.062  1.00  0.00     0.214 A 
ATOM     28  C   UNL     1     -10.934   6.567  35.344  1.00  0.00     0.180 A 
ATOM     29  C   UNL     1     -12.856   5.432  34.429  1.00  0.00     0.239 A 
ATOM     30  O   UNL     1     -11.678   7.659  35.485  1.00  0.00    -0.452 OA
ATOM     31  C   UNL     1     -13.590   6.638  34.499  1.00  0.00     0.111 A 
ATOM     32  O   UNL     1     -13.305   4.438  33.799  1.00  0.00    -0.285 OA
ATOM     33  C   UNL     1     -12.970   7.709  35.175  1.00  0.00     0.146 A 
ATOM     34  C   UNL     1     -14.896   6.816  33.997  1.00  0.00     0.134 A 
ATOM     35  C   UNL     1     -13.693   8.868  35.485  1.00  0.00     0.094 A 
ATOM     36  C   UNL     1     -15.622   7.959  34.343  1.00  0.00     0.093 A 
ATOM     37  C   UNL     1     -15.035   8.974  35.102  1.00  0.00     0.123 A 
BRANCH  28  38
ATOM     38  C   UNL     1      -9.442   6.734  35.337  1.00  0.00     0.025 A 
ATOM     39  C   UNL     1      -8.583   5.966  34.527  1.00  0.00     0.062 A 
ATOM     40  C   UNL     1      -8.899   7.856  35.998  1.00  0.00     0.016 A 
ATOM     41  C   UNL     1      -7.260   6.374  34.287  1.00  0.00     0.158 A 
ATOM     42  C   UNL     1      -7.588   8.258  35.755  1.00  0.00     0.051 A 
ATOM     43  C   UNL     1      -6.767   7.534  34.886  1.00  0.00     0.157 A 
BRANCH  41  44
ATOM     44  O   UNL     1      -6.429   5.640  33.443  1.00  0.00    -0.504 OA
ATOM     45  H   UNL     1      -6.657   4.701  33.148  1.00  0.00     0.293 HD
ENDBRANCH  41  44
BRANCH  43  46
ATOM     46  O   UNL     1      -5.473   7.961  34.597  1.00  0.00    -0.504 OA
ATOM     47  H   UNL     1      -4.737   7.296  34.422  1.00  0.00     0.293 HD
ENDBRANCH  43  46
ENDBRANCH  28  38
BRANCH  34  48
ATOM     48  O   UNL     1     -15.504   5.912  33.133  1.00  0.00    -0.507 OA
ATOM     49  H   UNL     1     -15.828   6.190  32.216  1.00  0.00     0.293 HD
ENDBRANCH  34  48
BRANCH  37  50
ATOM     50  O   UNL     1     -15.800  10.076  35.468  1.00  0.00    -0.508 OA
ATOM     51  H   UNL     1     -15.367  10.974  35.683  1.00  0.00     0.293 HD
ENDBRANCH  37  50
ENDBRANCH  26  27
ENDBRANCH   5  26
BRANCH   4  52
ATOM     52  O   UNL     1     -13.218   2.356  35.881  1.00  0.00    -0.384 OA
ATOM     53  H   UNL     1     -13.483   2.830  35.055  1.00  0.00     0.211 HD
ENDBRANCH   4  52
TORSDOF 16
ENDMDL
MODEL 3
REMARK VINA RESULT:    -7.704     12.103     15.931
REMARK INTER + INTRA:         -14.997
REMARK INTER:                 -13.023
REMARK INTRA:                  -1.974
REMARK UNBOUND:                -2.338
REMARK SMILES C[C@@H]1O[C@H](OC[C@H]2O[C@H](Oc3c(-c4ccc(O)c(O)c4)oc4cc(O)cc(O)c4c3=O)[C@H](O)[C@@H](O)[C@@H]2O)[C@H](O)[C@H](O)[C@@H]1O
REMARK SMILES IDX 7 1 36 2 34 3 32 4 9 5 8 6 6 7 5 8 4 9 1 10 2 11 42 12 3 13
REMARK SMILES IDX 40 14 38 15 43 16 41 18 39 20 37 22 35 24 10 26 11 27 12 28
REMARK SMILES IDX 30 29 21 30 29 31 31 32 22 33 27 34 23 35 26 36 24 37 13 38
REMARK SMILES IDX 20 39 14 40 18 41 15 42 16 43 19 44 17 46 28 48 25 50 33 52
REMARK H PARENT 43 17 41 19 39 21 37 23 35 25 19 45 17 47 28 49 25 51 33 53
REMARK Flexibility Score: inf
ROOT
ATOM      1  C   UNL     1      -6.790   4.673  33.780  1.00  0.00     0.180 C 
ATOM      2  C   UNL     1      -6.609   4.581  32.242  1.00  0.00     0.177 C 
ATOM      3  C   UNL     1      -6.355   3.116  31.821  1.00  0.00     0.180 C 
ATOM      4  C   UNL     1      -7.382   2.171  32.471  1.00  0.00     0.214 C 
ATOM      5  C   UNL     1      -7.465   2.436  33.991  1.00  0.00     0.339 C 
ATOM      6  O   UNL     1      -7.815   3.791  34.245  1.00  0.00    -0.332 OA
ENDROOT
BRANCH   1   7
ATOM      7  C   UNL     1      -7.087   6.111  34.243  1.00  0.00     0.198 C 
BRANCH   7   8
ATOM      8  O   UNL     1      -8.406   6.446  33.850  1.00  0.00    -0.347 OA
BRANCH   8   9
ATOM      9  C   UNL     1      -9.394   6.645  34.870  1.00  0.00     0.281 C 
ATOM     10  C   UNL     1     -10.525   9.720  36.461  1.00  0.00     0.041 C 
ATOM     11  C   UNL     1     -10.624   8.285  35.960  1.00  0.00     0.150 C 
ATOM     12  C   UNL     1     -12.029   7.915  35.423  1.00  0.00     0.174 C 
ATOM     13  O   UNL     1      -9.652   8.049  34.964  1.00  0.00    -0.344 OA
ATOM     14  C   UNL     1     -11.972   6.582  34.606  1.00  0.00     0.179 C 
ATOM     15  C   UNL     1     -10.708   5.750  34.950  1.00  0.00     0.202 C 
BRANCH  12  16
ATOM     16  O   UNL     1     -12.533   8.945  34.605  1.00  0.00    -0.388 OA
ATOM     17  H   UNL     1     -11.748   9.422  34.212  1.00  0.00     0.211 HD
ENDBRANCH  12  16
BRANCH  14  18
ATOM     18  O   UNL     1     -12.059   6.824  33.216  1.00  0.00    -0.387 OA
ATOM     19  H   UNL     1     -12.836   7.412  33.064  1.00  0.00     0.211 HD
ENDBRANCH  14  18
BRANCH  15  20
ATOM     20  O   UNL     1     -10.658   4.562  34.203  1.00  0.00    -0.385 OA
ATOM     21  H   UNL     1     -11.479   4.520  33.641  1.00  0.00     0.211 HD
ENDBRANCH  15  20
ENDBRANCH   8   9
ENDBRANCH   7   8
ENDBRANCH   1   7
BRANCH   2  22
ATOM     22  O   UNL     1      -5.498   5.347  31.851  1.00  0.00    -0.387 OA
ATOM     23  H   UNL     1      -4.934   5.455  32.662  1.00  0.00     0.211 HD
ENDBRANCH   2  22
BRANCH   3  24
ATOM     24  O   UNL     1      -6.364   2.983  30.424  1.00  0.00    -0.387 OA
ATOM     25  H   UNL     1      -7.316   3.006  30.125  1.00  0.00     0.211 HD
ENDBRANCH   3  24
BRANCH   5  26
ATOM     26  O   UNL     1      -6.219   2.103  34.627  1.00  0.00    -0.454 OA
BRANCH  26  27
ATOM     27  C   UNL     1      -6.011   1.692  35.957  1.00  0.00     0.214 A 
ATOM     28  C   UNL     1      -7.061   1.047  36.669  1.00  0.00     0.180 A 
ATOM     29  C   UNL     1      -4.838   1.984  36.678  1.00  0.00     0.239 A 
ATOM     30  O   UNL     1      -7.110   1.216  37.986  1.00  0.00    -0.452 OA
ATOM     31  C   UNL     1      -4.885   2.057  38.088  1.00  0.00     0.111 A 
ATOM     32  O   UNL     1      -3.758   2.168  36.057  1.00  0.00    -0.285 OA
ATOM     33  C   UNL     1      -6.129   1.774  38.688  1.00  0.00     0.146 A 
ATOM     34  C   UNL     1      -3.805   2.443  38.911  1.00  0.00     0.134 A 
ATOM     35  C   UNL     1      -6.335   2.026  40.051  1.00  0.00     0.094 A 
ATOM     36  C   UNL     1      -4.031   2.727  40.261  1.00  0.00     0.093 A 
ATOM     37  C   UNL     1      -5.293   2.543  40.829  1.00  0.00     0.123 A 
BRANCH  28  38
ATOM     38  C   UNL     1      -8.018   0.066  36.054  1.00  0.00     0.025 A 
ATOM     39  C   UNL     1      -9.416   0.244  36.060  1.00  0.00     0.062 A 
ATOM     40  C   UNL     1      -7.485  -0.956  35.242  1.00  0.00     0.016 A 
ATOM     41  C   UNL     1     -10.241  -0.491  35.192  1.00  0.00     0.158 A 
ATOM     42  C   UNL     1      -8.307  -1.681  34.381  1.00  0.00     0.051 A 
ATOM     43  C   UNL     1      -9.683  -1.442  34.336  1.00  0.00     0.157 A 
BRANCH  41  44
ATOM     44  O   UNL     1     -11.617  -0.276  35.164  1.00  0.00    -0.504 OA
ATOM     45  H   UNL     1     -12.037   0.441  34.588  1.00  0.00     0.293 HD
ENDBRANCH  41  44
BRANCH  43  46
ATOM     46  O   UNL     1     -10.501  -2.125  33.441  1.00  0.00    -0.504 OA
ATOM     47  H   UNL     1     -10.804  -3.066  33.632  1.00  0.00     0.293 HD
ENDBRANCH  43  46
ENDBRANCH  28  38
BRANCH  34  48
ATOM     48  O   UNL     1      -2.496   2.527  38.452  1.00  0.00    -0.507 OA
ATOM     49  H   UNL     1      -1.729   2.097  38.951  1.00  0.00     0.293 HD
ENDBRANCH  34  48
BRANCH  37  50
ATOM     50  O   UNL     1      -5.493   2.881  42.163  1.00  0.00    -0.508 OA
ATOM     51  H   UNL     1      -6.231   3.527  42.441  1.00  0.00     0.293 HD
ENDBRANCH  37  50
ENDBRANCH  26  27
ENDBRANCH   5  26
BRANCH   4  52
ATOM     52  O   UNL     1      -7.011   0.831  32.235  1.00  0.00    -0.384 OA
ATOM     53  H   UNL     1      -6.205   0.847  31.664  1.00  0.00     0.211 HD
ENDBRANCH   4  52
TORSDOF 16
ENDMDL
MODEL 4
REMARK VINA RESULT:    -7.660     12.780     16.272
REMARK INTER + INTRA:         -14.925
REMARK INTER:                 -12.426
REMARK INTRA:                  -2.499
REMARK UNBOUND:                -2.338
REMARK SMILES C[C@@H]1O[C@H](OC[C@H]2O[C@H](Oc3c(-c4ccc(O)c(O)c4)oc4cc(O)cc(O)c4c3=O)[C@H](O)[C@@H](O)[C@@H]2O)[C@H](O)[C@H](O)[C@@H]1O
REMARK SMILES IDX 7 1 36 2 34 3 32 4 9 5 8 6 6 7 5 8 4 9 1 10 2 11 42 12 3 13
REMARK SMILES IDX 40 14 38 15 43 16 41 18 39 20 37 22 35 24 10 26 11 27 12 28
REMARK SMILES IDX 30 29 21 30 29 31 31 32 22 33 27 34 23 35 26 36 24 37 13 38
REMARK SMILES IDX 20 39 14 40 18 41 15 42 16 43 19 44 17 46 28 48 25 50 33 52
REMARK H PARENT 43 17 41 19 39 21 37 23 35 25 19 45 17 47 28 49 25 51 33 53
REMARK Flexibility Score: inf
ROOT
ATOM      1  C   UNL     1      -5.234   1.381  34.198  1.00  0.00     0.180 C 
ATOM      2  C   UNL     1      -4.763   1.037  32.759  1.00  0.00     0.177 C 
ATOM      3  C   UNL     1      -5.639   1.773  31.720  1.00  0.00     0.180 C 
ATOM      4  C   UNL     1      -5.785   3.263  32.082  1.00  0.00     0.214 C 
ATOM      5  C   UNL     1      -6.211   3.416  33.559  1.00  0.00     0.339 C 
ATOM      6  O   UNL     1      -5.265   2.793  34.419  1.00  0.00    -0.332 OA
ENDROOT
BRANCH   1   7
ATOM      7  C   UNL     1      -4.361   0.702  35.270  1.00  0.00     0.198 C 
BRANCH   7   8
ATOM      8  O   UNL     1      -4.626   1.315  36.518  1.00  0.00    -0.347 OA
BRANCH   8   9
ATOM      9  C   UNL     1      -3.518   1.641  37.369  1.00  0.00     0.281 C 
ATOM     10  C   UNL     1      -1.987   4.867  38.083  1.00  0.00     0.041 C 
ATOM     11  C   UNL     1      -2.394   3.423  38.344  1.00  0.00     0.150 C 
ATOM     12  C   UNL     1      -2.756   3.143  39.824  1.00  0.00     0.174 C 
ATOM     13  O   UNL     1      -3.474   3.064  37.509  1.00  0.00    -0.344 OA
ATOM     14  C   UNL     1      -3.500   1.773  39.957  1.00  0.00     0.179 C 
ATOM     15  C   UNL     1      -3.248   0.858  38.729  1.00  0.00     0.202 C 
BRANCH  12  16
ATOM     16  O   UNL     1      -3.570   4.171  40.337  1.00  0.00    -0.388 OA
ATOM     17  H   UNL     1      -4.222   3.748  40.964  1.00  0.00     0.211 HD
ENDBRANCH  12  16
BRANCH  14  18
ATOM     18  O   UNL     1      -4.883   1.956  40.180  1.00  0.00    -0.387 OA
ATOM     19  H   UNL     1      -5.305   2.132  39.306  1.00  0.00     0.211 HD
ENDBRANCH  14  18
BRANCH  15  20
ATOM     20  O   UNL     1      -3.929  -0.363  38.852  1.00  0.00    -0.385 OA
ATOM     21  H   UNL     1      -4.714  -0.338  38.238  1.00  0.00     0.211 HD
ENDBRANCH  15  20
ENDBRANCH   8   9
ENDBRANCH   7   8
ENDBRANCH   1   7
BRANCH   2  22
ATOM     22  O   UNL     1      -4.891  -0.344  32.539  1.00  0.00    -0.387 OA
ATOM     23  H   UNL     1      -5.083  -0.752  33.424  1.00  0.00     0.211 HD
ENDBRANCH   2  22
BRANCH   3  24
ATOM     24  O   UNL     1      -5.124   1.618  30.425  1.00  0.00    -0.387 OA
ATOM     25  H   UNL     1      -4.804   2.512  30.118  1.00  0.00     0.211 HD
ENDBRANCH   3  24
BRANCH   5  26
ATOM     26  O   UNL     1      -7.524   2.868  33.762  1.00  0.00    -0.454 OA
BRANCH  26  27
ATOM     27  C   UNL     1      -8.592   3.430  34.486  1.00  0.00     0.214 A 
ATOM     28  C   UNL     1      -9.509   2.581  35.167  1.00  0.00     0.180 A 
ATOM     29  C   UNL     1      -8.878   4.809  34.489  1.00  0.00     0.239 A 
ATOM     30  O   UNL     1     -10.761   3.004  35.301  1.00  0.00    -0.452 OA
ATOM     31  C   UNL     1     -10.198   5.248  34.738  1.00  0.00     0.111 A 
ATOM     32  O   UNL     1      -7.950   5.635  34.280  1.00  0.00    -0.285 OA
ATOM     33  C   UNL     1     -11.147   4.245  35.023  1.00  0.00     0.146 A 
ATOM     34  C   UNL     1     -10.627   6.590  34.665  1.00  0.00     0.134 A 
ATOM     35  C   UNL     1     -12.513   4.553  35.071  1.00  0.00     0.094 A 
ATOM     36  C   UNL     1     -11.994   6.881  34.676  1.00  0.00     0.093 A 
ATOM     37  C   UNL     1     -12.939   5.869  34.856  1.00  0.00     0.123 A 
BRANCH  28  38
ATOM     38  C   UNL     1      -9.118   1.316  35.877  1.00  0.00     0.025 A 
ATOM     39  C   UNL     1      -7.943   1.194  36.645  1.00  0.00     0.062 A 
ATOM     40  C   UNL     1     -10.076   0.285  35.964  1.00  0.00     0.016 A 
ATOM     41  C   UNL     1      -7.786   0.140  37.561  1.00  0.00     0.158 A 
ATOM     42  C   UNL     1      -9.917  -0.757  36.875  1.00  0.00     0.051 A 
ATOM     43  C   UNL     1      -8.785  -0.827  37.691  1.00  0.00     0.157 A 
BRANCH  41  44
ATOM     44  O   UNL     1      -6.647   0.050  38.357  1.00  0.00    -0.504 OA
ATOM     45  H   UNL     1      -6.574   0.522  39.248  1.00  0.00     0.293 HD
ENDBRANCH  41  44
BRANCH  43  46
ATOM     46  O   UNL     1      -8.646  -1.835  38.641  1.00  0.00    -0.504 OA
ATOM     47  H   UNL     1      -9.189  -2.681  38.581  1.00  0.00     0.293 HD
ENDBRANCH  43  46
ENDBRANCH  28  38
BRANCH  34  48
ATOM     48  O   UNL     1      -9.747   7.664  34.612  1.00  0.00    -0.507 OA
ATOM     49  H   UNL     1      -8.818   7.610  35.007  1.00  0.00     0.293 HD
ENDBRANCH  34  48
BRANCH  37  50
ATOM     50  O   UNL     1     -14.292   6.187  34.815  1.00  0.00    -0.508 OA
ATOM     51  H   UNL     1     -14.689   6.893  35.435  1.00  0.00     0.293 HD
ENDBRANCH  37  50
ENDBRANCH  26  27
ENDBRANCH   5  26
BRANCH   4  52
ATOM     52  O   UNL     1      -6.744   3.863  31.239  1.00  0.00    -0.384 OA
ATOM     53  H   UNL     1      -7.341   3.146  30.916  1.00  0.00     0.211 HD
ENDBRANCH   4  52
TORSDOF 16
ENDMDL
MODEL 5
REMARK VINA RESULT:    -7.644      2.361      7.871
REMARK INTER + INTRA:         -14.898
REMARK INTER:                 -11.896
REMARK INTRA:                  -3.002
REMARK UNBOUND:                -2.338
REMARK SMILES C[C@@H]1O[C@H](OC[C@H]2O[C@H](Oc3c(-c4ccc(O)c(O)c4)oc4cc(O)cc(O)c4c3=O)[C@H](O)[C@@H](O)[C@@H]2O)[C@H](O)[C@H](O)[C@@H]1O
REMARK SMILES IDX 7 1 36 2 34 3 32 4 9 5 8 6 6 7 5 8 4 9 1 10 2 11 42 12 3 13
REMARK SMILES IDX 40 14 38 15 43 16 41 18 39 20 37 22 35 24 10 26 11 27 12 28
REMARK SMILES IDX 30 29 21 30 29 31 31 32 22 33 27 34 23 35 26 36 24 37 13 38
REMARK SMILES IDX 20 39 14 40 18 41 15 42 16 43 19 44 17 46 28 48 25 50 33 52
REMARK H PARENT 43 17 41 19 39 21 37 23 35 25 19 45 17 47 28 49 25 51 33 53
REMARK Flexibility Score: inf
ROOT
ATOM      1  C   UNL     1     -19.397  13.945  34.182  1.00  0.00     0.180 C 
ATOM      2  C   UNL     1     -18.881  13.954  32.718  1.00  0.00     0.177 C 
ATOM      3  C   UNL     1     -17.485  14.613  32.648  1.00  0.00     0.180 C 
ATOM      4  C   UNL     1     -16.550  14.032  33.725  1.00  0.00     0.214 C 
ATOM      5  C   UNL     1     -17.243  14.056  35.105  1.00  0.00     0.339 C 
ATOM      6  O   UNL     1     -18.461  13.323  35.067  1.00  0.00    -0.332 OA
ENDROOT
BRANCH   1   7
ATOM      7  C   UNL     1     -20.770  13.259  34.307  1.00  0.00     0.198 C 
BRANCH   7   8
ATOM      8  O   UNL     1     -21.371  13.675  35.520  1.00  0.00    -0.347 OA
BRANCH   8   9
ATOM      9  C   UNL     1     -21.553  12.707  36.561  1.00  0.00     0.281 C 
ATOM     10  C   UNL     1     -20.832   9.137  36.588  1.00  0.00     0.041 C 
ATOM     11  C   UNL     1     -21.037  10.527  37.174  1.00  0.00     0.150 C 
ATOM     12  C   UNL     1     -20.096  10.839  38.364  1.00  0.00     0.174 C 
ATOM     13  O   UNL     1     -20.880  11.507  36.169  1.00  0.00    -0.344 OA
ATOM     14  C   UNL     1     -20.098  12.372  38.679  1.00  0.00     0.179 C 
ATOM     15  C   UNL     1     -21.350  13.078  38.096  1.00  0.00     0.202 C 
BRANCH  12  16
ATOM     16  O   UNL     1     -18.782  10.420  38.079  1.00  0.00    -0.388 OA
ATOM     17  H   UNL     1     -18.288  10.380  38.946  1.00  0.00     0.211 HD
ENDBRANCH  12  16
BRANCH  14  18
ATOM     18  O   UNL     1     -18.909  12.992  38.233  1.00  0.00    -0.387 OA
ATOM     19  H   UNL     1     -18.559  13.537  38.977  1.00  0.00     0.211 HD
ENDBRANCH  14  18
BRANCH  15  20
ATOM     20  O   UNL     1     -21.337  14.455  38.372  1.00  0.00    -0.385 OA
ATOM     21  H   UNL     1     -20.995  14.577  39.300  1.00  0.00     0.211 HD
ENDBRANCH  15  20
ENDBRANCH   8   9
ENDBRANCH   7   8
ENDBRANCH   1   7
BRANCH   2  22
ATOM     22  O   UNL     1     -19.758  14.703  31.914  1.00  0.00    -0.387 OA
ATOM     23  H   UNL     1     -19.677  15.646  32.216  1.00  0.00     0.211 HD
ENDBRANCH   2  22
BRANCH   3  24
ATOM     24  O   UNL     1     -16.925  14.475  31.369  1.00  0.00    -0.387 OA
ATOM     25  H   UNL     1     -16.229  13.761  31.420  1.00  0.00     0.211 HD
ENDBRANCH   3  24
BRANCH   5  26
ATOM     26  O   UNL     1     -17.476  15.412  35.526  1.00  0.00    -0.454 OA
BRANCH  26  27
ATOM     27  C   UNL     1     -17.454  15.925  36.836  1.00  0.00     0.214 A 
ATOM     28  C   UNL     1     -16.358  15.626  37.693  1.00  0.00     0.180 A 
ATOM     29  C   UNL     1     -18.526  16.643  37.399  1.00  0.00     0.239 A 
ATOM     30  O   UNL     1     -16.595  15.560  38.999  1.00  0.00    -0.452 OA
ATOM     31  C   UNL     1     -18.703  16.649  38.801  1.00  0.00     0.111 A 
ATOM     32  O   UNL     1     -19.310  17.280  36.646  1.00  0.00    -0.285 OA
ATOM     33  C   UNL     1     -17.735  15.956  39.557  1.00  0.00     0.146 A 
ATOM     34  C   UNL     1     -19.793  17.242  39.473  1.00  0.00     0.134 A 
ATOM     35  C   UNL     1     -17.934  15.722  40.924  1.00  0.00     0.094 A 
ATOM     36  C   UNL     1     -20.002  16.970  40.828  1.00  0.00     0.093 A 
ATOM     37  C   UNL     1     -19.092  16.196  41.550  1.00  0.00     0.123 A 
BRANCH  28  38
ATOM     38  C   UNL     1     -14.931  15.536  37.236  1.00  0.00     0.025 A 
ATOM     39  C   UNL     1     -14.246  14.314  37.079  1.00  0.00     0.062 A 
ATOM     40  C   UNL     1     -14.325  16.704  36.728  1.00  0.00     0.016 A 
ATOM     41  C   UNL     1     -13.058  14.243  36.332  1.00  0.00     0.158 A 
ATOM     42  C   UNL     1     -13.148  16.628  35.986  1.00  0.00     0.051 A 
ATOM     43  C   UNL     1     -12.518  15.400  35.767  1.00  0.00     0.157 A 
BRANCH  41  44
ATOM     44  O   UNL     1     -12.411  13.026  36.134  1.00  0.00    -0.504 OA
ATOM     45  H   UNL     1     -11.463  12.971  35.791  1.00  0.00     0.293 HD
ENDBRANCH  41  44
BRANCH  43  46
ATOM     46  O   UNL     1     -11.372  15.311  34.982  1.00  0.00    -0.504 OA
ATOM     47  H   UNL     1     -10.611  15.960  35.102  1.00  0.00     0.293 HD
ENDBRANCH  43  46
ENDBRANCH  28  38
BRANCH  34  48
ATOM     48  O   UNL     1     -20.672  18.125  38.857  1.00  0.00    -0.507 OA
ATOM     49  H   UNL     1     -20.394  18.681  38.060  1.00  0.00     0.293 HD
ENDBRANCH  34  48
BRANCH  37  50
ATOM     50  O   UNL     1     -19.355  15.906  42.884  1.00  0.00    -0.508 OA
ATOM     51  H   UNL     1     -19.052  15.029  43.306  1.00  0.00     0.293 HD
ENDBRANCH  37  50
ENDBRANCH  26  27
ENDBRANCH   5  26
BRANCH   4  52
ATOM     52  O   UNL     1     -15.357  14.783  33.772  1.00  0.00    -0.384 OA
ATOM     53  H   UNL     1     -15.608  15.737  33.718  1.00  0.00     0.211 HD
ENDBRANCH   4  52
TORSDOF 16
ENDMDL
MODEL 6
REMARK VINA RESULT:    -7.558      2.735      6.651
REMARK INTER + INTRA:         -14.757
REMARK INTER:                 -12.022
REMARK INTRA:                  -2.735
REMARK UNBOUND:                -2.338
REMARK SMILES C[C@@H]1O[C@H](OC[C@H]2O[C@H](Oc3c(-c4ccc(O)c(O)c4)oc4cc(O)cc(O)c4c3=O)[C@H](O)[C@@H](O)[C@@H]2O)[C@H](O)[C@H](O)[C@@H]1O
REMARK SMILES IDX 7 1 36 2 34 3 32 4 9 5 8 6 6 7 5 8 4 9 1 10 2 11 42 12 3 13
REMARK SMILES IDX 40 14 38 15 43 16 41 18 39 20 37 22 35 24 10 26 11 27 12 28
REMARK SMILES IDX 30 29 21 30 29 31 31 32 22 33 27 34 23 35 26 36 24 37 13 38
REMARK SMILES IDX 20 39 14 40 18 41 15 42 16 43 19 44 17 46 28 48 25 50 33 52
REMARK H PARENT 43 17 41 19 39 21 37 23 35 25 19 45 17 47 28 49 25 51 33 53
REMARK Flexibility Score: inf
ROOT
ATOM      1  C   UNL     1     -18.546  13.154  34.385  1.00  0.00     0.180 C 
ATOM      2  C   UNL     1     -17.477  12.056  34.143  1.00  0.00     0.177 C 
ATOM      3  C   UNL     1     -16.572  11.909  35.388  1.00  0.00     0.180 C 
ATOM      4  C   UNL     1     -17.417  11.806  36.671  1.00  0.00     0.214 C 
ATOM      5  C   UNL     1     -18.458  12.946  36.720  1.00  0.00     0.339 C 
ATOM      6  O   UNL     1     -19.300  12.904  35.575  1.00  0.00    -0.332 OA
ENDROOT
BRANCH   1   7
ATOM      7  C   UNL     1     -19.499  13.307  33.185  1.00  0.00     0.198 C 
BRANCH   7   8
ATOM      8  O   UNL     1     -18.924  14.221  32.269  1.00  0.00    -0.347 OA
BRANCH   8   9
ATOM      9  C   UNL     1     -18.265  15.385  32.785  1.00  0.00     0.281 C 
ATOM     10  C   UNL     1     -14.724  16.231  32.855  1.00  0.00     0.041 C 
ATOM     11  C   UNL     1     -16.224  16.490  32.831  1.00  0.00     0.150 C 
ATOM     12  C   UNL     1     -16.619  17.740  32.005  1.00  0.00     0.174 C 
ATOM     13  O   UNL     1     -16.906  15.355  32.341  1.00  0.00    -0.344 OA
ATOM     14  C   UNL     1     -18.158  17.744  31.718  1.00  0.00     0.179 C 
ATOM     15  C   UNL     1     -18.930  16.830  32.705  1.00  0.00     0.202 C 
BRANCH  12  16
ATOM     16  O   UNL     1     -15.915  17.770  30.786  1.00  0.00    -0.388 OA
ATOM     17  H   UNL     1     -16.593  17.790  30.052  1.00  0.00     0.211 HD
ENDBRANCH  12  16
BRANCH  14  18
ATOM     18  O   UNL     1     -18.434  17.394  30.377  1.00  0.00    -0.387 OA
ATOM     19  H   UNL     1     -18.676  16.438  30.362  1.00  0.00     0.211 HD
ENDBRANCH  14  18
BRANCH  15  20
ATOM     20  O   UNL     1     -20.307  16.829  32.432  1.00  0.00    -0.385 OA
ATOM     21  H   UNL     1     -20.529  17.689  31.979  1.00  0.00     0.211 HD
ENDBRANCH  15  20
ENDBRANCH   8   9
ENDBRANCH   7   8
ENDBRANCH   1   7
BRANCH   2  22
ATOM     22  O   UNL     1     -16.666  12.418  33.055  1.00  0.00    -0.387 OA
ATOM     23  H   UNL     1     -16.342  13.339  33.242  1.00  0.00     0.211 HD
ENDBRANCH   2  22
BRANCH   3  24
ATOM     24  O   UNL     1     -15.714  10.806  35.261  1.00  0.00    -0.387 OA
ATOM     25  H   UNL     1     -14.784  11.127  35.427  1.00  0.00     0.211 HD
ENDBRANCH   3  24
BRANCH   5  26
ATOM     26  O   UNL     1     -17.801  14.221  36.825  1.00  0.00    -0.454 OA
BRANCH  26  27
ATOM     27  C   UNL     1     -17.782  15.094  37.928  1.00  0.00     0.214 A 
ATOM     28  C   UNL     1     -16.577  15.280  38.662  1.00  0.00     0.180 A 
ATOM     29  C   UNL     1     -18.936  15.727  38.428  1.00  0.00     0.239 A 
ATOM     30  O   UNL     1     -16.679  15.560  39.957  1.00  0.00    -0.452 OA
ATOM     31  C   UNL     1     -18.988  16.116  39.785  1.00  0.00     0.111 A 
ATOM     32  O   UNL     1     -19.906  15.949  37.655  1.00  0.00    -0.285 OA
ATOM     33  C   UNL     1     -17.826  15.878  40.548  1.00  0.00     0.146 A 
ATOM     34  C   UNL     1     -20.122  16.660  40.425  1.00  0.00     0.134 A 
ATOM     35  C   UNL     1     -17.848  16.027  41.941  1.00  0.00     0.094 A 
ATOM     36  C   UNL     1     -20.146  16.768  41.818  1.00  0.00     0.093 A 
ATOM     37  C   UNL     1     -19.024  16.434  42.580  1.00  0.00     0.123 A 
BRANCH  28  38
ATOM     38  C   UNL     1     -15.211  15.334  38.040  1.00  0.00     0.025 A 
ATOM     39  C   UNL     1     -14.548  14.199  37.534  1.00  0.00     0.062 A 
ATOM     40  C   UNL     1     -14.669  16.603  37.746  1.00  0.00     0.016 A 
ATOM     41  C   UNL     1     -13.453  14.330  36.663  1.00  0.00     0.158 A 
ATOM     42  C   UNL     1     -13.585  16.728  36.880  1.00  0.00     0.051 A 
ATOM     43  C   UNL     1     -12.983  15.599  36.319  1.00  0.00     0.157 A 
BRANCH  41  44
ATOM     44  O   UNL     1     -12.832  13.207  36.123  1.00  0.00    -0.504 OA
ATOM     45  H   UNL     1     -12.841  12.311  36.590  1.00  0.00     0.293 HD
ENDBRANCH  41  44
BRANCH  43  46
ATOM     46  O   UNL     1     -11.934  15.720  35.411  1.00  0.00    -0.504 OA
ATOM     47  H   UNL     1     -12.048  15.443  34.449  1.00  0.00     0.293 HD
ENDBRANCH  43  46
ENDBRANCH  28  38
BRANCH  34  48
ATOM     48  O   UNL     1     -21.228  17.134  39.729  1.00  0.00    -0.507 OA
ATOM     49  H   UNL     1     -21.583  16.660  38.910  1.00  0.00     0.293 HD
ENDBRANCH  34  48
BRANCH  37  50
ATOM     50  O   UNL     1     -19.099  16.508  43.966  1.00  0.00    -0.508 OA
ATOM     51  H   UNL     1     -18.336  16.178  44.557  1.00  0.00     0.293 HD
ENDBRANCH  37  50
ENDBRANCH  26  27
ENDBRANCH   5  26
BRANCH   4  52
ATOM     52  O   UNL     1     -16.574  11.874  37.800  1.00  0.00    -0.384 OA
ATOM     53  H   UNL     1     -15.748  12.340  37.522  1.00  0.00     0.211 HD
ENDBRANCH   4  52
TORSDOF 16
ENDMDL
MODEL 7
REMARK VINA RESULT:    -7.480      2.403      8.034
REMARK INTER + INTRA:         -14.628
REMARK INTER:                 -11.786
REMARK INTRA:                  -2.842
REMARK UNBOUND:                -2.338
REMARK SMILES C[C@@H]1O[C@H](OC[C@H]2O[C@H](Oc3c(-c4ccc(O)c(O)c4)oc4cc(O)cc(O)c4c3=O)[C@H](O)[C@@H](O)[C@@H]2O)[C@H](O)[C@H](O)[C@@H]1O
REMARK SMILES IDX 7 1 36 2 34 3 32 4 9 5 8 6 6 7 5 8 4 9 1 10 2 11 42 12 3 13
REMARK SMILES IDX 40 14 38 15 43 16 41 18 39 20 37 22 35 24 10 26 11 27 12 28
REMARK SMILES IDX 30 29 21 30 29 31 31 32 22 33 27 34 23 35 26 36 24 37 13 38
REMARK SMILES IDX 20 39 14 40 18 41 15 42 16 43 19 44 17 46 28 48 25 50 33 52
REMARK H PARENT 43 17 41 19 39 21 37 23 35 25 19 45 17 47 28 49 25 51 33 53
REMARK Flexibility Score: inf
ROOT
ATOM      1  C   UNL     1     -19.091  14.016  34.558  1.00  0.00     0.180 C 
ATOM      2  C   UNL     1     -19.705  14.003  33.133  1.00  0.00     0.177 C 
ATOM      3  C   UNL     1     -18.659  14.476  32.098  1.00  0.00     0.180 C 
ATOM      4  C   UNL     1     -17.318  13.746  32.299  1.00  0.00     0.214 C 
ATOM      5  C   UNL     1     -16.887  13.818  33.780  1.00  0.00     0.339 C 
ATOM      6  O   UNL     1     -17.885  13.251  34.620  1.00  0.00    -0.332 OA
ENDROOT
BRANCH   1   7
ATOM      7  C   UNL     1     -20.086  13.511  35.620  1.00  0.00     0.198 C 
BRANCH   7   8
ATOM      8  O   UNL     1     -19.401  13.384  36.853  1.00  0.00    -0.347 OA
BRANCH   8   9
ATOM      9  C   UNL     1     -19.216  12.072  37.401  1.00  0.00     0.281 C 
ATOM     10  C   UNL     1     -21.384   9.149  37.255  1.00  0.00     0.041 C 
ATOM     11  C   UNL     1     -20.072   9.914  37.368  1.00  0.00     0.150 C 
ATOM     12  C   UNL     1     -18.884   9.205  36.670  1.00  0.00     0.174 C 
ATOM     13  O   UNL     1     -20.224  11.218  36.850  1.00  0.00    -0.344 OA
ATOM     14  C   UNL     1     -17.678  10.188  36.506  1.00  0.00     0.179 C 
ATOM     15  C   UNL     1     -17.779  11.391  37.481  1.00  0.00     0.202 C 
BRANCH  12  16
ATOM     16  O   UNL     1     -19.271   8.722  35.405  1.00  0.00    -0.388 OA
ATOM     17  H   UNL     1     -19.937   7.993  35.557  1.00  0.00     0.211 HD
ENDBRANCH  12  16
BRANCH  14  18
ATOM     18  O   UNL     1     -17.546  10.625  35.169  1.00  0.00    -0.387 OA
ATOM     19  H   UNL     1     -17.041  11.473  35.181  1.00  0.00     0.211 HD
ENDBRANCH  14  18
BRANCH  15  20
ATOM     20  O   UNL     1     -16.700  12.274  37.318  1.00  0.00    -0.385 OA
ATOM     21  H   UNL     1     -15.950  11.949  37.888  1.00  0.00     0.211 HD
ENDBRANCH  15  20
ENDBRANCH   8   9
ENDBRANCH   7   8
ENDBRANCH   1   7
BRANCH   2  22
ATOM     22  O   UNL     1     -20.798  14.883  33.082  1.00  0.00    -0.387 OA
ATOM     23  H   UNL     1     -21.613  14.316  33.046  1.00  0.00     0.211 HD
ENDBRANCH   2  22
BRANCH   3  24
ATOM     24  O   UNL     1     -19.132  14.305  30.788  1.00  0.00    -0.387 OA
ATOM     25  H   UNL     1     -19.907  13.678  30.826  1.00  0.00     0.211 HD
ENDBRANCH   3  24
BRANCH   5  26
ATOM     26  O   UNL     1     -16.615  15.178  34.158  1.00  0.00    -0.454 OA
BRANCH  26  27
ATOM     27  C   UNL     1     -16.396  15.688  35.451  1.00  0.00     0.214 A 
ATOM     28  C   UNL     1     -15.230  15.306  36.173  1.00  0.00     0.180 A 
ATOM     29  C   UNL     1     -17.335  16.485  36.134  1.00  0.00     0.239 A 
ATOM     30  O   UNL     1     -15.312  15.257  37.499  1.00  0.00    -0.452 OA
ATOM     31  C   UNL     1     -17.340  16.504  37.547  1.00  0.00     0.111 A 
ATOM     32  O   UNL     1     -18.153  17.180  35.475  1.00  0.00    -0.285 OA
ATOM     33  C   UNL     1     -16.342  15.739  38.186  1.00  0.00     0.146 A 
ATOM     34  C   UNL     1     -18.293  17.177  38.340  1.00  0.00     0.134 A 
ATOM     35  C   UNL     1     -16.392  15.519  39.569  1.00  0.00     0.094 A 
ATOM     36  C   UNL     1     -18.357  16.922  39.713  1.00  0.00     0.093 A 
ATOM     37  C   UNL     1     -17.427  16.080  40.326  1.00  0.00     0.123 A 
BRANCH  28  38
ATOM     38  C   UNL     1     -13.879  15.107  35.548  1.00  0.00     0.025 A 
ATOM     39  C   UNL     1     -13.278  16.052  34.693  1.00  0.00     0.062 A 
ATOM     40  C   UNL     1     -13.086  14.039  36.015  1.00  0.00     0.016 A 
ATOM     41  C   UNL     1     -11.902  16.001  34.414  1.00  0.00     0.158 A 
ATOM     42  C   UNL     1     -11.721  13.993  35.737  1.00  0.00     0.051 A 
ATOM     43  C   UNL     1     -11.118  14.980  34.953  1.00  0.00     0.157 A 
BRANCH  41  44
ATOM     44  O   UNL     1     -11.301  16.966  33.610  1.00  0.00    -0.504 OA
ATOM     45  H   UNL     1     -11.840  17.595  33.031  1.00  0.00     0.293 HD
ENDBRANCH  41  44
BRANCH  43  46
ATOM     46  O   UNL     1      -9.746  14.969  34.716  1.00  0.00    -0.504 OA
ATOM     47  H   UNL     1      -9.373  14.606  33.854  1.00  0.00     0.293 HD
ENDBRANCH  43  46
ENDBRANCH  28  38
BRANCH  34  48
ATOM     48  O   UNL     1     -19.171  18.125  37.826  1.00  0.00    -0.507 OA
ATOM     49  H   UNL     1     -19.171  19.081  38.154  1.00  0.00     0.293 HD
ENDBRANCH  34  48
BRANCH  37  50
ATOM     50  O   UNL     1     -17.549  15.810  41.685  1.00  0.00    -0.508 OA
ATOM     51  H   UNL     1     -18.342  15.286  42.052  1.00  0.00     0.293 HD
ENDBRANCH  37  50
ENDBRANCH  26  27
ENDBRANCH   5  26
BRANCH   4  52
ATOM     52  O   UNL     1     -16.331  14.333  31.481  1.00  0.00    -0.384 OA
ATOM     53  H   UNL     1     -15.898  15.047  32.010  1.00  0.00     0.211 HD
ENDBRANCH   4  52
TORSDOF 16
ENDMDL
MODEL 8
REMARK VINA RESULT:    -7.459      2.331      5.230
REMARK INTER + INTRA:         -14.594
REMARK INTER:                 -11.854
REMARK INTRA:                  -2.740
REMARK UNBOUND:                -2.338
REMARK SMILES C[C@@H]1O[C@H](OC[C@H]2O[C@H](Oc3c(-c4ccc(O)c(O)c4)oc4cc(O)cc(O)c4c3=O)[C@H](O)[C@@H](O)[C@@H]2O)[C@H](O)[C@H](O)[C@@H]1O
REMARK SMILES IDX 7 1 36 2 34 3 32 4 9 5 8 6 6 7 5 8 4 9 1 10 2 11 42 12 3 13
REMARK SMILES IDX 40 14 38 15 43 16 41 18 39 20 37 22 35 24 10 26 11 27 12 28
REMARK SMILES IDX 30 29 21 30 29 31 31 32 22 33 27 34 23 35 26 36 24 37 13 38
REMARK SMILES IDX 20 39 14 40 18 41 15 42 16 43 19 44 17 46 28 48 25 50 33 52
REMARK H PARENT 43 17 41 19 39 21 37 23 35 25 19 45 17 47 28 49 25 51 33 53
REMARK Flexibility Score: inf
ROOT
ATOM      1  C   UNL     1     -15.039  16.247  36.719  1.00  0.00     0.180 C 
ATOM      2  C   UNL     1     -14.677  16.748  38.143  1.00  0.00     0.177 C 
ATOM      3  C   UNL     1     -15.438  15.926  39.207  1.00  0.00     0.180 C 
ATOM      4  C   UNL     1     -15.306  14.416  38.933  1.00  0.00     0.214 C 
ATOM      5  C   UNL     1     -15.656  14.108  37.460  1.00  0.00     0.339 C 
ATOM      6  O   UNL     1     -14.812  14.841  36.581  1.00  0.00    -0.332 OA
ENDROOT
BRANCH   1   7
ATOM      7  C   UNL     1     -14.271  17.011  35.624  1.00  0.00     0.198 C 
BRANCH   7   8
ATOM      8  O   UNL     1     -14.524  16.387  34.379  1.00  0.00    -0.347 OA
BRANCH   8   9
ATOM      9  C   UNL     1     -13.441  15.727  33.710  1.00  0.00     0.281 C 
ATOM     10  C   UNL     1      -9.924  16.645  33.489  1.00  0.00     0.041 C 
ATOM     11  C   UNL     1     -11.129  15.715  33.498  1.00  0.00     0.150 C 
ATOM     12  C   UNL     1     -10.844  14.345  34.164  1.00  0.00     0.174 C 
ATOM     13  O   UNL     1     -12.221  16.340  34.137  1.00  0.00    -0.344 OA
ATOM     14  C   UNL     1     -12.182  13.592  34.467  1.00  0.00     0.179 C 
ATOM     15  C   UNL     1     -13.356  14.140  33.613  1.00  0.00     0.202 C 
BRANCH  12  16
ATOM     16  O   UNL     1     -10.121  14.517  35.360  1.00  0.00    -0.388 OA
ATOM     17  H   UNL     1     -10.621  14.038  36.080  1.00  0.00     0.211 HD
ENDBRANCH  12  16
BRANCH  14  18
ATOM     18  O   UNL     1     -12.493  13.627  35.844  1.00  0.00    -0.387 OA
ATOM     19  H   UNL     1     -12.316  12.729  36.213  1.00  0.00     0.211 HD
ENDBRANCH  14  18
BRANCH  15  20
ATOM     20  O   UNL     1     -14.555  13.468  33.901  1.00  0.00    -0.385 OA
ATOM     21  H   UNL     1     -15.125  13.496  33.084  1.00  0.00     0.211 HD
ENDBRANCH  15  20
ENDBRANCH   8   9
ENDBRANCH   7   8
ENDBRANCH   1   7
BRANCH   2  22
ATOM     22  O   UNL     1     -15.055  18.094  38.278  1.00  0.00    -0.387 OA
ATOM     23  H   UNL     1     -14.290  18.557  38.713  1.00  0.00     0.211 HD
ENDBRANCH   2  22
BRANCH   3  24
ATOM     24  O   UNL     1     -14.995  16.242  40.500  1.00  0.00    -0.387 OA
ATOM     25  H   UNL     1     -14.268  15.600  40.736  1.00  0.00     0.211 HD
ENDBRANCH   3  24
BRANCH   5  26
ATOM     26  O   UNL     1     -17.040  14.400  37.201  1.00  0.00    -0.454 OA
BRANCH  26  27
ATOM     27  C   UNL     1     -17.684  14.488  35.953  1.00  0.00     0.214 A 
ATOM     28  C   UNL     1     -17.763  13.340  35.116  1.00  0.00     0.180 A 
ATOM     29  C   UNL     1     -18.173  15.698  35.423  1.00  0.00     0.239 A 
ATOM     30  O   UNL     1     -17.785  13.534  33.801  1.00  0.00    -0.452 OA
ATOM     31  C   UNL     1     -18.290  15.850  34.023  1.00  0.00     0.111 A 
ATOM     32  O   UNL     1     -18.508  16.627  36.205  1.00  0.00    -0.285 OA
ATOM     33  C   UNL     1     -17.947  14.728  33.241  1.00  0.00     0.146 A 
ATOM     34  C   UNL     1     -18.665  17.044  33.371  1.00  0.00     0.134 A 
ATOM     35  C   UNL     1     -17.823  14.842  31.850  1.00  0.00     0.094 A 
ATOM     36  C   UNL     1     -18.502  17.158  31.988  1.00  0.00     0.093 A 
ATOM     37  C   UNL     1     -18.062  16.073  31.228  1.00  0.00     0.123 A 
BRANCH  28  38
ATOM     38  C   UNL     1     -17.979  11.942  35.621  1.00  0.00     0.025 A 
ATOM     39  C   UNL     1     -18.478  11.654  36.907  1.00  0.00     0.062 A 
ATOM     40  C   UNL     1     -17.893  10.884  34.692  1.00  0.00     0.016 A 
ATOM     41  C   UNL     1     -18.989  10.382  37.215  1.00  0.00     0.158 A 
ATOM     42  C   UNL     1     -18.403   9.625  35.002  1.00  0.00     0.051 A 
ATOM     43  C   UNL     1     -18.970   9.370  36.254  1.00  0.00     0.157 A 
BRANCH  41  44
ATOM     44  O   UNL     1     -19.529  10.116  38.471  1.00  0.00    -0.504 OA
ATOM     45  H   UNL     1     -19.623  10.831  39.178  1.00  0.00     0.293 HD
ENDBRANCH  41  44
BRANCH  43  46
ATOM     46  O   UNL     1     -19.529   8.130  36.550  1.00  0.00    -0.504 OA
ATOM     47  H   UNL     1     -18.946   7.337  36.763  1.00  0.00     0.293 HD
ENDBRANCH  43  46
ENDBRANCH  28  38
BRANCH  34  48
ATOM     48  O   UNL     1     -19.229  18.125  34.039  1.00  0.00    -0.507 OA
ATOM     49  H   UNL     1     -18.916  19.072  33.876  1.00  0.00     0.293 HD
ENDBRANCH  34  48
BRANCH  37  50
ATOM     50  O   UNL     1     -17.866  16.235  29.861  1.00  0.00    -0.508 OA
ATOM     51  H   UNL     1     -17.043  15.855  29.395  1.00  0.00     0.293 HD
ENDBRANCH  37  50
ENDBRANCH  26  27
ENDBRANCH   5  26
BRANCH   4  52
ATOM     52  O   UNL     1     -16.166  13.701  39.792  1.00  0.00    -0.384 OA
ATOM     53  H   UNL     1     -17.091  13.975  39.576  1.00  0.00     0.211 HD
ENDBRANCH   4  52
TORSDOF 16
ENDMDL
MODEL 9
REMARK VINA RESULT:    -7.434      2.580      8.074
REMARK INTER + INTRA:         -14.552
REMARK INTER:                 -11.299
REMARK INTRA:                  -3.254
REMARK UNBOUND:                -2.338
REMARK SMILES C[C@@H]1O[C@H](OC[C@H]2O[C@H](Oc3c(-c4ccc(O)c(O)c4)oc4cc(O)cc(O)c4c3=O)[C@H](O)[C@@H](O)[C@@H]2O)[C@H](O)[C@H](O)[C@@H]1O
REMARK SMILES IDX 7 1 36 2 34 3 32 4 9 5 8 6 6 7 5 8 4 9 1 10 2 11 42 12 3 13
REMARK SMILES IDX 40 14 38 15 43 16 41 18 39 20 37 22 35 24 10 26 11 27 12 28
REMARK SMILES IDX 30 29 21 30 29 31 31 32 22 33 27 34 23 35 26 36 24 37 13 38
REMARK SMILES IDX 20 39 14 40 18 41 15 42 16 43 19 44 17 46 28 48 25 50 33 52
REMARK H PARENT 43 17 41 19 39 21 37 23 35 25 19 45 17 47 28 49 25 51 33 53
REMARK Flexibility Score: inf
ROOT
ATOM      1  C   UNL     1     -18.018  14.150  35.552  1.00  0.00     0.180 C 
ATOM      2  C   UNL     1     -19.019  12.985  35.328  1.00  0.00     0.177 C 
ATOM      3  C   UNL     1     -18.279  11.746  34.774  1.00  0.00     0.180 C 
ATOM      4  C   UNL     1     -17.016  11.445  35.601  1.00  0.00     0.214 C 
ATOM      5  C   UNL     1     -16.166  12.725  35.764  1.00  0.00     0.339 C 
ATOM      6  O   UNL     1     -16.925  13.754  36.386  1.00  0.00    -0.332 OA
ENDROOT
BRANCH   1   7
ATOM      7  C   UNL     1     -18.703  15.396  36.144  1.00  0.00     0.198 C 
BRANCH   7   8
ATOM      8  O   UNL     1     -17.719  16.391  36.359  1.00  0.00    -0.347 OA
BRANCH   8   9
ATOM      9  C   UNL     1     -17.496  16.855  37.697  1.00  0.00     0.281 C 
ATOM     10  C   UNL     1     -19.884  17.920  40.232  1.00  0.00     0.041 C 
ATOM     11  C   UNL     1     -18.579  17.352  39.690  1.00  0.00     0.150 C 
ATOM     12  C   UNL     1     -17.995  16.212  40.561  1.00  0.00     0.174 C 
ATOM     13  O   UNL     1     -18.760  16.899  38.365  1.00  0.00    -0.344 OA
ATOM     14  C   UNL     1     -16.881  15.439  39.779  1.00  0.00     0.179 C 
ATOM     15  C   UNL     1     -16.319  16.277  38.600  1.00  0.00     0.202 C 
BRANCH  12  16
ATOM     16  O   UNL     1     -19.008  15.313  40.944  1.00  0.00    -0.388 OA
ATOM     17  H   UNL     1     -19.509  15.734  41.699  1.00  0.00     0.211 HD
ENDBRANCH  12  16
BRANCH  14  18
ATOM     18  O   UNL     1     -17.341  14.179  39.335  1.00  0.00    -0.387 OA
ATOM     19  H   UNL     1     -18.150  14.332  38.791  1.00  0.00     0.211 HD
ENDBRANCH  14  18
BRANCH  15  20
ATOM     20  O   UNL     1     -15.330  15.571  37.896  1.00  0.00    -0.385 OA
ATOM     21  H   UNL     1     -15.785  15.006  37.214  1.00  0.00     0.211 HD
ENDBRANCH  15  20
ENDBRANCH   8   9
ENDBRANCH   7   8
ENDBRANCH   1   7
BRANCH   2  22
ATOM     22  O   UNL     1     -19.989  13.372  34.388  1.00  0.00    -0.387 OA
ATOM     23  H   UNL     1     -19.495  13.782  33.630  1.00  0.00     0.211 HD
ENDBRANCH   2  22
BRANCH   3  24
ATOM     24  O   UNL     1     -19.128  10.630  34.730  1.00  0.00    -0.387 OA
ATOM     25  H   UNL     1     -19.847  10.770  35.408  1.00  0.00     0.211 HD
ENDBRANCH   3  24
BRANCH   5  26
ATOM     26  O   UNL     1     -15.665  13.161  34.488  1.00  0.00    -0.454 OA
BRANCH  26  27
ATOM     27  C   UNL     1     -14.709  14.161  34.232  1.00  0.00     0.214 A 
ATOM     28  C   UNL     1     -14.886  15.042  33.129  1.00  0.00     0.180 A 
ATOM     29  C   UNL     1     -13.504  14.276  34.953  1.00  0.00     0.239 A 
ATOM     30  O   UNL     1     -13.795  15.520  32.538  1.00  0.00    -0.452 OA
ATOM     31  C   UNL     1     -12.382  14.884  34.346  1.00  0.00     0.111 A 
ATOM     32  O   UNL     1     -13.445  13.845  36.135  1.00  0.00    -0.285 OA
ATOM     33  C   UNL     1     -12.573  15.389  33.043  1.00  0.00     0.146 A 
ATOM     34  C   UNL     1     -11.098  14.963  34.925  1.00  0.00     0.134 A 
ATOM     35  C   UNL     1     -11.479  15.812  32.278  1.00  0.00     0.094 A 
ATOM     36  C   UNL     1     -10.008  15.352  34.141  1.00  0.00     0.093 A 
ATOM     37  C   UNL     1     -10.188  15.754  32.816  1.00  0.00     0.123 A 
BRANCH  28  38
ATOM     38  C   UNL     1     -16.215  15.588  32.691  1.00  0.00     0.025 A 
ATOM     39  C   UNL     1     -17.212  14.797  32.086  1.00  0.00     0.062 A 
ATOM     40  C   UNL     1     -16.564  16.889  33.107  1.00  0.00     0.016 A 
ATOM     41  C   UNL     1     -18.542  15.245  32.012  1.00  0.00     0.158 A 
ATOM     42  C   UNL     1     -17.884  17.328  33.033  1.00  0.00     0.051 A 
ATOM     43  C   UNL     1     -18.883  16.505  32.505  1.00  0.00     0.157 A 
BRANCH  41  44
ATOM     44  O   UNL     1     -19.536  14.440  31.461  1.00  0.00    -0.504 OA
ATOM     45  H   UNL     1     -20.162  14.776  30.742  1.00  0.00     0.293 HD
ENDBRANCH  41  44
BRANCH  43  46
ATOM     46  O   UNL     1     -20.212  16.917  32.478  1.00  0.00    -0.504 OA
ATOM     47  H   UNL     1     -20.797  16.725  31.680  1.00  0.00     0.293 HD
ENDBRANCH  43  46
ENDBRANCH  28  38
BRANCH  34  48
ATOM     48  O   UNL     1     -10.856  14.702  36.268  1.00  0.00    -0.507 OA
ATOM     49  H   UNL     1     -10.111  15.161  36.773  1.00  0.00     0.293 HD
ENDBRANCH  34  48
BRANCH  37  50
ATOM     50  O   UNL     1      -9.076  16.089  32.051  1.00  0.00    -0.508 OA
ATOM     51  H   UNL     1      -8.623  16.997  32.143  1.00  0.00     0.293 HD
ENDBRANCH  37  50
ENDBRANCH  26  27
ENDBRANCH   5  26
BRANCH   4  52
ATOM     52  O   UNL     1     -16.258  10.442  34.961  1.00  0.00    -0.384 OA
ATOM     53  H   UNL     1     -15.587  10.897  34.395  1.00  0.00     0.211 HD
ENDBRANCH   4  52
TORSDOF 16
ENDMDL
