MODEL 1
REMARK VINA RESULT:    -3.968      0.000      0.000
REMARK INTER + INTRA:          -4.211
REMARK INTER:                  -4.200
REMARK INTRA:                  -0.011
REMARK UNBOUND:                -0.011
REMARK SMILES O=Cc1ccco1
REMARK SMILES IDX 5 1 6 2 7 3 3 4 4 5 2 6 1 7
REMARK H PARENT
REMARK Flexibility Score: inf
ROOT
ATOM      1  C   UNL     1      20.729  -1.795 -15.986  1.00  0.00     0.043 A 
ATOM      2  C   UNL     1      20.109  -1.708 -17.217  1.00  0.00     0.196 A 
ATOM      3  O   UNL     1      19.238  -0.725 -17.206  1.00  0.00    -0.462 OA
ATOM      4  C   UNL     1      19.259  -0.165 -16.018  1.00  0.00     0.166 A 
ATOM      5  C   UNL     1      20.179  -0.797 -15.209  1.00  0.00     0.054 A 
ENDROOT
BRANCH   4   6
ATOM      6  C   UNL     1      18.419   0.969 -15.627  1.00  0.00     0.298 C 
ATOM      7  O   UNL     1      17.410   0.788 -14.897  1.00  0.00    -0.294 OA
ENDBRANCH   4   6
TORSDOF 1
ENDMDL
MODEL 2
REMARK VINA RESULT:    -3.705      8.589      9.652
REMARK INTER + INTRA:          -3.932
REMARK INTER:                  -3.919
REMARK INTRA:                  -0.013
REMARK UNBOUND:                -0.011
REMARK SMILES O=Cc1ccco1
REMARK SMILES IDX 5 1 6 2 7 3 3 4 4 5 2 6 1 7
REMARK H PARENT
REMARK Flexibility Score: inf
ROOT
ATOM      1  C   UNL     1      16.015   1.396 -25.001  1.00  0.00     0.043 A 
ATOM      2  C   UNL     1      16.017   0.654 -26.167  1.00  0.00     0.196 A 
ATOM      3  O   UNL     1      16.580  -0.512 -25.948  1.00  0.00    -0.462 OA
ATOM      4  C   UNL     1      16.948  -0.567 -24.689  1.00  0.00     0.166 A 
ATOM      5  C   UNL     1      16.617   0.607 -24.044  1.00  0.00     0.054 A 
ENDROOT
BRANCH   4   6
ATOM      6  C   UNL     1      17.612  -1.717 -24.073  1.00  0.00     0.298 C 
ATOM      7  O   UNL     1      17.123  -2.871 -24.193  1.00  0.00    -0.294 OA
ENDBRANCH   4   6
TORSDOF 1
ENDMDL
MODEL 3
REMARK VINA RESULT:    -3.644      1.229      3.002
REMARK INTER + INTRA:          -3.868
REMARK INTER:                  -3.857
REMARK INTRA:                  -0.011
REMARK UNBOUND:                -0.011
REMARK SMILES O=Cc1ccco1
REMARK SMILES IDX 5 1 6 2 7 3 3 4 4 5 2 6 1 7
REMARK H PARENT
REMARK Flexibility Score: inf
ROOT
ATOM      1  C   UNL     1      20.147  -0.439 -14.971  1.00  0.00     0.043 A 
ATOM      2  C   UNL     1      19.213   0.309 -15.661  1.00  0.00     0.196 A 
ATOM      3  O   UNL     1      18.974  -0.246 -16.826  1.00  0.00    -0.462 OA
ATOM      4  C   UNL     1      19.712  -1.327 -16.931  1.00  0.00     0.166 A 
ATOM      5  C   UNL     1      20.471  -1.499 -15.792  1.00  0.00     0.054 A 
ENDROOT
BRANCH   4   6
ATOM      6  C   UNL     1      19.716  -2.213 -18.097  1.00  0.00     0.298 C 
ATOM      7  O   UNL     1      19.351  -3.412 -17.983  1.00  0.00    -0.294 OA
ENDBRANCH   4   6
TORSDOF 1
ENDMDL
MODEL 4
REMARK VINA RESULT:    -3.574      8.615      9.360
REMARK INTER + INTRA:          -3.794
REMARK INTER:                  -3.782
REMARK INTRA:                  -0.012
REMARK UNBOUND:                -0.011
REMARK SMILES O=Cc1ccco1
REMARK SMILES IDX 5 1 6 2 7 3 3 4 4 5 2 6 1 7
REMARK H PARENT
REMARK Flexibility Score: inf
ROOT
ATOM      1  C   UNL     1      17.189  -0.356 -23.179  1.00  0.00     0.043 A 
ATOM      2  C   UNL     1      17.274  -1.272 -24.211  1.00  0.00     0.196 A 
ATOM      3  O   UNL     1      16.855  -0.722 -25.327  1.00  0.00    -0.462 OA
ATOM      4  C   UNL     1      16.497   0.516 -25.072  1.00  0.00     0.166 A 
ATOM      5  C   UNL     1      16.686   0.801 -23.735  1.00  0.00     0.054 A 
ENDROOT
BRANCH   4   6
ATOM      6  C   UNL     1      15.975   1.446 -26.074  1.00  0.00     0.298 C 
ATOM      7  O   UNL     1      15.129   2.319 -25.750  1.00  0.00    -0.294 OA
ENDBRANCH   4   6
TORSDOF 1
ENDMDL
MODEL 5
REMARK VINA RESULT:    -3.553      8.333      9.095
REMARK INTER + INTRA:          -3.771
REMARK INTER:                  -3.760
REMARK INTRA:                  -0.012
REMARK UNBOUND:                -0.011
REMARK SMILES O=Cc1ccco1
REMARK SMILES IDX 5 1 6 2 7 3 3 4 4 5 2 6 1 7
REMARK H PARENT
REMARK Flexibility Score: inf
ROOT
ATOM      1  C   UNL     1      16.906   0.097 -22.757  1.00  0.00     0.043 A 
ATOM      2  C   UNL     1      17.358   1.365 -22.446  1.00  0.00     0.196 A 
ATOM      3  O   UNL     1      17.132   2.174 -23.455  1.00  0.00    -0.462 OA
ATOM      4  C   UNL     1      16.552   1.491 -24.415  1.00  0.00     0.166 A 
ATOM      5  C   UNL     1      16.385   0.177 -24.031  1.00  0.00     0.054 A 
ENDROOT
BRANCH   4   6
ATOM      6  C   UNL     1      16.147   2.059 -25.703  1.00  0.00     0.298 C 
ATOM      7  O   UNL     1      15.241   1.509 -26.381  1.00  0.00    -0.294 OA
ENDBRANCH   4   6
TORSDOF 1
ENDMDL
MODEL 6
REMARK VINA RESULT:    -3.477     10.439     11.291
REMARK INTER + INTRA:          -3.691
REMARK INTER:                  -3.675
REMARK INTRA:                  -0.016
REMARK UNBOUND:                -0.011
REMARK SMILES O=Cc1ccco1
REMARK SMILES IDX 5 1 6 2 7 3 3 4 4 5 2 6 1 7
REMARK H PARENT
REMARK Flexibility Score: inf
ROOT
ATOM      1  C   UNL     1      16.022   1.764 -25.731  1.00  0.00     0.043 A 
ATOM      2  C   UNL     1      15.678   0.452 -25.469  1.00  0.00     0.196 A 
ATOM      3  O   UNL     1      16.477  -0.355 -26.127  1.00  0.00    -0.462 OA
ATOM      4  C   UNL     1      17.330   0.371 -26.812  1.00  0.00     0.166 A 
ATOM      5  C   UNL     1      17.091   1.713 -26.600  1.00  0.00     0.054 A 
ENDROOT
BRANCH   4   6
ATOM      6  C   UNL     1      18.380  -0.181 -27.670  1.00  0.00     0.298 C 
ATOM      7  O   UNL     1      18.581  -1.423 -27.707  1.00  0.00    -0.294 OA
ENDBRANCH   4   6
TORSDOF 1
ENDMDL
MODEL 7
REMARK VINA RESULT:    -3.473      2.638      3.127
REMARK INTER + INTRA:          -3.686
REMARK INTER:                  -3.675
REMARK INTRA:                  -0.011
REMARK UNBOUND:                -0.011
REMARK SMILES O=Cc1ccco1
REMARK SMILES IDX 5 1 6 2 7 3 3 4 4 5 2 6 1 7
REMARK H PARENT
REMARK Flexibility Score: inf
ROOT
ATOM      1  C   UNL     1      21.690  -0.885 -15.238  1.00  0.00     0.043 A 
ATOM      2  C   UNL     1      22.560  -0.627 -16.280  1.00  0.00     0.196 A 
ATOM      3  O   UNL     1      21.987  -0.931 -17.421  1.00  0.00    -0.462 OA
ATOM      4  C   UNL     1      20.777  -1.378 -17.173  1.00  0.00     0.166 A 
ATOM      5  C   UNL     1      20.535  -1.371 -15.815  1.00  0.00     0.054 A 
ENDROOT
BRANCH   4   6
ATOM      6  C   UNL     1      19.833  -1.815 -18.203  1.00  0.00     0.298 C 
ATOM      7  O   UNL     1      19.306  -2.956 -18.136  1.00  0.00    -0.294 OA
ENDBRANCH   4   6
TORSDOF 1
ENDMDL
MODEL 8
REMARK VINA RESULT:    -3.437      7.837      8.310
REMARK INTER + INTRA:          -3.649
REMARK INTER:                  -3.637
REMARK INTRA:                  -0.012
REMARK UNBOUND:                -0.011
REMARK SMILES O=Cc1ccco1
REMARK SMILES IDX 5 1 6 2 7 3 3 4 4 5 2 6 1 7
REMARK H PARENT
REMARK Flexibility Score: inf
ROOT
ATOM      1  C   UNL     1      17.024   1.558 -23.045  1.00  0.00     0.043 A 
ATOM      2  C   UNL     1      18.372   1.683 -23.325  1.00  0.00     0.196 A 
ATOM      3  O   UNL     1      18.859   0.518 -23.684  1.00  0.00    -0.462 OA
ATOM      4  C   UNL     1      17.890  -0.367 -23.651  1.00  0.00     0.166 A 
ATOM      5  C   UNL     1      16.711   0.231 -23.255  1.00  0.00     0.054 A 
ENDROOT
BRANCH   4   6
ATOM      6  C   UNL     1      18.053  -1.782 -23.989  1.00  0.00     0.298 C 
ATOM      7  O   UNL     1      17.044  -2.504 -24.202  1.00  0.00    -0.294 OA
ENDBRANCH   4   6
TORSDOF 1
ENDMDL
