MODEL 1
REMARK VINA RESULT:    -3.051      0.000      0.000
REMARK INTER + INTRA:          -3.861
REMARK INTER:                  -3.765
REMARK INTRA:                  -0.097
REMARK UNBOUND:                -0.097
REMARK SMILES CCCCCC(=O)[O-]
REMARK SMILES IDX 4 1 5 2 6 3 7 4 8 5 3 6 2 7 1 8
REMARK H PARENT
REMARK Flexibility Score: inf
ROOT
ATOM      1  C   UNL     1      14.129  12.280   9.951  1.00  0.00     0.006 C 
ENDROOT
BRANCH   1   2
ATOM      2  C   UNL     1      14.555  13.458   9.064  1.00  0.00     0.053 C 
BRANCH   2   3
ATOM      3  C   UNL     1      14.465  13.082   7.619  1.00  0.00     0.041 C 
ATOM      4  O   UNL     1      13.375  12.676   7.137  1.00  0.00    -0.550 OA
ATOM      5  O   UNL     1      15.597  13.133   6.815  1.00  0.00    -0.550 OA
ENDBRANCH   2   3
ENDBRANCH   1   2
BRANCH   1   6
ATOM      6  C   UNL     1      13.914  12.690  11.416  1.00  0.00     0.000 C 
BRANCH   6   7
ATOM      7  C   UNL     1      14.855  11.954  12.380  1.00  0.00    -0.003 C 
ATOM      8  C   UNL     1      15.810  11.036  11.621  1.00  0.00     0.004 C 
ENDBRANCH   6   7
ENDBRANCH   1   6
TORSDOF 4
ENDMDL
MODEL 2
REMARK VINA RESULT:    -3.027      0.815      1.725
REMARK INTER + INTRA:          -3.832
REMARK INTER:                  -3.728
REMARK INTRA:                  -0.104
REMARK UNBOUND:                -0.097
REMARK SMILES CCCCCC(=O)[O-]
REMARK SMILES IDX 4 1 5 2 6 3 7 4 8 5 3 6 2 7 1 8
REMARK H PARENT
REMARK Flexibility Score: inf
ROOT
ATOM      1  C   UNL     1      13.994  12.153  10.008  1.00  0.00     0.006 C 
ENDROOT
BRANCH   1   2
ATOM      2  C   UNL     1      14.681  13.306   9.264  1.00  0.00     0.053 C 
BRANCH   2   3
ATOM      3  C   UNL     1      14.431  13.200   7.794  1.00  0.00     0.041 C 
ATOM      4  O   UNL     1      15.164  13.823   6.980  1.00  0.00    -0.550 OA
ATOM      5  O   UNL     1      13.360  12.453   7.321  1.00  0.00    -0.550 OA
ENDBRANCH   2   3
ENDBRANCH   1   2
BRANCH   1   6
ATOM      6  C   UNL     1      14.812  11.652  11.209  1.00  0.00     0.000 C 
BRANCH   6   7
ATOM      7  C   UNL     1      14.748  12.610  12.407  1.00  0.00    -0.003 C 
ATOM      8  C   UNL     1      13.307  12.832  12.857  1.00  0.00     0.004 C 
ENDBRANCH   6   7
ENDBRANCH   1   6
TORSDOF 4
ENDMDL
MODEL 3
REMARK VINA RESULT:    -2.888      2.925      4.394
REMARK INTER + INTRA:          -3.660
REMARK INTER:                  -3.537
REMARK INTRA:                  -0.123
REMARK UNBOUND:                -0.097
REMARK SMILES CCCCCC(=O)[O-]
REMARK SMILES IDX 4 1 5 2 6 3 7 4 8 5 3 6 2 7 1 8
REMARK H PARENT
REMARK Flexibility Score: inf
ROOT
ATOM      1  C   UNL     1      14.116  12.475   9.721  1.00  0.00     0.006 C 
ENDROOT
BRANCH   1   2
ATOM      2  C   UNL     1      14.028  12.647  11.243  1.00  0.00     0.053 C 
BRANCH   2   3
ATOM      3  C   UNL     1      15.171  11.953  11.913  1.00  0.00     0.041 C 
ATOM      4  O   UNL     1      15.606  10.863  11.457  1.00  0.00    -0.550 OA
ATOM      5  O   UNL     1      15.725  12.484  13.071  1.00  0.00    -0.550 OA
ENDBRANCH   2   3
ENDBRANCH   1   2
BRANCH   1   6
ATOM      6  C   UNL     1      15.026  13.522   9.059  1.00  0.00     0.000 C 
BRANCH   6   7
ATOM      7  C   UNL     1      14.804  13.623   7.543  1.00  0.00    -0.003 C 
ATOM      8  C   UNL     1      13.603  12.788   7.107  1.00  0.00     0.004 C 
ENDBRANCH   6   7
ENDBRANCH   1   6
TORSDOF 4
ENDMDL
MODEL 4
REMARK VINA RESULT:    -2.864      3.010      4.423
REMARK INTER + INTRA:          -3.630
REMARK INTER:                  -3.515
REMARK INTRA:                  -0.115
REMARK UNBOUND:                -0.097
REMARK SMILES CCCCCC(=O)[O-]
REMARK SMILES IDX 4 1 5 2 6 3 7 4 8 5 3 6 2 7 1 8
REMARK H PARENT
REMARK Flexibility Score: inf
ROOT
ATOM      1  C   UNL     1      14.108  12.675   9.695  1.00  0.00     0.006 C 
ENDROOT
BRANCH   1   2
ATOM      2  C   UNL     1      14.550  12.098  11.046  1.00  0.00     0.053 C 
BRANCH   2   3
ATOM      3  C   UNL     1      14.062  12.960  12.166  1.00  0.00     0.041 C 
ATOM      4  O   UNL     1      12.930  12.752  12.678  1.00  0.00    -0.550 OA
ATOM      5  O   UNL     1      14.834  14.025  12.613  1.00  0.00    -0.550 OA
ENDBRANCH   2   3
ENDBRANCH   1   2
BRANCH   1   6
ATOM      6  C   UNL     1      15.258  13.362   8.940  1.00  0.00     0.000 C 
BRANCH   6   7
ATOM      7  C   UNL     1      14.996  13.463   7.431  1.00  0.00    -0.003 C 
ATOM      8  C   UNL     1      13.664  12.815   7.059  1.00  0.00     0.004 C 
ENDBRANCH   6   7
ENDBRANCH   1   6
TORSDOF 4
ENDMDL
MODEL 5
REMARK VINA RESULT:    -2.676      2.347      3.419
REMARK INTER + INTRA:          -3.398
REMARK INTER:                  -3.229
REMARK INTRA:                  -0.169
REMARK UNBOUND:                -0.097
REMARK SMILES CCCCCC(=O)[O-]
REMARK SMILES IDX 4 1 5 2 6 3 7 4 8 5 3 6 2 7 1 8
REMARK H PARENT
REMARK Flexibility Score: inf
ROOT
ATOM      1  C   UNL     1      15.247  13.540   7.111  1.00  0.00     0.006 C 
ENDROOT
BRANCH   1   2
ATOM      2  C   UNL     1      16.339  14.391   7.772  1.00  0.00     0.053 C 
BRANCH   2   3
ATOM      3  C   UNL     1      16.130  15.839   7.464  1.00  0.00     0.041 C 
ATOM      4  O   UNL     1      16.924  16.445   6.697  1.00  0.00    -0.550 OA
ATOM      5  O   UNL     1      15.087  16.535   8.063  1.00  0.00    -0.550 OA
ENDBRANCH   2   3
ENDBRANCH   1   2
BRANCH   1   6
ATOM      6  C   UNL     1      14.203  13.030   8.117  1.00  0.00     0.000 C 
BRANCH   6   7
ATOM      7  C   UNL     1      14.699  13.102   9.569  1.00  0.00    -0.003 C 
ATOM      8  C   UNL     1      13.987  12.074  10.444  1.00  0.00     0.004 C 
ENDBRANCH   6   7
ENDBRANCH   1   6
TORSDOF 4
ENDMDL
MODEL 6
REMARK VINA RESULT:    -2.651      2.785      4.254
REMARK INTER + INTRA:          -3.368
REMARK INTER:                  -3.276
REMARK INTRA:                  -0.092
REMARK UNBOUND:                -0.097
REMARK SMILES CCCCCC(=O)[O-]
REMARK SMILES IDX 4 1 5 2 6 3 7 4 8 5 3 6 2 7 1 8
REMARK H PARENT
REMARK Flexibility Score: inf
ROOT
ATOM      1  C   UNL     1      14.549  13.115   9.361  1.00  0.00     0.006 C 
ENDROOT
BRANCH   1   2
ATOM      2  C   UNL     1      14.020  11.955  10.213  1.00  0.00     0.053 C 
BRANCH   2   3
ATOM      3  C   UNL     1      14.897  11.741  11.405  1.00  0.00     0.041 C 
ATOM      4  O   UNL     1      14.468  11.996  12.561  1.00  0.00    -0.550 OA
ATOM      5  O   UNL     1      16.206  11.305  11.237  1.00  0.00    -0.550 OA
ENDBRANCH   2   3
ENDBRANCH   1   2
BRANCH   1   6
ATOM      6  C   UNL     1      14.169  12.982   7.878  1.00  0.00     0.000 C 
BRANCH   6   7
ATOM      7  C   UNL     1      15.356  13.239   6.939  1.00  0.00    -0.003 C 
ATOM      8  C   UNL     1      16.476  13.985   7.660  1.00  0.00     0.004 C 
ENDBRANCH   6   7
ENDBRANCH   1   6
TORSDOF 4
ENDMDL
MODEL 7
REMARK VINA RESULT:    -2.650     10.452     12.756
REMARK INTER + INTRA:          -3.367
REMARK INTER:                  -3.280
REMARK INTRA:                  -0.087
REMARK UNBOUND:                -0.097
REMARK SMILES CCCCCC(=O)[O-]
REMARK SMILES IDX 4 1 5 2 6 3 7 4 8 5 3 6 2 7 1 8
REMARK H PARENT
REMARK Flexibility Score: inf
ROOT
ATOM      1  C   UNL     1      15.553  20.325  -0.155  1.00  0.00     0.006 C 
ENDROOT
BRANCH   1   2
ATOM      2  C   UNL     1      15.814  19.115   0.750  1.00  0.00     0.053 C 
BRANCH   2   3
ATOM      3  C   UNL     1      14.539  18.384   1.026  1.00  0.00     0.041 C 
ATOM      4  O   UNL     1      13.495  18.666   0.380  1.00  0.00    -0.550 OA
ATOM      5  O   UNL     1      14.488  17.427   2.032  1.00  0.00    -0.550 OA
ENDBRANCH   2   3
ENDBRANCH   1   2
BRANCH   1   6
ATOM      6  C   UNL     1      16.824  21.143  -0.431  1.00  0.00     0.000 C 
BRANCH   6   7
ATOM      7  C   UNL     1      16.659  22.110  -1.613  1.00  0.00    -0.003 C 
ATOM      8  C   UNL     1      15.217  22.125  -2.113  1.00  0.00     0.004 C 
ENDBRANCH   6   7
ENDBRANCH   1   6
TORSDOF 4
ENDMDL
MODEL 8
REMARK VINA RESULT:    -2.615     17.934     18.740
REMARK INTER + INTRA:          -3.323
REMARK INTER:                  -3.148
REMARK INTRA:                  -0.175
REMARK UNBOUND:                -0.097
REMARK SMILES CCCCCC(=O)[O-]
REMARK SMILES IDX 4 1 5 2 6 3 7 4 8 5 3 6 2 7 1 8
REMARK H PARENT
REMARK Flexibility Score: inf
ROOT
ATOM      1  C   UNL     1      -1.027   4.791  11.028  1.00  0.00     0.006 C 
ENDROOT
BRANCH   1   2
ATOM      2  C   UNL     1      -2.302   3.944  10.927  1.00  0.00     0.053 C 
BRANCH   2   3
ATOM      3  C   UNL     1      -2.264   2.824  11.918  1.00  0.00     0.041 C 
ATOM      4  O   UNL     1      -3.125   2.761  12.835  1.00  0.00    -0.550 OA
ATOM      5  O   UNL     1      -1.250   1.877  11.860  1.00  0.00    -0.550 OA
ENDBRANCH   2   3
ENDBRANCH   1   2
BRANCH   1   6
ATOM      6  C   UNL     1      -0.898   5.507  12.381  1.00  0.00     0.000 C 
BRANCH   6   7
ATOM      7  C   UNL     1      -2.060   6.474  12.650  1.00  0.00    -0.003 C 
ATOM      8  C   UNL     1      -1.546   7.841  13.093  1.00  0.00     0.004 C 
ENDBRANCH   6   7
ENDBRANCH   1   6
TORSDOF 4
ENDMDL
MODEL 9
REMARK VINA RESULT:    -2.487      2.996      4.476
REMARK INTER + INTRA:          -3.165
REMARK INTER:                  -3.077
REMARK INTRA:                  -0.088
REMARK UNBOUND:                -0.097
REMARK SMILES CCCCCC(=O)[O-]
REMARK SMILES IDX 4 1 5 2 6 3 7 4 8 5 3 6 2 7 1 8
REMARK H PARENT
REMARK Flexibility Score: inf
ROOT
ATOM      1  C   UNL     1      15.616  15.395   7.227  1.00  0.00     0.006 C 
ENDROOT
BRANCH   1   2
ATOM      2  C   UNL     1      15.847  13.956   7.707  1.00  0.00     0.053 C 
BRANCH   2   3
ATOM      3  C   UNL     1      14.567  13.185   7.680  1.00  0.00     0.041 C 
ATOM      4  O   UNL     1      13.920  13.069   6.606  1.00  0.00    -0.550 OA
ATOM      5  O   UNL     1      14.061  12.634   8.851  1.00  0.00    -0.550 OA
ENDBRANCH   2   3
ENDBRANCH   1   2
BRANCH   1   6
ATOM      6  C   UNL     1      15.245  16.349   8.374  1.00  0.00     0.000 C 
BRANCH   6   7
ATOM      7  C   UNL     1      16.419  17.241   8.803  1.00  0.00    -0.003 C 
ATOM      8  C   UNL     1      15.923  18.579   9.344  1.00  0.00     0.004 C 
ENDBRANCH   6   7
ENDBRANCH   1   6
TORSDOF 4
ENDMDL
