MODEL 1
REMARK VINA RESULT:    -0.074      0.000      0.000
REMARK INTER + INTRA:           0.097
REMARK INTER:                  -0.081
REMARK INTRA:                   0.178
REMARK UNBOUND:                 0.178
REMARK SMILES C[C@@H]1[C@H](C)CC[C@@]2(C(=O)[O-])CC[C@@]3(C)C(=CC[C@@H]4[C@]5(C)CC[C@H](O)C(C)(C)[C@@H]5CC[C@@]43C)[C@H]12
REMARK SMILES IDX 7 1 6 2 11 3 33 4 5 5 12 6 15 7 2 8 3 9 13 10 16 11 1 12
REMARK SMILES IDX 4 13 14 14 31 15 17 16 18 17 30 18 32 19 19 20 29 21 28 22
REMARK SMILES IDX 21 23 20 24 25 25 22 26 23 27 26 28 27 29 8 30 9 31 10 32
REMARK SMILES IDX 24 33
REMARK H PARENT 24 34
REMARK Flexibility Score: inf
ROOT
ATOM      1  C   UNL     1     128.888 -40.893  31.325  1.00  0.00     0.017 C 
ATOM      2  C   UNL     1     127.993 -40.253  32.437  1.00  0.00     0.014 C 
ATOM      3  C   UNL     1     128.722 -40.077  29.995  1.00  0.00     0.014 C 
ATOM      4  C   UNL     1     130.366 -40.839  31.841  1.00  0.00     0.030 C 
ATOM      5  C   UNL     1     128.180 -40.893  33.826  1.00  0.00     0.004 C 
ATOM      6  C   UNL     1     129.956 -39.252  29.556  1.00  0.00     0.013 C 
ATOM      7  C   UNL     1     131.389 -41.012  30.715  1.00  0.00    -0.063 C 
ATOM      8  C   UNL     1     130.585 -41.572  33.209  1.00  0.00    -0.003 C 
ATOM      9  C   UNL     1     129.659 -40.910  34.274  1.00  0.00    -0.011 C 
ATOM     10  C   UNL     1     131.357 -39.997  29.568  1.00  0.00    -0.006 C 
ATOM     11  C   UNL     1     132.440 -41.850  30.798  1.00  0.00    -0.027 C 
ATOM     12  C   UNL     1     130.421 -43.113  33.179  1.00  0.00     0.008 C 
ATOM     13  C   UNL     1     129.798 -41.548  35.667  1.00  0.00     0.008 C 
ATOM     14  C   UNL     1     132.376 -38.880  29.969  1.00  0.00     0.017 C 
ATOM     15  C   UNL     1     131.726 -40.723  28.155  1.00  0.00    -0.020 C 
ATOM     16  C   UNL     1     133.465 -41.945  29.705  1.00  0.00     0.032 C 
ATOM     17  C   UNL     1     132.826 -41.892  28.296  1.00  0.00     0.006 C 
ATOM     18  C   UNL     1     132.164 -39.681  27.074  1.00  0.00     0.008 C 
ATOM     19  C   UNL     1     130.433 -41.397  27.603  1.00  0.00     0.012 C 
ATOM     20  C   UNL     1     133.861 -42.050  27.072  1.00  0.00    -0.025 C 
ATOM     21  C   UNL     1     133.672 -39.437  27.028  1.00  0.00     0.005 C 
ATOM     22  C   UNL     1     134.482 -40.673  26.574  1.00  0.00     0.003 C 
ATOM     23  C   UNL     1     134.996 -43.077  27.415  1.00  0.00     0.010 C 
ATOM     24  C   UNL     1     133.077 -42.688  25.875  1.00  0.00     0.012 C 
ATOM     25  C   UNL     1     136.052 -40.492  26.734  1.00  0.00    -0.006 C 
ATOM     26  C   UNL     1     136.114 -43.125  26.376  1.00  0.00     0.033 C 
ATOM     27  C   UNL     1     136.801 -41.752  26.149  1.00  0.00     0.120 C 
ATOM     28  C   UNL     1     136.494 -40.188  28.201  1.00  0.00     0.014 C 
ATOM     29  C   UNL     1     136.516 -39.266  25.900  1.00  0.00     0.014 C 
ENDROOT
BRANCH   1  30
ATOM     30  C   UNL     1     128.433 -42.323  31.042  1.00  0.00     0.048 C 
ATOM     31  O   UNL     1     127.374 -42.782  31.554  1.00  0.00    -0.550 OA
ATOM     32  O   UNL     1     129.135 -43.118  30.144  1.00  0.00    -0.550 OA
ENDBRANCH   1  30
BRANCH  27  33
ATOM     33  O   UNL     1     138.149 -41.796  26.571  1.00  0.00    -0.393 OA
ATOM     34  H   UNL     1     138.616 -41.013  26.177  1.00  0.00     0.210 HD
ENDBRANCH  27  33
TORSDOF 2
ENDMDL
