MODEL 1
REMARK VINA RESULT:    -3.497      0.000      0.000
REMARK INTER + INTRA:          -4.706
REMARK INTER:                  -4.417
REMARK INTRA:                  -0.289
REMARK UNBOUND:                -0.289
REMARK SMILES CCCCC[C@@H](C)O
REMARK SMILES IDX 4 1 3 2 2 3 1 4 5 5 6 6 7 7 8 8
REMARK H PARENT 8 9
REMARK Flexibility Score: inf
ROOT
ATOM      1  C   UNL     1     184.809 190.980 188.129  1.00  0.00     0.003 C 
ENDROOT
BRANCH   1   2
ATOM      2  C   UNL     1     185.480 192.293 187.696  1.00  0.00    -0.000 C 
BRANCH   2   3
ATOM      3  C   UNL     1     186.502 192.805 188.722  1.00  0.00    -0.003 C 
ATOM      4  C   UNL     1     186.120 194.191 189.233  1.00  0.00     0.004 C 
ENDBRANCH   2   3
ENDBRANCH   1   2
BRANCH   1   5
ATOM      5  C   UNL     1     183.963 191.142 189.405  1.00  0.00     0.031 C 
BRANCH   5   6
ATOM      6  C   UNL     1     184.310 190.097 190.486  1.00  0.00     0.111 C 
ATOM      7  C   UNL     1     185.263 190.660 191.545  1.00  0.00     0.038 C 
BRANCH   6   8
ATOM      8  O   UNL     1     183.133 189.682 191.127  1.00  0.00    -0.393 OA
ATOM      9  H   UNL     1     182.391 190.221 190.746  1.00  0.00     0.210 HD
ENDBRANCH   6   8
ENDBRANCH   5   6
ENDBRANCH   1   5
TORSDOF 5
ENDMDL
MODEL 2
REMARK VINA RESULT:    -3.399      5.028      7.015
REMARK INTER + INTRA:          -4.582
REMARK INTER:                  -4.418
REMARK INTRA:                  -0.164
REMARK UNBOUND:                -0.289
REMARK SMILES CCCCC[C@@H](C)O
REMARK SMILES IDX 4 1 3 2 2 3 1 4 5 5 6 6 7 7 8 8
REMARK H PARENT 8 9
REMARK Flexibility Score: inf
ROOT
ATOM      1  C   UNL     1     187.358 197.137 189.828  1.00  0.00     0.003 C 
ENDROOT
BRANCH   1   2
ATOM      2  C   UNL     1     187.447 195.625 189.564  1.00  0.00    -0.000 C 
BRANCH   2   3
ATOM      3  C   UNL     1     186.182 194.870 190.000  1.00  0.00    -0.003 C 
ATOM      4  C   UNL     1     185.953 193.636 189.132  1.00  0.00     0.004 C 
ENDBRANCH   2   3
ENDBRANCH   1   2
BRANCH   1   5
ATOM      5  C   UNL     1     186.388 197.480 190.972  1.00  0.00     0.031 C 
BRANCH   5   6
ATOM      6  C   UNL     1     186.856 198.693 191.805  1.00  0.00     0.111 C 
ATOM      7  C   UNL     1     188.323 199.043 191.538  1.00  0.00     0.038 C 
BRANCH   6   8
ATOM      8  O   UNL     1     186.070 199.810 191.483  1.00  0.00    -0.393 OA
ATOM      9  H   UNL     1     185.194 199.686 191.935  1.00  0.00     0.210 HD
ENDBRANCH   6   8
ENDBRANCH   5   6
ENDBRANCH   1   5
TORSDOF 5
ENDMDL
MODEL 3
REMARK VINA RESULT:    -3.375      0.982      1.772
REMARK INTER + INTRA:          -4.553
REMARK INTER:                  -4.366
REMARK INTRA:                  -0.187
REMARK UNBOUND:                -0.289
REMARK SMILES CCCCC[C@@H](C)O
REMARK SMILES IDX 4 1 3 2 2 3 1 4 5 5 6 6 7 7 8 8
REMARK H PARENT 8 9
REMARK Flexibility Score: inf
ROOT
ATOM      1  C   UNL     1     185.349 192.132 189.844  1.00  0.00     0.003 C 
ENDROOT
BRANCH   1   2
ATOM      2  C   UNL     1     185.763 192.800 188.523  1.00  0.00    -0.000 C 
BRANCH   2   3
ATOM      3  C   UNL     1     185.403 191.956 187.292  1.00  0.00    -0.003 C 
ATOM      4  C   UNL     1     186.642 191.289 186.701  1.00  0.00     0.004 C 
ENDBRANCH   2   3
ENDBRANCH   1   2
BRANCH   1   5
ATOM      5  C   UNL     1     184.222 191.101 189.656  1.00  0.00     0.031 C 
BRANCH   5   6
ATOM      6  C   UNL     1     184.327 189.917 190.642  1.00  0.00     0.111 C 
ATOM      7  C   UNL     1     185.241 190.236 191.829  1.00  0.00     0.038 C 
BRANCH   6   8
ATOM      8  O   UNL     1     183.051 189.609 191.137  1.00  0.00    -0.393 OA
ATOM      9  H   UNL     1     182.428 189.629 190.364  1.00  0.00     0.210 HD
ENDBRANCH   6   8
ENDBRANCH   5   6
ENDBRANCH   1   5
TORSDOF 5
ENDMDL
MODEL 4
REMARK VINA RESULT:    -3.358      0.850      1.190
REMARK INTER + INTRA:          -4.531
REMARK INTER:                  -4.356
REMARK INTRA:                  -0.175
REMARK UNBOUND:                -0.289
REMARK SMILES CCCCC[C@@H](C)O
REMARK SMILES IDX 4 1 3 2 2 3 1 4 5 5 6 6 7 7 8 8
REMARK H PARENT 8 9
REMARK Flexibility Score: inf
ROOT
ATOM      1  C   UNL     1     184.242 191.057 189.432  1.00  0.00     0.003 C 
ENDROOT
BRANCH   1   2
ATOM      2  C   UNL     1     184.546 191.549 188.007  1.00  0.00    -0.000 C 
BRANCH   2   3
ATOM      3  C   UNL     1     185.701 192.560 187.962  1.00  0.00    -0.003 C 
ATOM      4  C   UNL     1     185.820 193.317 189.281  1.00  0.00     0.004 C 
ENDBRANCH   2   3
ENDBRANCH   1   2
BRANCH   1   5
ATOM      5  C   UNL     1     184.165 189.523 189.523  1.00  0.00     0.031 C 
BRANCH   5   6
ATOM      6  C   UNL     1     184.059 189.018 190.978  1.00  0.00     0.111 C 
ATOM      7  C   UNL     1     184.958 189.812 191.930  1.00  0.00     0.038 C 
BRANCH   6   8
ATOM      8  O   UNL     1     182.731 189.142 191.418  1.00  0.00    -0.393 OA
ATOM      9  H   UNL     1     182.731 189.813 192.150  1.00  0.00     0.210 HD
ENDBRANCH   6   8
ENDBRANCH   5   6
ENDBRANCH   1   5
TORSDOF 5
ENDMDL
MODEL 5
REMARK VINA RESULT:    -3.256      8.473     10.166
REMARK INTER + INTRA:          -4.402
REMARK INTER:                  -4.124
REMARK INTRA:                  -0.279
REMARK UNBOUND:                -0.289
REMARK SMILES CCCCC[C@@H](C)O
REMARK SMILES IDX 4 1 3 2 2 3 1 4 5 5 6 6 7 7 8 8
REMARK H PARENT 8 9
REMARK Flexibility Score: inf
ROOT
ATOM      1  C   UNL     1     185.282 182.050 191.739  1.00  0.00     0.003 C 
ENDROOT
BRANCH   1   2
ATOM      2  C   UNL     1     186.396 180.991 191.760  1.00  0.00    -0.000 C 
BRANCH   2   3
ATOM      3  C   UNL     1     186.347 180.102 193.011  1.00  0.00    -0.003 C 
ATOM      4  C   UNL     1     184.989 180.197 193.700  1.00  0.00     0.004 C 
ENDBRANCH   2   3
ENDBRANCH   1   2
BRANCH   1   5
ATOM      5  C   UNL     1     185.826 183.481 191.892  1.00  0.00     0.031 C 
BRANCH   5   6
ATOM      6  C   UNL     1     185.657 184.033 193.324  1.00  0.00     0.111 C 
ATOM      7  C   UNL     1     187.004 184.329 193.989  1.00  0.00     0.038 C 
BRANCH   6   8
ATOM      8  O   UNL     1     184.915 185.223 193.280  1.00  0.00    -0.393 OA
ATOM      9  H   UNL     1     184.409 185.217 192.425  1.00  0.00     0.210 HD
ENDBRANCH   6   8
ENDBRANCH   5   6
ENDBRANCH   1   5
TORSDOF 5
ENDMDL
MODEL 6
REMARK VINA RESULT:    -3.250      3.541      4.649
REMARK INTER + INTRA:          -4.393
REMARK INTER:                  -4.280
REMARK INTRA:                  -0.113
REMARK UNBOUND:                -0.289
REMARK SMILES CCCCC[C@@H](C)O
REMARK SMILES IDX 4 1 3 2 2 3 1 4 5 5 6 6 7 7 8 8
REMARK H PARENT 8 9
REMARK Flexibility Score: inf
ROOT
ATOM      1  C   UNL     1     186.440 191.405 186.882  1.00  0.00     0.003 C 
ENDROOT
BRANCH   1   2
ATOM      2  C   UNL     1     185.249 192.148 187.507  1.00  0.00    -0.000 C 
BRANCH   2   3
ATOM      3  C   UNL     1     185.462 192.468 188.994  1.00  0.00    -0.003 C 
ATOM      4  C   UNL     1     186.037 193.870 189.176  1.00  0.00     0.004 C 
ENDBRANCH   2   3
ENDBRANCH   1   2
BRANCH   1   5
ATOM      5  C   UNL     1     186.028 190.075 186.226  1.00  0.00     0.031 C 
BRANCH   5   6
ATOM      6  C   UNL     1     186.742 189.829 184.879  1.00  0.00     0.111 C 
ATOM      7  C   UNL     1     187.614 191.017 184.465  1.00  0.00     0.038 C 
BRANCH   6   8
ATOM      8  O   UNL     1     187.562 188.695 184.988  1.00  0.00    -0.393 OA
ATOM      9  H   UNL     1     187.115 187.965 184.483  1.00  0.00     0.210 HD
ENDBRANCH   6   8
ENDBRANCH   5   6
ENDBRANCH   1   5
TORSDOF 5
ENDMDL
MODEL 7
REMARK VINA RESULT:    -3.190      1.737      2.726
REMARK INTER + INTRA:          -4.318
REMARK INTER:                  -4.081
REMARK INTRA:                  -0.237
REMARK UNBOUND:                -0.289
REMARK SMILES CCCCC[C@@H](C)O
REMARK SMILES IDX 4 1 3 2 2 3 1 4 5 5 6 6 7 7 8 8
REMARK H PARENT 8 9
REMARK Flexibility Score: inf
ROOT
ATOM      1  C   UNL     1     184.304 191.324 189.180  1.00  0.00     0.003 C 
ENDROOT
BRANCH   1   2
ATOM      2  C   UNL     1     185.445 192.135 189.815  1.00  0.00    -0.000 C 
BRANCH   2   3
ATOM      3  C   UNL     1     185.993 193.222 188.879  1.00  0.00    -0.003 C 
ATOM      4  C   UNL     1     186.169 194.546 189.619  1.00  0.00     0.004 C 
ENDBRANCH   2   3
ENDBRANCH   1   2
BRANCH   1   5
ATOM      5  C   UNL     1     184.295 191.420 187.644  1.00  0.00     0.031 C 
BRANCH   5   6
ATOM      6  C   UNL     1     184.380 190.039 186.960  1.00  0.00     0.111 C 
ATOM      7  C   UNL     1     185.827 189.622 186.682  1.00  0.00     0.038 C 
BRANCH   6   8
ATOM      8  O   UNL     1     183.793 189.072 187.792  1.00  0.00    -0.393 OA
ATOM      9  H   UNL     1     183.076 189.528 188.305  1.00  0.00     0.210 HD
ENDBRANCH   6   8
ENDBRANCH   5   6
ENDBRANCH   1   5
TORSDOF 5
ENDMDL
MODEL 8
REMARK VINA RESULT:    -3.185      2.050      2.856
REMARK INTER + INTRA:          -4.311
REMARK INTER:                  -4.212
REMARK INTRA:                  -0.100
REMARK UNBOUND:                -0.289
REMARK SMILES CCCCC[C@@H](C)O
REMARK SMILES IDX 4 1 3 2 2 3 1 4 5 5 6 6 7 7 8 8
REMARK H PARENT 8 9
REMARK Flexibility Score: inf
ROOT
ATOM      1  C   UNL     1     185.521 191.725 187.633  1.00  0.00     0.003 C 
ENDROOT
BRANCH   1   2
ATOM      2  C   UNL     1     185.865 190.512 186.753  1.00  0.00    -0.000 C 
BRANCH   2   3
ATOM      3  C   UNL     1     186.860 190.854 185.634  1.00  0.00    -0.003 C 
ATOM      4  C   UNL     1     186.941 189.726 184.608  1.00  0.00     0.004 C 
ENDBRANCH   2   3
ENDBRANCH   1   2
BRANCH   1   5
ATOM      5  C   UNL     1     184.241 191.509 188.460  1.00  0.00     0.031 C 
BRANCH   5   6
ATOM      6  C   UNL     1     184.483 190.649 189.719  1.00  0.00     0.111 C 
ATOM      7  C   UNL     1     185.347 191.374 190.754  1.00  0.00     0.038 C 
BRANCH   6   8
ATOM      8  O   UNL     1     183.250 190.337 190.313  1.00  0.00    -0.393 OA
ATOM      9  H   UNL     1     182.746 191.188 190.397  1.00  0.00     0.210 HD
ENDBRANCH   6   8
ENDBRANCH   5   6
ENDBRANCH   1   5
TORSDOF 5
ENDMDL
MODEL 9
REMARK VINA RESULT:    -3.167      3.792      5.589
REMARK INTER + INTRA:          -4.289
REMARK INTER:                  -4.134
REMARK INTRA:                  -0.155
REMARK UNBOUND:                -0.289
REMARK SMILES CCCCC[C@@H](C)O
REMARK SMILES IDX 4 1 3 2 2 3 1 4 5 5 6 6 7 7 8 8
REMARK H PARENT 8 9
REMARK Flexibility Score: inf
ROOT
ATOM      1  C   UNL     1     187.477 194.126 189.765  1.00  0.00     0.003 C 
ENDROOT
BRANCH   1   2
ATOM      2  C   UNL     1     186.050 194.101 189.194  1.00  0.00    -0.000 C 
BRANCH   2   3
ATOM      3  C   UNL     1     185.479 192.680 189.083  1.00  0.00    -0.003 C 
ATOM      4  C   UNL     1     185.376 192.242 187.624  1.00  0.00     0.004 C 
ENDBRANCH   2   3
ENDBRANCH   1   2
BRANCH   1   5
ATOM      5  C   UNL     1     187.834 195.479 190.404  1.00  0.00     0.031 C 
BRANCH   5   6
ATOM      6  C   UNL     1     186.887 196.615 189.961  1.00  0.00     0.111 C 
ATOM      7  C   UNL     1     186.409 197.460 191.145  1.00  0.00     0.038 C 
BRANCH   6   8
ATOM      8  O   UNL     1     187.558 197.456 189.061  1.00  0.00    -0.393 OA
ATOM      9  H   UNL     1     186.916 198.165 188.793  1.00  0.00     0.210 HD
ENDBRANCH   6   8
ENDBRANCH   5   6
ENDBRANCH   1   5
TORSDOF 5
ENDMDL
