MODEL 1
REMARK VINA RESULT:    -6.523      0.000      0.000
REMARK INTER + INTRA:          -8.750
REMARK INTER:                  -8.238
REMARK INTRA:                  -0.511
REMARK UNBOUND:                -0.511
REMARK SMILES Oc1ccc(CCc2cc(O)cc(O)c2)cc1
REMARK SMILES IDX 6 1 5 2 4 3 3 4 2 5 16 6 17 7 1 8 7 10 8 11 15 12 9 13 13 14
REMARK SMILES IDX 10 15 12 16 14 17 11 19
REMARK H PARENT 1 9 14 18 11 20
REMARK Flexibility Score: inf
ROOT
ATOM      1  C   UNL     1     -33.146  98.231   7.400  1.00  0.00     0.040 C 
ENDROOT
BRANCH   1   2
ATOM      2  C   UNL     1     -32.476  99.150   8.384  1.00  0.00    -0.047 A 
ATOM      3  C   UNL     1     -32.366  98.784   9.736  1.00  0.00     0.007 A 
ATOM      4  C   UNL     1     -31.714  99.623  10.643  1.00  0.00     0.046 A 
ATOM      5  C   UNL     1     -31.156 100.830  10.210  1.00  0.00     0.115 A 
ATOM      6  C   UNL     1     -31.903 100.357   7.951  1.00  0.00     0.007 A 
ATOM      7  C   UNL     1     -31.251 101.195   8.859  1.00  0.00     0.046 A 
BRANCH   5   8
ATOM      8  O   UNL     1     -30.509 101.658  11.125  1.00  0.00    -0.508 OA
ATOM      9  H   UNL     1     -30.909 101.858  12.034  1.00  0.00     0.293 HD
ENDBRANCH   5   8
ENDBRANCH   1   2
BRANCH   1  10
ATOM     10  C   UNL     1     -34.179  97.348   8.105  1.00  0.00     0.040 C 
BRANCH  10  11
ATOM     11  C   UNL     1     -34.027  95.912   7.679  1.00  0.00    -0.040 A 
ATOM     12  C   UNL     1     -32.758  95.394   7.374  1.00  0.00     0.050 A 
ATOM     13  C   UNL     1     -35.146  95.064   7.640  1.00  0.00     0.050 A 
ATOM     14  C   UNL     1     -32.611  94.049   7.011  1.00  0.00     0.119 A 
ATOM     15  C   UNL     1     -35.000  93.718   7.276  1.00  0.00     0.119 A 
ATOM     16  C   UNL     1     -33.733  93.216   6.959  1.00  0.00     0.092 A 
BRANCH  14  17
ATOM     17  O   UNL     1     -31.356  93.530   6.699  1.00  0.00    -0.508 OA
ATOM     18  H   UNL     1     -30.908  92.838   7.288  1.00  0.00     0.293 HD
ENDBRANCH  14  17
BRANCH  15  19
ATOM     19  O   UNL     1     -36.105  92.872   7.228  1.00  0.00    -0.508 OA
ATOM     20  H   UNL     1     -36.002  91.874   7.080  1.00  0.00     0.293 HD
ENDBRANCH  15  19
ENDBRANCH  10  11
ENDBRANCH   1  10
TORSDOF 6
ENDMDL
MODEL 2
REMARK VINA RESULT:    -6.511      0.275      2.349
REMARK INTER + INTRA:          -8.735
REMARK INTER:                  -8.192
REMARK INTRA:                  -0.542
REMARK UNBOUND:                -0.511
REMARK SMILES Oc1ccc(CCc2cc(O)cc(O)c2)cc1
REMARK SMILES IDX 6 1 5 2 4 3 3 4 2 5 16 6 17 7 1 8 7 10 8 11 15 12 9 13 13 14
REMARK SMILES IDX 10 15 12 16 14 17 11 19
REMARK H PARENT 1 9 14 18 11 20
REMARK Flexibility Score: inf
ROOT
ATOM      1  C   UNL     1     -33.264  98.331   7.405  1.00  0.00     0.040 C 
ENDROOT
BRANCH   1   2
ATOM      2  C   UNL     1     -32.510  99.193   8.382  1.00  0.00    -0.047 A 
ATOM      3  C   UNL     1     -31.977 100.426   7.974  1.00  0.00     0.007 A 
ATOM      4  C   UNL     1     -31.306 101.242   8.890  1.00  0.00     0.046 A 
ATOM      5  C   UNL     1     -31.169 100.839  10.222  1.00  0.00     0.115 A 
ATOM      6  C   UNL     1     -32.383  98.798   9.724  1.00  0.00     0.007 A 
ATOM      7  C   UNL     1     -31.711  99.615  10.638  1.00  0.00     0.046 A 
BRANCH   5   8
ATOM      8  O   UNL     1     -30.498 101.661  11.125  1.00  0.00    -0.508 OA
ATOM      9  H   UNL     1     -29.492 101.779  11.087  1.00  0.00     0.293 HD
ENDBRANCH   5   8
ENDBRANCH   1   2
BRANCH   1  10
ATOM     10  C   UNL     1     -34.186  97.359   8.145  1.00  0.00     0.040 C 
BRANCH  10  11
ATOM     11  C   UNL     1     -33.906  95.940   7.726  1.00  0.00    -0.040 A 
ATOM     12  C   UNL     1     -34.966  95.068   7.428  1.00  0.00     0.050 A 
ATOM     13  C   UNL     1     -32.583  95.495   7.572  1.00  0.00     0.050 A 
ATOM     14  C   UNL     1     -34.706  93.757   7.004  1.00  0.00     0.119 A 
ATOM     15  C   UNL     1     -32.322  94.185   7.149  1.00  0.00     0.119 A 
ATOM     16  C   UNL     1     -33.385  93.319   6.869  1.00  0.00     0.092 A 
BRANCH  14  17
ATOM     17  O   UNL     1     -35.753  92.885   6.714  1.00  0.00    -0.508 OA
ATOM     18  H   UNL     1     -35.743  91.923   7.031  1.00  0.00     0.293 HD
ENDBRANCH  14  17
BRANCH  15  19
ATOM     19  O   UNL     1     -31.013  93.734   7.000  1.00  0.00    -0.508 OA
ATOM     20  H   UNL     1     -30.268  94.358   6.712  1.00  0.00     0.293 HD
ENDBRANCH  15  19
ENDBRANCH  10  11
ENDBRANCH   1  10
TORSDOF 6
ENDMDL
MODEL 3
REMARK VINA RESULT:    -6.262      2.067      7.186
REMARK INTER + INTRA:          -8.421
REMARK INTER:                  -7.941
REMARK INTRA:                  -0.479
REMARK UNBOUND:                -0.511
REMARK SMILES Oc1ccc(CCc2cc(O)cc(O)c2)cc1
REMARK SMILES IDX 6 1 5 2 4 3 3 4 2 5 16 6 17 7 1 8 7 10 8 11 15 12 9 13 13 14
REMARK SMILES IDX 10 15 12 16 14 17 11 19
REMARK H PARENT 1 9 14 18 11 20
REMARK Flexibility Score: inf
ROOT
ATOM      1  C   UNL     1     -32.415  95.292   7.428  1.00  0.00     0.040 C 
ENDROOT
BRANCH   1   2
ATOM      2  C   UNL     1     -33.211  94.056   7.108  1.00  0.00    -0.047 A 
ATOM      3  C   UNL     1     -32.562  92.884   6.686  1.00  0.00     0.007 A 
ATOM      4  C   UNL     1     -33.299  91.726   6.422  1.00  0.00     0.046 A 
ATOM      5  C   UNL     1     -34.688  91.723   6.585  1.00  0.00     0.115 A 
ATOM      6  C   UNL     1     -34.605  94.045   7.284  1.00  0.00     0.007 A 
ATOM      7  C   UNL     1     -35.340  92.886   7.019  1.00  0.00     0.046 A 
BRANCH   5   8
ATOM      8  O   UNL     1     -35.410  90.563   6.317  1.00  0.00    -0.508 OA
ATOM      9  H   UNL     1     -34.948  89.675   6.160  1.00  0.00     0.293 HD
ENDBRANCH   5   8
ENDBRANCH   1   2
BRANCH   1  10
ATOM     10  C   UNL     1     -33.087  96.090   8.548  1.00  0.00     0.040 C 
BRANCH  10  11
ATOM     11  C   UNL     1     -33.009  97.567   8.266  1.00  0.00    -0.040 A 
ATOM     12  C   UNL     1     -33.438  98.076   7.030  1.00  0.00     0.050 A 
ATOM     13  C   UNL     1     -32.561  98.455   9.259  1.00  0.00     0.050 A 
ATOM     14  C   UNL     1     -33.399  99.454   6.779  1.00  0.00     0.119 A 
ATOM     15  C   UNL     1     -32.520  99.833   9.009  1.00  0.00     0.119 A 
ATOM     16  C   UNL     1     -32.936 100.328   7.768  1.00  0.00     0.092 A 
BRANCH  14  17
ATOM     17  O   UNL     1     -33.816  99.965   5.552  1.00  0.00    -0.508 OA
ATOM     18  H   UNL     1     -34.558  99.525   5.020  1.00  0.00     0.293 HD
ENDBRANCH  14  17
BRANCH  15  19
ATOM     19  O   UNL     1     -32.072 100.719   9.986  1.00  0.00    -0.508 OA
ATOM     20  H   UNL     1     -31.104 101.019  10.023  1.00  0.00     0.293 HD
ENDBRANCH  15  19
ENDBRANCH  10  11
ENDBRANCH   1  10
TORSDOF 6
ENDMDL
MODEL 4
REMARK VINA RESULT:    -6.243      1.966      7.212
REMARK INTER + INTRA:          -8.397
REMARK INTER:                  -7.978
REMARK INTRA:                  -0.420
REMARK UNBOUND:                -0.511
REMARK SMILES Oc1ccc(CCc2cc(O)cc(O)c2)cc1
REMARK SMILES IDX 6 1 5 2 4 3 3 4 2 5 16 6 17 7 1 8 7 10 8 11 15 12 9 13 13 14
REMARK SMILES IDX 10 15 12 16 14 17 11 19
REMARK H PARENT 1 9 14 18 11 20
REMARK Flexibility Score: inf
ROOT
ATOM      1  C   UNL     1     -33.606  95.588   8.506  1.00  0.00     0.040 C 
ENDROOT
BRANCH   1   2
ATOM      2  C   UNL     1     -34.126  94.323   7.879  1.00  0.00    -0.047 A 
ATOM      3  C   UNL     1     -33.759  93.979   6.568  1.00  0.00     0.007 A 
ATOM      4  C   UNL     1     -34.216  92.787   5.998  1.00  0.00     0.046 A 
ATOM      5  C   UNL     1     -35.034  91.923   6.733  1.00  0.00     0.115 A 
ATOM      6  C   UNL     1     -34.938  93.447   8.619  1.00  0.00     0.007 A 
ATOM      7  C   UNL     1     -35.393  92.256   8.047  1.00  0.00     0.046 A 
BRANCH   5   8
ATOM      8  O   UNL     1     -35.483  90.739   6.153  1.00  0.00    -0.508 OA
ATOM      9  H   UNL     1     -36.381  90.684   5.687  1.00  0.00     0.293 HD
ENDBRANCH   5   8
ENDBRANCH   1   2
BRANCH   1  10
ATOM     10  C   UNL     1     -34.167  96.817   7.785  1.00  0.00     0.040 C 
BRANCH  10  11
ATOM     11  C   UNL     1     -33.166  97.941   7.798  1.00  0.00    -0.040 A 
ATOM     12  C   UNL     1     -33.080  98.799   8.907  1.00  0.00     0.050 A 
ATOM     13  C   UNL     1     -32.271  98.105   6.728  1.00  0.00     0.050 A 
ATOM     14  C   UNL     1     -32.125  99.825   8.935  1.00  0.00     0.119 A 
ATOM     15  C   UNL     1     -31.317  99.132   6.755  1.00  0.00     0.119 A 
ATOM     16  C   UNL     1     -31.250  99.990   7.858  1.00  0.00     0.092 A 
BRANCH  14  17
ATOM     17  O   UNL     1     -32.040 100.685  10.029  1.00  0.00    -0.508 OA
ATOM     18  H   UNL     1     -31.510 100.438  10.856  1.00  0.00     0.293 HD
ENDBRANCH  14  17
BRANCH  15  19
ATOM     19  O   UNL     1     -30.430  99.305   5.695  1.00  0.00    -0.508 OA
ATOM     20  H   UNL     1     -30.738  99.235   4.732  1.00  0.00     0.293 HD
ENDBRANCH  15  19
ENDBRANCH  10  11
ENDBRANCH   1  10
TORSDOF 6
ENDMDL
MODEL 5
REMARK VINA RESULT:    -6.196      1.583      2.533
REMARK INTER + INTRA:          -8.337
REMARK INTER:                  -7.878
REMARK INTRA:                  -0.459
REMARK UNBOUND:                -0.511
REMARK SMILES Oc1ccc(CCc2cc(O)cc(O)c2)cc1
REMARK SMILES IDX 6 1 5 2 4 3 3 4 2 5 16 6 17 7 1 8 7 10 8 11 15 12 9 13 13 14
REMARK SMILES IDX 10 15 12 16 14 17 11 19
REMARK H PARENT 1 9 14 18 11 20
REMARK Flexibility Score: inf
ROOT
ATOM      1  C   UNL     1     -33.337  95.792   8.519  1.00  0.00     0.040 C 
ENDROOT
BRANCH   1   2
ATOM      2  C   UNL     1     -33.143  97.279   8.402  1.00  0.00    -0.047 A 
ATOM      3  C   UNL     1     -33.507  97.951   7.224  1.00  0.00     0.007 A 
ATOM      4  C   UNL     1     -33.358  99.338   7.128  1.00  0.00     0.046 A 
ATOM      5  C   UNL     1     -32.854 100.068   8.209  1.00  0.00     0.115 A 
ATOM      6  C   UNL     1     -32.649  98.018   9.491  1.00  0.00     0.007 A 
ATOM      7  C   UNL     1     -32.500  99.404   9.393  1.00  0.00     0.046 A 
BRANCH   5   8
ATOM      8  O   UNL     1     -32.709 101.449   8.100  1.00  0.00    -0.508 OA
ATOM      9  H   UNL     1     -33.418 102.085   8.446  1.00  0.00     0.293 HD
ENDBRANCH   5   8
ENDBRANCH   1   2
BRANCH   1  10
ATOM     10  C   UNL     1     -34.382  95.304   7.514  1.00  0.00     0.040 C 
BRANCH  10  11
ATOM     11  C   UNL     1     -34.026  93.935   7.001  1.00  0.00    -0.040 A 
ATOM     12  C   UNL     1     -32.700  93.634   6.648  1.00  0.00     0.050 A 
ATOM     13  C   UNL     1     -35.004  92.930   6.926  1.00  0.00     0.050 A 
ATOM     14  C   UNL     1     -32.360  92.349   6.203  1.00  0.00     0.119 A 
ATOM     15  C   UNL     1     -34.665  91.645   6.481  1.00  0.00     0.119 A 
ATOM     16  C   UNL     1     -33.345  91.360   6.118  1.00  0.00     0.092 A 
BRANCH  14  17
ATOM     17  O   UNL     1     -31.048  92.045   5.845  1.00  0.00    -0.508 OA
ATOM     18  H   UNL     1     -30.309  91.994   6.535  1.00  0.00     0.293 HD
ENDBRANCH  14  17
BRANCH  15  19
ATOM     19  O   UNL     1     -35.631  90.645   6.398  1.00  0.00    -0.508 OA
ATOM     20  H   UNL     1     -35.895  90.236   5.509  1.00  0.00     0.293 HD
ENDBRANCH  15  19
ENDBRANCH  10  11
ENDBRANCH   1  10
TORSDOF 6
ENDMDL
MODEL 6
REMARK VINA RESULT:    -6.077      1.750      7.046
REMARK INTER + INTRA:          -8.187
REMARK INTER:                  -7.662
REMARK INTRA:                  -0.525
REMARK UNBOUND:                -0.511
REMARK SMILES Oc1ccc(CCc2cc(O)cc(O)c2)cc1
REMARK SMILES IDX 6 1 5 2 4 3 3 4 2 5 16 6 17 7 1 8 7 10 8 11 15 12 9 13 13 14
REMARK SMILES IDX 10 15 12 16 14 17 11 19
REMARK H PARENT 1 9 14 18 11 20
REMARK Flexibility Score: inf
ROOT
ATOM      1  C   UNL     1     -33.380  98.354   8.401  1.00  0.00     0.040 C 
ENDROOT
BRANCH   1   2
ATOM      2  C   UNL     1     -33.464  96.918   7.962  1.00  0.00    -0.047 A 
ATOM      3  C   UNL     1     -32.293  96.176   7.735  1.00  0.00     0.007 A 
ATOM      4  C   UNL     1     -32.371  94.832   7.360  1.00  0.00     0.046 A 
ATOM      5  C   UNL     1     -33.616  94.212   7.217  1.00  0.00     0.115 A 
ATOM      6  C   UNL     1     -34.713  96.288   7.830  1.00  0.00     0.007 A 
ATOM      7  C   UNL     1     -34.789  94.944   7.455  1.00  0.00     0.046 A 
BRANCH   5   8
ATOM      8  O   UNL     1     -33.680  92.872   6.841  1.00  0.00    -0.508 OA
ATOM      9  H   UNL     1     -33.996  92.156   7.484  1.00  0.00     0.293 HD
ENDBRANCH   5   8
ENDBRANCH   1   2
BRANCH   1  10
ATOM     10  C   UNL     1     -32.687  99.204   7.334  1.00  0.00     0.040 C 
BRANCH  10  11
ATOM     11  C   UNL     1     -31.484  99.901   7.912  1.00  0.00    -0.040 A 
ATOM     12  C   UNL     1     -31.546 100.479   9.190  1.00  0.00     0.050 A 
ATOM     13  C   UNL     1     -30.272  99.927   7.201  1.00  0.00     0.050 A 
ATOM     14  C   UNL     1     -30.416 101.098   9.742  1.00  0.00     0.119 A 
ATOM     15  C   UNL     1     -29.142 100.547   7.753  1.00  0.00     0.119 A 
ATOM     16  C   UNL     1     -29.219 101.133   9.021  1.00  0.00     0.092 A 
BRANCH  14  17
ATOM     17  O   UNL     1     -30.474 101.681  11.007  1.00  0.00    -0.508 OA
ATOM     18  H   UNL     1     -29.942 101.310  11.785  1.00  0.00     0.293 HD
ENDBRANCH  14  17
BRANCH  15  19
ATOM     19  O   UNL     1     -27.939 100.583   7.052  1.00  0.00    -0.508 OA
ATOM     20  H   UNL     1     -27.590  99.769   6.558  1.00  0.00     0.293 HD
ENDBRANCH  15  19
ENDBRANCH  10  11
ENDBRANCH   1  10
TORSDOF 6
ENDMDL
MODEL 7
REMARK VINA RESULT:    -6.035     17.712     19.781
REMARK INTER + INTRA:          -8.135
REMARK INTER:                  -7.300
REMARK INTRA:                  -0.835
REMARK UNBOUND:                -0.511
REMARK SMILES Oc1ccc(CCc2cc(O)cc(O)c2)cc1
REMARK SMILES IDX 6 1 5 2 4 3 3 4 2 5 16 6 17 7 1 8 7 10 8 11 15 12 9 13 13 14
REMARK SMILES IDX 10 15 12 16 14 17 11 19
REMARK H PARENT 1 9 14 18 11 20
REMARK Flexibility Score: inf
ROOT
ATOM      1  C   UNL     1     -19.069  92.835  -7.004  1.00  0.00     0.040 C 
ENDROOT
BRANCH   1   2
ATOM      2  C   UNL     1     -20.520  93.119  -6.723  1.00  0.00    -0.047 A 
ATOM      3  C   UNL     1     -21.343  92.124  -6.171  1.00  0.00     0.007 A 
ATOM      4  C   UNL     1     -22.682  92.398  -5.879  1.00  0.00     0.046 A 
ATOM      5  C   UNL     1     -23.210  93.669  -6.126  1.00  0.00     0.115 A 
ATOM      6  C   UNL     1     -21.050  94.399  -6.957  1.00  0.00     0.007 A 
ATOM      7  C   UNL     1     -22.390  94.671  -6.665  1.00  0.00     0.046 A 
BRANCH   5   8
ATOM      8  O   UNL     1     -24.547  93.930  -5.831  1.00  0.00    -0.508 OA
ATOM      9  H   UNL     1     -25.295  93.378  -6.234  1.00  0.00     0.293 HD
ENDBRANCH   5   8
ENDBRANCH   1   2
BRANCH   1  10
ATOM     10  C   UNL     1     -18.342  92.428  -5.720  1.00  0.00     0.040 C 
BRANCH  10  11
ATOM     11  C   UNL     1     -18.178  93.611  -4.805  1.00  0.00    -0.040 A 
ATOM     12  C   UNL     1     -17.453  94.738  -5.227  1.00  0.00     0.050 A 
ATOM     13  C   UNL     1     -18.798  93.623  -3.545  1.00  0.00     0.050 A 
ATOM     14  C   UNL     1     -17.329  95.854  -4.389  1.00  0.00     0.119 A 
ATOM     15  C   UNL     1     -18.674  94.739  -2.706  1.00  0.00     0.119 A 
ATOM     16  C   UNL     1     -17.937  95.850  -3.130  1.00  0.00     0.092 A 
BRANCH  14  17
ATOM     17  O   UNL     1     -16.604  96.972  -4.798  1.00  0.00    -0.508 OA
ATOM     18  H   UNL     1     -16.284  97.074  -5.753  1.00  0.00     0.293 HD
ENDBRANCH  14  17
BRANCH  15  19
ATOM     19  O   UNL     1     -19.281  94.756  -1.452  1.00  0.00    -0.508 OA
ATOM     20  H   UNL     1     -19.504  93.898  -0.960  1.00  0.00     0.293 HD
ENDBRANCH  15  19
ENDBRANCH  10  11
ENDBRANCH   1  10
TORSDOF 6
ENDMDL
MODEL 8
REMARK VINA RESULT:    -6.029     17.702     19.873
REMARK INTER + INTRA:          -8.126
REMARK INTER:                  -7.378
REMARK INTRA:                  -0.749
REMARK UNBOUND:                -0.511
REMARK SMILES Oc1ccc(CCc2cc(O)cc(O)c2)cc1
REMARK SMILES IDX 6 1 5 2 4 3 3 4 2 5 16 6 17 7 1 8 7 10 8 11 15 12 9 13 13 14
REMARK SMILES IDX 10 15 12 16 14 17 11 19
REMARK H PARENT 1 9 14 18 11 20
REMARK Flexibility Score: inf
ROOT
ATOM      1  C   UNL     1     -19.283  92.953  -7.070  1.00  0.00     0.040 C 
ENDROOT
BRANCH   1   2
ATOM      2  C   UNL     1     -20.746  93.139  -6.774  1.00  0.00    -0.047 A 
ATOM      3  C   UNL     1     -21.453  94.214  -7.339  1.00  0.00     0.007 A 
ATOM      4  C   UNL     1     -22.820  94.367  -7.091  1.00  0.00     0.046 A 
ATOM      5  C   UNL     1     -23.497  93.445  -6.286  1.00  0.00     0.115 A 
ATOM      6  C   UNL     1     -21.433  92.208  -5.978  1.00  0.00     0.007 A 
ATOM      7  C   UNL     1     -22.800  92.363  -5.731  1.00  0.00     0.046 A 
BRANCH   5   8
ATOM      8  O   UNL     1     -24.859  93.610  -6.047  1.00  0.00    -0.508 OA
ATOM      9  H   UNL     1     -25.236  94.488  -5.709  1.00  0.00     0.293 HD
ENDBRANCH   5   8
ENDBRANCH   1   2
BRANCH   1  10
ATOM     10  C   UNL     1     -18.526  92.541  -5.805  1.00  0.00     0.040 C 
BRANCH  10  11
ATOM     11  C   UNL     1     -18.344  93.720  -4.888  1.00  0.00    -0.040 A 
ATOM     12  C   UNL     1     -18.893  93.703  -3.595  1.00  0.00     0.050 A 
ATOM     13  C   UNL     1     -17.575  94.822  -5.296  1.00  0.00     0.050 A 
ATOM     14  C   UNL     1     -18.695  94.787  -2.728  1.00  0.00     0.119 A 
ATOM     15  C   UNL     1     -17.378  95.907  -4.430  1.00  0.00     0.119 A 
ATOM     16  C   UNL     1     -17.941  95.886  -3.149  1.00  0.00     0.092 A 
BRANCH  14  17
ATOM     17  O   UNL     1     -19.243  94.780  -1.447  1.00  0.00    -0.508 OA
ATOM     18  H   UNL     1     -20.210  94.523  -1.286  1.00  0.00     0.293 HD
ENDBRANCH  14  17
BRANCH  15  19
ATOM     19  O   UNL     1     -16.622  97.006  -4.829  1.00  0.00    -0.508 OA
ATOM     20  H   UNL     1     -16.128  97.582  -4.157  1.00  0.00     0.293 HD
ENDBRANCH  15  19
ENDBRANCH  10  11
ENDBRANCH   1  10
TORSDOF 6
ENDMDL
MODEL 9
REMARK VINA RESULT:    -6.025      1.695      6.827
REMARK INTER + INTRA:          -8.122
REMARK INTER:                  -7.587
REMARK INTRA:                  -0.534
REMARK UNBOUND:                -0.511
REMARK SMILES Oc1ccc(CCc2cc(O)cc(O)c2)cc1
REMARK SMILES IDX 6 1 5 2 4 3 3 4 2 5 16 6 17 7 1 8 7 10 8 11 15 12 9 13 13 14
REMARK SMILES IDX 10 15 12 16 14 17 11 19
REMARK H PARENT 1 9 14 18 11 20
REMARK Flexibility Score: inf
ROOT
ATOM      1  C   UNL     1     -33.507  98.104   8.439  1.00  0.00     0.040 C 
ENDROOT
BRANCH   1   2
ATOM      2  C   UNL     1     -33.508  96.657   8.027  1.00  0.00    -0.047 A 
ATOM      3  C   UNL     1     -34.719  95.993   7.772  1.00  0.00     0.007 A 
ATOM      4  C   UNL     1     -34.717  94.658   7.357  1.00  0.00     0.046 A 
ATOM      5  C   UNL     1     -33.508  93.977   7.182  1.00  0.00     0.115 A 
ATOM      6  C   UNL     1     -32.295  95.973   7.837  1.00  0.00     0.007 A 
ATOM      7  C   UNL     1     -32.295  94.639   7.422  1.00  0.00     0.046 A 
BRANCH   5   8
ATOM      8  O   UNL     1     -33.520  92.647   6.768  1.00  0.00    -0.508 OA
ATOM      9  H   UNL     1     -34.341  92.064   6.882  1.00  0.00     0.293 HD
ENDBRANCH   5   8
ENDBRANCH   1   2
BRANCH   1  10
ATOM     10  C   UNL     1     -32.829  98.968   7.373  1.00  0.00     0.040 C 
BRANCH  10  11
ATOM     11  C   UNL     1     -31.633  99.678   7.949  1.00  0.00    -0.040 A 
ATOM     12  C   UNL     1     -30.464  99.829   7.185  1.00  0.00     0.050 A 
ATOM     13  C   UNL     1     -31.696 100.245   9.232  1.00  0.00     0.050 A 
ATOM     14  C   UNL     1     -29.362 100.520   7.707  1.00  0.00     0.119 A 
ATOM     15  C   UNL     1     -30.594 100.935   9.755  1.00  0.00     0.119 A 
ATOM     16  C   UNL     1     -29.429 101.068   8.992  1.00  0.00     0.092 A 
BRANCH  14  17
ATOM     17  O   UNL     1     -28.196 100.668   6.958  1.00  0.00    -0.508 OA
ATOM     18  H   UNL     1     -28.110 100.271   6.030  1.00  0.00     0.293 HD
ENDBRANCH  14  17
BRANCH  15  19
ATOM     19  O   UNL     1     -30.647 101.495  11.030  1.00  0.00    -0.508 OA
ATOM     20  H   UNL     1     -29.807 101.795  11.511  1.00  0.00     0.293 HD
ENDBRANCH  15  19
ENDBRANCH  10  11
ENDBRANCH   1  10
TORSDOF 6
ENDMDL
