MODEL 1
REMARK VINA RESULT:    -4.558      0.000      0.000
REMARK INTER + INTRA:          -7.172
REMARK INTER:                  -6.957
REMARK INTRA:                  -0.215
REMARK UNBOUND:                -0.215
REMARK SMILES CC1=CCC[C@H](C)C(=O)C[C@@H](C(C)C)C(=O)C1
REMARK SMILES IDX 8 1 9 2 6 3 7 4 5 5 4 6 3 7 2 8 1 9 10 11 11 12 15 13 16 14
REMARK SMILES IDX 17 15 12 17 13 18 14 19
REMARK H PARENT
REMARK Flexibility Score: 70.00
ROOT
ATOM      1  C   UNL     1       7.466  -2.434  49.985  1.00  0.00     0.136 C 
ATOM      2  O   UNL     1       7.288  -1.815  51.023  1.00  0.00    -0.299 OA
ENDROOT
BRANCH   1   3
ATOM      3  C   UNL     1       8.684  -2.061  49.145  1.00  0.00     0.053 C 
ATOM      4  C   UNL     1       9.903  -2.983  49.286  1.00  0.00     0.016 C 
BRANCH   3   5
ATOM      5  C   UNL     1       8.321  -1.799  47.664  1.00  0.00     0.015 C 
BRANCH   5   6
ATOM      6  C   UNL     1       7.126  -0.860  47.423  1.00  0.00     0.028 C 
BRANCH   6   7
ATOM      7  C   UNL     1       6.294  -1.236  46.220  1.00  0.00    -0.028 C 
ATOM      8  C   UNL     1       5.259  -2.116  46.130  1.00  0.00    -0.070 CG0
ATOM      9  C   UNL     1       4.601  -2.230  44.774  1.00  0.00     0.039 C 
ATOM     10  G   UNL     1       4.800  -3.121  47.186  1.00  0.00     0.000 G0
ENDBRANCH   6   7
ENDBRANCH   5   6
ENDBRANCH   3   5
ENDBRANCH   1   3
BRANCH   1  11
ATOM     11  C   UNL     1       6.550  -3.607  49.691  1.00  0.00     0.087 C 
BRANCH  11  12
ATOM     12  C   UNL     1       6.819  -4.379  48.361  1.00  0.00     0.066 C 
BRANCH  12  13
ATOM     13  C   UNL     1       5.654  -4.361  47.367  1.00  0.00     0.140 C 
ATOM     14  O   UNL     1       5.493  -5.285  46.583  1.00  0.00    -0.299 OA
BRANCH  13  15
ATOM     15  C   UNL     1       4.812  -3.129  47.180  1.00  0.00     0.106 CG0
ATOM     16  G   UNL     1       5.260  -2.123  46.120  1.00  0.00     0.000 G0
ENDBRANCH  13  15
ENDBRANCH  12  13
BRANCH  12  17
ATOM     17  C   UNL     1       7.511  -5.773  48.587  1.00  0.00    -0.006 C 
ATOM     18  C   UNL     1       7.585  -6.119  50.084  1.00  0.00     0.008 C 
ATOM     19  C   UNL     1       8.909  -5.938  47.954  1.00  0.00     0.008 C 
ENDBRANCH  12  17
ENDBRANCH  11  12
ENDBRANCH   1  11
TORSDOF 1
ENDMDL
MODEL 2
REMARK VINA RESULT:    -4.399      1.780      3.228
REMARK INTER + INTRA:          -6.929
REMARK INTER:                  -6.660
REMARK INTRA:                  -0.269
REMARK UNBOUND:                -0.215
REMARK SMILES CC1=CCC[C@H](C)C(=O)C[C@@H](C(C)C)C(=O)C1
REMARK SMILES IDX 8 1 9 2 6 3 7 4 5 5 4 6 3 7 2 8 1 9 10 11 11 12 15 13 16 14
REMARK SMILES IDX 17 15 12 17 13 18 14 19
REMARK H PARENT
REMARK Flexibility Score: 70.00
ROOT
ATOM      1  C   UNL     1       5.768  -3.865  50.183  1.00  0.00     0.136 C 
ATOM      2  O   UNL     1       6.112  -4.026  51.345  1.00  0.00    -0.299 OA
ENDROOT
BRANCH   1   3
ATOM      3  C   UNL     1       5.087  -5.037  49.483  1.00  0.00     0.053 C 
ATOM      4  C   UNL     1       4.188  -5.914  50.365  1.00  0.00     0.016 C 
BRANCH   3   5
ATOM      5  C   UNL     1       4.382  -4.613  48.173  1.00  0.00     0.015 C 
BRANCH   5   6
ATOM      6  C   UNL     1       5.136  -4.934  46.871  1.00  0.00     0.028 C 
BRANCH   6   7
ATOM      7  C   UNL     1       4.820  -3.986  45.739  1.00  0.00    -0.028 C 
ATOM      8  C   UNL     1       5.048  -2.646  45.648  1.00  0.00    -0.070 CG0
ATOM      9  C   UNL     1       4.649  -1.992  44.346  1.00  0.00     0.039 C 
ATOM     10  G   UNL     1       5.497  -1.703  46.764  1.00  0.00     0.000 G0
ENDBRANCH   6   7
ENDBRANCH   5   6
ENDBRANCH   3   5
ENDBRANCH   1   3
BRANCH   1  11
ATOM     11  C   UNL     1       5.917  -2.479  49.584  1.00  0.00     0.087 C 
BRANCH  11  12
ATOM     12  C   UNL     1       7.194  -2.231  48.723  1.00  0.00     0.066 C 
BRANCH  12  13
ATOM     13  C   UNL     1       6.918  -1.849  47.266  1.00  0.00     0.140 C 
ATOM     14  O   UNL     1       7.829  -1.492  46.534  1.00  0.00    -0.299 OA
BRANCH  13  15
ATOM     15  C   UNL     1       5.510  -1.696  46.758  1.00  0.00     0.106 CG0
ATOM     16  G   UNL     1       5.060  -2.633  45.637  1.00  0.00     0.000 G0
ENDBRANCH  13  15
ENDBRANCH  12  13
BRANCH  12  17
ATOM     17  C   UNL     1       8.311  -3.316  48.950  1.00  0.00    -0.006 C 
ATOM     18  C   UNL     1       9.702  -2.667  49.043  1.00  0.00     0.008 C 
ATOM     19  C   UNL     1       8.350  -4.464  47.920  1.00  0.00     0.008 C 
ENDBRANCH  12  17
ENDBRANCH  11  12
ENDBRANCH   1  11
TORSDOF 1
ENDMDL
MODEL 3
REMARK VINA RESULT:    -4.117      1.955      3.075
REMARK INTER + INTRA:          -6.498
REMARK INTER:                  -6.831
REMARK INTRA:                   0.333
REMARK UNBOUND:                -0.215
REMARK SMILES CC1=CCC[C@H](C)C(=O)C[C@@H](C(C)C)C(=O)C1
REMARK SMILES IDX 8 1 9 2 6 3 7 4 5 5 4 6 3 7 2 8 1 9 10 11 11 12 15 13 16 14
REMARK SMILES IDX 17 15 12 17 13 18 14 19
REMARK H PARENT
REMARK Flexibility Score: 70.00
ROOT
ATOM      1  C   UNL     1       7.101  -5.272  49.969  1.00  0.00     0.136 C 
ATOM      2  O   UNL     1       7.116  -6.117  50.851  1.00  0.00    -0.299 OA
ENDROOT
BRANCH   1   3
ATOM      3  C   UNL     1       8.286  -5.237  49.007  1.00  0.00     0.053 C 
ATOM      4  C   UNL     1       8.016  -5.769  47.593  1.00  0.00     0.016 C 
BRANCH   3   5
ATOM      5  C   UNL     1       8.989  -3.859  48.987  1.00  0.00     0.015 C 
BRANCH   5   6
ATOM      6  C   UNL     1       8.155  -2.674  49.503  1.00  0.00     0.028 C 
BRANCH   6   7
ATOM      7  C   UNL     1       7.885  -1.623  48.453  1.00  0.00    -0.028 C 
ATOM      8  C   UNL     1       6.707  -1.281  47.860  1.00  0.00    -0.070 CG0
ATOM      9  C   UNL     1       6.769  -0.141  46.870  1.00  0.00     0.039 C 
ATOM     10  G   UNL     1       5.373  -2.022  47.949  1.00  0.00     0.000 G0
ENDBRANCH   6   7
ENDBRANCH   5   6
ENDBRANCH   3   5
ENDBRANCH   1   3
BRANCH   1  11
ATOM     11  C   UNL     1       5.850  -4.426  49.817  1.00  0.00     0.087 C 
BRANCH  11  12
ATOM     12  C   UNL     1       5.068  -4.583  48.476  1.00  0.00     0.066 C 
BRANCH  12  13
ATOM     13  C   UNL     1       5.284  -3.446  47.473  1.00  0.00     0.140 C 
ATOM     14  O   UNL     1       5.584  -3.688  46.314  1.00  0.00    -0.299 OA
BRANCH  13  15
ATOM     15  C   UNL     1       5.343  -2.013  47.927  1.00  0.00     0.106 CG0
ATOM     16  G   UNL     1       6.693  -1.301  47.840  1.00  0.00     0.000 G0
ENDBRANCH  13  15
ENDBRANCH  12  13
BRANCH  12  17
ATOM     17  C   UNL     1       3.578  -5.045  48.682  1.00  0.00    -0.006 C 
ATOM     18  C   UNL     1       3.339  -5.516  50.126  1.00  0.00     0.008 C 
ATOM     19  C   UNL     1       3.069  -6.124  47.702  1.00  0.00     0.008 C 
ENDBRANCH  12  17
ENDBRANCH  11  12
ENDBRANCH   1  11
TORSDOF 1
ENDMDL
MODEL 4
REMARK VINA RESULT:    -3.960      1.773      2.331
REMARK INTER + INTRA:          -6.259
REMARK INTER:                  -6.578
REMARK INTRA:                   0.319
REMARK UNBOUND:                -0.215
REMARK SMILES CC1=CCC[C@H](C)C(=O)C[C@@H](C(C)C)C(=O)C1
REMARK SMILES IDX 8 1 9 2 6 3 7 4 5 5 4 6 3 7 2 8 1 9 10 11 11 12 15 13 16 14
REMARK SMILES IDX 17 15 12 17 13 18 14 19
REMARK H PARENT
REMARK Flexibility Score: 70.00
ROOT
ATOM      1  C   UNL     1       7.976  -4.243  48.833  1.00  0.00     0.136 C 
ATOM      2  O   UNL     1       8.616  -5.117  48.268  1.00  0.00    -0.299 OA
ENDROOT
BRANCH   1   3
ATOM      3  C   UNL     1       8.519  -2.818  48.765  1.00  0.00     0.053 C 
ATOM      4  C   UNL     1      10.014  -2.656  49.070  1.00  0.00     0.016 C 
BRANCH   3   5
ATOM      5  C   UNL     1       8.108  -2.092  47.463  1.00  0.00     0.015 C 
BRANCH   5   6
ATOM      6  C   UNL     1       6.812  -1.266  47.536  1.00  0.00     0.028 C 
BRANCH   6   7
ATOM      7  C   UNL     1       6.031  -1.249  46.244  1.00  0.00    -0.028 C 
ATOM      8  C   UNL     1       5.215  -2.204  45.719  1.00  0.00    -0.070 CG0
ATOM      9  C   UNL     1       4.538  -1.854  44.414  1.00  0.00     0.039 C 
ATOM     10  G   UNL     1       5.038  -3.643  46.202  1.00  0.00     0.000 G0
ENDBRANCH   6   7
ENDBRANCH   5   6
ENDBRANCH   3   5
ENDBRANCH   1   3
BRANCH   1  11
ATOM     11  C   UNL     1       6.633  -4.619  49.431  1.00  0.00     0.087 C 
BRANCH  11  12
ATOM     12  C   UNL     1       5.515  -5.025  48.420  1.00  0.00     0.066 C 
BRANCH  12  13
ATOM     13  C   UNL     1       4.851  -3.849  47.697  1.00  0.00     0.140 C 
ATOM     14  O   UNL     1       4.024  -3.155  48.269  1.00  0.00    -0.299 OA
BRANCH  13  15
ATOM     15  C   UNL     1       5.034  -3.646  46.217  1.00  0.00     0.106 CG0
ATOM     16  G   UNL     1       5.203  -2.211  45.719  1.00  0.00     0.000 G0
ENDBRANCH  13  15
ENDBRANCH  12  13
BRANCH  12  17
ATOM     17  C   UNL     1       4.542  -6.124  48.985  1.00  0.00    -0.006 C 
ATOM     18  C   UNL     1       3.203  -6.121  48.229  1.00  0.00     0.008 C 
ATOM     19  C   UNL     1       4.272  -6.063  50.504  1.00  0.00     0.008 C 
ENDBRANCH  12  17
ENDBRANCH  11  12
ENDBRANCH   1  11
TORSDOF 1
ENDMDL
MODEL 5
REMARK VINA RESULT:    -3.927      2.294      3.613
REMARK INTER + INTRA:          -6.208
REMARK INTER:                  -5.998
REMARK INTRA:                  -0.210
REMARK UNBOUND:                -0.215
REMARK SMILES CC1=CCC[C@H](C)C(=O)C[C@@H](C(C)C)C(=O)C1
REMARK SMILES IDX 8 1 9 2 6 3 7 4 5 5 4 6 3 7 2 8 1 9 10 11 11 12 15 13 16 14
REMARK SMILES IDX 17 15 12 17 13 18 14 19
REMARK H PARENT
REMARK Flexibility Score: 70.00
ROOT
ATOM      1  C   UNL     1       8.496  -5.239  48.151  1.00  0.00     0.136 C 
ATOM      2  O   UNL     1       9.380  -5.757  47.486  1.00  0.00    -0.299 OA
ENDROOT
BRANCH   1   3
ATOM      3  C   UNL     1       8.639  -3.754  48.476  1.00  0.00     0.053 C 
ATOM      4  C   UNL     1       9.998  -3.321  49.043  1.00  0.00     0.016 C 
BRANCH   3   5
ATOM      5  C   UNL     1       8.180  -2.848  47.309  1.00  0.00     0.015 C 
BRANCH   5   6
ATOM      6  C   UNL     1       6.938  -1.983  47.582  1.00  0.00     0.028 C 
BRANCH   6   7
ATOM      7  C   UNL     1       6.789  -1.577  49.029  1.00  0.00    -0.028 C 
ATOM      8  C   UNL     1       6.054  -2.161  50.016  1.00  0.00    -0.070 CG0
ATOM      9  C   UNL     1       6.159  -1.527  51.384  1.00  0.00     0.039 C 
ATOM     10  G   UNL     1       5.011  -3.267  49.865  1.00  0.00     0.000 G0
ENDBRANCH   6   7
ENDBRANCH   5   6
ENDBRANCH   3   5
ENDBRANCH   1   3
BRANCH   1  11
ATOM     11  C   UNL     1       7.270  -6.071  48.476  1.00  0.00     0.087 C 
BRANCH  11  12
ATOM     12  C   UNL     1       5.901  -5.322  48.461  1.00  0.00     0.066 C 
BRANCH  12  13
ATOM     13  C   UNL     1       5.506  -4.687  49.797  1.00  0.00     0.140 C 
ATOM     14  O   UNL     1       5.416  -5.369  50.807  1.00  0.00    -0.299 OA
BRANCH  13  15
ATOM     15  C   UNL     1       5.015  -3.266  49.866  1.00  0.00     0.106 CG0
ATOM     16  G   UNL     1       6.065  -2.165  50.011  1.00  0.00     0.000 G0
ENDBRANCH  13  15
ENDBRANCH  12  13
BRANCH  12  17
ATOM     17  C   UNL     1       4.769  -6.122  47.718  1.00  0.00    -0.006 C 
ATOM     18  C   UNL     1       4.731  -5.768  46.222  1.00  0.00     0.008 C 
ATOM     19  C   UNL     1       3.351  -5.986  48.312  1.00  0.00     0.008 C 
ENDBRANCH  12  17
ENDBRANCH  11  12
ENDBRANCH   1  11
TORSDOF 1
ENDMDL
MODEL 6
REMARK VINA RESULT:    -3.664     11.140     13.547
REMARK INTER + INTRA:          -5.806
REMARK INTER:                  -5.534
REMARK INTRA:                  -0.272
REMARK UNBOUND:                -0.215
REMARK SMILES CC1=CCC[C@H](C)C(=O)C[C@@H](C(C)C)C(=O)C1
REMARK SMILES IDX 8 1 9 2 6 3 7 4 5 5 4 6 3 7 2 8 1 9 10 11 11 12 15 13 16 14
REMARK SMILES IDX 17 15 12 17 13 18 14 19
REMARK H PARENT
REMARK Flexibility Score: 70.00
ROOT
ATOM      1  C   UNL     1       9.081   8.613  48.510  1.00  0.00     0.136 C 
ATOM      2  O   UNL     1       9.934   8.945  49.320  1.00  0.00    -0.299 OA
ENDROOT
BRANCH   1   3
ATOM      3  C   UNL     1       9.315   7.321  47.732  1.00  0.00     0.053 C 
ATOM      4  C   UNL     1       9.440   6.045  48.576  1.00  0.00     0.016 C 
BRANCH   3   5
ATOM      5  C   UNL     1       8.318   7.150  46.561  1.00  0.00     0.015 C 
BRANCH   5   6
ATOM      6  C   UNL     1       8.876   7.445  45.158  1.00  0.00     0.028 C 
BRANCH   6   7
ATOM      7  C   UNL     1      10.207   8.158  45.174  1.00  0.00    -0.028 C 
ATOM      8  C   UNL     1      10.472   9.483  45.337  1.00  0.00    -0.070 CG0
ATOM      9  C   UNL     1      11.932   9.871  45.349  1.00  0.00     0.039 C 
ATOM     10  G   UNL     1       9.470  10.637  45.337  1.00  0.00     0.000 G0
ENDBRANCH   6   7
ENDBRANCH   5   6
ENDBRANCH   3   5
ENDBRANCH   1   3
BRANCH   1  11
ATOM     11  C   UNL     1       7.805   9.431  48.447  1.00  0.00     0.087 C 
BRANCH  11  12
ATOM     12  C   UNL     1       7.598  10.293  47.162  1.00  0.00     0.066 C 
BRANCH  12  13
ATOM     13  C   UNL     1       8.858  11.004  46.660  1.00  0.00     0.140 C 
ATOM     14  O   UNL     1       9.281  11.996  47.233  1.00  0.00    -0.299 OA
BRANCH  13  15
ATOM     15  C   UNL     1       9.482  10.636  45.341  1.00  0.00     0.106 CG0
ATOM     16  G   UNL     1      10.471   9.472  45.330  1.00  0.00     0.000 G0
ENDBRANCH  13  15
ENDBRANCH  12  13
BRANCH  12  17
ATOM     17  C   UNL     1       6.288  11.163  47.208  1.00  0.00    -0.006 C 
ATOM     18  C   UNL     1       5.811  11.370  48.655  1.00  0.00     0.008 C 
ATOM     19  C   UNL     1       5.112  10.650  46.350  1.00  0.00     0.008 C 
ENDBRANCH  12  17
ENDBRANCH  11  12
ENDBRANCH   1  11
TORSDOF 1
ENDMDL
MODEL 7
REMARK VINA RESULT:    -3.486      1.769      2.973
REMARK INTER + INTRA:          -5.535
REMARK INTER:                  -5.416
REMARK INTRA:                  -0.118
REMARK UNBOUND:                -0.215
REMARK SMILES CC1=CCC[C@H](C)C(=O)C[C@@H](C(C)C)C(=O)C1
REMARK SMILES IDX 8 1 9 2 6 3 7 4 5 5 4 6 3 7 2 8 1 9 10 11 11 12 15 13 16 14
REMARK SMILES IDX 17 15 12 17 13 18 14 19
REMARK H PARENT
REMARK Flexibility Score: 70.00
ROOT
ATOM      1  C   UNL     1       6.616  -4.425  50.060  1.00  0.00     0.136 C 
ATOM      2  O   UNL     1       7.399  -5.214  50.566  1.00  0.00    -0.299 OA
ENDROOT
BRANCH   1   3
ATOM      3  C   UNL     1       7.024  -2.954  50.027  1.00  0.00     0.053 C 
ATOM      4  C   UNL     1       6.684  -2.137  51.281  1.00  0.00     0.016 C 
BRANCH   3   5
ATOM      5  C   UNL     1       8.493  -2.759  49.585  1.00  0.00     0.015 C 
BRANCH   5   6
ATOM      6  C   UNL     1       8.722  -2.600  48.072  1.00  0.00     0.028 C 
BRANCH   6   7
ATOM      7  C   UNL     1       7.963  -1.444  47.463  1.00  0.00    -0.028 C 
ATOM      8  C   UNL     1       6.757  -1.444  46.831  1.00  0.00    -0.070 CG0
ATOM      9  C   UNL     1       6.249  -0.097  46.373  1.00  0.00     0.039 C 
ATOM     10  G   UNL     1       5.945  -2.658  46.381  1.00  0.00     0.000 G0
ENDBRANCH   6   7
ENDBRANCH   5   6
ENDBRANCH   3   5
ENDBRANCH   1   3
BRANCH   1  11
ATOM     11  C   UNL     1       5.378  -4.985  49.385  1.00  0.00     0.087 C 
BRANCH  11  12
ATOM     12  C   UNL     1       5.270  -4.765  47.844  1.00  0.00     0.066 C 
BRANCH  12  13
ATOM     13  C   UNL     1       5.047  -3.310  47.421  1.00  0.00     0.140 C 
ATOM     14  O   UNL     1       4.049  -2.704  47.782  1.00  0.00    -0.299 OA
BRANCH  13  15
ATOM     15  C   UNL     1       5.929  -2.658  46.390  1.00  0.00     0.106 CG0
ATOM     16  G   UNL     1       6.756  -1.451  46.832  1.00  0.00     0.000 G0
ENDBRANCH  13  15
ENDBRANCH  12  13
BRANCH  12  17
ATOM     17  C   UNL     1       4.365  -5.835  47.131  1.00  0.00    -0.006 C 
ATOM     18  C   UNL     1       4.377  -5.643  45.605  1.00  0.00     0.008 C 
ATOM     19  C   UNL     1       2.904  -5.914  47.624  1.00  0.00     0.008 C 
ENDBRANCH  12  17
ENDBRANCH  11  12
ENDBRANCH   1  11
TORSDOF 1
ENDMDL
MODEL 8
REMARK VINA RESULT:    -3.454      9.154     10.777
REMARK INTER + INTRA:          -5.487
REMARK INTER:                  -5.129
REMARK INTRA:                  -0.358
REMARK UNBOUND:                -0.215
REMARK SMILES CC1=CCC[C@H](C)C(=O)C[C@@H](C(C)C)C(=O)C1
REMARK SMILES IDX 8 1 9 2 6 3 7 4 5 5 4 6 3 7 2 8 1 9 10 11 11 12 15 13 16 14
REMARK SMILES IDX 17 15 12 17 13 18 14 19
REMARK H PARENT
REMARK Flexibility Score: 70.00
ROOT
ATOM      1  C   UNL     1      10.563   4.387  55.217  1.00  0.00     0.136 C 
ATOM      2  O   UNL     1       9.980   3.426  55.695  1.00  0.00    -0.299 OA
ENDROOT
BRANCH   1   3
ATOM      3  C   UNL     1      11.990   4.651  55.690  1.00  0.00     0.053 C 
ATOM      4  C   UNL     1      12.828   3.407  56.017  1.00  0.00     0.016 C 
BRANCH   3   5
ATOM      5  C   UNL     1      12.745   5.636  54.767  1.00  0.00     0.015 C 
BRANCH   5   6
ATOM      6  C   UNL     1      13.413   5.014  53.528  1.00  0.00     0.028 C 
BRANCH   6   7
ATOM      7  C   UNL     1      13.189   5.803  52.260  1.00  0.00    -0.028 C 
ATOM      8  C   UNL     1      12.238   5.637  51.300  1.00  0.00    -0.070 CG0
ATOM      9  C   UNL     1      12.259   6.635  50.166  1.00  0.00     0.039 C 
ATOM     10  G   UNL     1      11.268   4.466  51.147  1.00  0.00     0.000 G0
ENDBRANCH   6   7
ENDBRANCH   5   6
ENDBRANCH   3   5
ENDBRANCH   1   3
BRANCH   1  11
ATOM     11  C   UNL     1       9.878   5.150  54.099  1.00  0.00     0.087 C 
BRANCH  11  12
ATOM     12  C   UNL     1       9.319   4.295  52.919  1.00  0.00     0.066 C 
BRANCH  12  13
ATOM     13  C   UNL     1       9.834   4.703  51.536  1.00  0.00     0.140 C 
ATOM     14  O   UNL     1       9.057   5.071  50.668  1.00  0.00    -0.299 OA
BRANCH  13  15
ATOM     15  C   UNL     1      11.265   4.463  51.139  1.00  0.00     0.106 CG0
ATOM     16  G   UNL     1      12.246   5.624  51.304  1.00  0.00     0.000 G0
ENDBRANCH  13  15
ENDBRANCH  12  13
BRANCH  12  17
ATOM     17  C   UNL     1       7.772   4.031  53.028  1.00  0.00    -0.006 C 
ATOM     18  C   UNL     1       7.029   5.285  53.519  1.00  0.00     0.008 C 
ATOM     19  C   UNL     1       7.358   2.821  53.892  1.00  0.00     0.008 C 
ENDBRANCH  12  17
ENDBRANCH  11  12
ENDBRANCH   1  11
TORSDOF 1
ENDMDL
MODEL 9
REMARK VINA RESULT:    -3.421      9.206     10.335
REMARK INTER + INTRA:          -5.437
REMARK INTER:                  -5.097
REMARK INTRA:                  -0.340
REMARK UNBOUND:                -0.215
REMARK SMILES CC1=CCC[C@H](C)C(=O)C[C@@H](C(C)C)C(=O)C1
REMARK SMILES IDX 8 1 9 2 6 3 7 4 5 5 4 6 3 7 2 8 1 9 10 11 11 12 15 13 16 14
REMARK SMILES IDX 17 15 12 17 13 18 14 19
REMARK H PARENT
REMARK Flexibility Score: 70.00
ROOT
ATOM      1  C   UNL     1       8.290   3.662  53.767  1.00  0.00     0.136 C 
ATOM      2  O   UNL     1       7.744   3.480  54.845  1.00  0.00    -0.299 OA
ENDROOT
BRANCH   1   3
ATOM      3  C   UNL     1       7.648   4.667  52.815  1.00  0.00     0.053 C 
ATOM      4  C   UNL     1       6.148   4.478  52.553  1.00  0.00     0.016 C 
BRANCH   3   5
ATOM      5  C   UNL     1       7.995   6.130  53.180  1.00  0.00     0.015 C 
BRANCH   5   6
ATOM      6  C   UNL     1       9.356   6.642  52.676  1.00  0.00     0.028 C 
BRANCH   6   7
ATOM      7  C   UNL     1       9.650   6.265  51.243  1.00  0.00    -0.028 C 
ATOM      8  C   UNL     1      10.680   5.527  50.742  1.00  0.00    -0.070 CG0
ATOM      9  C   UNL     1      10.660   5.291  49.249  1.00  0.00     0.039 C 
ATOM     10  G   UNL     1      11.934   5.061  51.480  1.00  0.00     0.000 G0
ENDBRANCH   6   7
ENDBRANCH   5   6
ENDBRANCH   3   5
ENDBRANCH   1   3
BRANCH   1  11
ATOM     11  C   UNL     1       9.626   2.986  53.524  1.00  0.00     0.087 C 
BRANCH  11  12
ATOM     12  C   UNL     1      10.889   3.899  53.606  1.00  0.00     0.066 C 
BRANCH  12  13
ATOM     13  C   UNL     1      11.790   3.854  52.368  1.00  0.00     0.140 C 
ATOM     14  O   UNL     1      12.541   2.909  52.181  1.00  0.00    -0.299 OA
BRANCH  13  15
ATOM     15  C   UNL     1      11.933   5.053  51.470  1.00  0.00     0.106 CG0
ATOM     16  G   UNL     1      10.683   5.537  50.737  1.00  0.00     0.000 G0
ENDBRANCH  13  15
ENDBRANCH  12  13
BRANCH  12  17
ATOM     17  C   UNL     1      11.622   3.814  54.995  1.00  0.00    -0.006 C 
ATOM     18  C   UNL     1      11.439   2.427  55.634  1.00  0.00     0.008 C 
ATOM     19  C   UNL     1      11.244   4.904  56.021  1.00  0.00     0.008 C 
ENDBRANCH  12  17
ENDBRANCH  11  12
ENDBRANCH   1  11
TORSDOF 1
ENDMDL
