MODEL 1
REMARK VINA RESULT:    -4.243      0.000      0.000
REMARK INTER + INTRA:          -7.814
REMARK INTER:                  -6.475
REMARK INTRA:                  -1.339
REMARK UNBOUND:                -1.339
REMARK SMILES CCCCCCCCCCC(=O)[O-]
REMARK SMILES IDX 7 1 8 2 9 3 10 4 11 5 12 6 13 7 6 8 5 9 4 10 3 11 2 12 1 13
REMARK H PARENT
REMARK Flexibility Score: inf
ROOT
ATOM      1  C   UNL     1      63.314  29.703  12.470  1.00  0.00     0.000 C 
ENDROOT
BRANCH   1   2
ATOM      2  C   UNL     1      62.188  28.970  13.221  1.00  0.00     0.000 C 
BRANCH   2   3
ATOM      3  C   UNL     1      60.836  28.920  12.486  1.00  0.00     0.006 C 
BRANCH   3   4
ATOM      4  C   UNL     1      60.702  30.000  11.405  1.00  0.00     0.053 C 
BRANCH   4   5
ATOM      5  C   UNL     1      60.626  29.374  10.049  1.00  0.00     0.041 C 
ATOM      6  O   UNL     1      59.969  29.930   9.130  1.00  0.00    -0.550 OA
ATOM      7  O   UNL     1      61.239  28.150   9.812  1.00  0.00    -0.550 OA
ENDBRANCH   4   5
ENDBRANCH   3   4
ENDBRANCH   2   3
ENDBRANCH   1   2
BRANCH   1   8
ATOM      8  C   UNL     1      63.887  30.893  13.259  1.00  0.00     0.000 C 
BRANCH   8   9
ATOM      9  C   UNL     1      63.374  32.246  12.742  1.00  0.00    -0.000 C 
BRANCH   9  10
ATOM     10  C   UNL     1      62.552  33.011  13.791  1.00  0.00    -0.000 C 
BRANCH  10  11
ATOM     11  C   UNL     1      61.058  32.993  13.435  1.00  0.00    -0.000 C 
BRANCH  11  12
ATOM     12  C   UNL     1      60.204  32.297  14.505  1.00  0.00    -0.003 C 
ATOM     13  C   UNL     1      61.046  31.652  15.607  1.00  0.00     0.004 C 
ENDBRANCH  11  12
ENDBRANCH  10  11
ENDBRANCH   9  10
ENDBRANCH   8   9
ENDBRANCH   1   8
TORSDOF 9
ENDMDL
MODEL 2
REMARK VINA RESULT:    -4.172     12.619     14.182
REMARK INTER + INTRA:          -7.706
REMARK INTER:                  -6.350
REMARK INTRA:                  -1.357
REMARK UNBOUND:                -1.339
REMARK SMILES CCCCCCCCCCC(=O)[O-]
REMARK SMILES IDX 7 1 8 2 9 3 10 4 11 5 12 6 13 7 6 8 5 9 4 10 3 11 2 12 1 13
REMARK H PARENT
REMARK Flexibility Score: inf
ROOT
ATOM      1  C   UNL     1      64.267  30.204  26.385  1.00  0.00     0.000 C 
ENDROOT
BRANCH   1   2
ATOM      2  C   UNL     1      65.251  29.027  26.510  1.00  0.00     0.000 C 
BRANCH   2   3
ATOM      3  C   UNL     1      65.364  28.133  25.262  1.00  0.00     0.006 C 
BRANCH   3   4
ATOM      4  C   UNL     1      64.996  26.670  25.539  1.00  0.00     0.053 C 
BRANCH   4   5
ATOM      5  C   UNL     1      64.631  25.974  24.267  1.00  0.00     0.041 C 
ATOM      6  O   UNL     1      63.521  25.388  24.159  1.00  0.00    -0.550 OA
ATOM      7  O   UNL     1      65.537  25.928  23.214  1.00  0.00    -0.550 OA
ENDBRANCH   4   5
ENDBRANCH   3   4
ENDBRANCH   2   3
ENDBRANCH   1   2
BRANCH   1   8
ATOM      8  C   UNL     1      63.277  30.286  27.560  1.00  0.00     0.000 C 
BRANCH   8   9
ATOM      9  C   UNL     1      62.982  28.911  28.180  1.00  0.00    -0.000 C 
BRANCH   9  10
ATOM     10  C   UNL     1      61.560  28.413  27.872  1.00  0.00    -0.000 C 
BRANCH  10  11
ATOM     11  C   UNL     1      61.595  27.226  26.898  1.00  0.00    -0.000 C 
BRANCH  11  12
ATOM     12  C   UNL     1      60.864  27.523  25.580  1.00  0.00    -0.003 C 
ATOM     13  C   UNL     1      61.693  28.382  24.624  1.00  0.00     0.004 C 
ENDBRANCH  11  12
ENDBRANCH  10  11
ENDBRANCH   9  10
ENDBRANCH   8   9
ENDBRANCH   1   8
TORSDOF 9
ENDMDL
MODEL 3
REMARK VINA RESULT:    -4.159      2.753      4.466
REMARK INTER + INTRA:          -7.686
REMARK INTER:                  -6.348
REMARK INTRA:                  -1.338
REMARK UNBOUND:                -1.339
REMARK SMILES CCCCCCCCCCC(=O)[O-]
REMARK SMILES IDX 7 1 8 2 9 3 10 4 11 5 12 6 13 7 6 8 5 9 4 10 3 11 2 12 1 13
REMARK H PARENT
REMARK Flexibility Score: inf
ROOT
ATOM      1  C   UNL     1      63.705  29.860  12.650  1.00  0.00     0.000 C 
ENDROOT
BRANCH   1   2
ATOM      2  C   UNL     1      62.841  30.866  13.432  1.00  0.00     0.000 C 
BRANCH   2   3
ATOM      3  C   UNL     1      62.601  32.212  12.723  1.00  0.00     0.006 C 
BRANCH   3   4
ATOM      4  C   UNL     1      61.126  32.633  12.722  1.00  0.00     0.053 C 
BRANCH   4   5
ATOM      5  C   UNL     1      60.606  32.713  14.123  1.00  0.00     0.041 C 
ATOM      6  O   UNL     1      59.617  32.016  14.473  1.00  0.00    -0.550 OA
ATOM      7  O   UNL     1      61.182  33.594  15.029  1.00  0.00    -0.550 OA
ENDBRANCH   4   5
ENDBRANCH   3   4
ENDBRANCH   2   3
ENDBRANCH   1   2
BRANCH   1   8
ATOM      8  C   UNL     1      64.034  30.334  11.223  1.00  0.00     0.000 C 
BRANCH   8   9
ATOM      9  C   UNL     1      63.531  29.359  10.147  1.00  0.00    -0.000 C 
BRANCH   9  10
ATOM     10  C   UNL     1      62.096  29.668   9.691  1.00  0.00    -0.000 C 
BRANCH  10  11
ATOM     11  C   UNL     1      61.100  28.675  10.308  1.00  0.00    -0.000 C 
BRANCH  11  12
ATOM     12  C   UNL     1      60.130  29.346  11.291  1.00  0.00    -0.003 C 
ATOM     13  C   UNL     1      60.023  28.598  12.621  1.00  0.00     0.004 C 
ENDBRANCH  11  12
ENDBRANCH  10  11
ENDBRANCH   9  10
ENDBRANCH   8   9
ENDBRANCH   1   8
TORSDOF 9
ENDMDL
MODEL 4
REMARK VINA RESULT:    -4.145     13.413     14.499
REMARK INTER + INTRA:          -7.666
REMARK INTER:                  -6.397
REMARK INTRA:                  -1.269
REMARK UNBOUND:                -1.339
REMARK SMILES CCCCCCCCCCC(=O)[O-]
REMARK SMILES IDX 7 1 8 2 9 3 10 4 11 5 12 6 13 7 6 8 5 9 4 10 3 11 2 12 1 13
REMARK H PARENT
REMARK Flexibility Score: inf
ROOT
ATOM      1  C   UNL     1      62.486  29.756  25.120  1.00  0.00     0.000 C 
ENDROOT
BRANCH   1   2
ATOM      2  C   UNL     1      61.859  28.438  24.630  1.00  0.00     0.000 C 
BRANCH   2   3
ATOM      3  C   UNL     1      61.101  27.636  25.703  1.00  0.00     0.006 C 
BRANCH   3   4
ATOM      4  C   UNL     1      62.018  27.101  26.809  1.00  0.00     0.053 C 
BRANCH   4   5
ATOM      5  C   UNL     1      61.644  27.694  28.131  1.00  0.00     0.041 C 
ATOM      6  O   UNL     1      60.720  27.183  28.817  1.00  0.00    -0.550 OA
ATOM      7  O   UNL     1      62.283  28.842  28.583  1.00  0.00    -0.550 OA
ENDBRANCH   4   5
ENDBRANCH   3   4
ENDBRANCH   2   3
ENDBRANCH   1   2
BRANCH   1   8
ATOM      8  C   UNL     1      63.991  29.855  24.812  1.00  0.00     0.000 C 
BRANCH   8   9
ATOM      9  C   UNL     1      64.864  29.366  25.979  1.00  0.00    -0.000 C 
BRANCH   9  10
ATOM     10  C   UNL     1      65.991  28.425  25.523  1.00  0.00    -0.000 C 
BRANCH  10  11
ATOM     11  C   UNL     1      65.571  27.631  24.277  1.00  0.00    -0.000 C 
BRANCH  11  12
ATOM     12  C   UNL     1      65.305  26.149  24.583  1.00  0.00    -0.003 C 
ATOM     13  C   UNL     1      64.005  25.640  23.959  1.00  0.00     0.004 C 
ENDBRANCH  11  12
ENDBRANCH  10  11
ENDBRANCH   9  10
ENDBRANCH   8   9
ENDBRANCH   1   8
TORSDOF 9
ENDMDL
MODEL 5
REMARK VINA RESULT:    -4.134      2.756      4.852
REMARK INTER + INTRA:          -7.648
REMARK INTER:                  -6.384
REMARK INTRA:                  -1.264
REMARK UNBOUND:                -1.339
REMARK SMILES CCCCCCCCCCC(=O)[O-]
REMARK SMILES IDX 7 1 8 2 9 3 10 4 11 5 12 6 13 7 6 8 5 9 4 10 3 11 2 12 1 13
REMARK H PARENT
REMARK Flexibility Score: inf
ROOT
ATOM      1  C   UNL     1      62.551  29.474  13.475  1.00  0.00     0.000 C 
ENDROOT
BRANCH   1   2
ATOM      2  C   UNL     1      62.706  30.867  14.112  1.00  0.00     0.000 C 
BRANCH   2   3
ATOM      3  C   UNL     1      62.730  32.042  13.117  1.00  0.00     0.006 C 
BRANCH   3   4
ATOM      4  C   UNL     1      61.336  32.618  12.837  1.00  0.00     0.053 C 
BRANCH   4   5
ATOM      5  C   UNL     1      60.607  32.866  14.119  1.00  0.00     0.041 C 
ATOM      6  O   UNL     1      61.017  33.744  14.923  1.00  0.00    -0.550 OA
ATOM      7  O   UNL     1      59.502  32.092  14.451  1.00  0.00    -0.550 OA
ENDBRANCH   4   5
ENDBRANCH   3   4
ENDBRANCH   2   3
ENDBRANCH   1   2
BRANCH   1   8
ATOM      8  C   UNL     1      61.090  28.992  13.434  1.00  0.00     0.000 C 
BRANCH   8   9
ATOM      9  C   UNL     1      60.680  28.468  12.049  1.00  0.00    -0.000 C 
BRANCH   9  10
ATOM     10  C   UNL     1      60.135  29.576  11.133  1.00  0.00    -0.000 C 
BRANCH  10  11
ATOM     11  C   UNL     1      61.207  30.040  10.137  1.00  0.00    -0.000 C 
BRANCH  11  12
ATOM     12  C   UNL     1      62.230  28.940   9.815  1.00  0.00    -0.003 C 
ATOM     13  C   UNL     1      63.676  29.407   9.989  1.00  0.00     0.004 C 
ENDBRANCH  11  12
ENDBRANCH  10  11
ENDBRANCH   9  10
ENDBRANCH   8   9
ENDBRANCH   1   8
TORSDOF 9
ENDMDL
MODEL 6
REMARK VINA RESULT:    -4.089      1.172      2.326
REMARK INTER + INTRA:          -7.579
REMARK INTER:                  -6.529
REMARK INTRA:                  -1.051
REMARK UNBOUND:                -1.339
REMARK SMILES CCCCCCCCCCC(=O)[O-]
REMARK SMILES IDX 7 1 8 2 9 3 10 4 11 5 12 6 13 7 6 8 5 9 4 10 3 11 2 12 1 13
REMARK H PARENT
REMARK Flexibility Score: inf
ROOT
ATOM      1  C   UNL     1      62.515  29.067  12.818  1.00  0.00     0.000 C 
ENDROOT
BRANCH   1   2
ATOM      2  C   UNL     1      63.060  30.006  11.728  1.00  0.00     0.000 C 
BRANCH   2   3
ATOM      3  C   UNL     1      63.407  29.326  10.391  1.00  0.00     0.006 C 
BRANCH   3   4
ATOM      4  C   UNL     1      62.613  29.894   9.208  1.00  0.00     0.053 C 
BRANCH   4   5
ATOM      5  C   UNL     1      61.233  29.317   9.180  1.00  0.00     0.041 C 
ATOM      6  O   UNL     1      60.228  30.074   9.220  1.00  0.00    -0.550 OA
ATOM      7  O   UNL     1      61.056  27.939   9.159  1.00  0.00    -0.550 OA
ENDBRANCH   4   5
ENDBRANCH   3   4
ENDBRANCH   2   3
ENDBRANCH   1   2
BRANCH   1   8
ATOM      8  C   UNL     1      61.121  29.479  13.323  1.00  0.00     0.000 C 
BRANCH   8   9
ATOM      9  C   UNL     1      60.592  30.743  12.628  1.00  0.00    -0.000 C 
BRANCH   9  10
ATOM     10  C   UNL     1      60.167  31.835  13.622  1.00  0.00    -0.000 C 
BRANCH  10  11
ATOM     11  C   UNL     1      61.045  33.086  13.470  1.00  0.00    -0.000 C 
BRANCH  11  12
ATOM     12  C   UNL     1      62.249  33.082  14.425  1.00  0.00    -0.003 C 
ATOM     13  C   UNL     1      63.589  33.058  13.689  1.00  0.00     0.004 C 
ENDBRANCH  11  12
ENDBRANCH  10  11
ENDBRANCH   9  10
ENDBRANCH   8   9
ENDBRANCH   1   8
TORSDOF 9
ENDMDL
MODEL 7
REMARK VINA RESULT:    -4.033     13.177     14.390
REMARK INTER + INTRA:          -7.495
REMARK INTER:                  -6.426
REMARK INTRA:                  -1.069
REMARK UNBOUND:                -1.339
REMARK SMILES CCCCCCCCCCC(=O)[O-]
REMARK SMILES IDX 7 1 8 2 9 3 10 4 11 5 12 6 13 7 6 8 5 9 4 10 3 11 2 12 1 13
REMARK H PARENT
REMARK Flexibility Score: inf
ROOT
ATOM      1  C   UNL     1      63.463  30.165  27.821  1.00  0.00     0.000 C 
ENDROOT
BRANCH   1   2
ATOM      2  C   UNL     1      62.884  28.838  28.345  1.00  0.00     0.000 C 
BRANCH   2   3
ATOM      3  C   UNL     1      61.475  28.490  27.831  1.00  0.00     0.006 C 
BRANCH   3   4
ATOM      4  C   UNL     1      61.436  27.180  27.034  1.00  0.00     0.053 C 
BRANCH   4   5
ATOM      5  C   UNL     1      60.787  27.398  25.704  1.00  0.00     0.041 C 
ATOM      6  O   UNL     1      61.253  28.251  24.903  1.00  0.00    -0.550 OA
ATOM      7  O   UNL     1      59.638  26.694  25.368  1.00  0.00    -0.550 OA
ENDBRANCH   4   5
ENDBRANCH   3   4
ENDBRANCH   2   3
ENDBRANCH   1   2
BRANCH   1   8
ATOM      8  C   UNL     1      63.686  30.161  26.298  1.00  0.00     0.000 C 
BRANCH   8   9
ATOM      9  C   UNL     1      65.175  30.116  25.921  1.00  0.00    -0.000 C 
BRANCH   9  10
ATOM     10  C   UNL     1      65.745  28.689  25.922  1.00  0.00    -0.000 C 
BRANCH  10  11
ATOM     11  C   UNL     1      65.093  27.838  24.821  1.00  0.00    -0.000 C 
BRANCH  11  12
ATOM     12  C   UNL     1      64.573  26.492  25.346  1.00  0.00    -0.003 C 
ATOM     13  C   UNL     1      63.801  25.702  24.288  1.00  0.00     0.004 C 
ENDBRANCH  11  12
ENDBRANCH  10  11
ENDBRANCH   9  10
ENDBRANCH   8   9
ENDBRANCH   1   8
TORSDOF 9
ENDMDL
MODEL 8
REMARK VINA RESULT:    -4.017      1.968      2.406
REMARK INTER + INTRA:          -7.470
REMARK INTER:                  -6.471
REMARK INTRA:                  -0.999
REMARK UNBOUND:                -1.339
REMARK SMILES CCCCCCCCCCC(=O)[O-]
REMARK SMILES IDX 7 1 8 2 9 3 10 4 11 5 12 6 13 7 6 8 5 9 4 10 3 11 2 12 1 13
REMARK H PARENT
REMARK Flexibility Score: inf
ROOT
ATOM      1  C   UNL     1      63.781  29.755  10.315  1.00  0.00     0.000 C 
ENDROOT
BRANCH   1   2
ATOM      2  C   UNL     1      62.319  29.742   9.836  1.00  0.00     0.000 C 
BRANCH   2   3
ATOM      3  C   UNL     1      61.437  28.643  10.457  1.00  0.00     0.006 C 
BRANCH   3   4
ATOM      4  C   UNL     1      60.212  29.204  11.191  1.00  0.00     0.053 C 
BRANCH   4   5
ATOM      5  C   UNL     1      60.122  28.631  12.570  1.00  0.00     0.041 C 
ATOM      6  O   UNL     1      61.099  28.722  13.359  1.00  0.00    -0.550 OA
ATOM      7  O   UNL     1      58.977  27.952  12.968  1.00  0.00    -0.550 OA
ENDBRANCH   4   5
ENDBRANCH   3   4
ENDBRANCH   2   3
ENDBRANCH   1   2
BRANCH   1   8
ATOM      8  C   UNL     1      63.933  30.242  11.767  1.00  0.00     0.000 C 
BRANCH   8   9
ATOM      9  C   UNL     1      63.746  31.761  11.902  1.00  0.00    -0.000 C 
BRANCH   9  10
ATOM     10  C   UNL     1      62.855  32.147  13.093  1.00  0.00    -0.000 C 
BRANCH  10  11
ATOM     11  C   UNL     1      61.396  32.329  12.649  1.00  0.00    -0.000 C 
BRANCH  11  12
ATOM     12  C   UNL     1      60.423  32.405  13.835  1.00  0.00    -0.003 C 
ATOM     13  C   UNL     1      60.926  33.313  14.958  1.00  0.00     0.004 C 
ENDBRANCH  11  12
ENDBRANCH  10  11
ENDBRANCH   9  10
ENDBRANCH   8   9
ENDBRANCH   1   8
TORSDOF 9
ENDMDL
MODEL 9
REMARK VINA RESULT:    -3.989      1.915      3.017
REMARK INTER + INTRA:          -7.426
REMARK INTER:                  -6.476
REMARK INTRA:                  -0.950
REMARK UNBOUND:                -1.339
REMARK SMILES CCCCCCCCCCC(=O)[O-]
REMARK SMILES IDX 7 1 8 2 9 3 10 4 11 5 12 6 13 7 6 8 5 9 4 10 3 11 2 12 1 13
REMARK H PARENT
REMARK Flexibility Score: inf
ROOT
ATOM      1  C   UNL     1      59.989  28.926  12.177  1.00  0.00     0.000 C 
ENDROOT
BRANCH   1   2
ATOM      2  C   UNL     1      60.322  29.497  10.787  1.00  0.00     0.000 C 
BRANCH   2   3
ATOM      3  C   UNL     1      61.432  28.753  10.022  1.00  0.00     0.006 C 
BRANCH   3   4
ATOM      4  C   UNL     1      62.062  29.600   8.909  1.00  0.00     0.053 C 
BRANCH   4   5
ATOM      5  C   UNL     1      63.519  29.809   9.174  1.00  0.00     0.041 C 
ATOM      6  O   UNL     1      64.353  28.913   8.876  1.00  0.00    -0.550 OA
ATOM      7  O   UNL     1      63.954  30.973   9.795  1.00  0.00    -0.550 OA
ENDBRANCH   4   5
ENDBRANCH   3   4
ENDBRANCH   2   3
ENDBRANCH   1   2
BRANCH   1   8
ATOM      8  C   UNL     1      61.241  28.651  13.028  1.00  0.00     0.000 C 
BRANCH   8   9
ATOM      9  C   UNL     1      61.700  29.886  13.818  1.00  0.00    -0.000 C 
BRANCH   9  10
ATOM     10  C   UNL     1      62.796  30.682  13.092  1.00  0.00    -0.000 C 
BRANCH  10  11
ATOM     11  C   UNL     1      62.373  32.146  12.902  1.00  0.00    -0.000 C 
BRANCH  11  12
ATOM     12  C   UNL     1      60.942  32.416  13.390  1.00  0.00    -0.003 C 
ATOM     13  C   UNL     1      60.869  33.551  14.412  1.00  0.00     0.004 C 
ENDBRANCH  11  12
ENDBRANCH  10  11
ENDBRANCH   9  10
ENDBRANCH   8   9
ENDBRANCH   1   8
TORSDOF 9
ENDMDL
