MODEL 1
REMARK VINA RESULT:    -4.226      0.000      0.000
REMARK INTER + INTRA:          -4.226
REMARK INTER:                  -4.226
REMARK INTRA:                   0.000
REMARK UNBOUND:                 0.000
REMARK SMILES CC1=CC(=O)[C@@H]2C[C@H]1C2(C)C
REMARK SMILES IDX 1 1 2 2 3 3 4 4 5 5 6 6 7 7 8 8 9 9 10 10 11 11
REMARK H PARENT
REMARK Flexibility Score: inf
ROOT
ATOM      1  C   UNL     1      -8.055  -4.435   1.248  1.00  0.00     0.040 C 
ATOM      2  C   UNL     1      -6.666  -4.353   1.795  1.00  0.00    -0.066 C 
ATOM      3  C   UNL     1      -5.581  -4.309   0.973  1.00  0.00     0.047 C 
ATOM      4  C   UNL     1      -4.244  -4.197   1.643  1.00  0.00     0.159 C 
ATOM      5  O   UNL     1      -3.171  -4.108   0.990  1.00  0.00    -0.295 OA
ATOM      6  C   UNL     1      -4.277  -4.194   3.171  1.00  0.00     0.067 C 
ATOM      7  C   UNL     1      -5.243  -5.345   3.530  1.00  0.00     0.021 C 
ATOM      8  C   UNL     1      -6.390  -4.332   3.315  1.00  0.00     0.022 C 
ATOM      9  C   UNL     1      -5.376  -3.198   3.641  1.00  0.00    -0.019 C 
ATOM     10  C   UNL     1      -5.517  -1.845   2.889  1.00  0.00     0.012 C 
ATOM     11  C   UNL     1      -5.291  -2.902   5.161  1.00  0.00     0.012 C 
ENDROOT
TORSDOF 0
ENDMDL
MODEL 2
REMARK VINA RESULT:    -4.153      1.946      3.216
REMARK INTER + INTRA:          -4.153
REMARK INTER:                  -4.153
REMARK INTRA:                   0.000
REMARK UNBOUND:                 0.000
REMARK SMILES CC1=CC(=O)[C@@H]2C[C@H]1C2(C)C
REMARK SMILES IDX 1 1 2 2 3 3 4 4 5 5 6 6 7 7 8 8 9 9 10 10 11 11
REMARK H PARENT
REMARK Flexibility Score: inf
ROOT
ATOM      1  C   UNL     1      -3.841  -7.102   3.635  1.00  0.00     0.040 C 
ATOM      2  C   UNL     1      -4.761  -6.075   3.055  1.00  0.00    -0.066 C 
ATOM      3  C   UNL     1      -6.104  -6.289   2.977  1.00  0.00     0.047 C 
ATOM      4  C   UNL     1      -6.921  -5.170   2.403  1.00  0.00     0.159 C 
ATOM      5  O   UNL     1      -8.175  -5.232   2.314  1.00  0.00    -0.295 OA
ATOM      6  C   UNL     1      -6.125  -3.951   1.937  1.00  0.00     0.067 C 
ATOM      7  C   UNL     1      -4.945  -4.552   1.142  1.00  0.00     0.021 C 
ATOM      8  C   UNL     1      -4.234  -4.733   2.502  1.00  0.00     0.022 C 
ATOM      9  C   UNL     1      -5.108  -3.568   3.050  1.00  0.00    -0.019 C 
ATOM     10  C   UNL     1      -5.575  -3.633   4.531  1.00  0.00     0.012 C 
ATOM     11  C   UNL     1      -4.462  -2.180   2.806  1.00  0.00     0.012 C 
ENDROOT
TORSDOF 0
ENDMDL
MODEL 3
REMARK VINA RESULT:    -4.110      1.293      3.088
REMARK INTER + INTRA:          -4.110
REMARK INTER:                  -4.110
REMARK INTRA:                   0.000
REMARK UNBOUND:                 0.000
REMARK SMILES CC1=CC(=O)[C@@H]2C[C@H]1C2(C)C
REMARK SMILES IDX 1 1 2 2 3 3 4 4 5 5 6 6 7 7 8 8 9 9 10 10 11 11
REMARK H PARENT
REMARK Flexibility Score: inf
ROOT
ATOM      1  C   UNL     1      -4.258  -7.485   3.745  1.00  0.00     0.040 C 
ATOM      2  C   UNL     1      -4.732  -6.182   3.185  1.00  0.00    -0.066 C 
ATOM      3  C   UNL     1      -3.936  -5.424   2.381  1.00  0.00     0.047 C 
ATOM      4  C   UNL     1      -4.539  -4.155   1.858  1.00  0.00     0.159 C 
ATOM      5  O   UNL     1      -3.918  -3.389   1.075  1.00  0.00    -0.295 OA
ATOM      6  C   UNL     1      -5.959  -3.857   2.341  1.00  0.00     0.067 C 
ATOM      7  C   UNL     1      -5.908  -4.138   3.859  1.00  0.00     0.021 C 
ATOM      8  C   UNL     1      -6.137  -5.624   3.504  1.00  0.00     0.022 C 
ATOM      9  C   UNL     1      -6.815  -5.147   2.187  1.00  0.00    -0.019 C 
ATOM     10  C   UNL     1      -6.627  -6.010   0.908  1.00  0.00     0.012 C 
ATOM     11  C   UNL     1      -8.330  -4.874   2.369  1.00  0.00     0.012 C 
ENDROOT
TORSDOF 0
ENDMDL
MODEL 4
REMARK VINA RESULT:    -4.049      9.634     11.181
REMARK INTER + INTRA:          -4.049
REMARK INTER:                  -4.049
REMARK INTRA:                   0.000
REMARK UNBOUND:                 0.000
REMARK SMILES CC1=CC(=O)[C@@H]2C[C@H]1C2(C)C
REMARK SMILES IDX 1 1 2 2 3 3 4 4 5 5 6 6 7 7 8 8 9 9 10 10 11 11
REMARK H PARENT
REMARK Flexibility Score: inf
ROOT
ATOM      1  C   UNL     1      -6.967  -8.468  13.919  1.00  0.00     0.040 C 
ATOM      2  C   UNL     1      -6.635  -7.074  13.491  1.00  0.00    -0.066 C 
ATOM      3  C   UNL     1      -7.282  -5.997  14.017  1.00  0.00     0.047 C 
ATOM      4  C   UNL     1      -6.837  -4.651  13.529  1.00  0.00     0.159 C 
ATOM      5  O   UNL     1      -7.330  -3.580  13.969  1.00  0.00    -0.295 OA
ATOM      6  C   UNL     1      -5.740  -4.672  12.464  1.00  0.00     0.067 C 
ATOM      7  C   UNL     1      -6.203  -5.757  11.467  1.00  0.00     0.021 C 
ATOM      8  C   UNL     1      -5.558  -6.786  12.422  1.00  0.00     0.022 C 
ATOM      9  C   UNL     1      -4.621  -5.649  12.924  1.00  0.00    -0.019 C 
ATOM     10  C   UNL     1      -4.206  -5.645  14.422  1.00  0.00     0.012 C 
ATOM     11  C   UNL     1      -3.337  -5.521  12.065  1.00  0.00     0.012 C 
ENDROOT
TORSDOF 0
ENDMDL
MODEL 5
REMARK VINA RESULT:    -4.044      1.624      2.324
REMARK INTER + INTRA:          -4.044
REMARK INTER:                  -4.044
REMARK INTRA:                   0.000
REMARK UNBOUND:                 0.000
REMARK SMILES CC1=CC(=O)[C@@H]2C[C@H]1C2(C)C
REMARK SMILES IDX 1 1 2 2 3 3 4 4 5 5 6 6 7 7 8 8 9 9 10 10 11 11
REMARK H PARENT
REMARK Flexibility Score: inf
ROOT
ATOM      1  C   UNL     1      -8.139  -3.986   1.033  1.00  0.00     0.040 C 
ATOM      2  C   UNL     1      -6.984  -4.363   1.904  1.00  0.00    -0.066 C 
ATOM      3  C   UNL     1      -6.711  -5.665   2.196  1.00  0.00     0.047 C 
ATOM      4  C   UNL     1      -5.507  -5.914   3.055  1.00  0.00     0.159 C 
ATOM      5  O   UNL     1      -5.129  -7.075   3.361  1.00  0.00    -0.295 OA
ATOM      6  C   UNL     1      -4.772  -4.661   3.529  1.00  0.00     0.067 C 
ATOM      7  C   UNL     1      -5.899  -3.720   4.008  1.00  0.00     0.021 C 
ATOM      8  C   UNL     1      -6.056  -3.298   2.530  1.00  0.00     0.022 C 
ATOM      9  C   UNL     1      -4.572  -3.713   2.312  1.00  0.00    -0.019 C 
ATOM     10  C   UNL     1      -4.176  -4.339   0.946  1.00  0.00     0.012 C 
ATOM     11  C   UNL     1      -3.586  -2.558   2.621  1.00  0.00     0.012 C 
ENDROOT
TORSDOF 0
ENDMDL
MODEL 6
REMARK VINA RESULT:    -3.940      1.448      3.091
REMARK INTER + INTRA:          -3.940
REMARK INTER:                  -3.940
REMARK INTRA:                   0.000
REMARK UNBOUND:                 0.000
REMARK SMILES CC1=CC(=O)[C@@H]2C[C@H]1C2(C)C
REMARK SMILES IDX 1 1 2 2 3 3 4 4 5 5 6 6 7 7 8 8 9 9 10 10 11 11
REMARK H PARENT
REMARK Flexibility Score: inf
ROOT
ATOM      1  C   UNL     1      -5.408  -2.625   5.776  1.00  0.00     0.040 C 
ATOM      2  C   UNL     1      -5.507  -3.233   4.413  1.00  0.00    -0.066 C 
ATOM      3  C   UNL     1      -5.540  -2.460   3.292  1.00  0.00     0.047 C 
ATOM      4  C   UNL     1      -5.609  -3.190   1.985  1.00  0.00     0.159 C 
ATOM      5  O   UNL     1      -5.606  -2.589   0.879  1.00  0.00    -0.295 OA
ATOM      6  C   UNL     1      -5.680  -4.714   2.090  1.00  0.00     0.067 C 
ATOM      7  C   UNL     1      -6.734  -4.968   3.189  1.00  0.00     0.021 C 
ATOM      8  C   UNL     1      -5.593  -4.762   4.210  1.00  0.00     0.022 C 
ATOM      9  C   UNL     1      -4.595  -5.192   3.096  1.00  0.00    -0.019 C 
ATOM     10  C   UNL     1      -3.198  -4.511   3.056  1.00  0.00     0.012 C 
ATOM     11  C   UNL     1      -4.387  -6.728   3.053  1.00  0.00     0.012 C 
ENDROOT
TORSDOF 0
ENDMDL
MODEL 7
REMARK VINA RESULT:    -3.895      2.707      4.342
REMARK INTER + INTRA:          -3.895
REMARK INTER:                  -3.895
REMARK INTRA:                   0.000
REMARK UNBOUND:                 0.000
REMARK SMILES CC1=CC(=O)[C@@H]2C[C@H]1C2(C)C
REMARK SMILES IDX 1 1 2 2 3 3 4 4 5 5 6 6 7 7 8 8 9 9 10 10 11 11
REMARK H PARENT
REMARK Flexibility Score: inf
ROOT
ATOM      1  C   UNL     1      -1.330  -6.732   4.038  1.00  0.00     0.040 C 
ATOM      2  C   UNL     1      -1.934  -5.768   3.067  1.00  0.00    -0.066 C 
ATOM      3  C   UNL     1      -3.242  -5.861   2.696  1.00  0.00     0.047 C 
ATOM      4  C   UNL     1      -3.736  -4.817   1.741  1.00  0.00     0.159 C 
ATOM      5  O   UNL     1      -4.933  -4.774   1.354  1.00  0.00    -0.295 OA
ATOM      6  C   UNL     1      -2.686  -3.809   1.273  1.00  0.00     0.067 C 
ATOM      7  C   UNL     1      -1.459  -4.678   0.922  1.00  0.00     0.021 C 
ATOM      8  C   UNL     1      -1.106  -4.633   2.426  1.00  0.00     0.022 C 
ATOM      9  C   UNL     1      -1.902  -3.298   2.515  1.00  0.00    -0.019 C 
ATOM     10  C   UNL     1      -2.695  -2.999   3.818  1.00  0.00     0.012 C 
ATOM     11  C   UNL     1      -1.021  -2.064   2.189  1.00  0.00     0.012 C 
ENDROOT
TORSDOF 0
ENDMDL
MODEL 8
REMARK VINA RESULT:    -3.878      1.704      3.287
REMARK INTER + INTRA:          -3.878
REMARK INTER:                  -3.878
REMARK INTRA:                   0.000
REMARK UNBOUND:                 0.000
REMARK SMILES CC1=CC(=O)[C@@H]2C[C@H]1C2(C)C
REMARK SMILES IDX 1 1 2 2 3 3 4 4 5 5 6 6 7 7 8 8 9 9 10 10 11 11
REMARK H PARENT
REMARK Flexibility Score: inf
ROOT
ATOM      1  C   UNL     1      -2.723  -3.992   1.172  1.00  0.00     0.040 C 
ATOM      2  C   UNL     1      -3.986  -4.072   1.970  1.00  0.00    -0.066 C 
ATOM      3  C   UNL     1      -4.037  -3.643   3.262  1.00  0.00     0.047 C 
ATOM      4  C   UNL     1      -5.368  -3.747   3.943  1.00  0.00     0.159 C 
ATOM      5  O   UNL     1      -5.552  -3.349   5.123  1.00  0.00    -0.295 OA
ATOM      6  C   UNL     1      -6.485  -4.368   3.104  1.00  0.00     0.067 C 
ATOM      7  C   UNL     1      -5.830  -5.611   2.464  1.00  0.00     0.021 C 
ATOM      8  C   UNL     1      -5.287  -4.657   1.377  1.00  0.00     0.022 C 
ATOM      9  C   UNL     1      -6.476  -3.705   1.697  1.00  0.00    -0.019 C 
ATOM     10  C   UNL     1      -6.236  -2.172   1.605  1.00  0.00     0.012 C 
ATOM     11  C   UNL     1      -7.744  -4.049   0.875  1.00  0.00     0.012 C 
ENDROOT
TORSDOF 0
ENDMDL
MODEL 9
REMARK VINA RESULT:    -3.876      0.892      3.090
REMARK INTER + INTRA:          -3.876
REMARK INTER:                  -3.876
REMARK INTRA:                   0.000
REMARK UNBOUND:                 0.000
REMARK SMILES CC1=CC(=O)[C@@H]2C[C@H]1C2(C)C
REMARK SMILES IDX 1 1 2 2 3 3 4 4 5 5 6 6 7 7 8 8 9 9 10 10 11 11
REMARK H PARENT
REMARK Flexibility Score: inf
ROOT
ATOM      1  C   UNL     1      -4.749  -2.264   5.094  1.00  0.00     0.040 C 
ATOM      2  C   UNL     1      -4.861  -2.940   3.765  1.00  0.00    -0.066 C 
ATOM      3  C   UNL     1      -3.756  -3.336   3.074  1.00  0.00     0.047 C 
ATOM      4  C   UNL     1      -4.003  -4.031   1.769  1.00  0.00     0.159 C 
ATOM      5  O   UNL     1      -3.065  -4.477   1.058  1.00  0.00    -0.295 OA
ATOM      6  C   UNL     1      -5.471  -4.159   1.364  1.00  0.00     0.067 C 
ATOM      7  C   UNL     1      -6.062  -2.758   1.634  1.00  0.00     0.021 C 
ATOM      8  C   UNL     1      -6.231  -3.208   3.103  1.00  0.00     0.022 C 
ATOM      9  C   UNL     1      -6.279  -4.676   2.589  1.00  0.00    -0.019 C 
ATOM     10  C   UNL     1      -5.649  -5.787   3.475  1.00  0.00     0.012 C 
ATOM     11  C   UNL     1      -7.714  -5.119   2.204  1.00  0.00     0.012 C 
ENDROOT
TORSDOF 0
ENDMDL
