MODEL 1
REMARK VINA RESULT:     3.447      0.000      0.000
REMARK INTER + INTRA:           3.733
REMARK INTER:                   3.850
REMARK INTRA:                  -0.117
REMARK UNBOUND:                -0.117
REMARK SMILES COc1cc2ccc(=O)oc2cc1OC
REMARK SMILES IDX 3 1 13 2 12 3 11 4 5 5 4 6 6 7 7 8 8 9 9 10 10 11 2 12 1 13
REMARK SMILES IDX 14 14 15 15
REMARK H PARENT
REMARK Flexibility Score: inf
ROOT
ATOM      1  C   UNL     1      28.171  30.081   2.008  1.00  0.00     0.161 A 
ATOM      2  C   UNL     1      29.324  29.368   2.375  1.00  0.00     0.164 A 
ATOM      3  C   UNL     1      29.304  27.958   2.378  1.00  0.00     0.098 A 
ATOM      4  C   UNL     1      28.147  27.267   2.018  1.00  0.00     0.142 A 
ATOM      5  C   UNL     1      26.988  27.981   1.650  1.00  0.00     0.022 A 
ATOM      6  C   UNL     1      27.002  29.382   1.646  1.00  0.00     0.062 A 
ATOM      7  C   UNL     1      25.843  27.259   1.295  1.00  0.00     0.019 A 
ATOM      8  C   UNL     1      25.880  25.865   1.316  1.00  0.00     0.094 A 
ATOM      9  C   UNL     1      27.064  25.224   1.692  1.00  0.00     0.336 A 
ATOM     10  O   UNL     1      27.117  23.966   1.715  1.00  0.00    -0.246 OA
ATOM     11  O   UNL     1      28.138  25.936   2.024  1.00  0.00    -0.423 OA
ENDROOT
BRANCH   1  12
ATOM     12  O   UNL     1      28.225  31.483   2.017  1.00  0.00    -0.493 OA
ATOM     13  C   UNL     1      28.493  32.289   0.875  1.00  0.00     0.278 C 
ENDBRANCH   1  12
BRANCH   2  14
ATOM     14  O   UNL     1      30.471  30.095   2.731  1.00  0.00    -0.493 OA
ATOM     15  C   UNL     1      31.228  29.882   3.917  1.00  0.00     0.278 C 
ENDBRANCH   2  14
TORSDOF 2
ENDMDL
MODEL 2
REMARK VINA RESULT:     4.990      1.214      2.644
REMARK INTER + INTRA:           5.457
REMARK INTER:                   5.576
REMARK INTRA:                  -0.120
REMARK UNBOUND:                -0.117
REMARK SMILES COc1cc2ccc(=O)oc2cc1OC
REMARK SMILES IDX 3 1 13 2 12 3 11 4 5 5 4 6 6 7 7 8 8 9 9 10 10 11 2 12 1 13
REMARK SMILES IDX 14 14 15 15
REMARK H PARENT
REMARK Flexibility Score: inf
ROOT
ATOM      1  C   UNL     1      29.428  29.763   2.751  1.00  0.00     0.161 A 
ATOM      2  C   UNL     1      28.855  30.103   1.515  1.00  0.00     0.164 A 
ATOM      3  C   UNL     1      27.935  29.227   0.904  1.00  0.00     0.098 A 
ATOM      4  C   UNL     1      27.590  28.023   1.520  1.00  0.00     0.142 A 
ATOM      5  C   UNL     1      28.165  27.679   2.761  1.00  0.00     0.022 A 
ATOM      6  C   UNL     1      29.080  28.547   3.372  1.00  0.00     0.062 A 
ATOM      7  C   UNL     1      27.800  26.465   3.353  1.00  0.00     0.019 A 
ATOM      8  C   UNL     1      26.885  25.636   2.705  1.00  0.00     0.094 A 
ATOM      9  C   UNL     1      26.355  26.042   1.476  1.00  0.00     0.336 A 
ATOM     10  O   UNL     1      25.527  25.308   0.875  1.00  0.00    -0.246 OA
ATOM     11  O   UNL     1      26.721  27.202   0.936  1.00  0.00    -0.423 OA
ENDROOT
BRANCH   1  12
ATOM     12  O   UNL     1      30.341  30.658   3.330  1.00  0.00    -0.493 OA
ATOM     13  C   UNL     1      31.330  30.297   4.288  1.00  0.00     0.278 C 
ENDBRANCH   1  12
BRANCH   2  14
ATOM     14  O   UNL     1      29.223  31.322   0.923  1.00  0.00    -0.493 OA
ATOM     15  C   UNL     1      28.397  32.481   0.876  1.00  0.00     0.278 C 
ENDBRANCH   2  14
TORSDOF 2
ENDMDL
