MODEL 1
REMARK VINA RESULT:    -3.816      0.000      0.000
REMARK INTER + INTRA:          -6.820
REMARK INTER:                  -6.046
REMARK INTRA:                  -0.774
REMARK UNBOUND:                -0.774
REMARK SMILES CCCCCCCCCCCC(=O)[O-]
REMARK SMILES IDX 7 1 8 2 9 3 10 4 11 5 12 6 13 7 14 8 6 9 5 10 4 11 3 12 2 13
REMARK SMILES IDX 1 14
REMARK H PARENT
REMARK Flexibility Score: inf
ROOT
ATOM      1  C   UNL     1     -18.867 -19.344   2.039  1.00  0.00     0.000 C 
ENDROOT
BRANCH   1   2
ATOM      2  C   UNL     1     -17.360 -19.063   1.925  1.00  0.00     0.000 C 
BRANCH   2   3
ATOM      3  C   UNL     1     -16.495 -20.301   2.227  1.00  0.00     0.000 C 
BRANCH   3   4
ATOM      4  C   UNL     1     -15.383 -20.086   3.274  1.00  0.00     0.006 C 
BRANCH   4   5
ATOM      5  C   UNL     1     -15.878 -19.581   4.638  1.00  0.00     0.053 C 
BRANCH   5   6
ATOM      6  C   UNL     1     -15.868 -20.663   5.673  1.00  0.00     0.041 C 
ATOM      7  O   UNL     1     -14.776 -21.159   6.061  1.00  0.00    -0.550 OA
ATOM      8  O   UNL     1     -17.064 -21.148   6.186  1.00  0.00    -0.550 OA
ENDBRANCH   5   6
ENDBRANCH   4   5
ENDBRANCH   3   4
ENDBRANCH   2   3
ENDBRANCH   1   2
BRANCH   1   9
ATOM      9  C   UNL     1     -19.188 -20.423   3.087  1.00  0.00     0.000 C 
BRANCH   9  10
ATOM     10  C   UNL     1     -20.379 -21.306   2.684  1.00  0.00    -0.000 C 
BRANCH  10  11
ATOM     11  C   UNL     1     -21.101 -20.726   1.461  1.00  0.00    -0.000 C 
BRANCH  11  12
ATOM     12  C   UNL     1     -22.146 -21.709   0.920  1.00  0.00    -0.000 C 
BRANCH  12  13
ATOM     13  C   UNL     1     -22.123 -21.747  -0.612  1.00  0.00    -0.003 C 
ATOM     14  C   UNL     1     -21.456 -20.499  -1.185  1.00  0.00     0.004 C 
ENDBRANCH  12  13
ENDBRANCH  11  12
ENDBRANCH  10  11
ENDBRANCH   9  10
ENDBRANCH   1   9
TORSDOF 10
ENDMDL
MODEL 2
REMARK VINA RESULT:    -3.768      3.442      6.089
REMARK INTER + INTRA:          -6.745
REMARK INTER:                  -5.525
REMARK INTRA:                  -1.220
REMARK UNBOUND:                -0.774
REMARK SMILES CCCCCCCCCCCC(=O)[O-]
REMARK SMILES IDX 7 1 8 2 9 3 10 4 11 5 12 6 13 7 14 8 6 9 5 10 4 11 3 12 2 13
REMARK SMILES IDX 1 14
REMARK H PARENT
REMARK Flexibility Score: inf
ROOT
ATOM      1  C   UNL     1     -19.473 -16.617   1.448  1.00  0.00     0.000 C 
ENDROOT
BRANCH   1   2
ATOM      2  C   UNL     1     -20.420 -17.751   1.878  1.00  0.00     0.000 C 
BRANCH   2   3
ATOM      3  C   UNL     1     -21.129 -18.422   0.687  1.00  0.00     0.000 C 
BRANCH   3   4
ATOM      4  C   UNL     1     -20.669 -19.861   0.374  1.00  0.00     0.006 C 
BRANCH   4   5
ATOM      5  C   UNL     1     -21.564 -20.618  -0.619  1.00  0.00     0.053 C 
BRANCH   5   6
ATOM      6  C   UNL     1     -22.139 -21.863  -0.019  1.00  0.00     0.041 C 
ATOM      7  O   UNL     1     -22.169 -22.008   1.233  1.00  0.00    -0.550 OA
ATOM      8  O   UNL     1     -22.612 -22.878  -0.840  1.00  0.00    -0.550 OA
ENDBRANCH   5   6
ENDBRANCH   4   5
ENDBRANCH   3   4
ENDBRANCH   2   3
ENDBRANCH   1   2
BRANCH   1   9
ATOM      9  C   UNL     1     -17.992 -17.021   1.538  1.00  0.00     0.000 C 
BRANCH   9  10
ATOM     10  C   UNL     1     -17.751 -18.177   2.521  1.00  0.00    -0.000 C 
BRANCH  10  11
ATOM     11  C   UNL     1     -17.027 -19.341   1.831  1.00  0.00    -0.000 C 
BRANCH  11  12
ATOM     12  C   UNL     1     -17.192 -20.641   2.626  1.00  0.00    -0.000 C 
BRANCH  12  13
ATOM     13  C   UNL     1     -18.326 -20.519   3.650  1.00  0.00    -0.003 C 
ATOM     14  C   UNL     1     -19.395 -21.583   3.420  1.00  0.00     0.004 C 
ENDBRANCH  12  13
ENDBRANCH  11  12
ENDBRANCH  10  11
ENDBRANCH   9  10
ENDBRANCH   1   9
TORSDOF 10
ENDMDL
MODEL 3
REMARK VINA RESULT:    -3.732      7.806      9.319
REMARK INTER + INTRA:          -6.688
REMARK INTER:                  -5.232
REMARK INTRA:                  -1.455
REMARK UNBOUND:                -0.774
REMARK SMILES CCCCCCCCCCCC(=O)[O-]
REMARK SMILES IDX 7 1 8 2 9 3 10 4 11 5 12 6 13 7 14 8 6 9 5 10 4 11 3 12 2 13
REMARK SMILES IDX 1 14
REMARK H PARENT
REMARK Flexibility Score: inf
ROOT
ATOM      1  C   UNL     1     -17.740 -14.837  -0.420  1.00  0.00     0.000 C 
ENDROOT
BRANCH   1   2
ATOM      2  C   UNL     1     -16.886 -14.425   0.791  1.00  0.00     0.000 C 
BRANCH   2   3
ATOM      3  C   UNL     1     -15.473 -13.958   0.396  1.00  0.00     0.000 C 
BRANCH   3   4
ATOM      4  C   UNL     1     -14.733 -13.128   1.466  1.00  0.00     0.006 C 
BRANCH   4   5
ATOM      5  C   UNL     1     -13.990 -11.899   0.921  1.00  0.00     0.053 C 
BRANCH   5   6
ATOM      6  C   UNL     1     -12.529 -12.165   0.733  1.00  0.00     0.041 C 
ATOM      7  O   UNL     1     -11.738 -11.214   0.491  1.00  0.00    -0.550 OA
ATOM      8  O   UNL     1     -12.044 -13.465   0.790  1.00  0.00    -0.550 OA
ENDBRANCH   5   6
ENDBRANCH   4   5
ENDBRANCH   3   4
ENDBRANCH   2   3
ENDBRANCH   1   2
BRANCH   1   9
ATOM      9  C   UNL     1     -16.969 -14.735  -1.747  1.00  0.00     0.000 C 
BRANCH   9  10
ATOM     10  C   UNL     1     -17.810 -14.116  -2.875  1.00  0.00    -0.000 C 
BRANCH  10  11
ATOM     11  C   UNL     1     -17.961 -12.602  -2.678  1.00  0.00    -0.000 C 
BRANCH  11  12
ATOM     12  C   UNL     1     -16.592 -11.925  -2.538  1.00  0.00    -0.000 C 
BRANCH  12  13
ATOM     13  C   UNL     1     -16.577 -10.956  -1.351  1.00  0.00    -0.003 C 
ATOM     14  C   UNL     1     -17.878 -11.034  -0.558  1.00  0.00     0.004 C 
ENDBRANCH  12  13
ENDBRANCH  11  12
ENDBRANCH  10  11
ENDBRANCH   9  10
ENDBRANCH   1   9
TORSDOF 10
ENDMDL
MODEL 4
REMARK VINA RESULT:    -3.704      3.555      6.960
REMARK INTER + INTRA:          -6.644
REMARK INTER:                  -6.157
REMARK INTRA:                  -0.487
REMARK UNBOUND:                -0.774
REMARK SMILES CCCCCCCCCCCC(=O)[O-]
REMARK SMILES IDX 7 1 8 2 9 3 10 4 11 5 12 6 13 7 14 8 6 9 5 10 4 11 3 12 2 13
REMARK SMILES IDX 1 14
REMARK H PARENT
REMARK Flexibility Score: inf
ROOT
ATOM      1  C   UNL     1     -19.664 -18.110   1.641  1.00  0.00     0.000 C 
ENDROOT
BRANCH   1   2
ATOM      2  C   UNL     1     -20.363 -19.189   0.797  1.00  0.00     0.000 C 
BRANCH   2   3
ATOM      3  C   UNL     1     -21.748 -18.747   0.288  1.00  0.00     0.000 C 
BRANCH   3   4
ATOM      4  C   UNL     1     -22.295 -19.551  -0.909  1.00  0.00     0.006 C 
BRANCH   4   5
ATOM      5  C   UNL     1     -21.602 -20.903  -1.142  1.00  0.00     0.053 C 
BRANCH   5   6
ATOM      6  C   UNL     1     -22.354 -22.034  -0.512  1.00  0.00     0.041 C 
ATOM      7  O   UNL     1     -22.762 -21.939   0.676  1.00  0.00    -0.550 OA
ATOM      8  O   UNL     1     -22.576 -23.206  -1.224  1.00  0.00    -0.550 OA
ENDBRANCH   5   6
ENDBRANCH   4   5
ENDBRANCH   3   4
ENDBRANCH   2   3
ENDBRANCH   1   2
BRANCH   1   9
ATOM      9  C   UNL     1     -18.147 -18.340   1.753  1.00  0.00     0.000 C 
BRANCH   9  10
ATOM     10  C   UNL     1     -17.797 -19.754   2.242  1.00  0.00    -0.000 C 
BRANCH  10  11
ATOM     11  C   UNL     1     -16.316 -20.068   1.992  1.00  0.00    -0.000 C 
BRANCH  11  12
ATOM     12  C   UNL     1     -15.537 -20.135   3.311  1.00  0.00    -0.000 C 
BRANCH  12  13
ATOM     13  C   UNL     1     -16.490 -20.190   4.510  1.00  0.00    -0.003 C 
ATOM     14  C   UNL     1     -15.760 -20.630   5.776  1.00  0.00     0.004 C 
ENDBRANCH  12  13
ENDBRANCH  11  12
ENDBRANCH  10  11
ENDBRANCH   9  10
ENDBRANCH   1   9
TORSDOF 10
ENDMDL
MODEL 5
REMARK VINA RESULT:    -3.678      6.881      8.661
REMARK INTER + INTRA:          -6.601
REMARK INTER:                  -6.210
REMARK INTRA:                  -0.391
REMARK UNBOUND:                -0.774
REMARK SMILES CCCCCCCCCCCC(=O)[O-]
REMARK SMILES IDX 7 1 8 2 9 3 10 4 11 5 12 6 13 7 14 8 6 9 5 10 4 11 3 12 2 13
REMARK SMILES IDX 1 14
REMARK H PARENT
REMARK Flexibility Score: inf
ROOT
ATOM      1  C   UNL     1     -18.212 -15.289   0.233  1.00  0.00     0.000 C 
ENDROOT
BRANCH   1   2
ATOM      2  C   UNL     1     -17.087 -14.471  -0.425  1.00  0.00     0.000 C 
BRANCH   2   3
ATOM      3  C   UNL     1     -16.881 -14.822  -1.910  1.00  0.00     0.000 C 
BRANCH   3   4
ATOM      4  C   UNL     1     -17.282 -13.717  -2.908  1.00  0.00     0.006 C 
BRANCH   4   5
ATOM      5  C   UNL     1     -18.692 -13.871  -3.502  1.00  0.00     0.053 C 
BRANCH   5   6
ATOM      6  C   UNL     1     -19.355 -12.548  -3.723  1.00  0.00     0.041 C 
ATOM      7  O   UNL     1     -19.181 -11.607  -2.904  1.00  0.00    -0.550 OA
ATOM      8  O   UNL     1     -20.191 -12.361  -4.816  1.00  0.00    -0.550 OA
ENDBRANCH   5   6
ENDBRANCH   4   5
ENDBRANCH   3   4
ENDBRANCH   2   3
ENDBRANCH   1   2
BRANCH   1   9
ATOM      9  C   UNL     1     -17.753 -15.989   1.523  1.00  0.00     0.000 C 
BRANCH   9  10
ATOM     10  C   UNL     1     -18.485 -17.318   1.768  1.00  0.00    -0.000 C 
BRANCH  10  11
ATOM     11  C   UNL     1     -17.618 -18.276   2.596  1.00  0.00    -0.000 C 
BRANCH  11  12
ATOM     12  C   UNL     1     -17.141 -19.460   1.748  1.00  0.00    -0.000 C 
BRANCH  12  13
ATOM     13  C   UNL     1     -16.058 -20.260   2.480  1.00  0.00    -0.003 C 
ATOM     14  C   UNL     1     -15.775 -19.671   3.859  1.00  0.00     0.004 C 
ENDBRANCH  12  13
ENDBRANCH  11  12
ENDBRANCH  10  11
ENDBRANCH   9  10
ENDBRANCH   1   9
TORSDOF 10
ENDMDL
MODEL 6
REMARK VINA RESULT:    -3.634      3.773      6.414
REMARK INTER + INTRA:          -6.532
REMARK INTER:                  -5.301
REMARK INTRA:                  -1.231
REMARK UNBOUND:                -0.774
REMARK SMILES CCCCCCCCCCCC(=O)[O-]
REMARK SMILES IDX 7 1 8 2 9 3 10 4 11 5 12 6 13 7 14 8 6 9 5 10 4 11 3 12 2 13
REMARK SMILES IDX 1 14
REMARK H PARENT
REMARK Flexibility Score: inf
ROOT
ATOM      1  C   UNL     1     -19.804 -21.191   3.649  1.00  0.00     0.000 C 
ENDROOT
BRANCH   1   2
ATOM      2  C   UNL     1     -20.786 -21.396   2.483  1.00  0.00     0.000 C 
BRANCH   2   3
ATOM      3  C   UNL     1     -21.088 -20.093   1.720  1.00  0.00     0.000 C 
BRANCH   3   4
ATOM      4  C   UNL     1     -20.744 -20.119   0.216  1.00  0.00     0.006 C 
BRANCH   4   5
ATOM      5  C   UNL     1     -21.962 -20.068  -0.720  1.00  0.00     0.053 C 
BRANCH   5   6
ATOM      6  C   UNL     1     -22.919 -21.189  -0.455  1.00  0.00     0.041 C 
ATOM      7  O   UNL     1     -24.126 -20.943  -0.193  1.00  0.00    -0.550 OA
ATOM      8  O   UNL     1     -22.472 -22.504  -0.465  1.00  0.00    -0.550 OA
ENDBRANCH   5   6
ENDBRANCH   4   5
ENDBRANCH   3   4
ENDBRANCH   2   3
ENDBRANCH   1   2
BRANCH   1   9
ATOM      9  C   UNL     1     -18.371 -21.627   3.296  1.00  0.00     0.000 C 
BRANCH   9  10
ATOM     10  C   UNL     1     -17.311 -20.630   3.789  1.00  0.00    -0.000 C 
BRANCH  10  11
ATOM     11  C   UNL     1     -16.467 -20.107   2.620  1.00  0.00    -0.000 C 
BRANCH  11  12
ATOM     12  C   UNL     1     -17.294 -19.192   1.709  1.00  0.00    -0.000 C 
BRANCH  12  13
ATOM     13  C   UNL     1     -17.821 -17.978   2.482  1.00  0.00    -0.003 C 
ATOM     14  C   UNL     1     -18.642 -17.062   1.579  1.00  0.00     0.004 C 
ENDBRANCH  12  13
ENDBRANCH  11  12
ENDBRANCH  10  11
ENDBRANCH   9  10
ENDBRANCH   1   9
TORSDOF 10
ENDMDL
MODEL 7
REMARK VINA RESULT:    -3.627      3.254      4.790
REMARK INTER + INTRA:          -6.521
REMARK INTER:                  -5.936
REMARK INTRA:                  -0.585
REMARK UNBOUND:                -0.774
REMARK SMILES CCCCCCCCCCCC(=O)[O-]
REMARK SMILES IDX 7 1 8 2 9 3 10 4 11 5 12 6 13 7 14 8 6 9 5 10 4 11 3 12 2 13
REMARK SMILES IDX 1 14
REMARK H PARENT
REMARK Flexibility Score: inf
ROOT
ATOM      1  C   UNL     1     -18.957 -18.373   1.933  1.00  0.00     0.000 C 
ENDROOT
BRANCH   1   2
ATOM      2  C   UNL     1     -18.208 -19.639   2.382  1.00  0.00     0.000 C 
BRANCH   2   3
ATOM      3  C   UNL     1     -16.781 -19.725   1.809  1.00  0.00     0.000 C 
BRANCH   3   4
ATOM      4  C   UNL     1     -15.691 -20.135   2.821  1.00  0.00     0.006 C 
BRANCH   4   5
ATOM      5  C   UNL     1     -15.839 -19.501   4.213  1.00  0.00     0.053 C 
BRANCH   5   6
ATOM      6  C   UNL     1     -16.000 -20.534   5.285  1.00  0.00     0.041 C 
ATOM      7  O   UNL     1     -17.145 -20.969   5.579  1.00  0.00    -0.550 OA
ATOM      8  O   UNL     1     -14.890 -20.992   5.983  1.00  0.00    -0.550 OA
ENDBRANCH   5   6
ENDBRANCH   4   5
ENDBRANCH   3   4
ENDBRANCH   2   3
ENDBRANCH   1   2
BRANCH   1   9
ATOM      9  C   UNL     1     -18.073 -17.116   1.983  1.00  0.00     0.000 C 
BRANCH   9  10
ATOM     10  C   UNL     1     -18.476 -16.066   0.937  1.00  0.00    -0.000 C 
BRANCH  10  11
ATOM     11  C   UNL     1     -17.310 -15.116   0.636  1.00  0.00    -0.000 C 
BRANCH  11  12
ATOM     12  C   UNL     1     -17.642 -14.190  -0.540  1.00  0.00    -0.000 C 
BRANCH  12  13
ATOM     13  C   UNL     1     -17.046 -14.725  -1.847  1.00  0.00    -0.003 C 
ATOM     14  C   UNL     1     -17.772 -14.150  -3.060  1.00  0.00     0.004 C 
ENDBRANCH  12  13
ENDBRANCH  11  12
ENDBRANCH  10  11
ENDBRANCH   9  10
ENDBRANCH   1   9
TORSDOF 10
ENDMDL
MODEL 8
REMARK VINA RESULT:    -3.616      8.265     10.745
REMARK INTER + INTRA:          -6.503
REMARK INTER:                  -5.230
REMARK INTRA:                  -1.274
REMARK UNBOUND:                -0.774
REMARK SMILES CCCCCCCCCCCC(=O)[O-]
REMARK SMILES IDX 7 1 8 2 9 3 10 4 11 5 12 6 13 7 14 8 6 9 5 10 4 11 3 12 2 13
REMARK SMILES IDX 1 14
REMARK H PARENT
REMARK Flexibility Score: inf
ROOT
ATOM      1  C   UNL     1     -16.234 -11.824   0.756  1.00  0.00     0.000 C 
ENDROOT
BRANCH   1   2
ATOM      2  C   UNL     1     -16.384 -13.306   1.137  1.00  0.00     0.000 C 
BRANCH   2   3
ATOM      3  C   UNL     1     -16.072 -14.259  -0.032  1.00  0.00     0.000 C 
BRANCH   3   4
ATOM      4  C   UNL     1     -17.294 -14.705  -0.860  1.00  0.00     0.006 C 
BRANCH   4   5
ATOM      5  C   UNL     1     -17.068 -14.713  -2.380  1.00  0.00     0.053 C 
BRANCH   5   6
ATOM      6  C   UNL     1     -17.917 -13.696  -3.078  1.00  0.00     0.041 C 
ATOM      7  O   UNL     1     -17.787 -12.472  -2.811  1.00  0.00    -0.550 OA
ATOM      8  O   UNL     1     -18.873 -14.101  -4.000  1.00  0.00    -0.550 OA
ENDBRANCH   5   6
ENDBRANCH   4   5
ENDBRANCH   3   4
ENDBRANCH   2   3
ENDBRANCH   1   2
BRANCH   1   9
ATOM      9  C   UNL     1     -15.271 -11.613  -0.425  1.00  0.00     0.000 C 
BRANCH   9  10
ATOM     10  C   UNL     1     -14.083 -10.707  -0.067  1.00  0.00    -0.000 C 
BRANCH  10  11
ATOM     11  C   UNL     1     -13.273 -11.300   1.094  1.00  0.00    -0.000 C 
BRANCH  11  12
ATOM     12  C   UNL     1     -12.159 -12.217   0.578  1.00  0.00    -0.000 C 
BRANCH  12  13
ATOM     13  C   UNL     1     -12.347 -13.650   1.087  1.00  0.00    -0.003 C 
ATOM     14  C   UNL     1     -12.956 -13.664   2.486  1.00  0.00     0.004 C 
ENDBRANCH  12  13
ENDBRANCH  11  12
ENDBRANCH  10  11
ENDBRANCH   9  10
ENDBRANCH   1   9
TORSDOF 10
ENDMDL
MODEL 9
REMARK VINA RESULT:    -3.575      7.392      8.812
REMARK INTER + INTRA:          -6.438
REMARK INTER:                  -5.224
REMARK INTRA:                  -1.214
REMARK UNBOUND:                -0.774
REMARK SMILES CCCCCCCCCCCC(=O)[O-]
REMARK SMILES IDX 7 1 8 2 9 3 10 4 11 5 12 6 13 7 14 8 6 9 5 10 4 11 3 12 2 13
REMARK SMILES IDX 1 14
REMARK H PARENT
REMARK Flexibility Score: inf
ROOT
ATOM      1  C   UNL     1     -16.865 -14.190   0.946  1.00  0.00     0.000 C 
ENDROOT
BRANCH   1   2
ATOM      2  C   UNL     1     -15.397 -13.936   0.566  1.00  0.00     0.000 C 
BRANCH   2   3
ATOM      3  C   UNL     1     -14.847 -12.620   1.147  1.00  0.00     0.000 C 
BRANCH   3   4
ATOM      4  C   UNL     1     -13.423 -12.243   0.686  1.00  0.00     0.006 C 
BRANCH   4   5
ATOM      5  C   UNL     1     -12.361 -13.324   0.942  1.00  0.00     0.053 C 
BRANCH   5   6
ATOM      6  C   UNL     1     -11.984 -13.408   2.389  1.00  0.00     0.041 C 
ATOM      7  O   UNL     1     -12.260 -14.440   3.056  1.00  0.00    -0.550 OA
ATOM      8  O   UNL     1     -11.359 -12.334   3.010  1.00  0.00    -0.550 OA
ENDBRANCH   5   6
ENDBRANCH   4   5
ENDBRANCH   3   4
ENDBRANCH   2   3
ENDBRANCH   1   2
BRANCH   1   9
ATOM      9  C   UNL     1     -17.723 -14.606  -0.260  1.00  0.00     0.000 C 
BRANCH   9  10
ATOM     10  C   UNL     1     -16.923 -14.642  -1.572  1.00  0.00    -0.000 C 
BRANCH  10  11
ATOM     11  C   UNL     1     -17.740 -14.050  -2.728  1.00  0.00    -0.000 C 
BRANCH  11  12
ATOM     12  C   UNL     1     -17.826 -12.524  -2.617  1.00  0.00    -0.000 C 
BRANCH  12  13
ATOM     13  C   UNL     1     -16.437 -11.909  -2.411  1.00  0.00    -0.003 C 
ATOM     14  C   UNL     1     -16.505 -10.681  -1.507  1.00  0.00     0.004 C 
ENDBRANCH  12  13
ENDBRANCH  11  12
ENDBRANCH  10  11
ENDBRANCH   9  10
ENDBRANCH   1   9
TORSDOF 10
ENDMDL
