MODEL 1
REMARK VINA RESULT:    -4.198      0.000      0.000
REMARK INTER + INTRA:          -9.044
REMARK INTER:                  -7.634
REMARK INTRA:                  -1.410
REMARK UNBOUND:                -1.410
REMARK SMILES CCCCCCCCCCCCCCCC(=O)[O-]
REMARK SMILES IDX 9 1 10 2 11 3 12 4 13 5 14 6 15 7 16 8 17 9 18 10 8 11 7 12
REMARK SMILES IDX 6 13 5 14 4 15 3 16 2 17 1 18
REMARK H PARENT
REMARK Flexibility Score: inf
ROOT
ATOM      1  C   UNL     1      22.899  -0.373 102.020  1.00  0.00     0.000 C 
ENDROOT
BRANCH   1   2
ATOM      2  C   UNL     1      22.802   0.665 103.151  1.00  0.00     0.000 C 
BRANCH   2   3
ATOM      3  C   UNL     1      21.811   1.820 102.894  1.00  0.00     0.000 C 
BRANCH   3   4
ATOM      4  C   UNL     1      21.744   2.888 104.001  1.00  0.00     0.000 C 
BRANCH   4   5
ATOM      5  C   UNL     1      22.804   3.990 103.834  1.00  0.00     0.000 C 
BRANCH   5   6
ATOM      6  C   UNL     1      22.889   4.511 102.391  1.00  0.00     0.006 C 
BRANCH   6   7
ATOM      7  C   UNL     1      21.662   5.338 101.986  1.00  0.00     0.053 C 
BRANCH   7   8
ATOM      8  C   UNL     1      21.748   5.729 100.544  1.00  0.00     0.041 C 
ATOM      9  O   UNL     1      22.619   6.552 100.161  1.00  0.00    -0.550 OA
ATOM     10  O   UNL     1      20.894   5.146  99.615  1.00  0.00    -0.550 OA
ENDBRANCH   7   8
ENDBRANCH   6   7
ENDBRANCH   5   6
ENDBRANCH   4   5
ENDBRANCH   3   4
ENDBRANCH   2   3
ENDBRANCH   1   2
BRANCH   1  11
ATOM     11  C   UNL     1      24.319  -0.938 101.851  1.00  0.00     0.000 C 
BRANCH  11  12
ATOM     12  C   UNL     1      24.660  -1.282 100.389  1.00  0.00    -0.000 C 
BRANCH  12  13
ATOM     13  C   UNL     1      26.146  -1.134 100.008  1.00  0.00    -0.000 C 
BRANCH  13  14
ATOM     14  C   UNL     1      27.035  -0.730 101.198  1.00  0.00    -0.000 C 
BRANCH  14  15
ATOM     15  C   UNL     1      27.378   0.771 101.204  1.00  0.00    -0.000 C 
BRANCH  15  16
ATOM     16  C   UNL     1      27.423   1.423 102.598  1.00  0.00    -0.000 C 
BRANCH  16  17
ATOM     17  C   UNL     1      26.178   2.269 102.903  1.00  0.00    -0.003 C 
ATOM     18  C   UNL     1      26.566   3.624 103.490  1.00  0.00     0.004 C 
ENDBRANCH  16  17
ENDBRANCH  15  16
ENDBRANCH  14  15
ENDBRANCH  13  14
ENDBRANCH  12  13
ENDBRANCH  11  12
ENDBRANCH   1  11
TORSDOF 14
ENDMDL
MODEL 2
REMARK VINA RESULT:    -4.176      4.702      6.225
REMARK INTER + INTRA:          -9.004
REMARK INTER:                  -8.141
REMARK INTRA:                  -0.864
REMARK UNBOUND:                -1.410
REMARK SMILES CCCCCCCCCCCCCCCC(=O)[O-]
REMARK SMILES IDX 9 1 10 2 11 3 12 4 13 5 14 6 15 7 16 8 17 9 18 10 8 11 7 12
REMARK SMILES IDX 6 13 5 14 4 15 3 16 2 17 1 18
REMARK H PARENT
REMARK Flexibility Score: inf
ROOT
ATOM      1  C   UNL     1      23.965  -2.588 102.247  1.00  0.00     0.000 C 
ENDROOT
BRANCH   1   2
ATOM      2  C   UNL     1      24.465  -1.473 103.182  1.00  0.00     0.000 C 
BRANCH   2   3
ATOM      3  C   UNL     1      23.538  -0.245 103.288  1.00  0.00     0.000 C 
BRANCH   3   4
ATOM      4  C   UNL     1      22.591  -0.030 102.093  1.00  0.00     0.000 C 
BRANCH   4   5
ATOM      5  C   UNL     1      21.637   1.161 102.292  1.00  0.00     0.000 C 
BRANCH   5   6
ATOM      6  C   UNL     1      21.752   1.778 103.694  1.00  0.00     0.006 C 
BRANCH   6   7
ATOM      7  C   UNL     1      22.077   3.277 103.657  1.00  0.00     0.053 C 
BRANCH   7   8
ATOM      8  C   UNL     1      21.294   4.008 104.701  1.00  0.00     0.041 C 
ATOM      9  O   UNL     1      21.282   5.267 104.720  1.00  0.00    -0.550 OA
ATOM     10  O   UNL     1      20.539   3.298 105.626  1.00  0.00    -0.550 OA
ENDBRANCH   7   8
ENDBRANCH   6   7
ENDBRANCH   5   6
ENDBRANCH   4   5
ENDBRANCH   3   4
ENDBRANCH   2   3
ENDBRANCH   1   2
BRANCH   1  11
ATOM     11  C   UNL     1      24.421  -3.988 102.693  1.00  0.00     0.000 C 
BRANCH  11  12
ATOM     12  C   UNL     1      24.867  -4.035 104.166  1.00  0.00    -0.000 C 
BRANCH  12  13
ATOM     13  C   UNL     1      24.771  -5.420 104.836  1.00  0.00    -0.000 C 
BRANCH  13  14
ATOM     14  C   UNL     1      23.537  -6.222 104.389  1.00  0.00    -0.000 C 
BRANCH  14  15
ATOM     15  C   UNL     1      22.369  -6.125 105.389  1.00  0.00    -0.000 C 
BRANCH  15  16
ATOM     16  C   UNL     1      22.749  -6.381 106.859  1.00  0.00    -0.000 C 
BRANCH  16  17
ATOM     17  C   UNL     1      21.984  -5.479 107.839  1.00  0.00    -0.003 C 
ATOM     18  C   UNL     1      22.698  -5.404 109.187  1.00  0.00     0.004 C 
ENDBRANCH  16  17
ENDBRANCH  15  16
ENDBRANCH  14  15
ENDBRANCH  13  14
ENDBRANCH  12  13
ENDBRANCH  11  12
ENDBRANCH   1  11
TORSDOF 14
ENDMDL
MODEL 3
REMARK VINA RESULT:    -4.164      3.248      5.109
REMARK INTER + INTRA:          -8.981
REMARK INTER:                  -7.969
REMARK INTRA:                  -1.012
REMARK UNBOUND:                -1.410
REMARK SMILES CCCCCCCCCCCCCCCC(=O)[O-]
REMARK SMILES IDX 9 1 10 2 11 3 12 4 13 5 14 6 15 7 16 8 17 9 18 10 8 11 7 12
REMARK SMILES IDX 6 13 5 14 4 15 3 16 2 17 1 18
REMARK H PARENT
REMARK Flexibility Score: inf
ROOT
ATOM      1  C   UNL     1      23.045  -0.983 101.871  1.00  0.00     0.000 C 
ENDROOT
BRANCH   1   2
ATOM      2  C   UNL     1      23.203   0.067 102.983  1.00  0.00     0.000 C 
BRANCH   2   3
ATOM      3  C   UNL     1      22.201   1.239 102.922  1.00  0.00     0.000 C 
BRANCH   3   4
ATOM      4  C   UNL     1      22.774   2.616 103.304  1.00  0.00     0.000 C 
BRANCH   4   5
ATOM      5  C   UNL     1      21.717   3.561 103.900  1.00  0.00     0.000 C 
BRANCH   5   6
ATOM      6  C   UNL     1      21.605   4.882 103.123  1.00  0.00     0.006 C 
BRANCH   6   7
ATOM      7  C   UNL     1      22.503   4.915 101.879  1.00  0.00     0.053 C 
BRANCH   7   8
ATOM      8  C   UNL     1      21.713   5.319 100.675  1.00  0.00     0.041 C 
ATOM      9  O   UNL     1      20.753   4.608 100.278  1.00  0.00    -0.550 OA
ATOM     10  O   UNL     1      22.009   6.507 100.018  1.00  0.00    -0.550 OA
ENDBRANCH   7   8
ENDBRANCH   6   7
ENDBRANCH   5   6
ENDBRANCH   4   5
ENDBRANCH   3   4
ENDBRANCH   2   3
ENDBRANCH   1   2
BRANCH   1  11
ATOM     11  C   UNL     1      23.675  -2.338 102.236  1.00  0.00     0.000 C 
BRANCH  11  12
ATOM     12  C   UNL     1      23.329  -3.453 101.232  1.00  0.00    -0.000 C 
BRANCH  12  13
ATOM     13  C   UNL     1      21.842  -3.542 100.836  1.00  0.00    -0.000 C 
BRANCH  13  14
ATOM     14  C   UNL     1      21.056  -4.566 101.674  1.00  0.00    -0.000 C 
BRANCH  14  15
ATOM     15  C   UNL     1      21.437  -6.022 101.347  1.00  0.00    -0.000 C 
BRANCH  15  16
ATOM     16  C   UNL     1      21.873  -6.867 102.558  1.00  0.00    -0.000 C 
BRANCH  16  17
ATOM     17  C   UNL     1      22.149  -6.020 103.810  1.00  0.00    -0.003 C 
ATOM     18  C   UNL     1      23.649  -5.886 104.062  1.00  0.00     0.004 C 
ENDBRANCH  16  17
ENDBRANCH  15  16
ENDBRANCH  14  15
ENDBRANCH  13  14
ENDBRANCH  12  13
ENDBRANCH  11  12
ENDBRANCH   1  11
TORSDOF 14
ENDMDL
MODEL 4
REMARK VINA RESULT:    -4.144      1.999      5.226
REMARK INTER + INTRA:          -8.946
REMARK INTER:                  -7.217
REMARK INTRA:                  -1.729
REMARK UNBOUND:                -1.410
REMARK SMILES CCCCCCCCCCCCCCCC(=O)[O-]
REMARK SMILES IDX 9 1 10 2 11 3 12 4 13 5 14 6 15 7 16 8 17 9 18 10 8 11 7 12
REMARK SMILES IDX 6 13 5 14 4 15 3 16 2 17 1 18
REMARK H PARENT
REMARK Flexibility Score: inf
ROOT
ATOM      1  C   UNL     1      27.391  -0.249 102.667  1.00  0.00     0.000 C 
ENDROOT
BRANCH   1   2
ATOM      2  C   UNL     1      26.945   0.169 101.255  1.00  0.00     0.000 C 
BRANCH   2   3
ATOM      3  C   UNL     1      26.198  -0.920 100.457  1.00  0.00     0.000 C 
BRANCH   3   4
ATOM      4  C   UNL     1      25.202  -1.767 101.271  1.00  0.00     0.000 C 
BRANCH   4   5
ATOM      5  C   UNL     1      23.802  -1.134 101.350  1.00  0.00     0.000 C 
BRANCH   5   6
ATOM      6  C   UNL     1      23.460  -0.640 102.764  1.00  0.00     0.006 C 
BRANCH   6   7
ATOM      7  C   UNL     1      23.364   0.889 102.850  1.00  0.00     0.053 C 
BRANCH   7   8
ATOM      8  C   UNL     1      21.933   1.321 102.914  1.00  0.00     0.041 C 
ATOM      9  O   UNL     1      21.467   1.818 103.974  1.00  0.00    -0.550 OA
ATOM     10  O   UNL     1      21.126   1.218 101.789  1.00  0.00    -0.550 OA
ENDBRANCH   7   8
ENDBRANCH   6   7
ENDBRANCH   5   6
ENDBRANCH   4   5
ENDBRANCH   3   4
ENDBRANCH   2   3
ENDBRANCH   1   2
BRANCH   1  11
ATOM     11  C   UNL     1      27.079   0.817 103.730  1.00  0.00     0.000 C 
BRANCH  11  12
ATOM     12  C   UNL     1      27.781   2.160 103.460  1.00  0.00    -0.000 C 
BRANCH  12  13
ATOM     13  C   UNL     1      26.911   3.413 103.683  1.00  0.00    -0.000 C 
BRANCH  13  14
ATOM     14  C   UNL     1      25.954   3.697 102.513  1.00  0.00    -0.000 C 
BRANCH  14  15
ATOM     15  C   UNL     1      24.584   4.227 102.978  1.00  0.00    -0.000 C 
BRANCH  15  16
ATOM     16  C   UNL     1      23.843   5.104 101.952  1.00  0.00    -0.000 C 
BRANCH  16  17
ATOM     17  C   UNL     1      22.319   4.917 101.996  1.00  0.00    -0.003 C 
ATOM     18  C   UNL     1      21.712   5.031 100.600  1.00  0.00     0.004 C 
ENDBRANCH  16  17
ENDBRANCH  15  16
ENDBRANCH  14  15
ENDBRANCH  13  14
ENDBRANCH  12  13
ENDBRANCH  11  12
ENDBRANCH   1  11
TORSDOF 14
ENDMDL
MODEL 5
REMARK VINA RESULT:    -4.128      4.180      5.891
REMARK INTER + INTRA:          -8.916
REMARK INTER:                  -7.652
REMARK INTRA:                  -1.264
REMARK UNBOUND:                -1.410
REMARK SMILES CCCCCCCCCCCCCCCC(=O)[O-]
REMARK SMILES IDX 9 1 10 2 11 3 12 4 13 5 14 6 15 7 16 8 17 9 18 10 8 11 7 12
REMARK SMILES IDX 6 13 5 14 4 15 3 16 2 17 1 18
REMARK H PARENT
REMARK Flexibility Score: inf
ROOT
ATOM      1  C   UNL     1      22.065  -3.406 100.949  1.00  0.00     0.000 C 
ENDROOT
BRANCH   1   2
ATOM      2  C   UNL     1      23.368  -2.601 101.093  1.00  0.00     0.000 C 
BRANCH   2   3
ATOM      3  C   UNL     1      23.376  -1.573 102.243  1.00  0.00     0.000 C 
BRANCH   3   4
ATOM      4  C   UNL     1      22.539  -0.304 101.998  1.00  0.00     0.000 C 
BRANCH   4   5
ATOM      5  C   UNL     1      22.908   0.849 102.947  1.00  0.00     0.000 C 
BRANCH   5   6
ATOM      6  C   UNL     1      21.726   1.795 103.209  1.00  0.00     0.006 C 
BRANCH   6   7
ATOM      7  C   UNL     1      22.170   3.166 103.735  1.00  0.00     0.053 C 
BRANCH   7   8
ATOM      8  C   UNL     1      22.674   4.019 102.614  1.00  0.00     0.041 C 
ATOM      9  O   UNL     1      23.885   4.360 102.571  1.00  0.00    -0.550 OA
ATOM     10  O   UNL     1      21.815   4.397 101.590  1.00  0.00    -0.550 OA
ENDBRANCH   7   8
ENDBRANCH   6   7
ENDBRANCH   5   6
ENDBRANCH   4   5
ENDBRANCH   3   4
ENDBRANCH   2   3
ENDBRANCH   1   2
BRANCH   1  11
ATOM     11  C   UNL     1      21.670  -4.137 102.243  1.00  0.00     0.000 C 
BRANCH  11  12
ATOM     12  C   UNL     1      21.939  -5.652 102.185  1.00  0.00    -0.000 C 
BRANCH  12  13
ATOM     13  C   UNL     1      23.210  -6.122 102.920  1.00  0.00    -0.000 C 
BRANCH  13  14
ATOM     14  C   UNL     1      23.878  -5.006 103.741  1.00  0.00    -0.000 C 
BRANCH  14  15
ATOM     15  C   UNL     1      24.229  -5.449 105.174  1.00  0.00    -0.000 C 
BRANCH  15  16
ATOM     16  C   UNL     1      23.331  -6.559 105.751  1.00  0.00    -0.000 C 
BRANCH  16  17
ATOM     17  C   UNL     1      22.110  -6.009 106.503  1.00  0.00    -0.003 C 
ATOM     18  C   UNL     1      20.811  -6.394 105.799  1.00  0.00     0.004 C 
ENDBRANCH  16  17
ENDBRANCH  15  16
ENDBRANCH  14  15
ENDBRANCH  13  14
ENDBRANCH  12  13
ENDBRANCH  11  12
ENDBRANCH   1  11
TORSDOF 14
ENDMDL
MODEL 6
REMARK VINA RESULT:    -4.105      4.517      7.567
REMARK INTER + INTRA:          -8.874
REMARK INTER:                  -7.670
REMARK INTRA:                  -1.204
REMARK UNBOUND:                -1.410
REMARK SMILES CCCCCCCCCCCCCCCC(=O)[O-]
REMARK SMILES IDX 9 1 10 2 11 3 12 4 13 5 14 6 15 7 16 8 17 9 18 10 8 11 7 12
REMARK SMILES IDX 6 13 5 14 4 15 3 16 2 17 1 18
REMARK H PARENT
REMARK Flexibility Score: inf
ROOT
ATOM      1  C   UNL     1      25.077   4.509 103.383  1.00  0.00     0.000 C 
ENDROOT
BRANCH   1   2
ATOM      2  C   UNL     1      26.193   3.550 102.937  1.00  0.00     0.000 C 
BRANCH   2   3
ATOM      3  C   UNL     1      27.247   3.226 104.017  1.00  0.00     0.000 C 
BRANCH   3   4
ATOM      4  C   UNL     1      28.575   2.654 103.489  1.00  0.00     0.000 C 
BRANCH   4   5
ATOM      5  C   UNL     1      29.801   3.182 104.254  1.00  0.00     0.000 C 
BRANCH   5   6
ATOM      6  C   UNL     1      29.815   4.716 104.353  1.00  0.00     0.006 C 
BRANCH   6   7
ATOM      7  C   UNL     1      31.227   5.304 104.241  1.00  0.00     0.053 C 
BRANCH   7   8
ATOM      8  C   UNL     1      32.035   4.958 105.452  1.00  0.00     0.041 C 
ATOM      9  O   UNL     1      33.075   4.257 105.342  1.00  0.00    -0.550 OA
ATOM     10  O   UNL     1      31.664   5.451 106.697  1.00  0.00    -0.550 OA
ENDBRANCH   7   8
ENDBRANCH   6   7
ENDBRANCH   5   6
ENDBRANCH   4   5
ENDBRANCH   3   4
ENDBRANCH   2   3
ENDBRANCH   1   2
BRANCH   1  11
ATOM     11  C   UNL     1      24.161   4.938 102.225  1.00  0.00     0.000 C 
BRANCH  11  12
ATOM     12  C   UNL     1      22.681   4.587 102.467  1.00  0.00    -0.000 C 
BRANCH  12  13
ATOM     13  C   UNL     1      22.335   4.160 103.907  1.00  0.00    -0.000 C 
BRANCH  13  14
ATOM     14  C   UNL     1      21.727   2.749 103.986  1.00  0.00    -0.000 C 
BRANCH  14  15
ATOM     15  C   UNL     1      22.283   1.798 102.909  1.00  0.00    -0.000 C 
BRANCH  15  16
ATOM     16  C   UNL     1      22.748   0.426 103.430  1.00  0.00    -0.000 C 
BRANCH  16  17
ATOM     17  C   UNL     1      23.903  -0.165 102.608  1.00  0.00    -0.003 C 
ATOM     18  C   UNL     1      25.195  -0.197 103.421  1.00  0.00     0.004 C 
ENDBRANCH  16  17
ENDBRANCH  15  16
ENDBRANCH  14  15
ENDBRANCH  13  14
ENDBRANCH  12  13
ENDBRANCH  11  12
ENDBRANCH   1  11
TORSDOF 14
ENDMDL
MODEL 7
REMARK VINA RESULT:    -4.100      3.183      5.694
REMARK INTER + INTRA:          -8.865
REMARK INTER:                  -7.216
REMARK INTRA:                  -1.649
REMARK UNBOUND:                -1.410
REMARK SMILES CCCCCCCCCCCCCCCC(=O)[O-]
REMARK SMILES IDX 9 1 10 2 11 3 12 4 13 5 14 6 15 7 16 8 17 9 18 10 8 11 7 12
REMARK SMILES IDX 6 13 5 14 4 15 3 16 2 17 1 18
REMARK H PARENT
REMARK Flexibility Score: inf
ROOT
ATOM      1  C   UNL     1      22.131   4.131 102.327  1.00  0.00     0.000 C 
ENDROOT
BRANCH   1   2
ATOM      2  C   UNL     1      23.403   4.943 102.030  1.00  0.00     0.000 C 
BRANCH   2   3
ATOM      3  C   UNL     1      24.559   4.736 103.031  1.00  0.00     0.000 C 
BRANCH   3   4
ATOM      4  C   UNL     1      25.644   3.738 102.586  1.00  0.00     0.000 C 
BRANCH   4   5
ATOM      5  C   UNL     1      26.735   3.527 103.650  1.00  0.00     0.000 C 
BRANCH   5   6
ATOM      6  C   UNL     1      27.732   2.425 103.257  1.00  0.00     0.006 C 
BRANCH   6   7
ATOM      7  C   UNL     1      27.596   1.998 101.790  1.00  0.00     0.053 C 
BRANCH   7   8
ATOM      8  C   UNL     1      27.523   0.507 101.684  1.00  0.00     0.041 C 
ATOM      9  O   UNL     1      28.187  -0.218 102.472  1.00  0.00    -0.550 OA
ATOM     10  O   UNL     1      26.686  -0.082 100.746  1.00  0.00    -0.550 OA
ENDBRANCH   7   8
ENDBRANCH   6   7
ENDBRANCH   5   6
ENDBRANCH   4   5
ENDBRANCH   3   4
ENDBRANCH   2   3
ENDBRANCH   1   2
BRANCH   1  11
ATOM     11  C   UNL     1      22.093   3.587 103.765  1.00  0.00     0.000 C 
BRANCH  11  12
ATOM     12  C   UNL     1      21.712   2.097 103.835  1.00  0.00    -0.000 C 
BRANCH  12  13
ATOM     13  C   UNL     1      22.208   1.237 102.656  1.00  0.00    -0.000 C 
BRANCH  13  14
ATOM     14  C   UNL     1      23.643   0.718 102.850  1.00  0.00    -0.000 C 
BRANCH  14  15
ATOM     15  C   UNL     1      23.698  -0.603 103.640  1.00  0.00    -0.000 C 
BRANCH  15  16
ATOM     16  C   UNL     1      25.116  -1.122 103.942  1.00  0.00    -0.000 C 
BRANCH  16  17
ATOM     17  C   UNL     1      25.454  -2.412 103.181  1.00  0.00    -0.003 C 
ATOM     18  C   UNL     1      26.334  -3.332 104.024  1.00  0.00     0.004 C 
ENDBRANCH  16  17
ENDBRANCH  15  16
ENDBRANCH  14  15
ENDBRANCH  13  14
ENDBRANCH  12  13
ENDBRANCH  11  12
ENDBRANCH   1  11
TORSDOF 14
ENDMDL
MODEL 8
REMARK VINA RESULT:    -4.037      3.282      5.630
REMARK INTER + INTRA:          -8.750
REMARK INTER:                  -7.018
REMARK INTRA:                  -1.732
REMARK UNBOUND:                -1.410
REMARK SMILES CCCCCCCCCCCCCCCC(=O)[O-]
REMARK SMILES IDX 9 1 10 2 11 3 12 4 13 5 14 6 15 7 16 8 17 9 18 10 8 11 7 12
REMARK SMILES IDX 6 13 5 14 4 15 3 16 2 17 1 18
REMARK H PARENT
REMARK Flexibility Score: inf
ROOT
ATOM      1  C   UNL     1      22.055   3.965 103.586  1.00  0.00     0.000 C 
ENDROOT
BRANCH   1   2
ATOM      2  C   UNL     1      21.916   2.449 103.802  1.00  0.00     0.000 C 
BRANCH   2   3
ATOM      3  C   UNL     1      21.826   1.610 102.510  1.00  0.00     0.000 C 
BRANCH   3   4
ATOM      4  C   UNL     1      22.599   0.279 102.533  1.00  0.00     0.000 C 
BRANCH   4   5
ATOM      5  C   UNL     1      24.061   0.444 102.983  1.00  0.00     0.000 C 
BRANCH   5   6
ATOM      6  C   UNL     1      24.945  -0.737 102.551  1.00  0.00     0.006 C 
BRANCH   6   7
ATOM      7  C   UNL     1      24.560  -1.293 101.174  1.00  0.00     0.053 C 
BRANCH   7   8
ATOM      8  C   UNL     1      25.687  -2.091 100.599  1.00  0.00     0.041 C 
ATOM      9  O   UNL     1      26.876  -1.694 100.726  1.00  0.00    -0.550 OA
ATOM     10  O   UNL     1      25.429  -3.299  99.963  1.00  0.00    -0.550 OA
ENDBRANCH   7   8
ENDBRANCH   6   7
ENDBRANCH   5   6
ENDBRANCH   4   5
ENDBRANCH   3   4
ENDBRANCH   2   3
ENDBRANCH   1   2
BRANCH   1  11
ATOM     11  C   UNL     1      22.303   4.338 102.115  1.00  0.00     0.000 C 
BRANCH  11  12
ATOM     12  C   UNL     1      23.652   5.046 101.893  1.00  0.00    -0.000 C 
BRANCH  12  13
ATOM     13  C   UNL     1      24.713   4.794 102.983  1.00  0.00    -0.000 C 
BRANCH  13  14
ATOM     14  C   UNL     1      25.723   3.700 102.598  1.00  0.00    -0.000 C 
BRANCH  14  15
ATOM     15  C   UNL     1      26.770   3.442 103.698  1.00  0.00    -0.000 C 
BRANCH  15  16
ATOM     16  C   UNL     1      27.828   2.378 103.353  1.00  0.00    -0.000 C 
BRANCH  16  17
ATOM     17  C   UNL     1      27.663   1.809 101.936  1.00  0.00    -0.003 C 
ATOM     18  C   UNL     1      28.917   1.057 101.496  1.00  0.00     0.004 C 
ENDBRANCH  16  17
ENDBRANCH  15  16
ENDBRANCH  14  15
ENDBRANCH  13  14
ENDBRANCH  12  13
ENDBRANCH  11  12
ENDBRANCH   1  11
TORSDOF 14
ENDMDL
MODEL 9
REMARK VINA RESULT:    -4.027      1.664      2.312
REMARK INTER + INTRA:          -8.734
REMARK INTER:                  -7.232
REMARK INTRA:                  -1.501
REMARK UNBOUND:                -1.410
REMARK SMILES CCCCCCCCCCCCCCCC(=O)[O-]
REMARK SMILES IDX 9 1 10 2 11 3 12 4 13 5 14 6 15 7 16 8 17 9 18 10 8 11 7 12
REMARK SMILES IDX 6 13 5 14 4 15 3 16 2 17 1 18
REMARK H PARENT
REMARK Flexibility Score: inf
ROOT
ATOM      1  C   UNL     1      24.069  -1.234 102.549  1.00  0.00     0.000 C 
ENDROOT
BRANCH   1   2
ATOM      2  C   UNL     1      23.924   0.246 102.939  1.00  0.00     0.000 C 
BRANCH   2   3
ATOM      3  C   UNL     1      22.504   0.673 103.366  1.00  0.00     0.000 C 
BRANCH   3   4
ATOM      4  C   UNL     1      22.034   2.033 102.818  1.00  0.00     0.000 C 
BRANCH   4   5
ATOM      5  C   UNL     1      21.786   3.072 103.925  1.00  0.00     0.000 C 
BRANCH   5   6
ATOM      6  C   UNL     1      22.069   4.508 103.458  1.00  0.00     0.006 C 
BRANCH   6   7
ATOM      7  C   UNL     1      22.987   4.561 102.230  1.00  0.00     0.053 C 
BRANCH   7   8
ATOM      8  C   UNL     1      22.299   5.246 101.092  1.00  0.00     0.041 C 
ATOM      9  O   UNL     1      22.897   6.137 100.432  1.00  0.00    -0.550 OA
ATOM     10  O   UNL     1      21.012   4.868 100.730  1.00  0.00    -0.550 OA
ENDBRANCH   7   8
ENDBRANCH   6   7
ENDBRANCH   5   6
ENDBRANCH   4   5
ENDBRANCH   3   4
ENDBRANCH   2   3
ENDBRANCH   1   2
BRANCH   1  11
ATOM     11  C   UNL     1      24.967  -2.021 103.519  1.00  0.00     0.000 C 
BRANCH  11  12
ATOM     12  C   UNL     1      25.798  -1.111 104.443  1.00  0.00    -0.000 C 
BRANCH  12  13
ATOM     13  C   UNL     1      27.310  -1.411 104.472  1.00  0.00    -0.000 C 
BRANCH  13  14
ATOM     14  C   UNL     1      28.111  -0.387 105.294  1.00  0.00    -0.000 C 
BRANCH  14  15
ATOM     15  C   UNL     1      27.756   1.069 104.941  1.00  0.00    -0.000 C 
BRANCH  15  16
ATOM     16  C   UNL     1      28.298   1.561 103.586  1.00  0.00    -0.000 C 
BRANCH  16  17
ATOM     17  C   UNL     1      27.187   1.831 102.561  1.00  0.00    -0.003 C 
ATOM     18  C   UNL     1      26.392   3.081 102.929  1.00  0.00     0.004 C 
ENDBRANCH  16  17
ENDBRANCH  15  16
ENDBRANCH  14  15
ENDBRANCH  13  14
ENDBRANCH  12  13
ENDBRANCH  11  12
ENDBRANCH   1  11
TORSDOF 14
ENDMDL
