MODEL 1
REMARK VINA RESULT:    -7.540      0.000      0.000
REMARK INTER + INTRA:          -9.347
REMARK INTER:                  -9.083
REMARK INTRA:                  -0.265
REMARK UNBOUND:                -0.265
REMARK SMILES O=c1c(O)c(-c2ccc(O)c(O)c2)oc2cc(O)cc(O)c12
REMARK SMILES IDX 5 1 3 2 2 3 1 4 22 5 20 6 19 7 17 8 16 9 15 10 14 11 6 12
REMARK SMILES IDX 7 13 8 14 9 15 13 16 11 17 10 18 12 20 4 22 21 24 18 26
REMARK H PARENT 10 19 12 21 4 23 21 25 18 27
REMARK Flexibility Score: inf
ROOT
ATOM      1  C   UNL     1      19.904  11.113  16.342  1.00  0.00     0.180 A 
ATOM      2  C   UNL     1      20.255  12.409  15.927  1.00  0.00     0.208 A 
ATOM      3  C   UNL     1      19.245  13.284  15.498  1.00  0.00     0.238 A 
ATOM      4  O   UNL     1      19.572  14.424  15.076  1.00  0.00    -0.285 OA
ATOM      5  C   UNL     1      17.894  12.859  15.505  1.00  0.00     0.111 A 
ATOM      6  C   UNL     1      16.786  13.676  15.129  1.00  0.00     0.134 A 
ATOM      7  C   UNL     1      15.508  13.110  15.049  1.00  0.00     0.093 A 
ATOM      8  C   UNL     1      15.288  11.775  15.394  1.00  0.00     0.123 A 
ATOM      9  C   UNL     1      16.354  10.986  15.820  1.00  0.00     0.094 A 
ATOM     10  C   UNL     1      17.647  11.512  15.874  1.00  0.00     0.146 A 
ATOM     11  O   UNL     1      18.636  10.722  16.275  1.00  0.00    -0.452 OA
ENDROOT
BRANCH   1  12
ATOM     12  C   UNL     1      20.908  10.142  16.831  1.00  0.00     0.025 A 
ATOM     13  C   UNL     1      21.041   9.921  18.209  1.00  0.00     0.016 A 
ATOM     14  C   UNL     1      21.995   9.024  18.693  1.00  0.00     0.051 A 
ATOM     15  C   UNL     1      22.845   8.343  17.816  1.00  0.00     0.157 A 
ATOM     16  C   UNL     1      21.775   9.476  15.948  1.00  0.00     0.062 A 
ATOM     17  C   UNL     1      22.737   8.576  16.424  1.00  0.00     0.158 A 
BRANCH  15  18
ATOM     18  O   UNL     1      23.772   7.454  18.362  1.00  0.00    -0.504 OA
ATOM     19  H   UNL     1      24.169   6.672  17.861  1.00  0.00     0.293 HD
ENDBRANCH  15  18
BRANCH  17  20
ATOM     20  O   UNL     1      23.564   7.950  15.489  1.00  0.00    -0.504 OA
ATOM     21  H   UNL     1      24.569   7.910  15.561  1.00  0.00     0.293 HD
ENDBRANCH  17  20
ENDBRANCH   1  12
BRANCH   2  22
ATOM     22  O   UNL     1      21.597  12.801  15.908  1.00  0.00    -0.502 OA
ATOM     23  H   UNL     1      21.903  13.673  15.493  1.00  0.00     0.293 HD
ENDBRANCH   2  22
BRANCH   6  24
ATOM     24  O   UNL     1      16.882  15.044  14.854  1.00  0.00    -0.507 OA
ATOM     25  H   UNL     1      16.412  15.510  14.094  1.00  0.00     0.293 HD
ENDBRANCH   6  24
BRANCH   8  26
ATOM     26  O   UNL     1      14.010  11.224  15.327  1.00  0.00    -0.508 OA
ATOM     27  H   UNL     1      13.714  10.494  15.965  1.00  0.00     0.293 HD
ENDBRANCH   8  26
TORSDOF 6
ENDMDL
MODEL 2
REMARK VINA RESULT:    -7.290      2.621      3.784
REMARK INTER + INTRA:          -9.046
REMARK INTER:                  -8.725
REMARK INTRA:                  -0.321
REMARK UNBOUND:                -0.265
REMARK SMILES O=c1c(O)c(-c2ccc(O)c(O)c2)oc2cc(O)cc(O)c12
REMARK SMILES IDX 5 1 3 2 2 3 1 4 22 5 20 6 19 7 17 8 16 9 15 10 14 11 6 12
REMARK SMILES IDX 7 13 8 14 9 15 13 16 11 17 10 18 12 20 4 22 21 24 18 26
REMARK H PARENT 10 19 12 21 4 23 21 25 18 27
REMARK Flexibility Score: inf
ROOT
ATOM      1  C   UNL     1      20.230  11.660  17.091  1.00  0.00     0.180 A 
ATOM      2  C   UNL     1      20.441  10.801  15.999  1.00  0.00     0.208 A 
ATOM      3  C   UNL     1      19.330  10.264  15.330  1.00  0.00     0.238 A 
ATOM      4  O   UNL     1      19.525   9.453  14.388  1.00  0.00    -0.285 OA
ATOM      5  C   UNL     1      18.021  10.607  15.750  1.00  0.00     0.111 A 
ATOM      6  C   UNL     1      16.824  10.153  15.120  1.00  0.00     0.134 A 
ATOM      7  C   UNL     1      15.584  10.450  15.701  1.00  0.00     0.093 A 
ATOM      8  C   UNL     1      15.497  11.237  16.851  1.00  0.00     0.123 A 
ATOM      9  C   UNL     1      16.657  11.734  17.438  1.00  0.00     0.094 A 
ATOM     10  C   UNL     1      17.911  11.425  16.904  1.00  0.00     0.146 A 
ATOM     11  O   UNL     1      18.992  11.910  17.502  1.00  0.00    -0.452 OA
ENDROOT
BRANCH   1  12
ATOM     12  C   UNL     1      21.350  12.285  17.830  1.00  0.00     0.025 A 
ATOM     13  C   UNL     1      21.837  13.534  17.420  1.00  0.00     0.016 A 
ATOM     14  C   UNL     1      22.905  14.132  18.091  1.00  0.00     0.051 A 
ATOM     15  C   UNL     1      23.518  13.492  19.173  1.00  0.00     0.157 A 
ATOM     16  C   UNL     1      21.977  11.628  18.903  1.00  0.00     0.062 A 
ATOM     17  C   UNL     1      23.051  12.219  19.581  1.00  0.00     0.158 A 
BRANCH  15  18
ATOM     18  O   UNL     1      24.576  14.146  19.806  1.00  0.00    -0.504 OA
ATOM     19  H   UNL     1      24.592  15.137  20.000  1.00  0.00     0.293 HD
ENDBRANCH  15  18
BRANCH  17  20
ATOM     20  O   UNL     1      23.625  11.509  20.638  1.00  0.00    -0.504 OA
ATOM     21  H   UNL     1      24.230  11.922  21.332  1.00  0.00     0.293 HD
ENDBRANCH  17  20
ENDBRANCH   1  12
BRANCH   2  22
ATOM     22  O   UNL     1      21.741  10.459  15.615  1.00  0.00    -0.502 OA
ATOM     23  H   UNL     1      21.934   9.871  14.813  1.00  0.00     0.293 HD
ENDBRANCH   2  22
BRANCH   6  24
ATOM     24  O   UNL     1      16.795   9.439  13.919  1.00  0.00    -0.507 OA
ATOM     25  H   UNL     1      17.611   9.171  13.391  1.00  0.00     0.293 HD
ENDBRANCH   6  24
BRANCH   8  26
ATOM     26  O   UNL     1      14.258  11.541  17.413  1.00  0.00    -0.508 OA
ATOM     27  H   UNL     1      14.182  12.094  18.259  1.00  0.00     0.293 HD
ENDBRANCH   8  26
TORSDOF 6
ENDMDL
MODEL 3
REMARK VINA RESULT:    -7.220      1.705      2.127
REMARK INTER + INTRA:          -8.962
REMARK INTER:                  -8.645
REMARK INTRA:                  -0.317
REMARK UNBOUND:                -0.265
REMARK SMILES O=c1c(O)c(-c2ccc(O)c(O)c2)oc2cc(O)cc(O)c12
REMARK SMILES IDX 5 1 3 2 2 3 1 4 22 5 20 6 19 7 17 8 16 9 15 10 14 11 6 12
REMARK SMILES IDX 7 13 8 14 9 15 13 16 11 17 10 18 12 20 4 22 21 24 18 26
REMARK H PARENT 10 19 12 21 4 23 21 25 18 27
REMARK Flexibility Score: inf
ROOT
ATOM      1  C   UNL     1      19.825  11.297  17.292  1.00  0.00     0.180 A 
ATOM      2  C   UNL     1      20.034  12.648  17.618  1.00  0.00     0.208 A 
ATOM      3  C   UNL     1      18.924  13.497  17.750  1.00  0.00     0.238 A 
ATOM      4  O   UNL     1      19.121  14.717  17.988  1.00  0.00    -0.285 OA
ATOM      5  C   UNL     1      17.617  12.981  17.573  1.00  0.00     0.111 A 
ATOM      6  C   UNL     1      16.419  13.741  17.723  1.00  0.00     0.134 A 
ATOM      7  C   UNL     1      15.188  13.159  17.395  1.00  0.00     0.093 A 
ATOM      8  C   UNL     1      15.106  11.827  16.985  1.00  0.00     0.123 A 
ATOM      9  C   UNL     1      16.265  11.060  16.893  1.00  0.00     0.094 A 
ATOM     10  C   UNL     1      17.512  11.622  17.178  1.00  0.00     0.146 A 
ATOM     11  O   UNL     1      18.592  10.858  17.067  1.00  0.00    -0.452 OA
ENDROOT
BRANCH   1  12
ATOM     12  C   UNL     1      20.943  10.336  17.160  1.00  0.00     0.025 A 
ATOM     13  C   UNL     1      21.600  10.205  15.928  1.00  0.00     0.016 A 
ATOM     14  C   UNL     1      22.644   9.291  15.778  1.00  0.00     0.051 A 
ATOM     15  C   UNL     1      23.043   8.480  16.845  1.00  0.00     0.157 A 
ATOM     16  C   UNL     1      21.327   9.507  18.229  1.00  0.00     0.062 A 
ATOM     17  C   UNL     1      22.371   8.585  18.086  1.00  0.00     0.158 A 
BRANCH  15  18
ATOM     18  O   UNL     1      24.099   7.591  16.631  1.00  0.00    -0.504 OA
ATOM     19  H   UNL     1      24.331   6.830  17.252  1.00  0.00     0.293 HD
ENDBRANCH  15  18
BRANCH  17  20
ATOM     20  O   UNL     1      22.700   7.795  19.190  1.00  0.00    -0.504 OA
ATOM     21  H   UNL     1      22.774   8.146  20.133  1.00  0.00     0.293 HD
ENDBRANCH  17  20
ENDBRANCH   1  12
BRANCH   2  22
ATOM     22  O   UNL     1      21.334  13.142  17.768  1.00  0.00    -0.502 OA
ATOM     23  H   UNL     1      21.820  13.627  17.023  1.00  0.00     0.293 HD
ENDBRANCH   2  22
BRANCH   6  24
ATOM     24  O   UNL     1      16.380  15.050  18.213  1.00  0.00    -0.507 OA
ATOM     25  H   UNL     1      15.671  15.728  17.982  1.00  0.00     0.293 HD
ENDBRANCH   6  24
BRANCH   8  26
ATOM     26  O   UNL     1      13.875  11.252  16.675  1.00  0.00    -0.508 OA
ATOM     27  H   UNL     1      13.127  11.794  16.258  1.00  0.00     0.293 HD
ENDBRANCH   8  26
TORSDOF 6
ENDMDL
MODEL 4
REMARK VINA RESULT:    -7.051      3.071      6.809
REMARK INTER + INTRA:          -8.758
REMARK INTER:                  -8.613
REMARK INTRA:                  -0.145
REMARK UNBOUND:                -0.265
REMARK SMILES O=c1c(O)c(-c2ccc(O)c(O)c2)oc2cc(O)cc(O)c12
REMARK SMILES IDX 5 1 3 2 2 3 1 4 22 5 20 6 19 7 17 8 16 9 15 10 14 11 6 12
REMARK SMILES IDX 7 13 8 14 9 15 13 16 11 17 10 18 12 20 4 22 21 24 18 26
REMARK H PARENT 10 19 12 21 4 23 21 25 18 27
REMARK Flexibility Score: inf
ROOT
ATOM      1  C   UNL     1      19.408  11.850  17.961  1.00  0.00     0.180 A 
ATOM      2  C   UNL     1      19.693  12.102  16.608  1.00  0.00     0.208 A 
ATOM      3  C   UNL     1      20.632  11.295  15.947  1.00  0.00     0.238 A 
ATOM      4  O   UNL     1      20.922  11.560  14.751  1.00  0.00    -0.285 OA
ATOM      5  C   UNL     1      21.262  10.234  16.642  1.00  0.00     0.111 A 
ATOM      6  C   UNL     1      22.199   9.329  16.061  1.00  0.00     0.134 A 
ATOM      7  C   UNL     1      22.858   8.400  16.876  1.00  0.00     0.093 A 
ATOM      8  C   UNL     1      22.566   8.301  18.238  1.00  0.00     0.123 A 
ATOM      9  C   UNL     1      21.609   9.141  18.802  1.00  0.00     0.094 A 
ATOM     10  C   UNL     1      20.962  10.102  18.023  1.00  0.00     0.146 A 
ATOM     11  O   UNL     1      20.064  10.890  18.603  1.00  0.00    -0.452 OA
ENDROOT
BRANCH   1  12
ATOM     12  C   UNL     1      18.412  12.641  18.718  1.00  0.00     0.025 A 
ATOM     13  C   UNL     1      17.070  12.629  18.314  1.00  0.00     0.016 A 
ATOM     14  C   UNL     1      16.117  13.383  19.003  1.00  0.00     0.051 A 
ATOM     15  C   UNL     1      16.486  14.175  20.095  1.00  0.00     0.157 A 
ATOM     16  C   UNL     1      18.791  13.451  19.802  1.00  0.00     0.062 A 
ATOM     17  C   UNL     1      17.843  14.214  20.497  1.00  0.00     0.158 A 
BRANCH  15  18
ATOM     18  O   UNL     1      15.486  14.899  20.745  1.00  0.00    -0.504 OA
ATOM     19  H   UNL     1      14.796  14.486  21.357  1.00  0.00     0.293 HD
ENDBRANCH  15  18
BRANCH  17  20
ATOM     20  O   UNL     1      18.290  14.995  21.565  1.00  0.00    -0.504 OA
ATOM     21  H   UNL     1      19.232  14.971  21.927  1.00  0.00     0.293 HD
ENDBRANCH  17  20
ENDBRANCH   1  12
BRANCH   2  22
ATOM     22  O   UNL     1      19.074  13.168  15.947  1.00  0.00    -0.502 OA
ATOM     23  H   UNL     1      18.840  14.035  16.414  1.00  0.00     0.293 HD
ENDBRANCH   2  22
BRANCH   6  24
ATOM     24  O   UNL     1      22.496   9.281  14.695  1.00  0.00    -0.507 OA
ATOM     25  H   UNL     1      22.566  10.088  14.095  1.00  0.00     0.293 HD
ENDBRANCH   6  24
BRANCH   8  26
ATOM     26  O   UNL     1      23.215   7.363  19.039  1.00  0.00    -0.508 OA
ATOM     27  H   UNL     1      23.036   6.370  18.942  1.00  0.00     0.293 HD
ENDBRANCH   8  26
TORSDOF 6
ENDMDL
MODEL 5
REMARK VINA RESULT:    -6.935      1.633      6.959
REMARK INTER + INTRA:          -8.618
REMARK INTER:                  -8.399
REMARK INTRA:                  -0.220
REMARK UNBOUND:                -0.265
REMARK SMILES O=c1c(O)c(-c2ccc(O)c(O)c2)oc2cc(O)cc(O)c12
REMARK SMILES IDX 5 1 3 2 2 3 1 4 22 5 20 6 19 7 17 8 16 9 15 10 14 11 6 12
REMARK SMILES IDX 7 13 8 14 9 15 13 16 11 17 10 18 12 20 4 22 21 24 18 26
REMARK H PARENT 10 19 12 21 4 23 21 25 18 27
REMARK Flexibility Score: inf
ROOT
ATOM      1  C   UNL     1      18.657  11.026  16.572  1.00  0.00     0.180 A 
ATOM      2  C   UNL     1      18.888  11.411  17.904  1.00  0.00     0.208 A 
ATOM      3  C   UNL     1      20.101  11.056  18.515  1.00  0.00     0.238 A 
ATOM      4  O   UNL     1      20.279  11.356  19.725  1.00  0.00    -0.285 OA
ATOM      5  C   UNL     1      21.076  10.336  17.782  1.00  0.00     0.111 A 
ATOM      6  C   UNL     1      22.355   9.960  18.289  1.00  0.00     0.134 A 
ATOM      7  C   UNL     1      23.187   9.136  17.519  1.00  0.00     0.093 A 
ATOM      8  C   UNL     1      22.812   8.730  16.237  1.00  0.00     0.123 A 
ATOM      9  C   UNL     1      21.590   9.142  15.711  1.00  0.00     0.094 A 
ATOM     10  C   UNL     1      20.723   9.934  16.468  1.00  0.00     0.146 A 
ATOM     11  O   UNL     1      19.563  10.295  15.932  1.00  0.00    -0.452 OA
ENDROOT
BRANCH   1  12
ATOM     12  C   UNL     1      17.415  11.385  15.852  1.00  0.00     0.025 A 
ATOM     13  C   UNL     1      16.537  10.371  15.442  1.00  0.00     0.016 A 
ATOM     14  C   UNL     1      15.369  10.687  14.745  1.00  0.00     0.051 A 
ATOM     15  C   UNL     1      15.061  12.014  14.430  1.00  0.00     0.157 A 
ATOM     16  C   UNL     1      17.120  12.718  15.518  1.00  0.00     0.062 A 
ATOM     17  C   UNL     1      15.952  13.044  14.816  1.00  0.00     0.158 A 
BRANCH  15  18
ATOM     18  O   UNL     1      13.875  12.263  13.738  1.00  0.00    -0.504 OA
ATOM     19  H   UNL     1      13.826  12.762  12.861  1.00  0.00     0.293 HD
ENDBRANCH  15  18
BRANCH  17  20
ATOM     20  O   UNL     1      15.723  14.389  14.519  1.00  0.00    -0.504 OA
ATOM     21  H   UNL     1      16.268  15.151  14.894  1.00  0.00     0.293 HD
ENDBRANCH  17  20
ENDBRANCH   1  12
BRANCH   2  22
ATOM     22  O   UNL     1      17.904  12.103  18.616  1.00  0.00    -0.502 OA
ATOM     23  H   UNL     1      17.949  13.102  18.775  1.00  0.00     0.293 HD
ENDBRANCH   2  22
BRANCH   6  24
ATOM     24  O   UNL     1      22.865  10.387  19.519  1.00  0.00    -0.507 OA
ATOM     25  H   UNL     1      23.816  10.251  19.823  1.00  0.00     0.293 HD
ENDBRANCH   6  24
BRANCH   8  26
ATOM     26  O   UNL     1      23.652   7.923  15.471  1.00  0.00    -0.508 OA
ATOM     27  H   UNL     1      24.628   8.158  15.332  1.00  0.00     0.293 HD
ENDBRANCH   8  26
TORSDOF 6
ENDMDL
MODEL 6
REMARK VINA RESULT:    -6.895      2.764      3.614
REMARK INTER + INTRA:          -8.570
REMARK INTER:                  -8.663
REMARK INTRA:                   0.092
REMARK UNBOUND:                -0.265
REMARK SMILES O=c1c(O)c(-c2ccc(O)c(O)c2)oc2cc(O)cc(O)c12
REMARK SMILES IDX 5 1 3 2 2 3 1 4 22 5 20 6 19 7 17 8 16 9 15 10 14 11 6 12
REMARK SMILES IDX 7 13 8 14 9 15 13 16 11 17 10 18 12 20 4 22 21 24 18 26
REMARK H PARENT 10 19 12 21 4 23 21 25 18 27
REMARK Flexibility Score: inf
ROOT
ATOM      1  C   UNL     1      19.362  11.074  17.189  1.00  0.00     0.180 A 
ATOM      2  C   UNL     1      18.230  11.082  16.357  1.00  0.00     0.208 A 
ATOM      3  C   UNL     1      17.127  11.874  16.715  1.00  0.00     0.238 A 
ATOM      4  O   UNL     1      16.095  11.835  15.995  1.00  0.00    -0.285 OA
ATOM      5  C   UNL     1      17.176  12.661  17.891  1.00  0.00     0.111 A 
ATOM      6  C   UNL     1      16.133  13.530  18.329  1.00  0.00     0.134 A 
ATOM      7  C   UNL     1      16.237  14.160  19.575  1.00  0.00     0.093 A 
ATOM      8  C   UNL     1      17.374  14.002  20.370  1.00  0.00     0.123 A 
ATOM      9  C   UNL     1      18.424  13.203  19.924  1.00  0.00     0.094 A 
ATOM     10  C   UNL     1      18.334  12.532  18.702  1.00  0.00     0.146 A 
ATOM     11  O   UNL     1      19.353  11.771  18.319  1.00  0.00    -0.452 OA
ENDROOT
BRANCH   1  12
ATOM     12  C   UNL     1      20.572  10.286  16.865  1.00  0.00     0.025 A 
ATOM     13  C   UNL     1      21.072  10.294  15.556  1.00  0.00     0.016 A 
ATOM     14  C   UNL     1      22.202   9.542  15.225  1.00  0.00     0.051 A 
ATOM     15  C   UNL     1      22.844   8.757  16.188  1.00  0.00     0.157 A 
ATOM     16  C   UNL     1      21.202   9.481  17.831  1.00  0.00     0.062 A 
ATOM     17  C   UNL     1      22.334   8.721  17.508  1.00  0.00     0.158 A 
BRANCH  15  18
ATOM     18  O   UNL     1      23.972   8.035  15.795  1.00  0.00    -0.504 OA
ATOM     19  H   UNL     1      24.875   8.451  15.614  1.00  0.00     0.293 HD
ENDBRANCH  15  18
BRANCH  17  20
ATOM     20  O   UNL     1      22.908   7.945  18.516  1.00  0.00    -0.504 OA
ATOM     21  H   UNL     1      23.742   7.390  18.396  1.00  0.00     0.293 HD
ENDBRANCH  17  20
ENDBRANCH   1  12
BRANCH   2  22
ATOM     22  O   UNL     1      18.193  10.282  15.211  1.00  0.00    -0.502 OA
ATOM     23  H   UNL     1      18.358   9.282  15.241  1.00  0.00     0.293 HD
ENDBRANCH   2  22
BRANCH   6  24
ATOM     24  O   UNL     1      14.996  13.829  17.571  1.00  0.00    -0.507 OA
ATOM     25  H   UNL     1      14.516  14.715  17.582  1.00  0.00     0.293 HD
ENDBRANCH   6  24
BRANCH   8  26
ATOM     26  O   UNL     1      17.476  14.645  21.602  1.00  0.00    -0.508 OA
ATOM     27  H   UNL     1      16.724  15.221  21.963  1.00  0.00     0.293 HD
ENDBRANCH   8  26
TORSDOF 6
ENDMDL
MODEL 7
REMARK VINA RESULT:    -6.583      0.695      1.477
REMARK INTER + INTRA:          -8.194
REMARK INTER:                  -7.984
REMARK INTRA:                  -0.210
REMARK UNBOUND:                -0.265
REMARK SMILES O=c1c(O)c(-c2ccc(O)c(O)c2)oc2cc(O)cc(O)c12
REMARK SMILES IDX 5 1 3 2 2 3 1 4 22 5 20 6 19 7 17 8 16 9 15 10 14 11 6 12
REMARK SMILES IDX 7 13 8 14 9 15 13 16 11 17 10 18 12 20 4 22 21 24 18 26
REMARK H PARENT 10 19 12 21 4 23 21 25 18 27
REMARK Flexibility Score: inf
ROOT
ATOM      1  C   UNL     1      19.833  11.075  16.182  1.00  0.00     0.180 A 
ATOM      2  C   UNL     1      20.023  12.379  15.696  1.00  0.00     0.208 A 
ATOM      3  C   UNL     1      18.900  13.152  15.361  1.00  0.00     0.238 A 
ATOM      4  O   UNL     1      19.078  14.300  14.875  1.00  0.00    -0.285 OA
ATOM      5  C   UNL     1      17.599  12.618  15.534  1.00  0.00     0.111 A 
ATOM      6  C   UNL     1      16.391  13.326  15.265  1.00  0.00     0.134 A 
ATOM      7  C   UNL     1      15.165  12.654  15.347  1.00  0.00     0.093 A 
ATOM      8  C   UNL     1      15.100  11.318  15.749  1.00  0.00     0.123 A 
ATOM      9  C   UNL     1      16.271  10.636  16.071  1.00  0.00     0.094 A 
ATOM     10  C   UNL     1      17.512  11.268  15.964  1.00  0.00     0.146 A 
ATOM     11  O   UNL     1      18.604  10.578  16.270  1.00  0.00    -0.452 OA
ENDROOT
BRANCH   1  12
ATOM     12  C   UNL     1      20.966  10.209  16.579  1.00  0.00     0.025 A 
ATOM     13  C   UNL     1      21.806   9.675  15.592  1.00  0.00     0.016 A 
ATOM     14  C   UNL     1      22.870   8.841  15.944  1.00  0.00     0.051 A 
ATOM     15  C   UNL     1      23.105   8.510  17.282  1.00  0.00     0.157 A 
ATOM     16  C   UNL     1      21.186   9.861  17.923  1.00  0.00     0.062 A 
ATOM     17  C   UNL     1      22.248   9.022  18.285  1.00  0.00     0.158 A 
BRANCH  15  18
ATOM     18  O   UNL     1      24.188   7.677  17.568  1.00  0.00    -0.504 OA
ATOM     19  H   UNL     1      24.105   6.776  18.017  1.00  0.00     0.293 HD
ENDBRANCH  15  18
BRANCH  17  20
ATOM     20  O   UNL     1      22.408   8.720  19.639  1.00  0.00    -0.504 OA
ATOM     21  H   UNL     1      23.299   8.702  20.113  1.00  0.00     0.293 HD
ENDBRANCH  17  20
ENDBRANCH   1  12
BRANCH   2  22
ATOM     22  O   UNL     1      21.316  12.880  15.513  1.00  0.00    -0.502 OA
ATOM     23  H   UNL     1      22.075  12.671  16.150  1.00  0.00     0.293 HD
ENDBRANCH   2  22
BRANCH   6  24
ATOM     24  O   UNL     1      16.337  14.686  14.945  1.00  0.00    -0.507 OA
ATOM     25  H   UNL     1      16.793  15.417  15.468  1.00  0.00     0.293 HD
ENDBRANCH   6  24
BRANCH   8  26
ATOM     26  O   UNL     1      13.875  10.661  15.843  1.00  0.00    -0.508 OA
ATOM     27  H   UNL     1      13.642   9.886  15.233  1.00  0.00     0.293 HD
ENDBRANCH   8  26
TORSDOF 6
ENDMDL
MODEL 8
REMARK VINA RESULT:    -6.414      1.981      2.448
REMARK INTER + INTRA:          -7.991
REMARK INTER:                  -8.188
REMARK INTRA:                   0.197
REMARK UNBOUND:                -0.265
REMARK SMILES O=c1c(O)c(-c2ccc(O)c(O)c2)oc2cc(O)cc(O)c12
REMARK SMILES IDX 5 1 3 2 2 3 1 4 22 5 20 6 19 7 17 8 16 9 15 10 14 11 6 12
REMARK SMILES IDX 7 13 8 14 9 15 13 16 11 17 10 18 12 20 4 22 21 24 18 26
REMARK H PARENT 10 19 12 21 4 23 21 25 18 27
REMARK Flexibility Score: inf
ROOT
ATOM      1  C   UNL     1      19.460  12.230  17.138  1.00  0.00     0.180 A 
ATOM      2  C   UNL     1      19.580  13.125  16.061  1.00  0.00     0.208 A 
ATOM      3  C   UNL     1      18.475  13.329  15.219  1.00  0.00     0.238 A 
ATOM      4  O   UNL     1      18.605  14.090  14.224  1.00  0.00    -0.285 OA
ATOM      5  C   UNL     1      17.259  12.650  15.475  1.00  0.00     0.111 A 
ATOM      6  C   UNL     1      16.065  12.812  14.711  1.00  0.00     0.134 A 
ATOM      7  C   UNL     1      14.960  11.992  14.975  1.00  0.00     0.093 A 
ATOM      8  C   UNL     1      14.986  11.061  16.016  1.00  0.00     0.123 A 
ATOM      9  C   UNL     1      16.127  10.938  16.805  1.00  0.00     0.094 A 
ATOM     10  C   UNL     1      17.257  11.716  16.543  1.00  0.00     0.146 A 
ATOM     11  O   UNL     1      18.328  11.559  17.313  1.00  0.00    -0.452 OA
ENDROOT
BRANCH   1  12
ATOM     12  C   UNL     1      20.572  11.982  18.083  1.00  0.00     0.025 A 
ATOM     13  C   UNL     1      21.408  13.042  18.460  1.00  0.00     0.016 A 
ATOM     14  C   UNL     1      22.474  12.825  19.336  1.00  0.00     0.051 A 
ATOM     15  C   UNL     1      22.736  11.547  19.839  1.00  0.00     0.157 A 
ATOM     16  C   UNL     1      20.845  10.692  18.571  1.00  0.00     0.062 A 
ATOM     17  C   UNL     1      21.914  10.464  19.447  1.00  0.00     0.158 A 
BRANCH  15  18
ATOM     18  O   UNL     1      23.812  11.398  20.716  1.00  0.00    -0.504 OA
ATOM     19  H   UNL     1      24.747  11.730  20.525  1.00  0.00     0.293 HD
ENDBRANCH  15  18
BRANCH  17  20
ATOM     20  O   UNL     1      22.126   9.157  19.892  1.00  0.00    -0.504 OA
ATOM     21  H   UNL     1      23.038   8.746  20.022  1.00  0.00     0.293 HD
ENDBRANCH  17  20
ENDBRANCH   1  12
BRANCH   2  22
ATOM     22  O   UNL     1      20.796  13.768  15.813  1.00  0.00    -0.502 OA
ATOM     23  H   UNL     1      21.074  14.613  16.300  1.00  0.00     0.293 HD
ENDBRANCH   2  22
BRANCH   6  24
ATOM     24  O   UNL     1      15.902  13.775  13.710  1.00  0.00    -0.507 OA
ATOM     25  H   UNL     1      15.045  13.938  13.205  1.00  0.00     0.293 HD
ENDBRANCH   6  24
BRANCH   8  26
ATOM     26  O   UNL     1      13.878  10.260  16.281  1.00  0.00    -0.508 OA
ATOM     27  H   UNL     1      13.059  10.628  16.751  1.00  0.00     0.293 HD
ENDBRANCH   8  26
TORSDOF 6
ENDMDL
MODEL 9
REMARK VINA RESULT:    -6.408      2.135      2.258
REMARK INTER + INTRA:          -7.984
REMARK INTER:                  -8.440
REMARK INTRA:                   0.456
REMARK UNBOUND:                -0.265
REMARK SMILES O=c1c(O)c(-c2ccc(O)c(O)c2)oc2cc(O)cc(O)c12
REMARK SMILES IDX 5 1 3 2 2 3 1 4 22 5 20 6 19 7 17 8 16 9 15 10 14 11 6 12
REMARK SMILES IDX 7 13 8 14 9 15 13 16 11 17 10 18 12 20 4 22 21 24 18 26
REMARK H PARENT 10 19 12 21 4 23 21 25 18 27
REMARK Flexibility Score: inf
ROOT
ATOM      1  C   UNL     1      20.175  11.098  17.176  1.00  0.00     0.180 A 
ATOM      2  C   UNL     1      20.026  11.782  15.957  1.00  0.00     0.208 A 
ATOM      3  C   UNL     1      19.070  12.805  15.862  1.00  0.00     0.238 A 
ATOM      4  O   UNL     1      18.904  13.377  14.753  1.00  0.00    -0.285 OA
ATOM      5  C   UNL     1      18.286  13.144  16.992  1.00  0.00     0.111 A 
ATOM      6  C   UNL     1      17.316  14.190  17.020  1.00  0.00     0.134 A 
ATOM      7  C   UNL     1      16.506  14.349  18.152  1.00  0.00     0.093 A 
ATOM      8  C   UNL     1      16.676  13.543  19.279  1.00  0.00     0.123 A 
ATOM      9  C   UNL     1      17.661  12.558  19.283  1.00  0.00     0.094 A 
ATOM     10  C   UNL     1      18.460  12.350  18.156  1.00  0.00     0.146 A 
ATOM     11  O   UNL     1      19.379  11.393  18.197  1.00  0.00    -0.452 OA
ENDROOT
BRANCH   1  12
ATOM     12  C   UNL     1      21.178  10.025  17.361  1.00  0.00     0.025 A 
ATOM     13  C   UNL     1      21.446   9.545  18.650  1.00  0.00     0.016 A 
ATOM     14  C   UNL     1      22.402   8.546  18.848  1.00  0.00     0.051 A 
ATOM     15  C   UNL     1      23.120   8.020  17.769  1.00  0.00     0.157 A 
ATOM     16  C   UNL     1      21.912   9.514  16.276  1.00  0.00     0.062 A 
ATOM     17  C   UNL     1      22.876   8.515  16.466  1.00  0.00     0.158 A 
BRANCH  15  18
ATOM     18  O   UNL     1      24.056   7.020  18.034  1.00  0.00    -0.504 OA
ATOM     19  H   UNL     1      23.830   6.037  18.104  1.00  0.00     0.293 HD
ENDBRANCH  15  18
BRANCH  17  20
ATOM     20  O   UNL     1      23.567   8.054  15.344  1.00  0.00    -0.504 OA
ATOM     21  H   UNL     1      24.397   7.481  15.387  1.00  0.00     0.293 HD
ENDBRANCH  17  20
ENDBRANCH   1  12
BRANCH   2  22
ATOM     22  O   UNL     1      20.796  11.417  14.848  1.00  0.00    -0.502 OA
ATOM     23  H   UNL     1      21.535  10.726  14.903  1.00  0.00     0.293 HD
ENDBRANCH   2  22
BRANCH   6  24
ATOM     24  O   UNL     1      17.128  15.109  15.984  1.00  0.00    -0.507 OA
ATOM     25  H   UNL     1      16.267  15.232  15.474  1.00  0.00     0.293 HD
ENDBRANCH   6  24
BRANCH   8  26
ATOM     26  O   UNL     1      15.877  13.719  20.407  1.00  0.00    -0.508 OA
ATOM     27  H   UNL     1      15.502  14.628  20.653  1.00  0.00     0.293 HD
ENDBRANCH   8  26
TORSDOF 6
ENDMDL
