MODEL 1
REMARK VINA RESULT:    -6.182      0.000      0.000
REMARK INTER + INTRA:         -10.015
REMARK INTER:                  -9.073
REMARK INTRA:                  -0.941
REMARK UNBOUND:                -0.941
REMARK SMILES CC(C)(O)CC[C@H](O)[C@](C)(O)[C@@H]1CC[C@]2(O)C3=CC(=O)[C@H]4C[C@H](O)[C@@H](O)C[C@]4(C)[C@H]3CC[C@]12C
REMARK SMILES IDX 6 1 7 2 9 3 10 4 12 5 34 6 33 7 32 8 15 9 31 10 17 11 14 12
REMARK SMILES IDX 13 13 30 14 18 15 28 16 19 17 21 18 27 19 29 20 20 21 22 22
REMARK SMILES IDX 25 23 23 24 16 25 26 27 24 29 11 31 8 33 5 35 2 36 1 37 3 38
REMARK SMILES IDX 4 39
REMARK H PARENT 16 26 26 28 24 30 11 32 8 34 4 40
REMARK Flexibility Score: inf
ROOT
ATOM      1  C   UNL     1       3.258 -20.852  -7.758  1.00  0.00     0.038 C 
ENDROOT
BRANCH   1   2
ATOM      2  C   UNL     1       4.458 -20.082  -7.149  1.00  0.00     0.146 C 
BRANCH   2   3
ATOM      3  C   UNL     1       5.459 -20.936  -6.274  1.00  0.00     0.091 C 
ATOM      4  C   UNL     1       6.791 -21.048  -7.086  1.00  0.00     0.045 C 
BRANCH   3   5
ATOM      5  C   UNL     1       5.677 -20.309  -4.829  1.00  0.00     0.032 C 
ATOM      6  C   UNL     1       6.770 -18.004  -5.121  1.00  0.00     0.015 C 
ATOM      7  C   UNL     1       5.537 -18.768  -4.552  1.00  0.00     0.006 C 
ATOM      8  C   UNL     1       4.273 -18.076  -5.169  1.00  0.00     0.011 C 
ATOM      9  C   UNL     1       5.517 -18.708  -2.977  1.00  0.00     0.092 C 
ATOM     10  C   UNL     1       3.002 -18.187  -4.314  1.00  0.00     0.009 C 
ATOM     11  C   UNL     1       4.630 -17.555  -2.465  1.00  0.00    -0.031 C 
ATOM     12  C   UNL     1       4.955 -20.084  -2.506  1.00  0.00     0.041 C 
ATOM     13  C   UNL     1       4.933 -21.027  -3.702  1.00  0.00     0.010 C 
ATOM     14  C   UNL     1       3.159 -17.520  -2.918  1.00  0.00     0.025 C 
ATOM     15  C   UNL     1       5.110 -16.618  -1.616  1.00  0.00     0.050 C 
ATOM     16  C   UNL     1       2.496 -16.090  -2.779  1.00  0.00    -0.013 C 
ATOM     17  C   UNL     1       4.252 -15.559  -1.064  1.00  0.00     0.159 C 
ATOM     18  C   UNL     1       2.770 -15.616  -1.316  1.00  0.00     0.070 C 
ATOM     19  C   UNL     1       0.948 -16.183  -2.978  1.00  0.00     0.042 C 
ATOM     20  C   UNL     1       3.111 -15.115  -3.824  1.00  0.00     0.013 C 
ATOM     21  O   UNL     1       4.758 -14.662  -0.335  1.00  0.00    -0.295 OA
ATOM     22  C   UNL     1       2.035 -14.311  -0.948  1.00  0.00     0.047 C 
ATOM     23  C   UNL     1       0.162 -14.920  -2.553  1.00  0.00     0.143 C 
ATOM     24  C   UNL     1       0.515 -14.470  -1.123  1.00  0.00     0.143 C 
BRANCH   9  25
ATOM     25  O   UNL     1       6.846 -18.584  -2.504  1.00  0.00    -0.385 OA
ATOM     26  H   UNL     1       6.846 -18.689  -1.516  1.00  0.00     0.211 HD
ENDBRANCH   9  25
BRANCH  23  27
ATOM     27  O   UNL     1       0.385 -13.879  -3.468  1.00  0.00    -0.390 OA
ATOM     28  H   UNL     1      -0.232 -14.026  -4.231  1.00  0.00     0.211 HD
ENDBRANCH  23  27
BRANCH  24  29
ATOM     29  O   UNL     1       0.012 -15.409  -0.206  1.00  0.00    -0.390 OA
ATOM     30  H   UNL     1       0.792 -15.798   0.266  1.00  0.00     0.211 HD
ENDBRANCH  24  29
ENDBRANCH   3   5
BRANCH   3  31
ATOM     31  O   UNL     1       4.943 -22.242  -6.146  1.00  0.00    -0.387 OA
ATOM     32  H   UNL     1       4.740 -22.406  -5.190  1.00  0.00     0.211 HD
ENDBRANCH   3  31
ENDBRANCH   2   3
BRANCH   2  33
ATOM     33  O   UNL     1       5.181 -19.492  -8.207  1.00  0.00    -0.390 OA
ATOM     34  H   UNL     1       6.127 -19.406  -7.914  1.00  0.00     0.211 HD
ENDBRANCH   2  33
ENDBRANCH   1   2
BRANCH   1  35
ATOM     35  C   UNL     1       1.915 -20.387  -7.157  1.00  0.00     0.037 C 
BRANCH  35  36
ATOM     36  C   UNL     1       1.278 -21.392  -6.155  1.00  0.00     0.059 C 
ATOM     37  C   UNL     1       0.726 -20.603  -4.954  1.00  0.00     0.042 C 
ATOM     38  C   UNL     1       0.105 -22.169  -6.803  1.00  0.00     0.042 C 
BRANCH  36  39
ATOM     39  O   UNL     1       2.257 -22.280  -5.661  1.00  0.00    -0.390 OA
ATOM     40  H   UNL     1       1.893 -23.203  -5.682  1.00  0.00     0.211 HD
ENDBRANCH  36  39
ENDBRANCH  35  36
ENDBRANCH   1  35
TORSDOF 11
ENDMDL
MODEL 2
REMARK VINA RESULT:    -6.129     10.221     13.194
REMARK INTER + INTRA:          -9.937
REMARK INTER:                  -9.290
REMARK INTRA:                  -0.647
REMARK UNBOUND:                -0.941
REMARK SMILES CC(C)(O)CC[C@H](O)[C@](C)(O)[C@@H]1CC[C@]2(O)C3=CC(=O)[C@H]4C[C@H](O)[C@@H](O)C[C@]4(C)[C@H]3CC[C@]12C
REMARK SMILES IDX 6 1 7 2 9 3 10 4 12 5 34 6 33 7 32 8 15 9 31 10 17 11 14 12
REMARK SMILES IDX 13 13 30 14 18 15 28 16 19 17 21 18 27 19 29 20 20 21 22 22
REMARK SMILES IDX 25 23 23 24 16 25 26 27 24 29 11 31 8 33 5 35 2 36 1 37 3 38
REMARK SMILES IDX 4 39
REMARK H PARENT 16 26 26 28 24 30 11 32 8 34 4 40
REMARK Flexibility Score: inf
ROOT
ATOM      1  C   UNL     1       8.793 -24.373   2.480  1.00  0.00     0.038 C 
ENDROOT
BRANCH   1   2
ATOM      2  C   UNL     1       7.607 -23.581   3.092  1.00  0.00     0.146 C 
BRANCH   2   3
ATOM      3  C   UNL     1       7.837 -23.000   4.542  1.00  0.00     0.091 C 
ATOM      4  C   UNL     1       7.833 -21.441   4.414  1.00  0.00     0.045 C 
BRANCH   3   5
ATOM      5  C   UNL     1       6.753 -23.529   5.579  1.00  0.00     0.032 C 
ATOM      6  C   UNL     1       4.427 -23.143   4.559  1.00  0.00     0.015 C 
ATOM      7  C   UNL     1       5.414 -24.211   5.118  1.00  0.00     0.006 C 
ATOM      8  C   UNL     1       5.554 -25.301   4.000  1.00  0.00     0.011 C 
ATOM      9  C   UNL     1       4.870 -24.830   6.462  1.00  0.00     0.092 C 
ATOM     10  C   UNL     1       5.910 -26.704   4.515  1.00  0.00     0.009 C 
ATOM     11  C   UNL     1       4.100 -26.143   6.211  1.00  0.00    -0.031 C 
ATOM     12  C   UNL     1       6.124 -25.090   7.349  1.00  0.00     0.041 C 
ATOM     13  C   UNL     1       7.316 -24.388   6.711  1.00  0.00     0.010 C 
ATOM     14  C   UNL     1       4.832 -27.280   5.477  1.00  0.00     0.025 C 
ATOM     15  C   UNL     1       2.831 -26.313   6.649  1.00  0.00     0.050 C 
ATOM     16  C   UNL     1       3.853 -28.340   4.830  1.00  0.00    -0.013 C 
ATOM     17  C   UNL     1       2.117 -27.586   6.480  1.00  0.00     0.159 C 
ATOM     18  C   UNL     1       2.869 -28.781   5.959  1.00  0.00     0.070 C 
ATOM     19  C   UNL     1       4.646 -29.602   4.356  1.00  0.00     0.042 C 
ATOM     20  C   UNL     1       3.098 -27.701   3.627  1.00  0.00     0.013 C 
ATOM     21  O   UNL     1       0.910 -27.677   6.837  1.00  0.00    -0.295 OA
ATOM     22  C   UNL     1       1.952 -29.952   5.550  1.00  0.00     0.047 C 
ATOM     23  C   UNL     1       3.768 -30.826   4.003  1.00  0.00     0.143 C 
ATOM     24  C   UNL     1       2.782 -31.178   5.133  1.00  0.00     0.143 C 
BRANCH   9  25
ATOM     25  O   UNL     1       4.055 -23.872   7.113  1.00  0.00    -0.385 OA
ATOM     26  H   UNL     1       4.594 -23.413   7.810  1.00  0.00     0.211 HD
ENDBRANCH   9  25
BRANCH  23  27
ATOM     27  O   UNL     1       3.081 -30.600   2.800  1.00  0.00    -0.390 OA
ATOM     28  H   UNL     1       2.340 -31.259   2.761  1.00  0.00     0.211 HD
ENDBRANCH  23  27
BRANCH  24  29
ATOM     29  O   UNL     1       3.499 -31.681   6.231  1.00  0.00    -0.390 OA
ATOM     30  H   UNL     1       3.997 -32.477   5.912  1.00  0.00     0.211 HD
ENDBRANCH  24  29
ENDBRANCH   3   5
BRANCH   3  31
ATOM     31  O   UNL     1       9.124 -23.375   4.980  1.00  0.00    -0.387 OA
ATOM     32  H   UNL     1       9.592 -23.823   4.230  1.00  0.00     0.211 HD
ENDBRANCH   3  31
ENDBRANCH   2   3
BRANCH   2  33
ATOM     33  O   UNL     1       7.303 -22.510   2.225  1.00  0.00    -0.390 OA
ATOM     34  H   UNL     1       7.006 -21.744   2.785  1.00  0.00     0.211 HD
ENDBRANCH   2  33
ENDBRANCH   1   2
BRANCH   1  35
ATOM     35  C   UNL     1       8.655 -24.516   0.950  1.00  0.00     0.037 C 
BRANCH  35  36
ATOM     36  C   UNL     1       7.861 -25.774   0.493  1.00  0.00     0.059 C 
ATOM     37  C   UNL     1       8.457 -26.274  -0.835  1.00  0.00     0.042 C 
ATOM     38  C   UNL     1       7.969 -26.917   1.532  1.00  0.00     0.042 C 
BRANCH  36  39
ATOM     39  O   UNL     1       6.512 -25.441   0.250  1.00  0.00    -0.390 OA
ATOM     40  H   UNL     1       6.479 -24.687  -0.396  1.00  0.00     0.211 HD
ENDBRANCH  36  39
ENDBRANCH  35  36
ENDBRANCH   1  35
TORSDOF 11
ENDMDL
MODEL 3
REMARK VINA RESULT:    -6.036      2.809      6.062
REMARK INTER + INTRA:          -9.800
REMARK INTER:                  -8.927
REMARK INTRA:                  -0.873
REMARK UNBOUND:                -0.941
REMARK SMILES CC(C)(O)CC[C@H](O)[C@](C)(O)[C@@H]1CC[C@]2(O)C3=CC(=O)[C@H]4C[C@H](O)[C@@H](O)C[C@]4(C)[C@H]3CC[C@]12C
REMARK SMILES IDX 6 1 7 2 9 3 10 4 12 5 34 6 33 7 32 8 15 9 31 10 17 11 14 12
REMARK SMILES IDX 13 13 30 14 18 15 28 16 19 17 21 18 27 19 29 20 20 21 22 22
REMARK SMILES IDX 25 23 23 24 16 25 26 27 24 29 11 31 8 33 5 35 2 36 1 37 3 38
REMARK SMILES IDX 4 39
REMARK H PARENT 16 26 26 28 24 30 11 32 8 34 4 40
REMARK Flexibility Score: inf
ROOT
ATOM      1  C   UNL     1       8.685 -17.722  -6.195  1.00  0.00     0.038 C 
ENDROOT
BRANCH   1   2
ATOM      2  C   UNL     1       7.813 -17.086  -5.081  1.00  0.00     0.146 C 
BRANCH   2   3
ATOM      3  C   UNL     1       8.092 -17.589  -3.610  1.00  0.00     0.091 C 
ATOM      4  C   UNL     1       8.646 -16.365  -2.809  1.00  0.00     0.045 C 
BRANCH   3   5
ATOM      5  C   UNL     1       6.799 -18.223  -2.937  1.00  0.00     0.032 C 
ATOM      6  C   UNL     1       4.865 -16.554  -3.208  1.00  0.00     0.015 C 
ATOM      7  C   UNL     1       5.355 -18.001  -3.518  1.00  0.00     0.006 C 
ATOM      8  C   UNL     1       5.208 -18.187  -5.068  1.00  0.00     0.011 C 
ATOM      9  C   UNL     1       4.504 -19.064  -2.725  1.00  0.00     0.092 C 
ATOM     10  C   UNL     1       4.997 -19.641  -5.519  1.00  0.00     0.009 C 
ATOM     11  C   UNL     1       3.349 -19.619  -3.583  1.00  0.00    -0.031 C 
ATOM     12  C   UNL     1       5.496 -20.202  -2.338  1.00  0.00     0.041 C 
ATOM     13  C   UNL     1       6.914 -19.712  -2.606  1.00  0.00     0.010 C 
ATOM     14  C   UNL     1       3.700 -20.268  -4.934  1.00  0.00     0.025 C 
ATOM     15  C   UNL     1       2.066 -19.575  -3.155  1.00  0.00     0.050 C 
ATOM     16  C   UNL     1       2.476 -20.333  -5.934  1.00  0.00    -0.013 C 
ATOM     17  C   UNL     1       0.968 -20.169  -3.932  1.00  0.00     0.159 C 
ATOM     18  C   UNL     1       1.298 -20.991  -5.148  1.00  0.00     0.070 C 
ATOM     19  C   UNL     1       2.815 -21.246  -7.157  1.00  0.00     0.042 C 
ATOM     20  C   UNL     1       2.112 -18.900  -6.422  1.00  0.00     0.013 C 
ATOM     21  O   UNL     1      -0.221 -20.038  -3.532  1.00  0.00    -0.295 OA
ATOM     22  C   UNL     1       0.070 -21.300  -6.030  1.00  0.00     0.047 C 
ATOM     23  C   UNL     1       1.600 -21.640  -8.030  1.00  0.00     0.143 C 
ATOM     24  C   UNL     1       0.451 -22.232  -7.193  1.00  0.00     0.143 C 
BRANCH   9  25
ATOM     25  O   UNL     1       4.021 -18.470  -1.533  1.00  0.00    -0.385 OA
ATOM     26  H   UNL     1       3.453 -17.690  -1.771  1.00  0.00     0.211 HD
ENDBRANCH   9  25
BRANCH  23  27
ATOM     27  O   UNL     1       1.154 -20.532  -8.768  1.00  0.00    -0.390 OA
ATOM     28  H   UNL     1       1.929 -20.201  -9.292  1.00  0.00     0.211 HD
ENDBRANCH  23  27
BRANCH  24  29
ATOM     29  O   UNL     1       0.838 -23.492  -6.704  1.00  0.00    -0.390 OA
ATOM     30  H   UNL     1       1.829 -23.500  -6.680  1.00  0.00     0.211 HD
ENDBRANCH  24  29
ENDBRANCH   3   5
BRANCH   3  31
ATOM     31  O   UNL     1       9.119 -18.554  -3.651  1.00  0.00    -0.387 OA
ATOM     32  H   UNL     1       9.194 -18.971  -2.756  1.00  0.00     0.211 HD
ENDBRANCH   3  31
ENDBRANCH   2   3
BRANCH   2  33
ATOM     33  O   UNL     1       8.005 -15.689  -5.119  1.00  0.00    -0.390 OA
ATOM     34  H   UNL     1       8.539 -15.481  -5.932  1.00  0.00     0.211 HD
ENDBRANCH   2  33
ENDBRANCH   1   2
BRANCH   1  35
ATOM     35  C   UNL     1       8.025 -17.589  -7.584  1.00  0.00     0.037 C 
BRANCH  35  36
ATOM     36  C   UNL     1       7.826 -18.939  -8.331  1.00  0.00     0.059 C 
ATOM     37  C   UNL     1       8.136 -20.089  -7.357  1.00  0.00     0.042 C 
ATOM     38  C   UNL     1       6.366 -19.102  -8.823  1.00  0.00     0.042 C 
BRANCH  36  39
ATOM     39  O   UNL     1       8.733 -19.042  -9.407  1.00  0.00    -0.390 OA
ATOM     40  H   UNL     1       9.517 -18.462  -9.223  1.00  0.00     0.211 HD
ENDBRANCH  36  39
ENDBRANCH  35  36
ENDBRANCH   1  35
TORSDOF 11
ENDMDL
MODEL 4
REMARK VINA RESULT:    -6.001     10.272     12.835
REMARK INTER + INTRA:          -9.750
REMARK INTER:                  -8.873
REMARK INTRA:                  -0.877
REMARK UNBOUND:                -0.941
REMARK SMILES CC(C)(O)CC[C@H](O)[C@](C)(O)[C@@H]1CC[C@]2(O)C3=CC(=O)[C@H]4C[C@H](O)[C@@H](O)C[C@]4(C)[C@H]3CC[C@]12C
REMARK SMILES IDX 6 1 7 2 9 3 10 4 12 5 34 6 33 7 32 8 15 9 31 10 17 11 14 12
REMARK SMILES IDX 13 13 30 14 18 15 28 16 19 17 21 18 27 19 29 20 20 21 22 22
REMARK SMILES IDX 25 23 23 24 16 25 26 27 24 29 11 31 8 33 5 35 2 36 1 37 3 38
REMARK SMILES IDX 4 39
REMARK H PARENT 16 26 26 28 24 30 11 32 8 34 4 40
REMARK Flexibility Score: inf
ROOT
ATOM      1  C   UNL     1       8.373 -26.386   1.336  1.00  0.00     0.038 C 
ENDROOT
BRANCH   1   2
ATOM      2  C   UNL     1       7.232 -25.365   1.588  1.00  0.00     0.146 C 
BRANCH   2   3
ATOM      3  C   UNL     1       7.600 -24.121   2.488  1.00  0.00     0.091 C 
ATOM      4  C   UNL     1       7.580 -22.864   1.557  1.00  0.00     0.045 C 
BRANCH   3   5
ATOM      5  C   UNL     1       6.623 -23.972   3.734  1.00  0.00     0.032 C 
ATOM      6  C   UNL     1       4.238 -23.650   2.837  1.00  0.00     0.015 C 
ATOM      7  C   UNL     1       5.158 -24.541   3.725  1.00  0.00     0.006 C 
ATOM      8  C   UNL     1       4.998 -26.004   3.186  1.00  0.00     0.011 C 
ATOM      9  C   UNL     1       4.745 -24.436   5.243  1.00  0.00     0.092 C 
ATOM     10  C   UNL     1       5.252 -27.102   4.231  1.00  0.00     0.009 C 
ATOM     11  C   UNL     1       3.792 -25.579   5.650  1.00  0.00    -0.031 C 
ATOM     12  C   UNL     1       6.074 -24.516   6.052  1.00  0.00     0.041 C 
ATOM     13  C   UNL     1       7.237 -24.363   5.079  1.00  0.00     0.010 C 
ATOM     14  C   UNL     1       4.264 -27.027   5.430  1.00  0.00     0.025 C 
ATOM     15  C   UNL     1       2.590 -25.327   6.218  1.00  0.00     0.050 C 
ATOM     16  C   UNL     1       3.078 -28.072   5.388  1.00  0.00    -0.013 C 
ATOM     17  C   UNL     1       1.708 -26.410   6.678  1.00  0.00     0.159 C 
ATOM     18  C   UNL     1       2.224 -27.823   6.672  1.00  0.00     0.070 C 
ATOM     19  C   UNL     1       3.633 -29.533   5.450  1.00  0.00     0.042 C 
ATOM     20  C   UNL     1       2.239 -27.874   4.092  1.00  0.00     0.013 C 
ATOM     21  O   UNL     1       0.564 -26.132   7.133  1.00  0.00    -0.295 OA
ATOM     22  C   UNL     1       1.120 -28.879   6.888  1.00  0.00     0.047 C 
ATOM     23  C   UNL     1       2.570 -30.620   5.737  1.00  0.00     0.143 C 
ATOM     24  C   UNL     1       1.724 -30.291   6.981  1.00  0.00     0.143 C 
BRANCH   9  25
ATOM     25  O   UNL     1       4.157 -23.169   5.473  1.00  0.00    -0.385 OA
ATOM     26  H   UNL     1       4.876 -22.482   5.495  1.00  0.00     0.211 HD
ENDBRANCH   9  25
BRANCH  23  27
ATOM     27  O   UNL     1       1.746 -30.802   4.614  1.00  0.00    -0.390 OA
ATOM     28  H   UNL     1       2.343 -30.857   3.823  1.00  0.00     0.211 HD
ENDBRANCH  23  27
BRANCH  24  29
ATOM     29  O   UNL     1       2.527 -30.405   8.129  1.00  0.00    -0.390 OA
ATOM     30  H   UNL     1       3.288 -29.781   8.012  1.00  0.00     0.211 HD
ENDBRANCH  24  29
ENDBRANCH   3   5
BRANCH   3  31
ATOM     31  O   UNL     1       8.925 -24.274   2.948  1.00  0.00    -0.387 OA
ATOM     32  H   UNL     1       9.496 -23.610   2.485  1.00  0.00     0.211 HD
ENDBRANCH   3  31
ENDBRANCH   2   3
BRANCH   2  33
ATOM     33  O   UNL     1       6.783 -24.894   0.337  1.00  0.00    -0.390 OA
ATOM     34  H   UNL     1       5.893 -24.472   0.475  1.00  0.00     0.211 HD
ENDBRANCH   2  33
ENDBRANCH   1   2
BRANCH   1  35
ATOM     35  C   UNL     1       7.993 -27.801   1.820  1.00  0.00     0.037 C 
BRANCH  35  36
ATOM     36  C   UNL     1       7.265 -28.669   0.754  1.00  0.00     0.059 C 
ATOM     37  C   UNL     1       8.233 -29.762   0.267  1.00  0.00     0.042 C 
ATOM     38  C   UNL     1       6.013 -29.362   1.349  1.00  0.00     0.042 C 
BRANCH  36  39
ATOM     39  O   UNL     1       6.919 -27.883  -0.366  1.00  0.00    -0.390 OA
ATOM     40  H   UNL     1       7.197 -26.945  -0.198  1.00  0.00     0.211 HD
ENDBRANCH  36  39
ENDBRANCH  35  36
ENDBRANCH   1  35
TORSDOF 11
ENDMDL
MODEL 5
REMARK VINA RESULT:    -5.963     11.132     13.547
REMARK INTER + INTRA:          -9.693
REMARK INTER:                  -8.503
REMARK INTRA:                  -1.191
REMARK UNBOUND:                -0.941
REMARK SMILES CC(C)(O)CC[C@H](O)[C@](C)(O)[C@@H]1CC[C@]2(O)C3=CC(=O)[C@H]4C[C@H](O)[C@@H](O)C[C@]4(C)[C@H]3CC[C@]12C
REMARK SMILES IDX 6 1 7 2 9 3 10 4 12 5 34 6 33 7 32 8 15 9 31 10 17 11 14 12
REMARK SMILES IDX 13 13 30 14 18 15 28 16 19 17 21 18 27 19 29 20 20 21 22 22
REMARK SMILES IDX 25 23 23 24 16 25 26 27 24 29 11 31 8 33 5 35 2 36 1 37 3 38
REMARK SMILES IDX 4 39
REMARK H PARENT 16 26 26 28 24 30 11 32 8 34 4 40
REMARK Flexibility Score: inf
ROOT
ATOM      1  C   UNL     1       1.915 -31.491   4.981  1.00  0.00     0.038 C 
ENDROOT
BRANCH   1   2
ATOM      2  C   UNL     1       3.098 -31.812   4.029  1.00  0.00     0.146 C 
BRANCH   2   3
ATOM      3  C   UNL     1       4.510 -31.991   4.714  1.00  0.00     0.091 C 
ATOM      4  C   UNL     1       4.763 -33.529   4.841  1.00  0.00     0.045 C 
BRANCH   3   5
ATOM      5  C   UNL     1       5.664 -31.248   3.911  1.00  0.00     0.032 C 
ATOM      6  C   UNL     1       4.643 -30.294   1.756  1.00  0.00     0.015 C 
ATOM      7  C   UNL     1       5.399 -29.945   3.073  1.00  0.00     0.006 C 
ATOM      8  C   UNL     1       4.545 -28.838   3.784  1.00  0.00     0.011 C 
ATOM      9  C   UNL     1       6.860 -29.438   2.764  1.00  0.00     0.092 C 
ATOM     10  C   UNL     1       5.349 -27.900   4.698  1.00  0.00     0.009 C 
ATOM     11  C   UNL     1       6.924 -27.899   2.701  1.00  0.00    -0.031 C 
ATOM     12  C   UNL     1       7.751 -29.977   3.924  1.00  0.00     0.041 C 
ATOM     13  C   UNL     1       6.944 -31.002   4.711  1.00  0.00     0.010 C 
ATOM     14  C   UNL     1       6.441 -27.104   3.928  1.00  0.00     0.025 C 
ATOM     15  C   UNL     1       7.420 -27.256   1.619  1.00  0.00     0.050 C 
ATOM     16  C   UNL     1       6.068 -25.604   3.595  1.00  0.00    -0.013 C 
ATOM     17  C   UNL     1       7.554 -25.792   1.580  1.00  0.00     0.159 C 
ATOM     18  C   UNL     1       7.291 -25.003   2.833  1.00  0.00     0.070 C 
ATOM     19  C   UNL     1       5.864 -24.784   4.911  1.00  0.00     0.042 C 
ATOM     20  C   UNL     1       4.773 -25.557   2.731  1.00  0.00     0.013 C 
ATOM     21  O   UNL     1       7.952 -25.230   0.522  1.00  0.00    -0.295 OA
ATOM     22  C   UNL     1       7.174 -23.484   2.587  1.00  0.00     0.047 C 
ATOM     23  C   UNL     1       5.812 -23.250   4.720  1.00  0.00     0.143 C 
ATOM     24  C   UNL     1       7.016 -22.724   3.915  1.00  0.00     0.143 C 
BRANCH   9  25
ATOM     25  O   UNL     1       7.303 -30.022   1.553  1.00  0.00    -0.385 OA
ATOM     26  H   UNL     1       7.929 -29.394   1.105  1.00  0.00     0.211 HD
ENDBRANCH   9  25
BRANCH  23  27
ATOM     27  O   UNL     1       4.607 -22.878   4.104  1.00  0.00    -0.390 OA
ATOM     28  H   UNL     1       4.579 -21.886   4.096  1.00  0.00     0.211 HD
ENDBRANCH  23  27
BRANCH  24  29
ATOM     29  O   UNL     1       8.180 -22.849   4.692  1.00  0.00    -0.390 OA
ATOM     30  H   UNL     1       8.487 -21.930   4.902  1.00  0.00     0.211 HD
ENDBRANCH  24  29
ENDBRANCH   3   5
BRANCH   3  31
ATOM     31  O   UNL     1       4.444 -31.474   6.024  1.00  0.00    -0.387 OA
ATOM     32  H   UNL     1       5.292 -31.001   6.218  1.00  0.00     0.211 HD
ENDBRANCH   3  31
ENDBRANCH   2   3
BRANCH   2  33
ATOM     33  O   UNL     1       2.787 -32.997   3.330  1.00  0.00    -0.390 OA
ATOM     34  H   UNL     1       1.997 -32.810   2.756  1.00  0.00     0.211 HD
ENDBRANCH   2  33
ENDBRANCH   1   2
BRANCH   1  35
ATOM     35  C   UNL     1       1.403 -30.048   4.791  1.00  0.00     0.037 C 
BRANCH  35  36
ATOM     36  C   UNL     1       1.488 -29.164   6.069  1.00  0.00     0.059 C 
ATOM     37  C   UNL     1       1.527 -27.686   5.641  1.00  0.00     0.042 C 
ATOM     38  C   UNL     1       0.253 -29.372   6.981  1.00  0.00     0.042 C 
BRANCH  36  39
ATOM     39  O   UNL     1       2.682 -29.430   6.771  1.00  0.00    -0.390 OA
ATOM     40  H   UNL     1       3.088 -30.262   6.411  1.00  0.00     0.211 HD
ENDBRANCH  36  39
ENDBRANCH  35  36
ENDBRANCH   1  35
TORSDOF 11
ENDMDL
MODEL 6
REMARK VINA RESULT:    -5.904     12.219     14.590
REMARK INTER + INTRA:          -9.607
REMARK INTER:                  -9.343
REMARK INTRA:                  -0.264
REMARK UNBOUND:                -0.941
REMARK SMILES CC(C)(O)CC[C@H](O)[C@](C)(O)[C@@H]1CC[C@]2(O)C3=CC(=O)[C@H]4C[C@H](O)[C@@H](O)C[C@]4(C)[C@H]3CC[C@]12C
REMARK SMILES IDX 6 1 7 2 9 3 10 4 12 5 34 6 33 7 32 8 15 9 31 10 17 11 14 12
REMARK SMILES IDX 13 13 30 14 18 15 28 16 19 17 21 18 27 19 29 20 20 21 22 22
REMARK SMILES IDX 25 23 23 24 16 25 26 27 24 29 11 31 8 33 5 35 2 36 1 37 3 38
REMARK SMILES IDX 4 39
REMARK H PARENT 16 26 26 28 24 30 11 32 8 34 4 40
REMARK Flexibility Score: inf
ROOT
ATOM      1  C   UNL     1       3.592 -33.049   7.027  1.00  0.00     0.038 C 
ENDROOT
BRANCH   1   2
ATOM      2  C   UNL     1       4.064 -31.835   6.186  1.00  0.00     0.146 C 
BRANCH   2   3
ATOM      3  C   UNL     1       4.136 -32.059   4.624  1.00  0.00     0.091 C 
ATOM      4  C   UNL     1       2.770 -31.579   4.032  1.00  0.00     0.045 C 
BRANCH   3   5
ATOM      5  C   UNL     1       5.379 -31.315   3.968  1.00  0.00     0.032 C 
ATOM      6  C   UNL     1       4.634 -30.376   1.697  1.00  0.00     0.015 C 
ATOM      7  C   UNL     1       5.217 -30.017   3.097  1.00  0.00     0.006 C 
ATOM      8  C   UNL     1       4.278 -28.911   3.689  1.00  0.00     0.011 C 
ATOM      9  C   UNL     1       6.704 -29.506   2.971  1.00  0.00     0.092 C 
ATOM     10  C   UNL     1       4.957 -27.965   4.692  1.00  0.00     0.009 C 
ATOM     11  C   UNL     1       6.770 -27.967   2.909  1.00  0.00    -0.031 C 
ATOM     12  C   UNL     1       7.444 -30.036   4.236  1.00  0.00     0.041 C 
ATOM     13  C   UNL     1       6.548 -31.061   4.921  1.00  0.00     0.010 C 
ATOM     14  C   UNL     1       6.135 -27.169   4.061  1.00  0.00     0.025 C 
ATOM     15  C   UNL     1       7.396 -27.327   1.894  1.00  0.00     0.050 C 
ATOM     16  C   UNL     1       5.801 -25.671   3.676  1.00  0.00    -0.013 C 
ATOM     17  C   UNL     1       7.530 -25.863   1.865  1.00  0.00     0.159 C 
ATOM     18  C   UNL     1       7.109 -25.069   3.071  1.00  0.00     0.070 C 
ATOM     19  C   UNL     1       5.432 -24.847   4.953  1.00  0.00     0.042 C 
ATOM     20  C   UNL     1       4.625 -25.633   2.657  1.00  0.00     0.013 C 
ATOM     21  O   UNL     1       8.055 -25.305   0.863  1.00  0.00    -0.295 OA
ATOM     22  C   UNL     1       7.018 -23.552   2.805  1.00  0.00     0.047 C 
ATOM     23  C   UNL     1       5.399 -23.313   4.749  1.00  0.00     0.143 C 
ATOM     24  C   UNL     1       6.692 -22.787   4.099  1.00  0.00     0.143 C 
BRANCH   9  25
ATOM     25  O   UNL     1       7.297 -30.094   1.828  1.00  0.00    -0.385 OA
ATOM     26  H   UNL     1       8.033 -29.507   1.512  1.00  0.00     0.211 HD
ENDBRANCH   9  25
BRANCH  23  27
ATOM     27  O   UNL     1       4.279 -22.949   3.985  1.00  0.00    -0.390 OA
ATOM     28  H   UNL     1       3.512 -22.878   4.611  1.00  0.00     0.211 HD
ENDBRANCH  23  27
BRANCH  24  29
ATOM     29  O   UNL     1       7.751 -22.903   5.016  1.00  0.00    -0.390 OA
ATOM     30  H   UNL     1       7.570 -23.709   5.564  1.00  0.00     0.211 HD
ENDBRANCH  24  29
ENDBRANCH   3   5
BRANCH   3  31
ATOM     31  O   UNL     1       4.232 -33.443   4.371  1.00  0.00    -0.387 OA
ATOM     32  H   UNL     1       4.926 -33.588   3.681  1.00  0.00     0.211 HD
ENDBRANCH   3  31
ENDBRANCH   2   3
BRANCH   2  33
ATOM     33  O   UNL     1       3.188 -30.759   6.442  1.00  0.00    -0.390 OA
ATOM     34  H   UNL     1       3.621 -30.173   7.119  1.00  0.00     0.211 HD
ENDBRANCH   2  33
ENDBRANCH   1   2
BRANCH   1  35
ATOM     35  C   UNL     1       2.423 -32.678   7.963  1.00  0.00     0.037 C 
BRANCH  35  36
ATOM     36  C   UNL     1       2.732 -32.859   9.477  1.00  0.00     0.059 C 
ATOM     37  C   UNL     1       1.594 -33.677  10.115  1.00  0.00     0.042 C 
ATOM     38  C   UNL     1       4.060 -33.627   9.694  1.00  0.00     0.042 C 
BRANCH  36  39
ATOM     39  O   UNL     1       2.764 -31.606  10.125  1.00  0.00    -0.390 OA
ATOM     40  H   UNL     1       3.460 -31.042   9.697  1.00  0.00     0.211 HD
ENDBRANCH  36  39
ENDBRANCH  35  36
ENDBRANCH   1  35
TORSDOF 11
ENDMDL
MODEL 7
REMARK VINA RESULT:    -5.840     10.980     13.199
REMARK INTER + INTRA:          -9.512
REMARK INTER:                  -8.478
REMARK INTRA:                  -1.034
REMARK UNBOUND:                -0.941
REMARK SMILES CC(C)(O)CC[C@H](O)[C@](C)(O)[C@@H]1CC[C@]2(O)C3=CC(=O)[C@H]4C[C@H](O)[C@@H](O)C[C@]4(C)[C@H]3CC[C@]12C
REMARK SMILES IDX 6 1 7 2 9 3 10 4 12 5 34 6 33 7 32 8 15 9 31 10 17 11 14 12
REMARK SMILES IDX 13 13 30 14 18 15 28 16 19 17 21 18 27 19 29 20 20 21 22 22
REMARK SMILES IDX 25 23 23 24 16 25 26 27 24 29 11 31 8 33 5 35 2 36 1 37 3 38
REMARK SMILES IDX 4 39
REMARK H PARENT 16 26 26 28 24 30 11 32 8 34 4 40
REMARK Flexibility Score: inf
ROOT
ATOM      1  C   UNL     1       6.299 -32.129   1.029  1.00  0.00     0.038 C 
ENDROOT
BRANCH   1   2
ATOM      2  C   UNL     1       5.594 -32.247   2.405  1.00  0.00     0.146 C 
BRANCH   2   3
ATOM      3  C   UNL     1       4.017 -32.158   2.387  1.00  0.00     0.091 C 
ATOM      4  C   UNL     1       3.478 -33.626   2.409  1.00  0.00     0.045 C 
BRANCH   3   5
ATOM      5  C   UNL     1       3.452 -31.283   3.588  1.00  0.00     0.032 C 
ATOM      6  C   UNL     1       5.370 -30.883   5.249  1.00  0.00     0.015 C 
ATOM      7  C   UNL     1       4.323 -30.198   4.319  1.00  0.00     0.006 C 
ATOM      8  C   UNL     1       5.134 -29.233   3.387  1.00  0.00     0.011 C 
ATOM      9  C   UNL     1       3.248 -29.415   5.166  1.00  0.00     0.092 C 
ATOM     10  C   UNL     1       4.339 -28.024   2.873  1.00  0.00     0.009 C 
ATOM     11  C   UNL     1       3.616 -27.924   5.309  1.00  0.00    -0.031 C 
ATOM     12  C   UNL     1       1.901 -29.577   4.398  1.00  0.00     0.041 C 
ATOM     13  C   UNL     1       2.086 -30.646   3.329  1.00  0.00     0.010 C 
ATOM     14  C   UNL     1       3.832 -27.107   4.022  1.00  0.00     0.025 C 
ATOM     15  C   UNL     1       3.713 -27.334   6.522  1.00  0.00     0.050 C 
ATOM     16  C   UNL     1       4.676 -25.790   4.253  1.00  0.00    -0.013 C 
ATOM     17  C   UNL     1       3.989 -25.897   6.665  1.00  0.00     0.159 C 
ATOM     18  C   UNL     1       3.997 -25.030   5.436  1.00  0.00     0.070 C 
ATOM     19  C   UNL     1       4.617 -24.872   2.987  1.00  0.00     0.042 C 
ATOM     20  C   UNL     1       6.155 -26.156   4.577  1.00  0.00     0.013 C 
ATOM     21  O   UNL     1       4.146 -25.403   7.816  1.00  0.00    -0.295 OA
ATOM     22  C   UNL     1       4.586 -23.626   5.680  1.00  0.00     0.047 C 
ATOM     23  C   UNL     1       5.132 -23.430   3.206  1.00  0.00     0.143 C 
ATOM     24  C   UNL     1       4.466 -22.753   4.419  1.00  0.00     0.143 C 
BRANCH   9  25
ATOM     25  O   UNL     1       3.117 -30.037   6.432  1.00  0.00    -0.385 OA
ATOM     26  H   UNL     1       3.810 -29.670   7.042  1.00  0.00     0.211 HD
ENDBRANCH   9  25
BRANCH  23  27
ATOM     27  O   UNL     1       6.529 -23.430   3.346  1.00  0.00    -0.390 OA
ATOM     28  H   UNL     1       6.725 -23.641   4.296  1.00  0.00     0.211 HD
ENDBRANCH  23  27
BRANCH  24  29
ATOM     29  O   UNL     1       3.115 -22.504   4.124  1.00  0.00    -0.390 OA
ATOM     30  H   UNL     1       3.092 -22.024   3.256  1.00  0.00     0.211 HD
ENDBRANCH  24  29
ENDBRANCH   3   5
BRANCH   3  31
ATOM     31  O   UNL     1       3.612 -31.589   1.162  1.00  0.00    -0.387 OA
ATOM     32  H   UNL     1       2.662 -31.821   1.007  1.00  0.00     0.211 HD
ENDBRANCH   3  31
ENDBRANCH   2   3
BRANCH   2  33
ATOM     33  O   UNL     1       5.965 -33.480   2.982  1.00  0.00    -0.390 OA
ATOM     34  H   UNL     1       6.817 -33.767   2.558  1.00  0.00     0.211 HD
ENDBRANCH   2  33
ENDBRANCH   1   2
BRANCH   1  35
ATOM     35  C   UNL     1       7.137 -30.838   0.924  1.00  0.00     0.037 C 
BRANCH  35  36
ATOM     36  C   UNL     1       6.799 -29.952  -0.310  1.00  0.00     0.059 C 
ATOM     37  C   UNL     1       7.147 -28.491   0.025  1.00  0.00     0.042 C 
ATOM     38  C   UNL     1       7.625 -30.375  -1.551  1.00  0.00     0.042 C 
BRANCH  36  39
ATOM     39  O   UNL     1       5.416 -30.003  -0.586  1.00  0.00    -0.390 OA
ATOM     40  H   UNL     1       5.079 -29.076  -0.706  1.00  0.00     0.211 HD
ENDBRANCH  36  39
ENDBRANCH  35  36
ENDBRANCH   1  35
TORSDOF 11
ENDMDL
MODEL 8
REMARK VINA RESULT:    -5.794     11.037     13.283
REMARK INTER + INTRA:          -9.445
REMARK INTER:                  -8.654
REMARK INTRA:                  -0.791
REMARK UNBOUND:                -0.941
REMARK SMILES CC(C)(O)CC[C@H](O)[C@](C)(O)[C@@H]1CC[C@]2(O)C3=CC(=O)[C@H]4C[C@H](O)[C@@H](O)C[C@]4(C)[C@H]3CC[C@]12C
REMARK SMILES IDX 6 1 7 2 9 3 10 4 12 5 34 6 33 7 32 8 15 9 31 10 17 11 14 12
REMARK SMILES IDX 13 13 30 14 18 15 28 16 19 17 21 18 27 19 29 20 20 21 22 22
REMARK SMILES IDX 25 23 23 24 16 25 26 27 24 29 11 31 8 33 5 35 2 36 1 37 3 38
REMARK SMILES IDX 4 39
REMARK H PARENT 16 26 26 28 24 30 11 32 8 34 4 40
REMARK Flexibility Score: inf
ROOT
ATOM      1  C   UNL     1       6.691 -33.221  -0.108  1.00  0.00     0.038 C 
ENDROOT
BRANCH   1   2
ATOM      2  C   UNL     1       5.802 -33.628   1.096  1.00  0.00     0.146 C 
BRANCH   2   3
ATOM      3  C   UNL     1       6.060 -32.846   2.444  1.00  0.00     0.091 C 
ATOM      4  C   UNL     1       6.872 -33.804   3.377  1.00  0.00     0.045 C 
BRANCH   3   5
ATOM      5  C   UNL     1       6.800 -31.460   2.201  1.00  0.00     0.032 C 
ATOM      6  C   UNL     1       5.297 -30.010   0.707  1.00  0.00     0.015 C 
ATOM      7  C   UNL     1       6.020 -30.101   2.084  1.00  0.00     0.006 C 
ATOM      8  C   UNL     1       4.918 -29.851   3.171  1.00  0.00     0.011 C 
ATOM      9  C   UNL     1       7.178 -29.036   2.182  1.00  0.00     0.092 C 
ATOM     10  C   UNL     1       5.442 -29.259   4.489  1.00  0.00     0.009 C 
ATOM     11  C   UNL     1       6.705 -27.746   2.881  1.00  0.00    -0.031 C 
ATOM     12  C   UNL     1       8.315 -29.718   3.001  1.00  0.00     0.041 C 
ATOM     13  C   UNL     1       7.994 -31.203   3.121  1.00  0.00     0.010 C 
ATOM     14  C   UNL     1       6.109 -27.867   4.295  1.00  0.00     0.025 C 
ATOM     15  C   UNL     1       6.836 -26.534   2.293  1.00  0.00     0.050 C 
ATOM     16  C   UNL     1       5.213 -26.630   4.705  1.00  0.00    -0.013 C 
ATOM     17  C   UNL     1       6.456 -25.292   2.982  1.00  0.00     0.159 C 
ATOM     18  C   UNL     1       6.070 -25.353   4.434  1.00  0.00     0.070 C 
ATOM     19  C   UNL     1       4.879 -26.677   6.232  1.00  0.00     0.042 C 
ATOM     20  C   UNL     1       3.898 -26.627   3.871  1.00  0.00     0.013 C 
ATOM     21  O   UNL     1       6.526 -24.192   2.368  1.00  0.00    -0.295 OA
ATOM     22  C   UNL     1       5.415 -24.055   4.950  1.00  0.00     0.047 C 
ATOM     23  C   UNL     1       4.285 -25.370   6.808  1.00  0.00     0.143 C 
ATOM     24  C   UNL     1       5.146 -24.140   6.462  1.00  0.00     0.143 C 
BRANCH   9  25
ATOM     25  O   UNL     1       7.667 -28.767   0.880  1.00  0.00    -0.385 OA
ATOM     26  H   UNL     1       7.906 -29.627   0.444  1.00  0.00     0.211 HD
ENDBRANCH   9  25
BRANCH  23  27
ATOM     27  O   UNL     1       2.968 -25.194   6.355  1.00  0.00    -0.390 OA
ATOM     28  H   UNL     1       2.383 -25.190   7.157  1.00  0.00     0.211 HD
ENDBRANCH  23  27
BRANCH  24  29
ATOM     29  O   UNL     1       6.356 -24.209   7.172  1.00  0.00    -0.390 OA
ATOM     30  H   UNL     1       7.068 -23.888   6.562  1.00  0.00     0.211 HD
ENDBRANCH  24  29
ENDBRANCH   3   5
BRANCH   3  31
ATOM     31  O   UNL     1       4.820 -32.611   3.073  1.00  0.00    -0.387 OA
ATOM     32  H   UNL     1       4.157 -32.367   2.378  1.00  0.00     0.211 HD
ENDBRANCH   3  31
ENDBRANCH   2   3
BRANCH   2  33
ATOM     33  O   UNL     1       4.453 -33.445   0.725  1.00  0.00    -0.390 OA
ATOM     34  H   UNL     1       4.060 -34.344   0.566  1.00  0.00     0.211 HD
ENDBRANCH   2  33
ENDBRANCH   1   2
BRANCH   1  35
ATOM     35  C   UNL     1       5.866 -33.066  -1.402  1.00  0.00     0.037 C 
BRANCH  35  36
ATOM     36  C   UNL     1       6.381 -31.955  -2.362  1.00  0.00     0.059 C 
ATOM     37  C   UNL     1       7.616 -31.292  -1.726  1.00  0.00     0.042 C 
ATOM     38  C   UNL     1       6.800 -32.543  -3.733  1.00  0.00     0.042 C 
BRANCH  36  39
ATOM     39  O   UNL     1       5.401 -30.953  -2.523  1.00  0.00    -0.390 OA
ATOM     40  H   UNL     1       5.853 -30.094  -2.732  1.00  0.00     0.211 HD
ENDBRANCH  36  39
ENDBRANCH  35  36
ENDBRANCH   1  35
TORSDOF 11
ENDMDL
MODEL 9
REMARK VINA RESULT:    -5.779     11.215     14.225
REMARK INTER + INTRA:          -9.422
REMARK INTER:                  -8.505
REMARK INTRA:                  -0.918
REMARK UNBOUND:                -0.941
REMARK SMILES CC(C)(O)CC[C@H](O)[C@](C)(O)[C@@H]1CC[C@]2(O)C3=CC(=O)[C@H]4C[C@H](O)[C@@H](O)C[C@]4(C)[C@H]3CC[C@]12C
REMARK SMILES IDX 6 1 7 2 9 3 10 4 12 5 34 6 33 7 32 8 15 9 31 10 17 11 14 12
REMARK SMILES IDX 13 13 30 14 18 15 28 16 19 17 21 18 27 19 29 20 20 21 22 22
REMARK SMILES IDX 25 23 23 24 16 25 26 27 24 29 11 31 8 33 5 35 2 36 1 37 3 38
REMARK SMILES IDX 4 39
REMARK H PARENT 16 26 26 28 24 30 11 32 8 34 4 40
REMARK Flexibility Score: inf
ROOT
ATOM      1  C   UNL     1       7.549 -23.483   4.617  1.00  0.00     0.038 C 
ENDROOT
BRANCH   1   2
ATOM      2  C   UNL     1       6.267 -22.715   5.034  1.00  0.00     0.146 C 
BRANCH   2   3
ATOM      3  C   UNL     1       4.953 -23.582   5.172  1.00  0.00     0.091 C 
ATOM      4  C   UNL     1       3.818 -22.809   4.424  1.00  0.00     0.045 C 
BRANCH   3   5
ATOM      5  C   UNL     1       5.150 -25.060   4.621  1.00  0.00     0.032 C 
ATOM      6  C   UNL     1       6.082 -26.501   6.531  1.00  0.00     0.015 C 
ATOM      7  C   UNL     1       4.911 -26.329   5.518  1.00  0.00     0.006 C 
ATOM      8  C   UNL     1       3.595 -26.325   6.369  1.00  0.00     0.011 C 
ATOM      9  C   UNL     1       4.910 -27.497   4.458  1.00  0.00     0.092 C 
ATOM     10  C   UNL     1       2.346 -26.812   5.618  1.00  0.00     0.009 C 
ATOM     11  C   UNL     1       3.955 -28.635   4.871  1.00  0.00    -0.031 C 
ATOM     12  C   UNL     1       4.448 -26.853   3.116  1.00  0.00     0.041 C 
ATOM     13  C   UNL     1       4.471 -25.338   3.279  1.00  0.00     0.010 C 
ATOM     14  C   UNL     1       2.479 -28.282   5.128  1.00  0.00     0.025 C 
ATOM     15  C   UNL     1       4.383 -29.914   4.974  1.00  0.00     0.050 C 
ATOM     16  C   UNL     1       1.724 -29.355   6.011  1.00  0.00    -0.013 C 
ATOM     17  C   UNL     1       3.464 -31.016   5.293  1.00  0.00     0.159 C 
ATOM     18  C   UNL     1       1.986 -30.742   5.343  1.00  0.00     0.070 C 
ATOM     19  C   UNL     1       0.182 -29.091   5.994  1.00  0.00     0.042 C 
ATOM     20  C   UNL     1       2.257 -29.311   7.473  1.00  0.00     0.013 C 
ATOM     21  O   UNL     1       3.920 -32.182   5.452  1.00  0.00    -0.295 OA
ATOM     22  C   UNL     1       1.170 -31.890   5.973  1.00  0.00     0.047 C 
ATOM     23  C   UNL     1      -0.681 -30.248   6.552  1.00  0.00     0.143 C 
ATOM     24  C   UNL     1      -0.338 -31.598   5.894  1.00  0.00     0.143 C 
BRANCH   9  25
ATOM     25  O   UNL     1       6.235 -27.970   4.293  1.00  0.00    -0.385 OA
ATOM     26  H   UNL     1       6.467 -27.941   3.328  1.00  0.00     0.211 HD
ENDBRANCH   9  25
BRANCH  23  27
ATOM     27  O   UNL     1      -0.541 -30.329   7.947  1.00  0.00    -0.390 OA
ATOM     28  H   UNL     1      -0.368 -29.408   8.275  1.00  0.00     0.211 HD
ENDBRANCH  23  27
BRANCH  24  29
ATOM     29  O   UNL     1      -0.764 -31.580   4.555  1.00  0.00    -0.390 OA
ATOM     30  H   UNL     1      -1.738 -31.762   4.559  1.00  0.00     0.211 HD
ENDBRANCH  24  29
ENDBRANCH   3   5
BRANCH   3  31
ATOM     31  O   UNL     1       4.589 -23.634   6.533  1.00  0.00    -0.387 OA
ATOM     32  H   UNL     1       4.320 -22.725   6.821  1.00  0.00     0.211 HD
ENDBRANCH   3  31
ENDBRANCH   2   3
BRANCH   2  33
ATOM     33  O   UNL     1       6.518 -22.085   6.271  1.00  0.00    -0.390 OA
ATOM     34  H   UNL     1       7.504 -22.059   6.401  1.00  0.00     0.211 HD
ENDBRANCH   2  33
ENDBRANCH   1   2
BRANCH   1  35
ATOM     35  C   UNL     1       8.230 -22.836   3.393  1.00  0.00     0.037 C 
BRANCH  35  36
ATOM     36  C   UNL     1       7.859 -23.491   2.031  1.00  0.00     0.059 C 
ATOM     37  C   UNL     1       8.876 -23.030   0.972  1.00  0.00     0.042 C 
ATOM     38  C   UNL     1       7.914 -25.037   2.115  1.00  0.00     0.042 C 
BRANCH  36  39
ATOM     39  O   UNL     1       6.585 -23.055   1.609  1.00  0.00    -0.390 OA
ATOM     40  H   UNL     1       5.903 -23.704   1.926  1.00  0.00     0.211 HD
ENDBRANCH  36  39
ENDBRANCH  35  36
ENDBRANCH   1  35
TORSDOF 11
ENDMDL
