MODEL 1
REMARK VINA RESULT:    -3.415      0.000      0.000
REMARK INTER + INTRA:          -7.847
REMARK INTER:                  -6.011
REMARK INTRA:                  -1.836
REMARK UNBOUND:                -1.836
REMARK SMILES CCCCCCC=CCCCCCCCC(=O)[O-]
REMARK SMILES IDX 10 1 11 2 12 3 13 4 14 5 15 6 16 7 17 8 18 9 9 10 8 11 7 12
REMARK SMILES IDX 6 13 5 14 4 15 3 16 2 17 1 18
REMARK H PARENT
REMARK Flexibility Score: inf
ROOT
ATOM      1  C   UNL     1      43.933  58.825  30.632  1.00  0.00     0.004 C 
ENDROOT
BRANCH   1   2
ATOM      2  C   UNL     1      42.526  58.240  30.821  1.00  0.00     0.000 C 
BRANCH   2   3
ATOM      3  C   UNL     1      42.515  56.703  30.782  1.00  0.00     0.000 C 
BRANCH   3   4
ATOM      4  C   UNL     1      41.385  56.096  31.632  1.00  0.00     0.000 C 
BRANCH   4   5
ATOM      5  C   UNL     1      41.640  54.622  31.995  1.00  0.00     0.006 C 
BRANCH   5   6
ATOM      6  C   UNL     1      42.897  54.392  32.849  1.00  0.00     0.053 C 
BRANCH   6   7
ATOM      7  C   UNL     1      42.586  54.370  34.315  1.00  0.00     0.041 C 
ATOM      8  O   UNL     1      43.366  54.919  35.136  1.00  0.00    -0.550 OA
ATOM      9  O   UNL     1      41.419  53.767  34.769  1.00  0.00    -0.550 OA
ENDBRANCH   6   7
ENDBRANCH   5   6
ENDBRANCH   4   5
ENDBRANCH   3   4
ENDBRANCH   2   3
ENDBRANCH   1   2
BRANCH   1  10
ATOM     10  C   UNL     1      44.871  57.801  29.984  1.00  0.00     0.027 C 
BRANCH  10  11
ATOM     11  C   UNL     1      46.274  58.344  29.898  1.00  0.00    -0.031 C 
ATOM     12  C   UNL     1      47.140  58.073  28.903  1.00  0.00    -0.031 C 
BRANCH  12  13
ATOM     13  C   UNL     1      46.808  57.265  27.673  1.00  0.00     0.027 C 
BRANCH  13  14
ATOM     14  C   UNL     1      47.580  55.937  27.633  1.00  0.00     0.004 C 
BRANCH  14  15
ATOM     15  C   UNL     1      46.640  54.719  27.677  1.00  0.00     0.000 C 
BRANCH  15  16
ATOM     16  C   UNL     1      45.160  55.107  27.526  1.00  0.00    -0.000 C 
BRANCH  16  17
ATOM     17  C   UNL     1      44.253  54.379  28.530  1.00  0.00    -0.003 C 
ATOM     18  C   UNL     1      45.000  54.071  29.826  1.00  0.00     0.004 C 
ENDBRANCH  16  17
ENDBRANCH  15  16
ENDBRANCH  14  15
ENDBRANCH  13  14
ENDBRANCH  12  13
ENDBRANCH  10  11
ENDBRANCH   1  10
TORSDOF 13
ENDMDL
MODEL 2
REMARK VINA RESULT:    -3.390      4.244      6.094
REMARK INTER + INTRA:          -7.802
REMARK INTER:                  -6.692
REMARK INTRA:                  -1.111
REMARK UNBOUND:                -1.836
REMARK SMILES CCCCCCC=CCCCCCCCC(=O)[O-]
REMARK SMILES IDX 10 1 11 2 12 3 13 4 14 5 15 6 16 7 17 8 18 9 9 10 8 11 7 12
REMARK SMILES IDX 6 13 5 14 4 15 3 16 2 17 1 18
REMARK H PARENT
REMARK Flexibility Score: inf
ROOT
ATOM      1  C   UNL     1      41.779  57.537  30.898  1.00  0.00     0.004 C 
ENDROOT
BRANCH   1   2
ATOM      2  C   UNL     1      42.921  58.554  30.753  1.00  0.00     0.000 C 
BRANCH   2   3
ATOM      3  C   UNL     1      42.481  59.839  30.032  1.00  0.00     0.000 C 
BRANCH   3   4
ATOM      4  C   UNL     1      41.179  59.654  29.232  1.00  0.00     0.000 C 
BRANCH   4   5
ATOM      5  C   UNL     1      41.071  60.624  28.042  1.00  0.00     0.006 C 
BRANCH   5   6
ATOM      6  C   UNL     1      40.035  60.209  26.984  1.00  0.00     0.053 C 
BRANCH   6   7
ATOM      7  C   UNL     1      38.643  60.603  27.372  1.00  0.00     0.041 C 
ATOM      8  O   UNL     1      38.209  61.751  27.093  1.00  0.00    -0.550 OA
ATOM      9  O   UNL     1      37.816  59.689  28.015  1.00  0.00    -0.550 OA
ENDBRANCH   6   7
ENDBRANCH   5   6
ENDBRANCH   4   5
ENDBRANCH   3   4
ENDBRANCH   2   3
ENDBRANCH   1   2
BRANCH   1  10
ATOM     10  C   UNL     1      42.136  56.455  31.923  1.00  0.00     0.027 C 
BRANCH  10  11
ATOM     11  C   UNL     1      41.802  55.086  31.387  1.00  0.00    -0.031 C 
ATOM     12  C   UNL     1      42.407  54.510  30.331  1.00  0.00    -0.031 C 
BRANCH  12  13
ATOM     13  C   UNL     1      43.576  55.101  29.584  1.00  0.00     0.027 C 
BRANCH  13  14
ATOM     14  C   UNL     1      44.919  54.552  30.090  1.00  0.00     0.004 C 
BRANCH  14  15
ATOM     15  C   UNL     1      46.081  55.525  29.819  1.00  0.00     0.000 C 
BRANCH  15  16
ATOM     16  C   UNL     1      45.648  56.751  29.001  1.00  0.00    -0.000 C 
BRANCH  16  17
ATOM     17  C   UNL     1      46.223  58.064  29.555  1.00  0.00    -0.003 C 
ATOM     18  C   UNL     1      47.729  58.148  29.323  1.00  0.00     0.004 C 
ENDBRANCH  16  17
ENDBRANCH  15  16
ENDBRANCH  14  15
ENDBRANCH  13  14
ENDBRANCH  12  13
ENDBRANCH  10  11
ENDBRANCH   1  10
TORSDOF 13
ENDMDL
MODEL 3
REMARK VINA RESULT:    -3.284     13.424     15.332
REMARK INTER + INTRA:          -7.615
REMARK INTER:                  -5.170
REMARK INTRA:                  -2.445
REMARK UNBOUND:                -1.836
REMARK SMILES CCCCCCC=CCCCCCCCC(=O)[O-]
REMARK SMILES IDX 10 1 11 2 12 3 13 4 14 5 15 6 16 7 17 8 18 9 9 10 8 11 7 12
REMARK SMILES IDX 6 13 5 14 4 15 3 16 2 17 1 18
REMARK H PARENT
REMARK Flexibility Score: inf
ROOT
ATOM      1  C   UNL     1      44.213  71.417  30.923  1.00  0.00     0.004 C 
ENDROOT
BRANCH   1   2
ATOM      2  C   UNL     1      44.305  72.865  31.426  1.00  0.00     0.000 C 
BRANCH   2   3
ATOM      3  C   UNL     1      43.638  73.059  32.798  1.00  0.00     0.000 C 
BRANCH   3   4
ATOM      4  C   UNL     1      42.924  71.789  33.295  1.00  0.00     0.000 C 
BRANCH   4   5
ATOM      5  C   UNL     1      41.852  72.088  34.358  1.00  0.00     0.006 C 
BRANCH   5   6
ATOM      6  C   UNL     1      42.012  71.285  35.658  1.00  0.00     0.053 C 
BRANCH   6   7
ATOM      7  C   UNL     1      41.068  70.124  35.725  1.00  0.00     0.041 C 
ATOM      8  O   UNL     1      41.455  68.973  35.393  1.00  0.00    -0.550 OA
ATOM      9  O   UNL     1      39.768  70.309  36.181  1.00  0.00    -0.550 OA
ENDBRANCH   6   7
ENDBRANCH   5   6
ENDBRANCH   4   5
ENDBRANCH   3   4
ENDBRANCH   2   3
ENDBRANCH   1   2
BRANCH   1  10
ATOM     10  C   UNL     1      45.441  71.050  30.083  1.00  0.00     0.027 C 
BRANCH  10  11
ATOM     11  C   UNL     1      46.103  69.809  30.623  1.00  0.00    -0.031 C 
ATOM     12  C   UNL     1      47.221  69.803  31.373  1.00  0.00    -0.031 C 
BRANCH  12  13
ATOM     13  C   UNL     1      47.927  71.041  31.870  1.00  0.00     0.027 C 
BRANCH  13  14
ATOM     14  C   UNL     1      47.421  71.474  33.254  1.00  0.00     0.004 C 
BRANCH  14  15
ATOM     15  C   UNL     1      47.082  70.269  34.150  1.00  0.00     0.000 C 
BRANCH  15  16
ATOM     16  C   UNL     1      45.775  70.464  34.934  1.00  0.00    -0.000 C 
BRANCH  16  17
ATOM     17  C   UNL     1      45.001  69.150  35.128  1.00  0.00    -0.003 C 
ATOM     18  C   UNL     1      44.707  68.480  33.789  1.00  0.00     0.004 C 
ENDBRANCH  16  17
ENDBRANCH  15  16
ENDBRANCH  14  15
ENDBRANCH  13  14
ENDBRANCH  12  13
ENDBRANCH  10  11
ENDBRANCH   1  10
TORSDOF 13
ENDMDL
MODEL 4
REMARK VINA RESULT:    -3.261      2.508      4.382
REMARK INTER + INTRA:          -7.576
REMARK INTER:                  -5.592
REMARK INTRA:                  -1.984
REMARK UNBOUND:                -1.836
REMARK SMILES CCCCCCC=CCCCCCCCC(=O)[O-]
REMARK SMILES IDX 10 1 11 2 12 3 13 4 14 5 15 6 16 7 17 8 18 9 9 10 8 11 7 12
REMARK SMILES IDX 6 13 5 14 4 15 3 16 2 17 1 18
REMARK H PARENT
REMARK Flexibility Score: inf
ROOT
ATOM      1  C   UNL     1      41.710  53.604  30.357  1.00  0.00     0.004 C 
ENDROOT
BRANCH   1   2
ATOM      2  C   UNL     1      42.085  53.294  31.814  1.00  0.00     0.000 C 
BRANCH   2   3
ATOM      3  C   UNL     1      42.292  54.565  32.654  1.00  0.00     0.000 C 
BRANCH   3   4
ATOM      4  C   UNL     1      41.353  55.711  32.238  1.00  0.00     0.000 C 
BRANCH   4   5
ATOM      5  C   UNL     1      42.081  57.063  32.121  1.00  0.00     0.006 C 
BRANCH   5   6
ATOM      6  C   UNL     1      41.909  57.755  30.760  1.00  0.00     0.053 C 
BRANCH   6   7
ATOM      7  C   UNL     1      42.980  58.771  30.504  1.00  0.00     0.041 C 
ATOM      8  O   UNL     1      44.191  58.467  30.662  1.00  0.00    -0.550 OA
ATOM      9  O   UNL     1      42.640  60.044  30.063  1.00  0.00    -0.550 OA
ENDBRANCH   6   7
ENDBRANCH   5   6
ENDBRANCH   4   5
ENDBRANCH   3   4
ENDBRANCH   2   3
ENDBRANCH   1   2
BRANCH   1  10
ATOM     10  C   UNL     1      42.938  53.511  29.443  1.00  0.00     0.027 C 
BRANCH  10  11
ATOM     11  C   UNL     1      43.623  54.849  29.336  1.00  0.00    -0.031 C 
ATOM     12  C   UNL     1      44.818  55.142  29.883  1.00  0.00    -0.031 C 
BRANCH  12  13
ATOM     13  C   UNL     1      45.700  54.151  30.601  1.00  0.00     0.027 C 
BRANCH  13  14
ATOM     14  C   UNL     1      47.020  53.910  29.853  1.00  0.00     0.004 C 
BRANCH  14  15
ATOM     15  C   UNL     1      47.423  55.116  28.986  1.00  0.00     0.000 C 
BRANCH  15  16
ATOM     16  C   UNL     1      47.351  54.813  27.481  1.00  0.00    -0.000 C 
BRANCH  16  17
ATOM     17  C   UNL     1      46.592  55.894  26.696  1.00  0.00    -0.003 C 
ATOM     18  C   UNL     1      46.998  57.294  27.151  1.00  0.00     0.004 C 
ENDBRANCH  16  17
ENDBRANCH  15  16
ENDBRANCH  14  15
ENDBRANCH  13  14
ENDBRANCH  12  13
ENDBRANCH  10  11
ENDBRANCH   1  10
TORSDOF 13
ENDMDL
MODEL 5
REMARK VINA RESULT:    -3.246      3.665      6.332
REMARK INTER + INTRA:          -7.548
REMARK INTER:                  -5.850
REMARK INTRA:                  -1.698
REMARK UNBOUND:                -1.836
REMARK SMILES CCCCCCC=CCCCCCCCC(=O)[O-]
REMARK SMILES IDX 10 1 11 2 12 3 13 4 14 5 15 6 16 7 17 8 18 9 9 10 8 11 7 12
REMARK SMILES IDX 6 13 5 14 4 15 3 16 2 17 1 18
REMARK H PARENT
REMARK Flexibility Score: inf
ROOT
ATOM      1  C   UNL     1      44.977  58.872  30.408  1.00  0.00     0.004 C 
ENDROOT
BRANCH   1   2
ATOM      2  C   UNL     1      45.881  57.866  29.682  1.00  0.00     0.000 C 
BRANCH   2   3
ATOM      3  C   UNL     1      47.288  58.423  29.409  1.00  0.00     0.000 C 
BRANCH   3   4
ATOM      4  C   UNL     1      47.989  57.717  28.235  1.00  0.00     0.000 C 
BRANCH   4   5
ATOM      5  C   UNL     1      47.006  57.269  27.139  1.00  0.00     0.006 C 
BRANCH   5   6
ATOM      6  C   UNL     1      46.938  55.746  26.938  1.00  0.00     0.053 C 
BRANCH   6   7
ATOM      7  C   UNL     1      46.346  55.378  25.612  1.00  0.00     0.041 C 
ATOM      8  O   UNL     1      46.744  55.946  24.561  1.00  0.00    -0.550 OA
ATOM      9  O   UNL     1      45.376  54.386  25.535  1.00  0.00    -0.550 OA
ENDBRANCH   6   7
ENDBRANCH   5   6
ENDBRANCH   4   5
ENDBRANCH   3   4
ENDBRANCH   2   3
ENDBRANCH   1   2
BRANCH   1  10
ATOM     10  C   UNL     1      43.514  58.418  30.375  1.00  0.00     0.027 C 
BRANCH  10  11
ATOM     11  C   UNL     1      42.954  58.325  31.771  1.00  0.00    -0.031 C 
ATOM     12  C   UNL     1      42.040  57.420  32.170  1.00  0.00    -0.031 C 
BRANCH  12  13
ATOM     13  C   UNL     1      41.511  56.299  31.310  1.00  0.00     0.027 C 
BRANCH  13  14
ATOM     14  C   UNL     1      41.666  54.931  31.991  1.00  0.00     0.004 C 
BRANCH  14  15
ATOM     15  C   UNL     1      42.554  53.975  31.174  1.00  0.00     0.000 C 
BRANCH  15  16
ATOM     16  C   UNL     1      42.847  54.502  29.761  1.00  0.00    -0.000 C 
BRANCH  16  17
ATOM     17  C   UNL     1      44.352  54.646  29.485  1.00  0.00    -0.003 C 
ATOM     18  C   UNL     1      45.165  54.502  30.769  1.00  0.00     0.004 C 
ENDBRANCH  16  17
ENDBRANCH  15  16
ENDBRANCH  14  15
ENDBRANCH  13  14
ENDBRANCH  12  13
ENDBRANCH  10  11
ENDBRANCH   1  10
TORSDOF 13
ENDMDL
MODEL 6
REMARK VINA RESULT:    -3.141     12.950     14.958
REMARK INTER + INTRA:          -7.364
REMARK INTER:                  -5.379
REMARK INTRA:                  -1.986
REMARK UNBOUND:                -1.836
REMARK SMILES CCCCCCC=CCCCCCCCC(=O)[O-]
REMARK SMILES IDX 10 1 11 2 12 3 13 4 14 5 15 6 16 7 17 8 18 9 9 10 8 11 7 12
REMARK SMILES IDX 6 13 5 14 4 15 3 16 2 17 1 18
REMARK H PARENT
REMARK Flexibility Score: inf
ROOT
ATOM      1  C   UNL     1      44.179  68.612  35.191  1.00  0.00     0.004 C 
ENDROOT
BRANCH   1   2
ATOM      2  C   UNL     1      44.523  70.055  35.589  1.00  0.00     0.000 C 
BRANCH   2   3
ATOM      3  C   UNL     1      44.900  70.928  34.382  1.00  0.00     0.000 C 
BRANCH   3   4
ATOM      4  C   UNL     1      43.938  72.113  34.182  1.00  0.00     0.000 C 
BRANCH   4   5
ATOM      5  C   UNL     1      42.558  71.675  33.660  1.00  0.00     0.006 C 
BRANCH   5   6
ATOM      6  C   UNL     1      41.376  72.190  34.496  1.00  0.00     0.053 C 
BRANCH   6   7
ATOM      7  C   UNL     1      40.465  71.083  34.930  1.00  0.00     0.041 C 
ATOM      8  O   UNL     1      40.943  69.975  35.290  1.00  0.00    -0.550 OA
ATOM      9  O   UNL     1      39.091  71.285  34.964  1.00  0.00    -0.550 OA
ENDBRANCH   6   7
ENDBRANCH   5   6
ENDBRANCH   4   5
ENDBRANCH   3   4
ENDBRANCH   2   3
ENDBRANCH   1   2
BRANCH   1  10
ATOM     10  C   UNL     1      44.876  68.224  33.882  1.00  0.00     0.027 C 
BRANCH  10  11
ATOM     11  C   UNL     1      46.179  67.519  34.163  1.00  0.00    -0.031 C 
ATOM     12  C   UNL     1      47.347  67.803  33.558  1.00  0.00    -0.031 C 
BRANCH  12  13
ATOM     13  C   UNL     1      47.556  68.934  32.581  1.00  0.00     0.027 C 
BRANCH  13  14
ATOM     14  C   UNL     1      47.071  68.570  31.169  1.00  0.00     0.004 C 
BRANCH  14  15
ATOM     15  C   UNL     1      46.156  69.655  30.573  1.00  0.00     0.000 C 
BRANCH  15  16
ATOM     16  C   UNL     1      46.413  71.044  31.178  1.00  0.00    -0.000 C 
BRANCH  16  17
ATOM     17  C   UNL     1      45.568  72.143  30.514  1.00  0.00    -0.003 C 
ATOM     18  C   UNL     1      44.130  71.679  30.301  1.00  0.00     0.004 C 
ENDBRANCH  16  17
ENDBRANCH  15  16
ENDBRANCH  14  15
ENDBRANCH  13  14
ENDBRANCH  12  13
ENDBRANCH  10  11
ENDBRANCH   1  10
TORSDOF 13
ENDMDL
MODEL 7
REMARK VINA RESULT:    -3.128     13.092     14.832
REMARK INTER + INTRA:          -7.341
REMARK INTER:                  -5.482
REMARK INTRA:                  -1.859
REMARK UNBOUND:                -1.836
REMARK SMILES CCCCCCC=CCCCCCCCC(=O)[O-]
REMARK SMILES IDX 10 1 11 2 12 3 13 4 14 5 15 6 16 7 17 8 18 9 9 10 8 11 7 12
REMARK SMILES IDX 6 13 5 14 4 15 3 16 2 17 1 18
REMARK H PARENT
REMARK Flexibility Score: inf
ROOT
ATOM      1  C   UNL     1      43.179  71.928  33.032  1.00  0.00     0.004 C 
ENDROOT
BRANCH   1   2
ATOM      2  C   UNL     1      42.312  72.972  33.750  1.00  0.00     0.000 C 
BRANCH   2   3
ATOM      3  C   UNL     1      41.410  72.351  34.829  1.00  0.00     0.000 C 
BRANCH   3   4
ATOM      4  C   UNL     1      40.986  70.911  34.491  1.00  0.00     0.000 C 
BRANCH   4   5
ATOM      5  C   UNL     1      40.953  69.996  35.728  1.00  0.00     0.006 C 
BRANCH   5   6
ATOM      6  C   UNL     1      41.834  68.742  35.609  1.00  0.00     0.053 C 
BRANCH   6   7
ATOM      7  C   UNL     1      42.911  68.708  36.650  1.00  0.00     0.041 C 
ATOM      8  O   UNL     1      43.343  67.606  37.078  1.00  0.00    -0.550 OA
ATOM      9  O   UNL     1      43.457  69.894  37.125  1.00  0.00    -0.550 OA
ENDBRANCH   6   7
ENDBRANCH   5   6
ENDBRANCH   4   5
ENDBRANCH   3   4
ENDBRANCH   2   3
ENDBRANCH   1   2
BRANCH   1  10
ATOM     10  C   UNL     1      44.117  72.597  32.021  1.00  0.00     0.027 C 
BRANCH  10  11
ATOM     11  C   UNL     1      44.080  71.870  30.701  1.00  0.00    -0.031 C 
ATOM     12  C   UNL     1      45.136  71.253  30.137  1.00  0.00    -0.031 C 
BRANCH  12  13
ATOM     13  C   UNL     1      46.491  71.107  30.785  1.00  0.00     0.027 C 
BRANCH  13  14
ATOM     14  C   UNL     1      46.967  69.647  30.799  1.00  0.00     0.004 C 
BRANCH  14  15
ATOM     15  C   UNL     1      45.963  68.717  31.505  1.00  0.00     0.000 C 
BRANCH  15  16
ATOM     16  C   UNL     1      46.294  68.508  32.990  1.00  0.00    -0.000 C 
BRANCH  16  17
ATOM     17  C   UNL     1      45.318  69.241  33.923  1.00  0.00    -0.003 C 
ATOM     18  C   UNL     1      46.010  70.390  34.652  1.00  0.00     0.004 C 
ENDBRANCH  16  17
ENDBRANCH  15  16
ENDBRANCH  14  15
ENDBRANCH  13  14
ENDBRANCH  12  13
ENDBRANCH  10  11
ENDBRANCH   1  10
TORSDOF 13
ENDMDL
MODEL 8
REMARK VINA RESULT:    -3.061      3.193      5.723
REMARK INTER + INTRA:          -7.223
REMARK INTER:                  -5.305
REMARK INTRA:                  -1.918
REMARK UNBOUND:                -1.836
REMARK SMILES CCCCCCC=CCCCCCCCC(=O)[O-]
REMARK SMILES IDX 10 1 11 2 12 3 13 4 14 5 15 6 16 7 17 8 18 9 9 10 8 11 7 12
REMARK SMILES IDX 6 13 5 14 4 15 3 16 2 17 1 18
REMARK H PARENT
REMARK Flexibility Score: inf
ROOT
ATOM      1  C   UNL     1      43.181  58.499  31.387  1.00  0.00     0.004 C 
ENDROOT
BRANCH   1   2
ATOM      2  C   UNL     1      44.263  58.889  30.369  1.00  0.00     0.000 C 
BRANCH   2   3
ATOM      3  C   UNL     1      45.166  57.706  29.984  1.00  0.00     0.000 C 
BRANCH   3   4
ATOM      4  C   UNL     1      46.581  58.150  29.571  1.00  0.00     0.000 C 
BRANCH   4   5
ATOM      5  C   UNL     1      47.314  57.090  28.729  1.00  0.00     0.006 C 
BRANCH   5   6
ATOM      6  C   UNL     1      46.671  55.695  28.774  1.00  0.00     0.053 C 
BRANCH   6   7
ATOM      7  C   UNL     1      46.229  55.233  27.420  1.00  0.00     0.041 C 
ATOM      8  O   UNL     1      45.011  55.006  27.194  1.00  0.00    -0.550 OA
ATOM      9  O   UNL     1      47.159  55.082  26.398  1.00  0.00    -0.550 OA
ENDBRANCH   6   7
ENDBRANCH   5   6
ENDBRANCH   4   5
ENDBRANCH   3   4
ENDBRANCH   2   3
ENDBRANCH   1   2
BRANCH   1  10
ATOM     10  C   UNL     1      42.085  57.656  30.726  1.00  0.00     0.027 C 
BRANCH  10  11
ATOM     11  C   UNL     1      41.729  56.474  31.591  1.00  0.00    -0.031 C 
ATOM     12  C   UNL     1      41.938  55.188  31.252  1.00  0.00    -0.031 C 
BRANCH  12  13
ATOM     13  C   UNL     1      42.647  54.735  30.000  1.00  0.00     0.027 C 
BRANCH  13  14
ATOM     14  C   UNL     1      43.841  53.820  30.315  1.00  0.00     0.004 C 
BRANCH  14  15
ATOM     15  C   UNL     1      44.670  54.337  31.504  1.00  0.00     0.000 C 
BRANCH  15  16
ATOM     16  C   UNL     1      45.066  53.219  32.480  1.00  0.00    -0.000 C 
BRANCH  16  17
ATOM     17  C   UNL     1      43.945  52.875  33.473  1.00  0.00    -0.003 C 
ATOM     18  C   UNL     1      43.589  54.079  34.342  1.00  0.00     0.004 C 
ENDBRANCH  16  17
ENDBRANCH  15  16
ENDBRANCH  14  15
ENDBRANCH  13  14
ENDBRANCH  12  13
ENDBRANCH  10  11
ENDBRANCH   1  10
TORSDOF 13
ENDMDL
