MODEL 1
REMARK VINA RESULT:    -3.814      0.000      0.000
REMARK INTER + INTRA:          -6.157
REMARK INTER:                  -5.821
REMARK INTRA:                  -0.335
REMARK UNBOUND:                -0.335
REMARK SMILES CC1=CCC[C@@H](C)C(=O)C[C@@H](C(C)C)C(=O)C1
REMARK SMILES IDX 8 1 9 2 6 3 7 4 5 5 4 6 3 7 2 8 1 9 10 11 11 12 15 13 16 14
REMARK SMILES IDX 17 15 12 17 13 18 14 19
REMARK H PARENT
REMARK Flexibility Score: 70.00
ROOT
ATOM      1  C   UNL     1      16.752 -30.732  23.053  1.00  0.00     0.136 C 
ATOM      2  O   UNL     1      17.697 -30.080  22.632  1.00  0.00    -0.299 OA
ENDROOT
BRANCH   1   3
ATOM      3  C   UNL     1      15.335 -30.311  22.730  1.00  0.00     0.053 C 
ATOM      4  C   UNL     1      14.402 -30.753  23.862  1.00  0.00     0.016 C 
BRANCH   3   5
ATOM      5  C   UNL     1      14.839 -30.872  21.377  1.00  0.00     0.015 C 
BRANCH   5   6
ATOM      6  C   UNL     1      13.928 -32.105  21.522  1.00  0.00     0.028 C 
BRANCH   6   7
ATOM      7  C   UNL     1      14.494 -33.301  20.789  1.00  0.00    -0.028 C 
ATOM      8  C   UNL     1      15.251 -34.286  21.326  1.00  0.00    -0.070 CG0
ATOM      9  C   UNL     1      15.734 -35.383  20.411  1.00  0.00     0.039 C 
ATOM     10  G   UNL     1      15.584 -34.380  22.800  1.00  0.00     0.000 G0
ENDBRANCH   6   7
ENDBRANCH   5   6
ENDBRANCH   3   5
ENDBRANCH   1   3
BRANCH   1  11
ATOM     11  C   UNL     1      17.012 -31.979  23.863  1.00  0.00     0.087 C 
BRANCH  11  12
ATOM     12  C   UNL     1      17.820 -33.040  23.076  1.00  0.00     0.066 C 
BRANCH  12  13
ATOM     13  C   UNL     1      17.051 -34.350  23.050  1.00  0.00     0.140 C 
ATOM     14  O   UNL     1      17.650 -35.404  23.215  1.00  0.00    -0.299 OA
BRANCH  13  15
ATOM     15  C   UNL     1      15.567 -34.384  22.805  1.00  0.00     0.106 CG0
ATOM     16  G   UNL     1      15.278 -34.296  21.322  1.00  0.00     0.000 G0
ENDBRANCH  13  15
ENDBRANCH  12  13
BRANCH  12  17
ATOM     17  C   UNL     1      19.247 -33.264  23.672  1.00  0.00    -0.006 C 
ATOM     18  C   UNL     1      20.313 -32.507  22.858  1.00  0.00     0.008 C 
ATOM     19  C   UNL     1      19.340 -32.824  25.144  1.00  0.00     0.008 C 
ENDBRANCH  12  17
ENDBRANCH  11  12
ENDBRANCH   1  11
TORSDOF 1
ENDMDL
MODEL 2
REMARK VINA RESULT:    -3.798      2.396      4.621
REMARK INTER + INTRA:          -6.132
REMARK INTER:                  -6.059
REMARK INTRA:                  -0.073
REMARK UNBOUND:                -0.335
REMARK SMILES CC1=CCC[C@@H](C)C(=O)C[C@@H](C(C)C)C(=O)C1
REMARK SMILES IDX 8 1 9 2 6 3 7 4 5 5 4 6 3 7 2 8 1 9 10 11 11 12 15 13 16 14
REMARK SMILES IDX 17 15 12 17 13 18 14 19
REMARK H PARENT
REMARK Flexibility Score: 70.00
ROOT
ATOM      1  C   UNL     1      15.519 -34.582  20.514  1.00  0.00     0.136 C 
ATOM      2  O   UNL     1      14.584 -33.869  20.180  1.00  0.00    -0.299 OA
ENDROOT
BRANCH   1   3
ATOM      3  C   UNL     1      16.547 -35.016  19.491  1.00  0.00     0.053 C 
ATOM      4  C   UNL     1      16.905 -36.488  19.721  1.00  0.00     0.016 C 
BRANCH   3   5
ATOM      5  C   UNL     1      17.823 -34.143  19.519  1.00  0.00     0.015 C 
BRANCH   5   6
ATOM      6  C   UNL     1      19.111 -34.949  19.775  1.00  0.00     0.028 C 
BRANCH   6   7
ATOM      7  C   UNL     1      19.917 -34.359  20.910  1.00  0.00    -0.028 C 
ATOM      8  C   UNL     1      19.814 -34.682  22.220  1.00  0.00    -0.070 CG0
ATOM      9  C   UNL     1      20.701 -33.957  23.199  1.00  0.00     0.039 C 
ATOM     10  G   UNL     1      18.904 -35.773  22.745  1.00  0.00     0.000 G0
ENDBRANCH   6   7
ENDBRANCH   5   6
ENDBRANCH   3   5
ENDBRANCH   1   3
BRANCH   1  11
ATOM     11  C   UNL     1      15.662 -34.993  21.960  1.00  0.00     0.087 C 
BRANCH  11  12
ATOM     12  C   UNL     1      16.795 -34.228  22.686  1.00  0.00     0.066 C 
BRANCH  12  13
ATOM     13  C   UNL     1      17.695 -35.215  23.409  1.00  0.00     0.140 C 
ATOM     14  O   UNL     1      17.432 -35.540  24.558  1.00  0.00    -0.299 OA
BRANCH  13  15
ATOM     15  C   UNL     1      18.918 -35.790  22.749  1.00  0.00     0.106 CG0
ATOM     16  G   UNL     1      19.799 -34.679  22.217  1.00  0.00     0.000 G0
ENDBRANCH  13  15
ENDBRANCH  12  13
BRANCH  12  17
ATOM     17  C   UNL     1      16.246 -33.163  23.689  1.00  0.00    -0.006 C 
ATOM     18  C   UNL     1      16.592 -31.735  23.227  1.00  0.00     0.008 C 
ATOM     19  C   UNL     1      14.722 -33.269  23.876  1.00  0.00     0.008 C 
ENDBRANCH  12  17
ENDBRANCH  11  12
ENDBRANCH   1  11
TORSDOF 1
ENDMDL
MODEL 3
REMARK VINA RESULT:    -3.744      2.095      4.022
REMARK INTER + INTRA:          -6.049
REMARK INTER:                  -5.977
REMARK INTRA:                  -0.072
REMARK UNBOUND:                -0.335
REMARK SMILES CC1=CCC[C@@H](C)C(=O)C[C@@H](C(C)C)C(=O)C1
REMARK SMILES IDX 8 1 9 2 6 3 7 4 5 5 4 6 3 7 2 8 1 9 10 11 11 12 15 13 16 14
REMARK SMILES IDX 17 15 12 17 13 18 14 19
REMARK H PARENT
REMARK Flexibility Score: 70.00
ROOT
ATOM      1  C   UNL     1      15.086 -33.751  22.573  1.00  0.00     0.136 C 
ATOM      2  O   UNL     1      15.417 -34.354  23.583  1.00  0.00    -0.299 OA
ENDROOT
BRANCH   1   3
ATOM      3  C   UNL     1      14.043 -32.657  22.649  1.00  0.00     0.053 C 
ATOM      4  C   UNL     1      13.886 -32.007  21.270  1.00  0.00     0.016 C 
BRANCH   3   5
ATOM      5  C   UNL     1      14.380 -31.585  23.711  1.00  0.00     0.015 C 
BRANCH   5   6
ATOM      6  C   UNL     1      15.409 -30.545  23.228  1.00  0.00     0.028 C 
BRANCH   6   7
ATOM      7  C   UNL     1      16.817 -30.935  23.620  1.00  0.00    -0.028 C 
ATOM      8  C   UNL     1      17.764 -31.449  22.801  1.00  0.00    -0.070 CG0
ATOM      9  C   UNL     1      19.104 -31.792  23.400  1.00  0.00     0.039 C 
ATOM     10  G   UNL     1      17.572 -31.637  21.311  1.00  0.00     0.000 G0
ENDBRANCH   6   7
ENDBRANCH   5   6
ENDBRANCH   3   5
ENDBRANCH   1   3
BRANCH   1  11
ATOM     11  C   UNL     1      15.753 -34.079  21.258  1.00  0.00     0.087 C 
BRANCH  11  12
ATOM     12  C   UNL     1      17.285 -34.259  21.399  1.00  0.00     0.066 C 
BRANCH  12  13
ATOM     13  C   UNL     1      17.993 -33.022  20.875  1.00  0.00     0.140 C 
ATOM     14  O   UNL     1      18.935 -33.147  20.105  1.00  0.00    -0.299 OA
BRANCH  13  15
ATOM     15  C   UNL     1      17.574 -31.641  21.299  1.00  0.00     0.106 CG0
ATOM     16  G   UNL     1      17.753 -31.472  22.793  1.00  0.00     0.000 G0
ENDBRANCH  13  15
ENDBRANCH  12  13
BRANCH  12  17
ATOM     17  C   UNL     1      17.804 -35.533  20.658  1.00  0.00    -0.006 C 
ATOM     18  C   UNL     1      18.075 -36.680  21.649  1.00  0.00     0.008 C 
ATOM     19  C   UNL     1      16.818 -36.026  19.584  1.00  0.00     0.008 C 
ENDBRANCH  12  17
ENDBRANCH  11  12
ENDBRANCH   1  11
TORSDOF 1
ENDMDL
MODEL 4
REMARK VINA RESULT:    -3.691      1.960      4.557
REMARK INTER + INTRA:          -5.968
REMARK INTER:                  -5.522
REMARK INTRA:                  -0.446
REMARK UNBOUND:                -0.335
REMARK SMILES CC1=CCC[C@@H](C)C(=O)C[C@@H](C(C)C)C(=O)C1
REMARK SMILES IDX 8 1 9 2 6 3 7 4 5 5 4 6 3 7 2 8 1 9 10 11 11 12 15 13 16 14
REMARK SMILES IDX 17 15 12 17 13 18 14 19
REMARK H PARENT
REMARK Flexibility Score: 70.00
ROOT
ATOM      1  C   UNL     1      18.252 -35.805  23.197  1.00  0.00     0.136 C 
ATOM      2  O   UNL     1      18.621 -36.712  23.930  1.00  0.00    -0.299 OA
ENDROOT
BRANCH   1   3
ATOM      3  C   UNL     1      18.755 -34.395  23.422  1.00  0.00     0.053 C 
ATOM      4  C   UNL     1      20.281 -34.371  23.284  1.00  0.00     0.016 C 
BRANCH   3   5
ATOM      5  C   UNL     1      18.333 -33.823  24.796  1.00  0.00     0.015 C 
BRANCH   5   6
ATOM      6  C   UNL     1      16.844 -33.433  24.866  1.00  0.00     0.028 C 
BRANCH   6   7
ATOM      7  C   UNL     1      16.502 -32.366  23.851  1.00  0.00    -0.028 C 
ATOM      8  C   UNL     1      15.765 -32.533  22.729  1.00  0.00    -0.070 CG0
ATOM      9  C   UNL     1      15.557 -31.337  21.835  1.00  0.00     0.039 C 
ATOM     10  G   UNL     1      15.087 -33.835  22.357  1.00  0.00     0.000 G0
ENDBRANCH   6   7
ENDBRANCH   5   6
ENDBRANCH   3   5
ENDBRANCH   1   3
BRANCH   1  11
ATOM     11  C   UNL     1      17.325 -36.109  22.045  1.00  0.00     0.087 C 
BRANCH  11  12
ATOM     12  C   UNL     1      17.143 -34.901  21.094  1.00  0.00     0.066 C 
BRANCH  12  13
ATOM     13  C   UNL     1      15.692 -34.452  21.112  1.00  0.00     0.140 C 
ATOM     14  O   UNL     1      15.015 -34.562  20.100  1.00  0.00    -0.299 OA
BRANCH  13  15
ATOM     15  C   UNL     1      15.071 -33.855  22.345  1.00  0.00     0.106 CG0
ATOM     16  G   UNL     1      15.760 -32.555  22.703  1.00  0.00     0.000 G0
ENDBRANCH  13  15
ENDBRANCH  12  13
BRANCH  12  17
ATOM     17  C   UNL     1      17.591 -35.223  19.632  1.00  0.00    -0.006 C 
ATOM     18  C   UNL     1      18.968 -34.607  19.325  1.00  0.00     0.008 C 
ATOM     19  C   UNL     1      17.650 -36.737  19.360  1.00  0.00     0.008 C 
ENDBRANCH  12  17
ENDBRANCH  11  12
ENDBRANCH   1  11
TORSDOF 1
ENDMDL
MODEL 5
REMARK VINA RESULT:    -3.657      2.053      3.953
REMARK INTER + INTRA:          -5.917
REMARK INTER:                  -6.302
REMARK INTRA:                   0.385
REMARK UNBOUND:                -0.335
REMARK SMILES CC1=CCC[C@@H](C)C(=O)C[C@@H](C(C)C)C(=O)C1
REMARK SMILES IDX 8 1 9 2 6 3 7 4 5 5 4 6 3 7 2 8 1 9 10 11 11 12 15 13 16 14
REMARK SMILES IDX 17 15 12 17 13 18 14 19
REMARK H PARENT
REMARK Flexibility Score: 70.00
ROOT
ATOM      1  C   UNL     1      16.408 -30.602  21.641  1.00  0.00     0.136 C 
ATOM      2  O   UNL     1      16.214 -29.400  21.523  1.00  0.00    -0.299 OA
ENDROOT
BRANCH   1   3
ATOM      3  C   UNL     1      17.819 -31.140  21.715  1.00  0.00     0.053 C 
ATOM      4  C   UNL     1      18.806 -29.971  21.803  1.00  0.00     0.016 C 
BRANCH   3   5
ATOM      5  C   UNL     1      18.175 -32.052  20.519  1.00  0.00     0.015 C 
BRANCH   5   6
ATOM      6  C   UNL     1      17.378 -33.371  20.494  1.00  0.00     0.028 C 
BRANCH   6   7
ATOM      7  C   UNL     1      17.651 -34.207  21.725  1.00  0.00    -0.028 C 
ATOM      8  C   UNL     1      16.749 -34.563  22.668  1.00  0.00    -0.070 CG0
ATOM      9  C   UNL     1      17.235 -35.387  23.834  1.00  0.00     0.039 C 
ATOM     10  G   UNL     1      15.274 -34.235  22.585  1.00  0.00     0.000 G0
ENDBRANCH   6   7
ENDBRANCH   5   6
ENDBRANCH   3   5
ENDBRANCH   1   3
BRANCH   1  11
ATOM     11  C   UNL     1      15.227 -31.537  21.750  1.00  0.00     0.087 C 
BRANCH  11  12
ATOM     12  C   UNL     1      14.755 -31.729  23.212  1.00  0.00     0.066 C 
BRANCH  12  13
ATOM     13  C   UNL     1      14.898 -33.189  23.606  1.00  0.00     0.140 C 
ATOM     14  O   UNL     1      14.725 -33.519  24.771  1.00  0.00    -0.299 OA
BRANCH  13  15
ATOM     15  C   UNL     1      15.269 -34.241  22.597  1.00  0.00     0.106 CG0
ATOM     16  G   UNL     1      16.747 -34.556  22.686  1.00  0.00     0.000 G0
ENDBRANCH  13  15
ENDBRANCH  12  13
BRANCH  12  17
ATOM     17  C   UNL     1      13.283 -31.253  23.429  1.00  0.00    -0.006 C 
ATOM     18  C   UNL     1      13.239 -29.919  24.197  1.00  0.00     0.008 C 
ATOM     19  C   UNL     1      12.521 -31.089  22.102  1.00  0.00     0.008 C 
ENDBRANCH  12  17
ENDBRANCH  11  12
ENDBRANCH   1  11
TORSDOF 1
ENDMDL
MODEL 6
REMARK VINA RESULT:    -3.646      2.563      5.310
REMARK INTER + INTRA:          -5.900
REMARK INTER:                  -5.947
REMARK INTRA:                   0.047
REMARK UNBOUND:                -0.335
REMARK SMILES CC1=CCC[C@@H](C)C(=O)C[C@@H](C(C)C)C(=O)C1
REMARK SMILES IDX 8 1 9 2 6 3 7 4 5 5 4 6 3 7 2 8 1 9 10 11 11 12 15 13 16 14
REMARK SMILES IDX 17 15 12 17 13 18 14 19
REMARK H PARENT
REMARK Flexibility Score: 70.00
ROOT
ATOM      1  C   UNL     1      16.595 -35.210  20.934  1.00  0.00     0.136 C 
ATOM      2  O   UNL     1      15.414 -35.366  20.654  1.00  0.00    -0.299 OA
ENDROOT
BRANCH   1   3
ATOM      3  C   UNL     1      17.666 -35.896  20.115  1.00  0.00     0.053 C 
ATOM      4  C   UNL     1      17.533 -37.414  20.272  1.00  0.00     0.016 C 
BRANCH   3   5
ATOM      5  C   UNL     1      19.093 -35.441  20.498  1.00  0.00     0.015 C 
BRANCH   5   6
ATOM      6  C   UNL     1      19.572 -34.202  19.717  1.00  0.00     0.028 C 
BRANCH   6   7
ATOM      7  C   UNL     1      20.280 -33.217  20.621  1.00  0.00    -0.028 C 
ATOM      8  C   UNL     1      19.780 -32.046  21.079  1.00  0.00    -0.070 CG0
ATOM      9  C   UNL     1      20.663 -31.196  21.958  1.00  0.00     0.039 C 
ATOM     10  G   UNL     1      18.366 -31.575  20.810  1.00  0.00     0.000 G0
ENDBRANCH   6   7
ENDBRANCH   5   6
ENDBRANCH   3   5
ENDBRANCH   1   3
BRANCH   1  11
ATOM     11  C   UNL     1      16.973 -34.299  22.076  1.00  0.00     0.087 C 
BRANCH  11  12
ATOM     12  C   UNL     1      16.366 -32.881  21.932  1.00  0.00     0.066 C 
BRANCH  12  13
ATOM     13  C   UNL     1      17.473 -31.844  21.995  1.00  0.00     0.140 C 
ATOM     14  O   UNL     1      17.640 -31.203  23.023  1.00  0.00    -0.299 OA
BRANCH  13  15
ATOM     15  C   UNL     1      18.361 -31.571  20.812  1.00  0.00     0.106 CG0
ATOM     16  G   UNL     1      19.765 -32.069  21.084  1.00  0.00     0.000 G0
ENDBRANCH  13  15
ENDBRANCH  12  13
BRANCH  12  17
ATOM     17  C   UNL     1      15.284 -32.584  23.019  1.00  0.00    -0.006 C 
ATOM     18  C   UNL     1      14.007 -32.000  22.387  1.00  0.00     0.008 C 
ATOM     19  C   UNL     1      14.910 -33.839  23.828  1.00  0.00     0.008 C 
ENDBRANCH  12  17
ENDBRANCH  11  12
ENDBRANCH   1  11
TORSDOF 1
ENDMDL
MODEL 7
REMARK VINA RESULT:    -3.641      2.025      4.996
REMARK INTER + INTRA:          -5.892
REMARK INTER:                  -5.609
REMARK INTRA:                  -0.283
REMARK UNBOUND:                -0.335
REMARK SMILES CC1=CCC[C@@H](C)C(=O)C[C@@H](C(C)C)C(=O)C1
REMARK SMILES IDX 8 1 9 2 6 3 7 4 5 5 4 6 3 7 2 8 1 9 10 11 11 12 15 13 16 14
REMARK SMILES IDX 17 15 12 17 13 18 14 19
REMARK H PARENT
REMARK Flexibility Score: 70.00
ROOT
ATOM      1  C   UNL     1      16.506 -34.859  21.191  1.00  0.00     0.136 C 
ATOM      2  O   UNL     1      16.624 -36.073  21.097  1.00  0.00    -0.299 OA
ENDROOT
BRANCH   1   3
ATOM      3  C   UNL     1      17.495 -33.945  20.502  1.00  0.00     0.053 C 
ATOM      4  C   UNL     1      17.620 -34.349  19.029  1.00  0.00     0.016 C 
BRANCH   3   5
ATOM      5  C   UNL     1      18.886 -33.951  21.178  1.00  0.00     0.015 C 
BRANCH   5   6
ATOM      6  C   UNL     1      19.138 -32.723  22.073  1.00  0.00     0.028 C 
BRANCH   6   7
ATOM      7  C   UNL     1      19.191 -33.104  23.535  1.00  0.00    -0.028 C 
ATOM      8  C   UNL     1      18.336 -32.696  24.502  1.00  0.00    -0.070 CG0
ATOM      9  C   UNL     1      18.579 -33.178  25.909  1.00  0.00     0.039 C 
ATOM     10  G   UNL     1      17.117 -31.838  24.236  1.00  0.00     0.000 G0
ENDBRANCH   6   7
ENDBRANCH   5   6
ENDBRANCH   3   5
ENDBRANCH   1   3
BRANCH   1  11
ATOM     11  C   UNL     1      15.346 -34.283  21.966  1.00  0.00     0.087 C 
BRANCH  11  12
ATOM     12  C   UNL     1      15.564 -32.797  22.343  1.00  0.00     0.066 C 
BRANCH  12  13
ATOM     13  C   UNL     1      15.954 -32.696  23.808  1.00  0.00     0.140 C 
ATOM     14  O   UNL     1      15.310 -33.310  24.647  1.00  0.00    -0.299 OA
BRANCH  13  15
ATOM     15  C   UNL     1      17.106 -31.839  24.255  1.00  0.00     0.106 CG0
ATOM     16  G   UNL     1      18.335 -32.692  24.487  1.00  0.00     0.000 G0
ENDBRANCH  13  15
ENDBRANCH  12  13
BRANCH  12  17
ATOM     17  C   UNL     1      14.302 -31.920  22.059  1.00  0.00    -0.006 C 
ATOM     18  C   UNL     1      14.682 -30.435  21.905  1.00  0.00     0.008 C 
ATOM     19  C   UNL     1      13.549 -32.374  20.795  1.00  0.00     0.008 C 
ENDBRANCH  12  17
ENDBRANCH  11  12
ENDBRANCH   1  11
TORSDOF 1
ENDMDL
MODEL 8
REMARK VINA RESULT:    -3.586      2.151      4.057
REMARK INTER + INTRA:          -5.808
REMARK INTER:                  -5.569
REMARK INTRA:                  -0.239
REMARK UNBOUND:                -0.335
REMARK SMILES CC1=CCC[C@@H](C)C(=O)C[C@@H](C(C)C)C(=O)C1
REMARK SMILES IDX 8 1 9 2 6 3 7 4 5 5 4 6 3 7 2 8 1 9 10 11 11 12 15 13 16 14
REMARK SMILES IDX 17 15 12 17 13 18 14 19
REMARK H PARENT
REMARK Flexibility Score: 70.00
ROOT
ATOM      1  C   UNL     1      17.756 -31.432  21.958  1.00  0.00     0.136 C 
ATOM      2  O   UNL     1      17.957 -30.254  22.216  1.00  0.00    -0.299 OA
ENDROOT
BRANCH   1   3
ATOM      3  C   UNL     1      18.801 -32.472  22.297  1.00  0.00     0.053 C 
ATOM      4  C   UNL     1      19.314 -32.233  23.721  1.00  0.00     0.016 C 
BRANCH   3   5
ATOM      5  C   UNL     1      19.981 -32.480  21.297  1.00  0.00     0.015 C 
BRANCH   5   6
ATOM      6  C   UNL     1      19.761 -33.419  20.096  1.00  0.00     0.028 C 
BRANCH   6   7
ATOM      7  C   UNL     1      19.242 -34.770  20.537  1.00  0.00    -0.028 C 
ATOM      8  C   UNL     1      17.991 -35.250  20.346  1.00  0.00    -0.070 CG0
ATOM      9  C   UNL     1      17.670 -36.621  20.885  1.00  0.00     0.039 C 
ATOM     10  G   UNL     1      16.920 -34.514  19.568  1.00  0.00     0.000 G0
ENDBRANCH   6   7
ENDBRANCH   5   6
ENDBRANCH   3   5
ENDBRANCH   1   3
BRANCH   1  11
ATOM     11  C   UNL     1      16.442 -31.844  21.338  1.00  0.00     0.087 C 
BRANCH  11  12
ATOM     12  C   UNL     1      16.029 -33.285  21.726  1.00  0.00     0.066 C 
BRANCH  12  13
ATOM     13  C   UNL     1      15.787 -34.101  20.468  1.00  0.00     0.140 C 
ATOM     14  O   UNL     1      14.650 -34.455  20.188  1.00  0.00    -0.299 OA
BRANCH  13  15
ATOM     15  C   UNL     1      16.920 -34.504  19.565  1.00  0.00     0.106 CG0
ATOM     16  G   UNL     1      17.976 -35.254  20.349  1.00  0.00     0.000 G0
ENDBRANCH  13  15
ENDBRANCH  12  13
BRANCH  12  17
ATOM     17  C   UNL     1      14.762 -33.315  22.640  1.00  0.00    -0.006 C 
ATOM     18  C   UNL     1      15.146 -33.547  24.113  1.00  0.00     0.008 C 
ATOM     19  C   UNL     1      13.939 -32.018  22.539  1.00  0.00     0.008 C 
ENDBRANCH  12  17
ENDBRANCH  11  12
ENDBRANCH   1  11
TORSDOF 1
ENDMDL
MODEL 9
REMARK VINA RESULT:    -3.540      2.195      4.806
REMARK INTER + INTRA:          -5.738
REMARK INTER:                  -5.415
REMARK INTRA:                  -0.323
REMARK UNBOUND:                -0.335
REMARK SMILES CC1=CCC[C@@H](C)C(=O)C[C@@H](C(C)C)C(=O)C1
REMARK SMILES IDX 8 1 9 2 6 3 7 4 5 5 4 6 3 7 2 8 1 9 10 11 11 12 15 13 16 14
REMARK SMILES IDX 17 15 12 17 13 18 14 19
REMARK H PARENT
REMARK Flexibility Score: 70.00
ROOT
ATOM      1  C   UNL     1      18.076 -32.636  20.730  1.00  0.00     0.136 C 
ATOM      2  O   UNL     1      17.870 -31.443  20.901  1.00  0.00    -0.299 OA
ENDROOT
BRANCH   1   3
ATOM      3  C   UNL     1      19.377 -33.102  20.114  1.00  0.00     0.053 C 
ATOM      4  C   UNL     1      19.180 -34.491  19.497  1.00  0.00     0.016 C 
BRANCH   3   5
ATOM      5  C   UNL     1      20.543 -33.128  21.129  1.00  0.00     0.015 C 
BRANCH   5   6
ATOM      6  C   UNL     1      20.785 -34.517  21.750  1.00  0.00     0.028 C 
BRANCH   6   7
ATOM      7  C   UNL     1      20.529 -34.510  23.240  1.00  0.00    -0.028 C 
ATOM      8  C   UNL     1      19.400 -34.922  23.862  1.00  0.00    -0.070 CG0
ATOM      9  C   UNL     1      19.340 -34.812  25.364  1.00  0.00     0.039 C 
ATOM     10  G   UNL     1      18.224 -35.544  23.139  1.00  0.00     0.000 G0
ENDBRANCH   6   7
ENDBRANCH   5   6
ENDBRANCH   3   5
ENDBRANCH   1   3
BRANCH   1  11
ATOM     11  C   UNL     1      17.039 -33.640  21.173  1.00  0.00     0.087 C 
BRANCH  11  12
ATOM     12  C   UNL     1      16.654 -33.477  22.665  1.00  0.00     0.066 C 
BRANCH  12  13
ATOM     13  C   UNL     1      16.957 -34.763  23.413  1.00  0.00     0.140 C 
ATOM     14  O   UNL     1      16.177 -35.162  24.266  1.00  0.00    -0.299 OA
BRANCH  13  15
ATOM     15  C   UNL     1      18.210 -35.551  23.143  1.00  0.00     0.106 CG0
ATOM     16  G   UNL     1      19.388 -34.926  23.860  1.00  0.00     0.000 G0
ENDBRANCH  13  15
ENDBRANCH  12  13
BRANCH  12  17
ATOM     17  C   UNL     1      15.153 -33.084  22.852  1.00  0.00    -0.006 C 
ATOM     18  C   UNL     1      15.015 -31.816  23.714  1.00  0.00     0.008 C 
ATOM     19  C   UNL     1      14.438 -32.853  21.508  1.00  0.00     0.008 C 
ENDBRANCH  12  17
ENDBRANCH  11  12
ENDBRANCH   1  11
TORSDOF 1
ENDMDL
