MODEL 1
REMARK VINA RESULT:    -2.419      0.000      0.000
REMARK INTER + INTRA:          -2.419
REMARK INTER:                  -2.419
REMARK INTRA:                   0.000
REMARK UNBOUND:                 0.000
REMARK SMILES CC(=O)[O-]
REMARK SMILES IDX 1 1 2 2 3 3 4 4
REMARK H PARENT
REMARK Flexibility Score: inf
ROOT
ATOM      1  C   UNL     1     -10.060 -15.926   9.096  1.00  0.00     0.063 C 
ATOM      2  C   UNL     1     -10.890 -14.687   9.066  1.00  0.00     0.038 C 
ATOM      3  O   UNL     1     -11.766 -14.535   8.175  1.00  0.00    -0.550 OA
ATOM      4  O   UNL     1     -10.736 -13.722  10.052  1.00  0.00    -0.550 OA
ENDROOT
TORSDOF 0
ENDMDL
MODEL 2
REMARK VINA RESULT:    -2.411      1.770      2.146
REMARK INTER + INTRA:          -2.411
REMARK INTER:                  -2.411
REMARK INTRA:                   0.000
REMARK UNBOUND:                 0.000
REMARK SMILES CC(=O)[O-]
REMARK SMILES IDX 1 1 2 2 3 3 4 4
REMARK H PARENT
REMARK Flexibility Score: inf
ROOT
ATOM      1  C   UNL     1     -11.289 -17.400   9.292  1.00  0.00     0.063 C 
ATOM      2  C   UNL     1     -10.686 -16.104   8.865  1.00  0.00     0.038 C 
ATOM      3  O   UNL     1      -9.435 -15.987   8.780  1.00  0.00    -0.550 OA
ATOM      4  O   UNL     1     -11.504 -15.039   8.508  1.00  0.00    -0.550 OA
ENDROOT
TORSDOF 0
ENDMDL
MODEL 3
REMARK VINA RESULT:    -2.383      0.145      1.624
REMARK INTER + INTRA:          -2.383
REMARK INTER:                  -2.383
REMARK INTRA:                   0.000
REMARK UNBOUND:                 0.000
REMARK SMILES CC(=O)[O-]
REMARK SMILES IDX 1 1 2 2 3 3 4 4
REMARK H PARENT
REMARK Flexibility Score: inf
ROOT
ATOM      1  C   UNL     1     -10.129 -15.864   9.207  1.00  0.00     0.063 C 
ATOM      2  C   UNL     1     -10.887 -14.581   9.151  1.00  0.00     0.038 C 
ATOM      3  O   UNL     1     -10.670 -13.681  10.004  1.00  0.00    -0.550 OA
ATOM      4  O   UNL     1     -11.797 -14.355   8.126  1.00  0.00    -0.550 OA
ENDROOT
TORSDOF 0
ENDMDL
MODEL 4
REMARK VINA RESULT:    -2.379      2.049      2.462
REMARK INTER + INTRA:          -2.379
REMARK INTER:                  -2.379
REMARK INTRA:                   0.000
REMARK UNBOUND:                 0.000
REMARK SMILES CC(=O)[O-]
REMARK SMILES IDX 1 1 2 2 3 3 4 4
REMARK H PARENT
REMARK Flexibility Score: inf
ROOT
ATOM      1  C   UNL     1      -9.843 -15.937   8.945  1.00  0.00     0.063 C 
ATOM      2  C   UNL     1     -11.196 -16.565   8.949  1.00  0.00     0.038 C 
ATOM      3  O   UNL     1     -12.198 -15.908   8.566  1.00  0.00    -0.550 OA
ATOM      4  O   UNL     1     -11.345 -17.894   9.325  1.00  0.00    -0.550 OA
ENDROOT
TORSDOF 0
ENDMDL
MODEL 5
REMARK VINA RESULT:    -2.320      4.679      5.504
REMARK INTER + INTRA:          -2.320
REMARK INTER:                  -2.320
REMARK INTRA:                   0.000
REMARK UNBOUND:                 0.000
REMARK SMILES CC(=O)[O-]
REMARK SMILES IDX 1 1 2 2 3 3 4 4
REMARK H PARENT
REMARK Flexibility Score: inf
ROOT
ATOM      1  C   UNL     1     -11.786  -9.405  11.113  1.00  0.00     0.063 C 
ATOM      2  C   UNL     1     -12.051 -10.674  11.851  1.00  0.00     0.038 C 
ATOM      3  O   UNL     1     -12.142 -10.667  13.106  1.00  0.00    -0.550 OA
ATOM      4  O   UNL     1     -12.251 -11.857  11.151  1.00  0.00    -0.550 OA
ENDROOT
TORSDOF 0
ENDMDL
MODEL 6
REMARK VINA RESULT:    -2.315      3.349      3.890
REMARK INTER + INTRA:          -2.315
REMARK INTER:                  -2.315
REMARK INTRA:                   0.000
REMARK UNBOUND:                 0.000
REMARK SMILES CC(=O)[O-]
REMARK SMILES IDX 1 1 2 2 3 3 4 4
REMARK H PARENT
REMARK Flexibility Score: inf
ROOT
ATOM      1  C   UNL     1     -12.240 -10.964  11.810  1.00  0.00     0.063 C 
ATOM      2  C   UNL     1     -12.172 -12.071  10.814  1.00  0.00     0.038 C 
ATOM      3  O   UNL     1     -13.229 -12.541  10.318  1.00  0.00    -0.550 OA
ATOM      4  O   UNL     1     -10.939 -12.551  10.390  1.00  0.00    -0.550 OA
ENDROOT
TORSDOF 0
ENDMDL
MODEL 7
REMARK VINA RESULT:    -2.301      2.158      2.400
REMARK INTER + INTRA:          -2.301
REMARK INTER:                  -2.301
REMARK INTRA:                   0.000
REMARK UNBOUND:                 0.000
REMARK SMILES CC(=O)[O-]
REMARK SMILES IDX 1 1 2 2 3 3 4 4
REMARK H PARENT
REMARK Flexibility Score: inf
ROOT
ATOM      1  C   UNL     1     -10.934 -14.582   8.971  1.00  0.00     0.063 C 
ATOM      2  C   UNL     1     -10.229 -15.896   8.944  1.00  0.00     0.038 C 
ATOM      3  O   UNL     1     -10.845 -16.949   9.251  1.00  0.00    -0.550 OA
ATOM      4  O   UNL     1      -8.905 -15.967   8.528  1.00  0.00    -0.550 OA
ENDROOT
TORSDOF 0
ENDMDL
MODEL 8
REMARK VINA RESULT:    -2.282      2.544      3.112
REMARK INTER + INTRA:          -2.282
REMARK INTER:                  -2.282
REMARK INTRA:                   0.000
REMARK UNBOUND:                 0.000
REMARK SMILES CC(=O)[O-]
REMARK SMILES IDX 1 1 2 2 3 3 4 4
REMARK H PARENT
REMARK Flexibility Score: inf
ROOT
ATOM      1  C   UNL     1     -10.131 -11.370  10.089  1.00  0.00     0.063 C 
ATOM      2  C   UNL     1     -11.102 -12.486  10.281  1.00  0.00     0.038 C 
ATOM      3  O   UNL     1     -10.760 -13.671  10.029  1.00  0.00    -0.550 OA
ATOM      4  O   UNL     1     -12.368 -12.228  10.791  1.00  0.00    -0.550 OA
ENDROOT
TORSDOF 0
ENDMDL
MODEL 9
REMARK VINA RESULT:    -2.263      5.892      6.304
REMARK INTER + INTRA:          -2.263
REMARK INTER:                  -2.263
REMARK INTRA:                   0.000
REMARK UNBOUND:                 0.000
REMARK SMILES CC(=O)[O-]
REMARK SMILES IDX 1 1 2 2 3 3 4 4
REMARK H PARENT
REMARK Flexibility Score: inf
ROOT
ATOM      1  C   UNL     1      -7.917 -10.446   7.285  1.00  0.00     0.063 C 
ATOM      2  C   UNL     1      -8.519  -9.188   7.814  1.00  0.00     0.038 C 
ATOM      3  O   UNL     1      -8.997  -9.157   8.978  1.00  0.00    -0.550 OA
ATOM      4  O   UNL     1      -8.505  -8.032   7.043  1.00  0.00    -0.550 OA
ENDROOT
TORSDOF 0
ENDMDL
