MODEL 1
REMARK VINA RESULT:    -5.451      0.000      0.000
REMARK INTER + INTRA:          -9.187
REMARK INTER:                  -8.478
REMARK INTRA:                  -0.709
REMARK UNBOUND:                -0.709
REMARK SMILES COc1cc(CNC(=O)CCCCC=CC(C)C)ccc1O
REMARK SMILES IDX 11 1 12 2 13 3 14 4 15 5 16 6 17 7 18 8 10 9 8 10 9 11 7 12
REMARK SMILES IDX 6 14 5 15 4 16 19 17 3 18 20 19 21 20 2 21 1 22 22 23
REMARK H PARENT 7 13 22 24
REMARK Flexibility Score: inf
ROOT
ATOM      1  C   UNL     1      28.653  33.622  21.253  1.00  0.00     0.010 C 
ENDROOT
BRANCH   1   2
ATOM      2  C   UNL     1      28.349  34.520  22.461  1.00  0.00     0.005 C 
BRANCH   2   3
ATOM      3  C   UNL     1      28.308  33.736  23.783  1.00  0.00     0.027 C 
BRANCH   3   4
ATOM      4  C   UNL     1      28.473  32.262  23.537  1.00  0.00    -0.031 C 
ATOM      5  C   UNL     1      27.970  31.351  24.385  1.00  0.00    -0.028 C 
BRANCH   5   6
ATOM      6  C   UNL     1      28.127  29.870  24.129  1.00  0.00     0.005 C 
ATOM      7  C   UNL     1      26.791  29.147  24.330  1.00  0.00     0.012 C 
ATOM      8  C   UNL     1      28.660  29.625  22.715  1.00  0.00     0.012 C 
ENDBRANCH   5   6
ENDBRANCH   3   4
ENDBRANCH   2   3
ENDBRANCH   1   2
BRANCH   1   9
ATOM      9  C   UNL     1      29.022  34.428  20.001  1.00  0.00     0.100 C 
BRANCH   9  10
ATOM     10  C   UNL     1      27.818  35.140  19.464  1.00  0.00     0.220 C 
ATOM     11  O   UNL     1      26.870  34.472  18.971  1.00  0.00    -0.275 OA
ATOM     12  N   UNL     1      27.729  36.569  19.551  1.00  0.00    -0.352 N 
ATOM     13  H   UNL     1      28.496  37.097  20.024  1.00  0.00     0.163 HD
BRANCH  12  14
ATOM     14  C   UNL     1      26.600  37.318  19.005  1.00  0.00     0.151 C 
BRANCH  14  15
ATOM     15  C   UNL     1      26.585  38.718  19.559  1.00  0.00    -0.025 A 
ATOM     16  C   UNL     1      27.175  39.765  18.832  1.00  0.00     0.056 A 
ATOM     17  C   UNL     1      25.966  38.994  20.786  1.00  0.00     0.009 A 
ATOM     18  C   UNL     1      27.150  41.085  19.327  1.00  0.00     0.160 A 
ATOM     19  C   UNL     1      25.941  40.297  21.284  1.00  0.00     0.050 A 
ATOM     20  C   UNL     1      26.529  41.342  20.563  1.00  0.00     0.157 A 
BRANCH  18  21
ATOM     21  O   UNL     1      27.726  42.154  18.620  1.00  0.00    -0.493 OA
ATOM     22  C   UNL     1      28.764  42.018  17.655  1.00  0.00     0.278 C 
ENDBRANCH  18  21
BRANCH  20  23
ATOM     23  O   UNL     1      26.485  42.632  21.091  1.00  0.00    -0.504 OA
ATOM     24  H   UNL     1      27.006  42.896  21.919  1.00  0.00     0.293 HD
ENDBRANCH  20  23
ENDBRANCH  14  15
ENDBRANCH  12  14
ENDBRANCH   9  10
ENDBRANCH   1   9
TORSDOF 10
ENDMDL
MODEL 2
REMARK VINA RESULT:    -5.280      0.755      1.839
REMARK INTER + INTRA:          -8.922
REMARK INTER:                  -8.220
REMARK INTRA:                  -0.701
REMARK UNBOUND:                -0.709
REMARK SMILES COc1cc(CNC(=O)CCCCC=CC(C)C)ccc1O
REMARK SMILES IDX 11 1 12 2 13 3 14 4 15 5 16 6 17 7 18 8 10 9 8 10 9 11 7 12
REMARK SMILES IDX 6 14 5 15 4 16 19 17 3 18 20 19 21 20 2 21 1 22 22 23
REMARK H PARENT 7 13 22 24
REMARK Flexibility Score: inf
ROOT
ATOM      1  C   UNL     1      28.704  33.725  21.214  1.00  0.00     0.010 C 
ENDROOT
BRANCH   1   2
ATOM      2  C   UNL     1      28.321  34.646  22.382  1.00  0.00     0.005 C 
BRANCH   2   3
ATOM      3  C   UNL     1      28.292  33.907  23.730  1.00  0.00     0.027 C 
BRANCH   3   4
ATOM      4  C   UNL     1      28.533  32.435  23.540  1.00  0.00    -0.031 C 
ATOM      5  C   UNL     1      27.920  31.521  24.307  1.00  0.00    -0.028 C 
BRANCH   5   6
ATOM      6  C   UNL     1      28.155  30.042  24.105  1.00  0.00     0.005 C 
ATOM      7  C   UNL     1      26.859  29.256  24.335  1.00  0.00     0.012 C 
ATOM      8  C   UNL     1      28.701  29.774  22.699  1.00  0.00     0.012 C 
ENDBRANCH   5   6
ENDBRANCH   3   4
ENDBRANCH   2   3
ENDBRANCH   1   2
BRANCH   1   9
ATOM      9  C   UNL     1      29.065  34.508  19.945  1.00  0.00     0.100 C 
BRANCH   9  10
ATOM     10  C   UNL     1      27.881  35.284  19.455  1.00  0.00     0.220 C 
ATOM     11  O   UNL     1      26.877  34.668  19.007  1.00  0.00    -0.275 OA
ATOM     12  N   UNL     1      27.876  36.716  19.536  1.00  0.00    -0.352 N 
ATOM     13  H   UNL     1      28.690  37.202  19.973  1.00  0.00     0.163 HD
BRANCH  12  14
ATOM     14  C   UNL     1      26.768  37.525  19.034  1.00  0.00     0.151 C 
BRANCH  14  15
ATOM     15  C   UNL     1      27.130  38.987  19.068  1.00  0.00    -0.025 A 
ATOM     16  C   UNL     1      26.473  39.850  19.959  1.00  0.00     0.056 A 
ATOM     17  C   UNL     1      28.137  39.492  18.233  1.00  0.00     0.009 A 
ATOM     18  C   UNL     1      26.816  41.216  20.018  1.00  0.00     0.160 A 
ATOM     19  C   UNL     1      28.479  40.844  18.284  1.00  0.00     0.050 A 
ATOM     20  C   UNL     1      27.825  41.707  19.169  1.00  0.00     0.157 A 
BRANCH  18  21
ATOM     21  O   UNL     1      26.181  42.104  20.903  1.00  0.00    -0.493 OA
ATOM     22  C   UNL     1      26.616  42.369  22.233  1.00  0.00     0.278 C 
ENDBRANCH  18  21
BRANCH  20  23
ATOM     23  O   UNL     1      28.193  43.052  19.193  1.00  0.00    -0.504 OA
ATOM     24  H   UNL     1      27.928  43.699  18.459  1.00  0.00     0.293 HD
ENDBRANCH  20  23
ENDBRANCH  14  15
ENDBRANCH  12  14
ENDBRANCH   9  10
ENDBRANCH   1   9
TORSDOF 10
ENDMDL
MODEL 3
REMARK VINA RESULT:    -5.277      3.372      4.498
REMARK INTER + INTRA:          -8.917
REMARK INTER:                  -8.312
REMARK INTRA:                  -0.605
REMARK UNBOUND:                -0.709
REMARK SMILES COc1cc(CNC(=O)CCCCC=CC(C)C)ccc1O
REMARK SMILES IDX 11 1 12 2 13 3 14 4 15 5 16 6 17 7 18 8 10 9 8 10 9 11 7 12
REMARK SMILES IDX 6 14 5 15 4 16 19 17 3 18 20 19 21 20 2 21 1 22 22 23
REMARK H PARENT 7 13 22 24
REMARK Flexibility Score: inf
ROOT
ATOM      1  C   UNL     1      28.216  32.272  23.811  1.00  0.00     0.010 C 
ENDROOT
BRANCH   1   2
ATOM      2  C   UNL     1      28.980  31.037  24.310  1.00  0.00     0.005 C 
BRANCH   2   3
ATOM      3  C   UNL     1      28.536  29.745  23.605  1.00  0.00     0.027 C 
BRANCH   3   4
ATOM      4  C   UNL     1      28.645  28.565  24.530  1.00  0.00    -0.031 C 
ATOM      5  C   UNL     1      27.611  28.177  25.293  1.00  0.00    -0.028 C 
BRANCH   5   6
ATOM      6  C   UNL     1      27.719  26.982  26.212  1.00  0.00     0.005 C 
ATOM      7  C   UNL     1      27.389  25.691  25.455  1.00  0.00     0.012 C 
ATOM      8  C   UNL     1      29.122  26.901  26.822  1.00  0.00     0.012 C 
ENDBRANCH   5   6
ENDBRANCH   3   4
ENDBRANCH   2   3
ENDBRANCH   1   2
BRANCH   1   9
ATOM      9  C   UNL     1      28.799  32.836  22.509  1.00  0.00     0.100 C 
BRANCH   9  10
ATOM     10  C   UNL     1      28.416  34.275  22.345  1.00  0.00     0.220 C 
ATOM     11  O   UNL     1      27.929  34.903  23.323  1.00  0.00    -0.275 OA
ATOM     12  N   UNL     1      28.642  34.941  21.095  1.00  0.00    -0.352 N 
ATOM     13  H   UNL     1      29.108  34.420  20.320  1.00  0.00     0.163 HD
BRANCH  12  14
ATOM     14  C   UNL     1      28.249  36.330  20.865  1.00  0.00     0.151 C 
BRANCH  14  15
ATOM     15  C   UNL     1      26.794  36.405  20.486  1.00  0.00    -0.025 A 
ATOM     16  C   UNL     1      25.860  36.927  21.395  1.00  0.00     0.056 A 
ATOM     17  C   UNL     1      26.363  35.980  19.221  1.00  0.00     0.009 A 
ATOM     18  C   UNL     1      24.497  37.024  21.046  1.00  0.00     0.160 A 
ATOM     19  C   UNL     1      25.015  36.069  18.871  1.00  0.00     0.050 A 
ATOM     20  C   UNL     1      24.082  36.587  19.775  1.00  0.00     0.157 A 
BRANCH  18  21
ATOM     21  O   UNL     1      23.540  37.548  21.931  1.00  0.00    -0.493 OA
ATOM     22  C   UNL     1      23.182  38.924  22.013  1.00  0.00     0.278 C 
ENDBRANCH  18  21
BRANCH  20  23
ATOM     23  O   UNL     1      22.743  36.663  19.390  1.00  0.00    -0.504 OA
ATOM     24  H   UNL     1      22.256  35.880  18.969  1.00  0.00     0.293 HD
ENDBRANCH  20  23
ENDBRANCH  14  15
ENDBRANCH  12  14
ENDBRANCH   9  10
ENDBRANCH   1   9
TORSDOF 10
ENDMDL
MODEL 4
REMARK VINA RESULT:    -5.225      2.340      3.490
REMARK INTER + INTRA:          -8.837
REMARK INTER:                  -8.088
REMARK INTRA:                  -0.748
REMARK UNBOUND:                -0.709
REMARK SMILES COc1cc(CNC(=O)CCCCC=CC(C)C)ccc1O
REMARK SMILES IDX 11 1 12 2 13 3 14 4 15 5 16 6 17 7 18 8 10 9 8 10 9 11 7 12
REMARK SMILES IDX 6 14 5 15 4 16 19 17 3 18 20 19 21 20 2 21 1 22 22 23
REMARK H PARENT 7 13 22 24
REMARK Flexibility Score: inf
ROOT
ATOM      1  C   UNL     1      28.444  33.399  23.049  1.00  0.00     0.010 C 
ENDROOT
BRANCH   1   2
ATOM      2  C   UNL     1      28.510  32.242  24.057  1.00  0.00     0.005 C 
BRANCH   2   3
ATOM      3  C   UNL     1      28.683  30.876  23.376  1.00  0.00     0.027 C 
BRANCH   3   4
ATOM      4  C   UNL     1      28.280  29.761  24.300  1.00  0.00    -0.031 C 
ATOM      5  C   UNL     1      27.914  30.001  25.569  1.00  0.00    -0.028 C 
BRANCH   5   6
ATOM      6  C   UNL     1      27.497  28.879  26.492  1.00  0.00     0.005 C 
ATOM      7  C   UNL     1      25.970  28.773  26.551  1.00  0.00     0.012 C 
ATOM      8  C   UNL     1      28.108  27.553  26.031  1.00  0.00     0.012 C 
ENDBRANCH   5   6
ENDBRANCH   3   4
ENDBRANCH   2   3
ENDBRANCH   1   2
BRANCH   1   9
ATOM      9  C   UNL     1      28.948  32.994  21.658  1.00  0.00     0.100 C 
BRANCH   9  10
ATOM     10  C   UNL     1      28.672  34.082  20.665  1.00  0.00     0.220 C 
ATOM     11  O   UNL     1      28.215  33.784  19.529  1.00  0.00    -0.275 OA
ATOM     12  N   UNL     1      28.887  35.454  21.022  1.00  0.00    -0.352 N 
ATOM     13  H   UNL     1      29.202  35.682  21.991  1.00  0.00     0.163 HD
BRANCH  12  14
ATOM     14  C   UNL     1      28.676  36.551  20.081  1.00  0.00     0.151 C 
BRANCH  14  15
ATOM     15  C   UNL     1      27.380  37.257  20.382  1.00  0.00    -0.025 A 
ATOM     16  C   UNL     1      26.158  36.611  20.136  1.00  0.00     0.056 A 
ATOM     17  C   UNL     1      27.381  38.548  20.929  1.00  0.00     0.009 A 
ATOM     18  C   UNL     1      24.937  37.250  20.433  1.00  0.00     0.160 A 
ATOM     19  C   UNL     1      26.176  39.188  21.221  1.00  0.00     0.050 A 
ATOM     20  C   UNL     1      24.957  38.548  20.976  1.00  0.00     0.157 A 
BRANCH  18  21
ATOM     21  O   UNL     1      23.698  36.628  20.204  1.00  0.00    -0.493 OA
ATOM     22  C   UNL     1      23.398  35.817  19.072  1.00  0.00     0.278 C 
ENDBRANCH  18  21
BRANCH  20  23
ATOM     23  O   UNL     1      23.772  39.218  21.281  1.00  0.00    -0.504 OA
ATOM     24  H   UNL     1      23.030  38.787  21.820  1.00  0.00     0.293 HD
ENDBRANCH  20  23
ENDBRANCH  14  15
ENDBRANCH  12  14
ENDBRANCH   9  10
ENDBRANCH   1   9
TORSDOF 10
ENDMDL
MODEL 5
REMARK VINA RESULT:    -5.175      3.707      7.040
REMARK INTER + INTRA:          -8.759
REMARK INTER:                  -8.045
REMARK INTRA:                  -0.714
REMARK UNBOUND:                -0.709
REMARK SMILES COc1cc(CNC(=O)CCCCC=CC(C)C)ccc1O
REMARK SMILES IDX 11 1 12 2 13 3 14 4 15 5 16 6 17 7 18 8 10 9 8 10 9 11 7 12
REMARK SMILES IDX 6 14 5 15 4 16 19 17 3 18 20 19 21 20 2 21 1 22 22 23
REMARK H PARENT 7 13 22 24
REMARK Flexibility Score: inf
ROOT
ATOM      1  C   UNL     1      26.051  29.401  25.651  1.00  0.00     0.010 C 
ENDROOT
BRANCH   1   2
ATOM      2  C   UNL     1      26.483  28.395  26.728  1.00  0.00     0.005 C 
BRANCH   2   3
ATOM      3  C   UNL     1      27.520  27.385  26.210  1.00  0.00     0.027 C 
BRANCH   3   4
ATOM      4  C   UNL     1      27.215  26.000  26.708  1.00  0.00    -0.031 C 
ATOM      5  C   UNL     1      25.967  25.636  27.046  1.00  0.00    -0.028 C 
BRANCH   5   6
ATOM      6  C   UNL     1      25.662  24.239  27.535  1.00  0.00     0.005 C 
ATOM      7  C   UNL     1      25.948  24.122  29.036  1.00  0.00     0.012 C 
ATOM      8  C   UNL     1      24.204  23.876  27.238  1.00  0.00     0.012 C 
ENDBRANCH   5   6
ENDBRANCH   3   4
ENDBRANCH   2   3
ENDBRANCH   1   2
BRANCH   1   9
ATOM      9  C   UNL     1      26.848  29.246  24.350  1.00  0.00     0.100 C 
BRANCH   9  10
ATOM     10  C   UNL     1      27.915  30.295  24.262  1.00  0.00     0.220 C 
ATOM     11  O   UNL     1      29.122  29.947  24.170  1.00  0.00    -0.275 OA
ATOM     12  N   UNL     1      27.557  31.684  24.241  1.00  0.00    -0.352 N 
ATOM     13  H   UNL     1      26.547  31.948  24.250  1.00  0.00     0.163 HD
BRANCH  12  14
ATOM     14  C   UNL     1      28.556  32.749  24.200  1.00  0.00     0.151 C 
BRANCH  14  15
ATOM     15  C   UNL     1      28.565  33.406  22.845  1.00  0.00    -0.025 A 
ATOM     16  C   UNL     1      28.049  34.703  22.693  1.00  0.00     0.056 A 
ATOM     17  C   UNL     1      29.105  32.743  21.734  1.00  0.00     0.009 A 
ATOM     18  C   UNL     1      28.069  35.340  21.435  1.00  0.00     0.160 A 
ATOM     19  C   UNL     1      29.125  33.366  20.486  1.00  0.00     0.050 A 
ATOM     20  C   UNL     1      28.610  34.658  20.330  1.00  0.00     0.157 A 
BRANCH  18  21
ATOM     21  O   UNL     1      27.567  36.639  21.252  1.00  0.00    -0.493 OA
ATOM     22  C   UNL     1      26.305  37.092  21.733  1.00  0.00     0.278 C 
ENDBRANCH  18  21
BRANCH  20  23
ATOM     23  O   UNL     1      28.648  35.249  19.067  1.00  0.00    -0.504 OA
ATOM     24  H   UNL     1      29.108  36.136  18.899  1.00  0.00     0.293 HD
ENDBRANCH  20  23
ENDBRANCH  14  15
ENDBRANCH  12  14
ENDBRANCH   9  10
ENDBRANCH   1   9
TORSDOF 10
ENDMDL
MODEL 6
REMARK VINA RESULT:    -5.145      3.126      5.460
REMARK INTER + INTRA:          -8.712
REMARK INTER:                  -8.170
REMARK INTRA:                  -0.542
REMARK UNBOUND:                -0.709
REMARK SMILES COc1cc(CNC(=O)CCCCC=CC(C)C)ccc1O
REMARK SMILES IDX 11 1 12 2 13 3 14 4 15 5 16 6 17 7 18 8 10 9 8 10 9 11 7 12
REMARK SMILES IDX 6 14 5 15 4 16 19 17 3 18 20 19 21 20 2 21 1 22 22 23
REMARK H PARENT 7 13 22 24
REMARK Flexibility Score: inf
ROOT
ATOM      1  C   UNL     1      27.510  30.711  24.789  1.00  0.00     0.010 C 
ENDROOT
BRANCH   1   2
ATOM      2  C   UNL     1      28.241  29.786  25.773  1.00  0.00     0.005 C 
BRANCH   2   3
ATOM      3  C   UNL     1      27.455  28.498  26.066  1.00  0.00     0.027 C 
BRANCH   3   4
ATOM      4  C   UNL     1      26.046  28.813  26.485  1.00  0.00    -0.031 C 
ATOM      5  C   UNL     1      25.368  28.010  27.320  1.00  0.00    -0.028 C 
BRANCH   5   6
ATOM      6  C   UNL     1      23.956  28.336  27.750  1.00  0.00     0.005 C 
ATOM      7  C   UNL     1      23.194  27.055  28.104  1.00  0.00     0.012 C 
ATOM      8  C   UNL     1      23.969  29.298  28.941  1.00  0.00     0.012 C 
ENDBRANCH   5   6
ENDBRANCH   3   4
ENDBRANCH   2   3
ENDBRANCH   1   2
BRANCH   1   9
ATOM      9  C   UNL     1      28.400  31.139  23.616  1.00  0.00     0.100 C 
BRANCH   9  10
ATOM     10  C   UNL     1      28.598  32.625  23.624  1.00  0.00     0.220 C 
ATOM     11  O   UNL     1      28.745  33.224  24.723  1.00  0.00    -0.275 OA
ATOM     12  N   UNL     1      28.662  33.349  22.388  1.00  0.00    -0.352 N 
ATOM     13  H   UNL     1      28.605  32.822  21.488  1.00  0.00     0.163 HD
BRANCH  12  14
ATOM     14  C   UNL     1      28.810  34.802  22.338  1.00  0.00     0.151 C 
BRANCH  14  15
ATOM     15  C   UNL     1      27.869  35.388  21.320  1.00  0.00    -0.025 A 
ATOM     16  C   UNL     1      26.937  36.364  21.708  1.00  0.00     0.056 A 
ATOM     17  C   UNL     1      27.930  34.986  19.978  1.00  0.00     0.009 A 
ATOM     18  C   UNL     1      26.064  36.938  20.761  1.00  0.00     0.160 A 
ATOM     19  C   UNL     1      27.066  35.548  19.036  1.00  0.00     0.050 A 
ATOM     20  C   UNL     1      26.135  36.518  19.419  1.00  0.00     0.157 A 
BRANCH  18  21
ATOM     21  O   UNL     1      25.124  37.920  21.117  1.00  0.00    -0.493 OA
ATOM     22  C   UNL     1      23.830  37.647  21.645  1.00  0.00     0.278 C 
ENDBRANCH  18  21
BRANCH  20  23
ATOM     23  O   UNL     1      25.288  37.058  18.451  1.00  0.00    -0.504 OA
ATOM     24  H   UNL     1      24.590  37.758  18.673  1.00  0.00     0.293 HD
ENDBRANCH  20  23
ENDBRANCH  14  15
ENDBRANCH  12  14
ENDBRANCH   9  10
ENDBRANCH   1   9
TORSDOF 10
ENDMDL
MODEL 7
REMARK VINA RESULT:    -5.065      3.039      5.277
REMARK INTER + INTRA:          -8.587
REMARK INTER:                  -7.865
REMARK INTRA:                  -0.722
REMARK UNBOUND:                -0.709
REMARK SMILES COc1cc(CNC(=O)CCCCC=CC(C)C)ccc1O
REMARK SMILES IDX 11 1 12 2 13 3 14 4 15 5 16 6 17 7 18 8 10 9 8 10 9 11 7 12
REMARK SMILES IDX 6 14 5 15 4 16 19 17 3 18 20 19 21 20 2 21 1 22 22 23
REMARK H PARENT 7 13 22 24
REMARK Flexibility Score: inf
ROOT
ATOM      1  C   UNL     1      27.252  30.553  24.643  1.00  0.00     0.010 C 
ENDROOT
BRANCH   1   2
ATOM      2  C   UNL     1      27.774  29.746  25.841  1.00  0.00     0.005 C 
BRANCH   2   3
ATOM      3  C   UNL     1      29.072  28.988  25.521  1.00  0.00     0.027 C 
BRANCH   3   4
ATOM      4  C   UNL     1      28.863  27.503  25.618  1.00  0.00    -0.031 C 
ATOM      5  C   UNL     1      27.633  26.971  25.687  1.00  0.00    -0.028 C 
BRANCH   5   6
ATOM      6  C   UNL     1      27.426  25.476  25.772  1.00  0.00     0.005 C 
ATOM      7  C   UNL     1      28.775  24.748  25.762  1.00  0.00     0.012 C 
ATOM      8  C   UNL     1      26.632  25.117  27.031  1.00  0.00     0.012 C 
ENDBRANCH   5   6
ENDBRANCH   3   4
ENDBRANCH   2   3
ENDBRANCH   1   2
BRANCH   1   9
ATOM      9  C   UNL     1      28.374  30.974  23.686  1.00  0.00     0.100 C 
BRANCH   9  10
ATOM     10  C   UNL     1      28.630  32.446  23.795  1.00  0.00     0.220 C 
ATOM     11  O   UNL     1      29.078  32.920  24.873  1.00  0.00    -0.275 OA
ATOM     12  N   UNL     1      28.406  33.301  22.665  1.00  0.00    -0.352 N 
ATOM     13  H   UNL     1      28.099  32.877  21.762  1.00  0.00     0.163 HD
BRANCH  12  14
ATOM     14  C   UNL     1      28.597  34.748  22.727  1.00  0.00     0.151 C 
BRANCH  14  15
ATOM     15  C   UNL     1      27.826  35.425  21.625  1.00  0.00    -0.025 A 
ATOM     16  C   UNL     1      26.854  36.388  21.940  1.00  0.00     0.056 A 
ATOM     17  C   UNL     1      28.086  35.119  20.281  1.00  0.00     0.009 A 
ATOM     18  C   UNL     1      26.140  37.046  20.918  1.00  0.00     0.160 A 
ATOM     19  C   UNL     1      27.380  35.764  19.265  1.00  0.00     0.050 A 
ATOM     20  C   UNL     1      26.410  36.723  19.575  1.00  0.00     0.157 A 
BRANCH  18  21
ATOM     21  O   UNL     1      25.166  38.019  21.200  1.00  0.00    -0.493 OA
ATOM     22  C   UNL     1      23.827  37.732  21.590  1.00  0.00     0.278 C 
ENDBRANCH  18  21
BRANCH  20  23
ATOM     23  O   UNL     1      25.724  37.347  18.533  1.00  0.00    -0.504 OA
ATOM     24  H   UNL     1      24.727  37.524  18.570  1.00  0.00     0.293 HD
ENDBRANCH  20  23
ENDBRANCH  14  15
ENDBRANCH  12  14
ENDBRANCH   9  10
ENDBRANCH   1   9
TORSDOF 10
ENDMDL
MODEL 8
REMARK VINA RESULT:    -5.053      1.733      2.518
REMARK INTER + INTRA:          -8.569
REMARK INTER:                  -7.840
REMARK INTRA:                  -0.729
REMARK UNBOUND:                -0.709
REMARK SMILES COc1cc(CNC(=O)CCCCC=CC(C)C)ccc1O
REMARK SMILES IDX 11 1 12 2 13 3 14 4 15 5 16 6 17 7 18 8 10 9 8 10 9 11 7 12
REMARK SMILES IDX 6 14 5 15 4 16 19 17 3 18 20 19 21 20 2 21 1 22 22 23
REMARK H PARENT 7 13 22 24
REMARK Flexibility Score: inf
ROOT
ATOM      1  C   UNL     1      28.890  33.870  22.462  1.00  0.00     0.010 C 
ENDROOT
BRANCH   1   2
ATOM      2  C   UNL     1      28.728  32.679  23.418  1.00  0.00     0.005 C 
BRANCH   2   3
ATOM      3  C   UNL     1      29.018  31.332  22.737  1.00  0.00     0.027 C 
BRANCH   3   4
ATOM      4  C   UNL     1      28.759  30.189  23.678  1.00  0.00    -0.031 C 
ATOM      5  C   UNL     1      27.920  30.314  24.718  1.00  0.00    -0.028 C 
BRANCH   5   6
ATOM      6  C   UNL     1      27.651  29.159  25.654  1.00  0.00     0.005 C 
ATOM      7  C   UNL     1      26.160  29.084  26.000  1.00  0.00     0.012 C 
ATOM      8  C   UNL     1      28.122  27.843  25.028  1.00  0.00     0.012 C 
ENDBRANCH   5   6
ENDBRANCH   3   4
ENDBRANCH   2   3
ENDBRANCH   1   2
BRANCH   1   9
ATOM      9  C   UNL     1      29.017  33.433  20.998  1.00  0.00     0.100 C 
BRANCH   9  10
ATOM     10  C   UNL     1      28.341  34.422  20.097  1.00  0.00     0.220 C 
ATOM     11  O   UNL     1      27.567  34.010  19.192  1.00  0.00    -0.275 OA
ATOM     12  N   UNL     1      28.543  35.828  20.293  1.00  0.00    -0.352 N 
ATOM     13  H   UNL     1      29.135  36.149  21.091  1.00  0.00     0.163 HD
BRANCH  12  14
ATOM     14  C   UNL     1      27.945  36.835  19.419  1.00  0.00     0.151 C 
BRANCH  14  15
ATOM     15  C   UNL     1      26.762  37.476  20.093  1.00  0.00    -0.025 A 
ATOM     16  C   UNL     1      26.844  38.807  20.535  1.00  0.00     0.056 A 
ATOM     17  C   UNL     1      25.566  36.764  20.266  1.00  0.00     0.009 A 
ATOM     18  C   UNL     1      25.737  39.428  21.148  1.00  0.00     0.160 A 
ATOM     19  C   UNL     1      24.468  37.371  20.877  1.00  0.00     0.050 A 
ATOM     20  C   UNL     1      24.547  38.696  21.319  1.00  0.00     0.157 A 
BRANCH  18  21
ATOM     21  O   UNL     1      25.786  40.759  21.595  1.00  0.00    -0.493 OA
ATOM     22  C   UNL     1      26.980  41.524  21.725  1.00  0.00     0.278 C 
ENDBRANCH  18  21
BRANCH  20  23
ATOM     23  O   UNL     1      23.429  39.271  21.923  1.00  0.00    -0.504 OA
ATOM     24  H   UNL     1      22.551  39.392  21.433  1.00  0.00     0.293 HD
ENDBRANCH  20  23
ENDBRANCH  14  15
ENDBRANCH  12  14
ENDBRANCH   9  10
ENDBRANCH   1   9
TORSDOF 10
ENDMDL
MODEL 9
REMARK VINA RESULT:    -4.938      1.465      2.642
REMARK INTER + INTRA:          -8.390
REMARK INTER:                  -7.706
REMARK INTRA:                  -0.685
REMARK UNBOUND:                -0.709
REMARK SMILES COc1cc(CNC(=O)CCCCC=CC(C)C)ccc1O
REMARK SMILES IDX 11 1 12 2 13 3 14 4 15 5 16 6 17 7 18 8 10 9 8 10 9 11 7 12
REMARK SMILES IDX 6 14 5 15 4 16 19 17 3 18 20 19 21 20 2 21 1 22 22 23
REMARK H PARENT 7 13 22 24
REMARK Flexibility Score: inf
ROOT
ATOM      1  C   UNL     1      27.876  34.768  22.863  1.00  0.00     0.010 C 
ENDROOT
BRANCH   1   2
ATOM      2  C   UNL     1      28.382  34.016  24.102  1.00  0.00     0.005 C 
BRANCH   2   3
ATOM      3  C   UNL     1      28.839  32.585  23.778  1.00  0.00     0.027 C 
BRANCH   3   4
ATOM      4  C   UNL     1      28.161  31.588  24.676  1.00  0.00    -0.031 C 
ATOM      5  C   UNL     1      27.920  30.331  24.271  1.00  0.00    -0.028 C 
BRANCH   5   6
ATOM      6  C   UNL     1      27.249  29.328  25.181  1.00  0.00     0.005 C 
ATOM      7  C   UNL     1      27.867  29.378  26.582  1.00  0.00     0.012 C 
ATOM      8  C   UNL     1      25.742  29.594  25.251  1.00  0.00     0.012 C 
ENDBRANCH   5   6
ENDBRANCH   3   4
ENDBRANCH   2   3
ENDBRANCH   1   2
BRANCH   1   9
ATOM      9  C   UNL     1      28.492  34.237  21.562  1.00  0.00     0.100 C 
BRANCH   9  10
ATOM     10  C   UNL     1      28.251  35.199  20.439  1.00  0.00     0.220 C 
ATOM     11  O   UNL     1      27.447  34.891  19.520  1.00  0.00    -0.275 OA
ATOM     12  N   UNL     1      28.901  36.478  20.435  1.00  0.00    -0.352 N 
ATOM     13  H   UNL     1      29.511  36.739  21.242  1.00  0.00     0.163 HD
BRANCH  12  14
ATOM     14  C   UNL     1      28.737  37.437  19.345  1.00  0.00     0.151 C 
BRANCH  14  15
ATOM     15  C   UNL     1      27.925  38.618  19.806  1.00  0.00    -0.025 A 
ATOM     16  C   UNL     1      26.691  38.414  20.443  1.00  0.00     0.056 A 
ATOM     17  C   UNL     1      28.401  39.925  19.625  1.00  0.00     0.009 A 
ATOM     18  C   UNL     1      25.930  39.509  20.899  1.00  0.00     0.160 A 
ATOM     19  C   UNL     1      27.650  41.014  20.070  1.00  0.00     0.050 A 
ATOM     20  C   UNL     1      26.420  40.814  20.704  1.00  0.00     0.157 A 
BRANCH  18  21
ATOM     21  O   UNL     1      24.694  39.337  21.546  1.00  0.00    -0.493 OA
ATOM     22  C   UNL     1      23.935  38.133  21.530  1.00  0.00     0.278 C 
ENDBRANCH  18  21
BRANCH  20  23
ATOM     23  O   UNL     1      25.698  41.926  21.137  1.00  0.00    -0.504 OA
ATOM     24  H   UNL     1      25.013  42.389  20.551  1.00  0.00     0.293 HD
ENDBRANCH  20  23
ENDBRANCH  14  15
ENDBRANCH  12  14
ENDBRANCH   9  10
ENDBRANCH   1   9
TORSDOF 10
ENDMDL
