MODEL 1
REMARK VINA RESULT:    -3.556      0.000      0.000
REMARK INTER + INTRA:          -4.743
REMARK INTER:                  -4.595
REMARK INTRA:                  -0.148
REMARK UNBOUND:                -0.148
REMARK SMILES CCCCCCC(=O)[O-]
REMARK SMILES IDX 5 1 6 2 7 3 8 4 9 5 4 6 3 7 2 8 1 9
REMARK H PARENT
REMARK Flexibility Score: inf
ROOT
ATOM      1  C   UNL     1      -9.017  24.278  24.811  1.00  0.00     0.006 C 
ENDROOT
BRANCH   1   2
ATOM      2  C   UNL     1      -9.275  22.927  25.485  1.00  0.00     0.053 C 
BRANCH   2   3
ATOM      3  C   UNL     1      -8.458  22.799  26.733  1.00  0.00     0.041 C 
ATOM      4  O   UNL     1      -7.203  22.731  26.663  1.00  0.00    -0.550 OA
ATOM      5  O   UNL     1      -9.080  22.806  27.974  1.00  0.00    -0.550 OA
ENDBRANCH   2   3
ENDBRANCH   1   2
BRANCH   1   6
ATOM      6  C   UNL     1      -9.876  24.433  23.546  1.00  0.00     0.000 C 
BRANCH   6   7
ATOM      7  C   UNL     1     -10.873  23.278  23.362  1.00  0.00    -0.000 C 
BRANCH   7   8
ATOM      8  C   UNL     1     -12.098  23.681  22.528  1.00  0.00    -0.003 C 
ATOM      9  C   UNL     1     -11.783  23.635  21.035  1.00  0.00     0.004 C 
ENDBRANCH   7   8
ENDBRANCH   6   7
ENDBRANCH   1   6
TORSDOF 5
ENDMDL
MODEL 2
REMARK VINA RESULT:    -3.520     10.318     11.806
REMARK INTER + INTRA:          -4.697
REMARK INTER:                  -4.340
REMARK INTRA:                  -0.357
REMARK UNBOUND:                -0.148
REMARK SMILES CCCCCCC(=O)[O-]
REMARK SMILES IDX 5 1 6 2 7 3 8 4 9 5 4 6 3 7 2 8 1 9
REMARK H PARENT
REMARK Flexibility Score: inf
ROOT
ATOM      1  C   UNL     1     -17.136  23.230  33.602  1.00  0.00     0.006 C 
ENDROOT
BRANCH   1   2
ATOM      2  C   UNL     1     -16.645  24.660  33.849  1.00  0.00     0.053 C 
BRANCH   2   3
ATOM      3  C   UNL     1     -15.821  25.137  32.694  1.00  0.00     0.041 C 
ATOM      4  O   UNL     1     -14.582  24.916  32.666  1.00  0.00    -0.550 OA
ATOM      5  O   UNL     1     -16.430  25.784  31.627  1.00  0.00    -0.550 OA
ENDBRANCH   2   3
ENDBRANCH   1   2
BRANCH   1   6
ATOM      6  C   UNL     1     -16.229  22.209  34.309  1.00  0.00     0.000 C 
BRANCH   6   7
ATOM      7  C   UNL     1     -15.668  22.737  35.638  1.00  0.00    -0.000 C 
BRANCH   7   8
ATOM      8  C   UNL     1     -14.280  22.164  35.962  1.00  0.00    -0.003 C 
ATOM      9  C   UNL     1     -13.312  22.383  34.802  1.00  0.00     0.004 C 
ENDBRANCH   7   8
ENDBRANCH   6   7
ENDBRANCH   1   6
TORSDOF 5
ENDMDL
MODEL 3
REMARK VINA RESULT:    -3.418     10.294     11.824
REMARK INTER + INTRA:          -4.565
REMARK INTER:                  -4.321
REMARK INTRA:                  -0.244
REMARK UNBOUND:                -0.148
REMARK SMILES CCCCCCC(=O)[O-]
REMARK SMILES IDX 5 1 6 2 7 3 8 4 9 5 4 6 3 7 2 8 1 9
REMARK H PARENT
REMARK Flexibility Score: inf
ROOT
ATOM      1  C   UNL     1     -16.764  23.266  33.254  1.00  0.00     0.006 C 
ENDROOT
BRANCH   1   2
ATOM      2  C   UNL     1     -16.063  24.625  33.336  1.00  0.00     0.053 C 
BRANCH   2   3
ATOM      3  C   UNL     1     -16.428  25.475  32.159  1.00  0.00     0.041 C 
ATOM      4  O   UNL     1     -17.440  26.222  32.208  1.00  0.00    -0.550 OA
ATOM      5  O   UNL     1     -15.623  25.477  31.028  1.00  0.00    -0.550 OA
ENDBRANCH   2   3
ENDBRANCH   1   2
BRANCH   1   6
ATOM      6  C   UNL     1     -16.026  22.216  34.099  1.00  0.00     0.000 C 
BRANCH   6   7
ATOM      7  C   UNL     1     -15.646  22.739  35.494  1.00  0.00    -0.000 C 
BRANCH   7   8
ATOM      8  C   UNL     1     -14.301  22.184  35.986  1.00  0.00    -0.003 C 
ATOM      9  C   UNL     1     -13.271  22.160  34.860  1.00  0.00     0.004 C 
ENDBRANCH   7   8
ENDBRANCH   6   7
ENDBRANCH   1   6
TORSDOF 5
ENDMDL
MODEL 4
REMARK VINA RESULT:    -3.403     10.041     11.085
REMARK INTER + INTRA:          -4.546
REMARK INTER:                  -4.346
REMARK INTRA:                  -0.200
REMARK UNBOUND:                -0.148
REMARK SMILES CCCCCCC(=O)[O-]
REMARK SMILES IDX 5 1 6 2 7 3 8 4 9 5 4 6 3 7 2 8 1 9
REMARK H PARENT
REMARK Flexibility Score: inf
ROOT
ATOM      1  C   UNL     1     -16.145  23.066  34.806  1.00  0.00     0.006 C 
ENDROOT
BRANCH   1   2
ATOM      2  C   UNL     1     -14.886  22.455  34.183  1.00  0.00     0.053 C 
BRANCH   2   3
ATOM      3  C   UNL     1     -13.853  22.197  35.235  1.00  0.00     0.041 C 
ATOM      4  O   UNL     1     -14.202  21.984  36.426  1.00  0.00    -0.550 OA
ATOM      5  O   UNL     1     -12.509  22.143  34.890  1.00  0.00    -0.550 OA
ENDBRANCH   2   3
ENDBRANCH   1   2
BRANCH   1   6
ATOM      6  C   UNL     1     -16.490  24.408  34.143  1.00  0.00     0.000 C 
BRANCH   6   7
ATOM      7  C   UNL     1     -15.517  24.777  33.012  1.00  0.00    -0.000 C 
BRANCH   7   8
ATOM      8  C   UNL     1     -16.230  25.380  31.792  1.00  0.00    -0.003 C 
ATOM      9  C   UNL     1     -17.049  26.606  32.187  1.00  0.00     0.004 C 
ENDBRANCH   7   8
ENDBRANCH   6   7
ENDBRANCH   1   6
TORSDOF 5
ENDMDL
MODEL 5
REMARK VINA RESULT:    -3.156     11.175     12.433
REMARK INTER + INTRA:          -4.226
REMARK INTER:                  -3.913
REMARK INTRA:                  -0.314
REMARK UNBOUND:                -0.148
REMARK SMILES CCCCCCC(=O)[O-]
REMARK SMILES IDX 5 1 6 2 7 3 8 4 9 5 4 6 3 7 2 8 1 9
REMARK H PARENT
REMARK Flexibility Score: inf
ROOT
ATOM      1  C   UNL     1     -17.563  22.184  35.014  1.00  0.00     0.006 C 
ENDROOT
BRANCH   1   2
ATOM      2  C   UNL     1     -17.618  22.157  33.483  1.00  0.00     0.053 C 
BRANCH   2   3
ATOM      3  C   UNL     1     -17.155  20.831  32.966  1.00  0.00     0.041 C 
ATOM      4  O   UNL     1     -15.929  20.618  32.780  1.00  0.00    -0.550 OA
ATOM      5  O   UNL     1     -18.075  19.816  32.736  1.00  0.00    -0.550 OA
ENDBRANCH   2   3
ENDBRANCH   1   2
BRANCH   1   6
ATOM      6  C   UNL     1     -16.674  23.335  35.511  1.00  0.00     0.000 C 
BRANCH   6   7
ATOM      7  C   UNL     1     -15.232  23.238  34.986  1.00  0.00    -0.000 C 
BRANCH   7   8
ATOM      8  C   UNL     1     -14.385  22.225  35.771  1.00  0.00    -0.003 C 
ATOM      9  C   UNL     1     -13.174  21.777  34.957  1.00  0.00     0.004 C 
ENDBRANCH   7   8
ENDBRANCH   6   7
ENDBRANCH   1   6
TORSDOF 5
ENDMDL
MODEL 6
REMARK VINA RESULT:    -3.140      7.305      8.795
REMARK INTER + INTRA:          -4.206
REMARK INTER:                  -3.914
REMARK INTRA:                  -0.292
REMARK UNBOUND:                -0.148
REMARK SMILES CCCCCCC(=O)[O-]
REMARK SMILES IDX 5 1 6 2 7 3 8 4 9 5 4 6 3 7 2 8 1 9
REMARK H PARENT
REMARK Flexibility Score: inf
ROOT
ATOM      1  C   UNL     1      -1.862  26.700  24.310  1.00  0.00     0.006 C 
ENDROOT
BRANCH   1   2
ATOM      2  C   UNL     1      -0.385  26.317  24.453  1.00  0.00     0.053 C 
BRANCH   2   3
ATOM      3  C   UNL     1      -0.158  24.918  23.972  1.00  0.00     0.041 C 
ATOM      4  O   UNL     1       0.656  24.695  23.038  1.00  0.00    -0.550 OA
ATOM      5  O   UNL     1      -0.807  23.857  24.589  1.00  0.00    -0.550 OA
ENDBRANCH   2   3
ENDBRANCH   1   2
BRANCH   1   6
ATOM      6  C   UNL     1      -2.401  27.305  25.616  1.00  0.00     0.000 C 
BRANCH   6   7
ATOM      7  C   UNL     1      -3.467  26.420  26.282  1.00  0.00    -0.000 C 
BRANCH   7   8
ATOM      8  C   UNL     1      -3.842  25.201  25.426  1.00  0.00    -0.003 C 
ATOM      9  C   UNL     1      -4.159  23.992  26.302  1.00  0.00     0.004 C 
ENDBRANCH   7   8
ENDBRANCH   6   7
ENDBRANCH   1   6
TORSDOF 5
ENDMDL
MODEL 7
REMARK VINA RESULT:    -3.130      6.734      8.315
REMARK INTER + INTRA:          -4.193
REMARK INTER:                  -3.991
REMARK INTRA:                  -0.201
REMARK UNBOUND:                -0.148
REMARK SMILES CCCCCCC(=O)[O-]
REMARK SMILES IDX 5 1 6 2 7 3 8 4 9 5 4 6 3 7 2 8 1 9
REMARK H PARENT
REMARK Flexibility Score: inf
ROOT
ATOM      1  C   UNL     1      -2.462  27.391  25.501  1.00  0.00     0.006 C 
ENDROOT
BRANCH   1   2
ATOM      2  C   UNL     1      -1.950  26.669  24.251  1.00  0.00     0.053 C 
BRANCH   2   3
ATOM      3  C   UNL     1      -0.658  25.972  24.541  1.00  0.00     0.041 C 
ATOM      4  O   UNL     1       0.311  26.611  25.029  1.00  0.00    -0.550 OA
ATOM      5  O   UNL     1      -0.541  24.606  24.318  1.00  0.00    -0.550 OA
ENDBRANCH   2   3
ENDBRANCH   1   2
BRANCH   1   6
ATOM      6  C   UNL     1      -3.407  26.486  26.309  1.00  0.00     0.000 C 
BRANCH   6   7
ATOM      7  C   UNL     1      -3.994  25.342  25.466  1.00  0.00    -0.000 C 
BRANCH   7   8
ATOM      8  C   UNL     1      -3.893  23.980  26.169  1.00  0.00    -0.003 C 
ATOM      9  C   UNL     1      -5.263  23.317  26.280  1.00  0.00     0.004 C 
ENDBRANCH   7   8
ENDBRANCH   6   7
ENDBRANCH   1   6
TORSDOF 5
ENDMDL
MODEL 8
REMARK VINA RESULT:    -2.865     11.593     12.906
REMARK INTER + INTRA:          -3.851
REMARK INTER:                  -3.648
REMARK INTRA:                  -0.203
REMARK UNBOUND:                -0.148
REMARK SMILES CCCCCCC(=O)[O-]
REMARK SMILES IDX 5 1 6 2 7 3 8 4 9 5 4 6 3 7 2 8 1 9
REMARK H PARENT
REMARK Flexibility Score: inf
ROOT
ATOM      1  C   UNL     1     -17.443  22.679  34.453  1.00  0.00     0.006 C 
ENDROOT
BRANCH   1   2
ATOM      2  C   UNL     1     -17.090  23.220  35.842  1.00  0.00     0.053 C 
BRANCH   2   3
ATOM      3  C   UNL     1     -17.491  24.657  35.963  1.00  0.00     0.041 C 
ATOM      4  O   UNL     1     -18.033  25.076  37.018  1.00  0.00    -0.550 OA
ATOM      5  O   UNL     1     -17.219  25.543  34.929  1.00  0.00    -0.550 OA
ENDBRANCH   2   3
ENDBRANCH   1   2
BRANCH   1   6
ATOM      6  C   UNL     1     -16.222  22.017  33.796  1.00  0.00     0.000 C 
BRANCH   6   7
ATOM      7  C   UNL     1     -14.900  22.704  34.174  1.00  0.00    -0.000 C 
BRANCH   7   8
ATOM      8  C   UNL     1     -13.912  21.747  34.858  1.00  0.00    -0.003 C 
ATOM      9  C   UNL     1     -12.546  22.405  35.037  1.00  0.00     0.004 C 
ENDBRANCH   7   8
ENDBRANCH   6   7
ENDBRANCH   1   6
TORSDOF 5
ENDMDL
MODEL 9
REMARK VINA RESULT:    -2.831     11.083     11.858
REMARK INTER + INTRA:          -3.807
REMARK INTER:                  -3.759
REMARK INTRA:                  -0.049
REMARK UNBOUND:                -0.148
REMARK SMILES CCCCCCC(=O)[O-]
REMARK SMILES IDX 5 1 6 2 7 3 8 4 9 5 4 6 3 7 2 8 1 9
REMARK H PARENT
REMARK Flexibility Score: inf
ROOT
ATOM      1  C   UNL     1     -15.404  23.179  34.236  1.00  0.00     0.006 C 
ENDROOT
BRANCH   1   2
ATOM      2  C   UNL     1     -14.766  21.787  34.245  1.00  0.00     0.053 C 
BRANCH   2   3
ATOM      3  C   UNL     1     -13.603  21.750  35.186  1.00  0.00     0.041 C 
ATOM      4  O   UNL     1     -13.631  21.003  36.199  1.00  0.00    -0.550 OA
ATOM      5  O   UNL     1     -12.468  22.504  34.918  1.00  0.00    -0.550 OA
ENDBRANCH   2   3
ENDBRANCH   1   2
BRANCH   1   6
ATOM      6  C   UNL     1     -16.457  23.308  35.348  1.00  0.00     0.000 C 
BRANCH   6   7
ATOM      7  C   UNL     1     -17.642  22.348  35.155  1.00  0.00    -0.000 C 
BRANCH   7   8
ATOM      8  C   UNL     1     -17.980  22.117  33.674  1.00  0.00    -0.003 C 
ATOM      9  C   UNL     1     -18.125  20.628  33.371  1.00  0.00     0.004 C 
ENDBRANCH   7   8
ENDBRANCH   6   7
ENDBRANCH   1   6
TORSDOF 5
ENDMDL
