MODEL 1
REMARK VINA RESULT:    -6.805      0.000      0.000
REMARK INTER + INTRA:          -7.236
REMARK INTER:                  -7.203
REMARK INTRA:                  -0.033
REMARK UNBOUND:                -0.033
REMARK SMILES COc1ccc2ccc(=O)oc2c1
REMARK SMILES IDX 3 1 13 2 12 3 6 4 5 5 4 6 7 7 8 8 9 9 10 10 11 11 2 12 1 13
REMARK H PARENT
REMARK Flexibility Score: inf
ROOT
ATOM      1  C   UNL     1      14.290 -14.132  27.973  1.00  0.00     0.122 A 
ATOM      2  C   UNL     1      14.451 -13.146  28.967  1.00  0.00     0.094 A 
ATOM      3  C   UNL     1      13.424 -12.232  29.228  1.00  0.00     0.142 A 
ATOM      4  C   UNL     1      12.221 -12.299  28.492  1.00  0.00     0.018 A 
ATOM      5  C   UNL     1      12.060 -13.278  27.505  1.00  0.00     0.016 A 
ATOM      6  C   UNL     1      13.090 -14.188  27.250  1.00  0.00     0.047 A 
ATOM      7  C   UNL     1      11.213 -11.371  28.776  1.00  0.00     0.019 A 
ATOM      8  C   UNL     1      11.424 -10.415  29.770  1.00  0.00     0.094 A 
ATOM      9  C   UNL     1      12.642 -10.409  30.458  1.00  0.00     0.336 A 
ATOM     10  O   UNL     1      12.850  -9.554  31.358  1.00  0.00    -0.246 OA
ATOM     11  O   UNL     1      13.584 -11.304  30.168  1.00  0.00    -0.423 OA
ENDROOT
BRANCH   1  12
ATOM     12  O   UNL     1      15.289 -15.070  27.676  1.00  0.00    -0.497 OA
ATOM     13  C   UNL     1      15.408 -16.344  28.300  1.00  0.00     0.278 C 
ENDBRANCH   1  12
TORSDOF 1
ENDMDL
MODEL 2
REMARK VINA RESULT:    -6.577     11.078     13.103
REMARK INTER + INTRA:          -6.995
REMARK INTER:                  -6.962
REMARK INTRA:                  -0.033
REMARK UNBOUND:                -0.033
REMARK SMILES COc1ccc2ccc(=O)oc2c1
REMARK SMILES IDX 3 1 13 2 12 3 6 4 5 5 4 6 7 7 8 8 9 9 10 10 11 11 2 12 1 13
REMARK H PARENT
REMARK Flexibility Score: inf
ROOT
ATOM      1  C   UNL     1      15.717   0.378  25.921  1.00  0.00     0.122 A 
ATOM      2  C   UNL     1      15.713  -0.282  27.166  1.00  0.00     0.094 A 
ATOM      3  C   UNL     1      16.718  -1.203  27.479  1.00  0.00     0.142 A 
ATOM      4  C   UNL     1      17.740  -1.472  26.544  1.00  0.00     0.018 A 
ATOM      5  C   UNL     1      17.745  -0.816  25.308  1.00  0.00     0.016 A 
ATOM      6  C   UNL     1      16.738   0.103  25.001  1.00  0.00     0.047 A 
ATOM      7  C   UNL     1      18.731  -2.398  26.887  1.00  0.00     0.019 A 
ATOM      8  C   UNL     1      18.681  -3.024  28.133  1.00  0.00     0.094 A 
ATOM      9  C   UNL     1      17.636  -2.708  29.009  1.00  0.00     0.336 A 
ATOM     10  O   UNL     1      17.574  -3.263  30.137  1.00  0.00    -0.246 OA
ATOM     11  O   UNL     1      16.706  -1.823  28.657  1.00  0.00    -0.423 OA
ENDROOT
BRANCH   1  12
ATOM     12  O   UNL     1      14.732   1.310  25.560  1.00  0.00    -0.497 OA
ATOM     13  C   UNL     1      14.727   2.673  25.968  1.00  0.00     0.278 C 
ENDBRANCH   1  12
TORSDOF 1
ENDMDL
MODEL 3
REMARK VINA RESULT:    -6.459      1.580      2.293
REMARK INTER + INTRA:          -6.869
REMARK INTER:                  -6.835
REMARK INTRA:                  -0.034
REMARK UNBOUND:                -0.033
REMARK SMILES COc1ccc2ccc(=O)oc2c1
REMARK SMILES IDX 3 1 13 2 12 3 6 4 5 5 4 6 7 7 8 8 9 9 10 10 11 11 2 12 1 13
REMARK H PARENT
REMARK Flexibility Score: inf
ROOT
ATOM      1  C   UNL     1      14.251 -14.197  28.204  1.00  0.00     0.122 A 
ATOM      2  C   UNL     1      12.944 -13.734  27.949  1.00  0.00     0.094 A 
ATOM      3  C   UNL     1      12.456 -12.601  28.609  1.00  0.00     0.142 A 
ATOM      4  C   UNL     1      13.276 -11.919  29.534  1.00  0.00     0.018 A 
ATOM      5  C   UNL     1      14.574 -12.377  29.786  1.00  0.00     0.016 A 
ATOM      6  C   UNL     1      15.056 -13.510  29.123  1.00  0.00     0.047 A 
ATOM      7  C   UNL     1      12.759 -10.789  30.177  1.00  0.00     0.019 A 
ATOM      8  C   UNL     1      11.459 -10.373  29.889  1.00  0.00     0.094 A 
ATOM      9  C   UNL     1      10.704 -11.100  28.962  1.00  0.00     0.336 A 
ATOM     10  O   UNL     1       9.528 -10.740  28.690  1.00  0.00    -0.246 OA
ATOM     11  O   UNL     1      11.220 -12.171  28.364  1.00  0.00    -0.423 OA
ENDROOT
BRANCH   1  12
ATOM     12  O   UNL     1      14.785 -15.327  27.568  1.00  0.00    -0.497 OA
ATOM     13  C   UNL     1      15.373 -16.430  28.249  1.00  0.00     0.278 C 
ENDBRANCH   1  12
TORSDOF 1
ENDMDL
MODEL 4
REMARK VINA RESULT:    -6.401     11.476     13.404
REMARK INTER + INTRA:          -6.808
REMARK INTER:                  -6.773
REMARK INTRA:                  -0.035
REMARK UNBOUND:                -0.033
REMARK SMILES COc1ccc2ccc(=O)oc2c1
REMARK SMILES IDX 3 1 13 2 12 3 6 4 5 5 4 6 7 7 8 8 9 9 10 10 11 11 2 12 1 13
REMARK H PARENT
REMARK Flexibility Score: inf
ROOT
ATOM      1  C   UNL     1      15.588   0.683  26.255  1.00  0.00     0.122 A 
ATOM      2  C   UNL     1      16.718  -0.093  25.931  1.00  0.00     0.094 A 
ATOM      3  C   UNL     1      17.244  -0.997  26.861  1.00  0.00     0.142 A 
ATOM      4  C   UNL     1      16.639  -1.131  28.129  1.00  0.00     0.018 A 
ATOM      5  C   UNL     1      15.516  -0.361  28.451  1.00  0.00     0.016 A 
ATOM      6  C   UNL     1      14.996   0.540  27.517  1.00  0.00     0.047 A 
ATOM      7  C   UNL     1      17.188  -2.043  29.037  1.00  0.00     0.019 A 
ATOM      8  C   UNL     1      18.308  -2.787  28.666  1.00  0.00     0.094 A 
ATOM      9  C   UNL     1      18.855  -2.600  27.392  1.00  0.00     0.336 A 
ATOM     10  O   UNL     1      19.866  -3.263  27.039  1.00  0.00    -0.246 OA
ATOM     11  O   UNL     1      18.313  -1.726  26.547  1.00  0.00    -0.423 OA
ENDROOT
BRANCH   1  12
ATOM     12  O   UNL     1      15.024   1.601  25.357  1.00  0.00    -0.497 OA
ATOM     13  C   UNL     1      14.659   2.935  25.695  1.00  0.00     0.278 C 
ENDBRANCH   1  12
TORSDOF 1
ENDMDL
MODEL 5
REMARK VINA RESULT:    -6.261      1.078      4.659
REMARK INTER + INTRA:          -6.660
REMARK INTER:                  -6.624
REMARK INTRA:                  -0.035
REMARK UNBOUND:                -0.033
REMARK SMILES COc1ccc2ccc(=O)oc2c1
REMARK SMILES IDX 3 1 13 2 12 3 6 4 5 5 4 6 7 7 8 8 9 9 10 10 11 11 2 12 1 13
REMARK H PARENT
REMARK Flexibility Score: inf
ROOT
ATOM      1  C   UNL     1      12.890 -10.519  30.542  1.00  0.00     0.122 A 
ATOM      2  C   UNL     1      13.939 -11.362  30.126  1.00  0.00     0.094 A 
ATOM      3  C   UNL     1      13.722 -12.319  29.128  1.00  0.00     0.142 A 
ATOM      4  C   UNL     1      12.446 -12.440  28.537  1.00  0.00     0.018 A 
ATOM      5  C   UNL     1      11.403 -11.602  28.950  1.00  0.00     0.016 A 
ATOM      6  C   UNL     1      11.627 -10.648  29.947  1.00  0.00     0.047 A 
ATOM      7  C   UNL     1      12.260 -13.406  27.543  1.00  0.00     0.019 A 
ATOM      8  C   UNL     1      13.332 -14.215  27.167  1.00  0.00     0.094 A 
ATOM      9  C   UNL     1      14.569 -14.039  27.798  1.00  0.00     0.336 A 
ATOM     10  O   UNL     1      15.548 -14.760  27.472  1.00  0.00    -0.246 OA
ATOM     11  O   UNL     1      14.718 -13.112  28.741  1.00  0.00    -0.423 OA
ENDROOT
BRANCH   1  12
ATOM     12  O   UNL     1      13.058  -9.544  31.537  1.00  0.00    -0.497 OA
ATOM     13  C   UNL     1      13.690  -9.777  32.792  1.00  0.00     0.278 C 
ENDBRANCH   1  12
TORSDOF 1
ENDMDL
MODEL 6
REMARK VINA RESULT:    -5.672      2.059      4.807
REMARK INTER + INTRA:          -6.036
REMARK INTER:                  -5.998
REMARK INTRA:                  -0.038
REMARK UNBOUND:                -0.033
REMARK SMILES COc1ccc2ccc(=O)oc2c1
REMARK SMILES IDX 3 1 13 2 12 3 6 4 5 5 4 6 7 7 8 8 9 9 10 10 11 11 2 12 1 13
REMARK H PARENT
REMARK Flexibility Score: inf
ROOT
ATOM      1  C   UNL     1      13.242 -10.603  30.897  1.00  0.00     0.122 A 
ATOM      2  C   UNL     1      12.198 -10.913  30.003  1.00  0.00     0.094 A 
ATOM      3  C   UNL     1      12.371 -11.908  29.034  1.00  0.00     0.142 A 
ATOM      4  C   UNL     1      13.596 -12.604  28.953  1.00  0.00     0.018 A 
ATOM      5  C   UNL     1      14.633 -12.297  29.842  1.00  0.00     0.016 A 
ATOM      6  C   UNL     1      14.453 -11.302  30.807  1.00  0.00     0.047 A 
ATOM      7  C   UNL     1      13.738 -13.593  27.974  1.00  0.00     0.019 A 
ATOM      8  C   UNL     1      12.674 -13.860  27.113  1.00  0.00     0.094 A 
ATOM      9  C   UNL     1      11.489 -13.129  27.251  1.00  0.00     0.336 A 
ATOM     10  O   UNL     1      10.517 -13.357  26.483  1.00  0.00    -0.246 OA
ATOM     11  O   UNL     1      11.380 -12.194  28.192  1.00  0.00    -0.423 OA
ENDROOT
BRANCH   1  12
ATOM     12  O   UNL     1      13.117  -9.616  31.885  1.00  0.00    -0.497 OA
ATOM     13  C   UNL     1      13.817  -9.625  33.125  1.00  0.00     0.278 C 
ENDBRANCH   1  12
TORSDOF 1
ENDMDL
MODEL 7
REMARK VINA RESULT:    -5.582      1.864      5.136
REMARK INTER + INTRA:          -5.941
REMARK INTER:                  -5.901
REMARK INTRA:                  -0.040
REMARK UNBOUND:                -0.033
REMARK SMILES COc1ccc2ccc(=O)oc2c1
REMARK SMILES IDX 3 1 13 2 12 3 6 4 5 5 4 6 7 7 8 8 9 9 10 10 11 11 2 12 1 13
REMARK H PARENT
REMARK Flexibility Score: inf
ROOT
ATOM      1  C   UNL     1      13.723 -11.752  30.378  1.00  0.00     0.122 A 
ATOM      2  C   UNL     1      13.958 -13.140  30.443  1.00  0.00     0.094 A 
ATOM      3  C   UNL     1      14.465 -13.823  29.332  1.00  0.00     0.142 A 
ATOM      4  C   UNL     1      14.742 -13.118  28.141  1.00  0.00     0.018 A 
ATOM      5  C   UNL     1      14.509 -11.740  28.075  1.00  0.00     0.016 A 
ATOM      6  C   UNL     1      14.003 -11.064  29.189  1.00  0.00     0.047 A 
ATOM      7  C   UNL     1      15.249 -13.829  27.048  1.00  0.00     0.019 A 
ATOM      8  C   UNL     1      15.464 -15.202  27.165  1.00  0.00     0.094 A 
ATOM      9  C   UNL     1      15.165 -15.834  28.378  1.00  0.00     0.336 A 
ATOM     10  O   UNL     1      15.353 -17.073  28.503  1.00  0.00    -0.246 OA
ATOM     11  O   UNL     1      14.685 -15.134  29.402  1.00  0.00    -0.423 OA
ENDROOT
BRANCH   1  12
ATOM     12  O   UNL     1      13.216 -11.023  31.463  1.00  0.00    -0.497 OA
ATOM     13  C   UNL     1      13.085  -9.606  31.490  1.00  0.00     0.278 C 
ENDBRANCH   1  12
TORSDOF 1
ENDMDL
MODEL 8
REMARK VINA RESULT:    -5.440     10.950     12.390
REMARK INTER + INTRA:          -5.791
REMARK INTER:                  -5.758
REMARK INTRA:                  -0.033
REMARK UNBOUND:                -0.033
REMARK SMILES COc1ccc2ccc(=O)oc2c1
REMARK SMILES IDX 3 1 13 2 12 3 6 4 5 5 4 6 7 7 8 8 9 9 10 10 11 11 2 12 1 13
REMARK H PARENT
REMARK Flexibility Score: inf
ROOT
ATOM      1  C   UNL     1      18.181  -2.369  28.032  1.00  0.00     0.122 A 
ATOM      2  C   UNL     1      17.913  -1.008  27.784  1.00  0.00     0.094 A 
ATOM      3  C   UNL     1      16.800  -0.636  27.022  1.00  0.00     0.142 A 
ATOM      4  C   UNL     1      15.942  -1.628  26.500  1.00  0.00     0.018 A 
ATOM      5  C   UNL     1      16.208  -2.980  26.747  1.00  0.00     0.016 A 
ATOM      6  C   UNL     1      17.321  -3.345  27.510  1.00  0.00     0.047 A 
ATOM      7  C   UNL     1      14.838  -1.224  25.743  1.00  0.00     0.019 A 
ATOM      8  C   UNL     1      14.617   0.136  25.527  1.00  0.00     0.094 A 
ATOM      9  C   UNL     1      15.511   1.064  26.075  1.00  0.00     0.336 A 
ATOM     10  O   UNL     1      15.329   2.296  25.890  1.00  0.00    -0.246 OA
ATOM     11  O   UNL     1      16.554   0.652  26.792  1.00  0.00    -0.423 OA
ENDROOT
BRANCH   1  12
ATOM     12  O   UNL     1      19.283  -2.792  28.789  1.00  0.00    -0.497 OA
ATOM     13  C   UNL     1      20.614  -2.881  28.292  1.00  0.00     0.278 C 
ENDBRANCH   1  12
TORSDOF 1
ENDMDL
MODEL 9
REMARK VINA RESULT:    -5.235     10.956     12.447
REMARK INTER + INTRA:          -5.574
REMARK INTER:                  -5.536
REMARK INTRA:                  -0.038
REMARK UNBOUND:                -0.033
REMARK SMILES COc1ccc2ccc(=O)oc2c1
REMARK SMILES IDX 3 1 13 2 12 3 6 4 5 5 4 6 7 7 8 8 9 9 10 10 11 11 2 12 1 13
REMARK H PARENT
REMARK Flexibility Score: inf
ROOT
ATOM      1  C   UNL     1      17.633  -2.595  28.974  1.00  0.00     0.122 A 
ATOM      2  C   UNL     1      16.558  -1.805  28.522  1.00  0.00     0.094 A 
ATOM      3  C   UNL     1      16.628  -1.160  27.282  1.00  0.00     0.142 A 
ATOM      4  C   UNL     1      17.781  -1.303  26.481  1.00  0.00     0.018 A 
ATOM      5  C   UNL     1      18.849  -2.089  26.928  1.00  0.00     0.016 A 
ATOM      6  C   UNL     1      18.772  -2.730  28.168  1.00  0.00     0.047 A 
ATOM      7  C   UNL     1      17.820  -0.646  25.246  1.00  0.00     0.019 A 
ATOM      8  C   UNL     1      16.729   0.125  24.846  1.00  0.00     0.094 A 
ATOM      9  C   UNL     1      15.620   0.222  25.694  1.00  0.00     0.336 A 
ATOM     10  O   UNL     1      14.625   0.913  25.350  1.00  0.00    -0.246 OA
ATOM     11  O   UNL     1      15.608  -0.414  26.863  1.00  0.00    -0.423 OA
ENDROOT
BRANCH   1  12
ATOM     12  O   UNL     1      17.611  -3.261  30.208  1.00  0.00    -0.497 OA
ATOM     13  C   UNL     1      16.871  -2.824  31.344  1.00  0.00     0.278 C 
ENDBRANCH   1  12
TORSDOF 1
ENDMDL
