MODEL 1
REMARK VINA RESULT:    -6.246      0.000      0.000
REMARK INTER + INTRA:          -6.855
REMARK INTER:                  -6.611
REMARK INTRA:                  -0.244
REMARK UNBOUND:                -0.244
REMARK SMILES O=c1cc(-c2ccccc2)oc2ccccc12
REMARK SMILES IDX 4 1 3 2 2 3 1 4 17 5 16 6 15 7 14 8 13 9 12 10 11 11 5 12
REMARK SMILES IDX 8 13 7 14 9 15 6 16 10 17
REMARK H PARENT
REMARK Flexibility Score: inf
ROOT
ATOM      1  C   UNL     1      13.736 -11.833 -44.254  1.00  0.00     0.138 A 
ATOM      2  C   UNL     1      12.831 -12.838 -44.653  1.00  0.00     0.100 A 
ATOM      3  C   UNL     1      11.487 -12.516 -44.851  1.00  0.00     0.193 A 
ATOM      4  O   UNL     1      10.678 -13.416 -45.209  1.00  0.00    -0.289 OA
ATOM      5  C   UNL     1      11.057 -11.197 -44.650  1.00  0.00     0.065 A 
ATOM      6  C   UNL     1       9.717 -10.807 -44.833  1.00  0.00     0.016 A 
ATOM      7  C   UNL     1       9.341  -9.476 -44.619  1.00  0.00     0.001 A 
ATOM      8  C   UNL     1      10.292  -8.532 -44.224  1.00  0.00     0.004 A 
ATOM      9  C   UNL     1      11.625  -8.911 -44.040  1.00  0.00     0.048 A 
ATOM     10  C   UNL     1      12.012 -10.239 -44.252  1.00  0.00     0.138 A 
ATOM     11  O   UNL     1      13.282 -10.591 -44.075  1.00  0.00    -0.456 OA
ENDROOT
BRANCH   1  12
ATOM     12  C   UNL     1      15.190 -12.092 -44.019  1.00  0.00     0.017 A 
ATOM     13  C   UNL     1      17.937 -12.630 -43.658  1.00  0.00     0.000 A 
ATOM     14  C   UNL     1      17.271 -13.122 -44.781  1.00  0.00     0.001 A 
ATOM     15  C   UNL     1      17.245 -11.873 -42.714  1.00  0.00     0.001 A 
ATOM     16  C   UNL     1      15.910 -12.857 -44.961  1.00  0.00     0.012 A 
ATOM     17  C   UNL     1      15.883 -11.603 -42.887  1.00  0.00     0.012 A 
ENDBRANCH   1  12
TORSDOF 1
ENDMDL
MODEL 2
REMARK VINA RESULT:    -6.164     12.485     14.292
REMARK INTER + INTRA:          -6.768
REMARK INTER:                  -6.542
REMARK INTRA:                  -0.226
REMARK UNBOUND:                -0.244
REMARK SMILES O=c1cc(-c2ccccc2)oc2ccccc12
REMARK SMILES IDX 4 1 3 2 2 3 1 4 17 5 16 6 15 7 14 8 13 9 12 10 11 11 5 12
REMARK SMILES IDX 8 13 7 14 9 15 6 16 10 17
REMARK H PARENT
REMARK Flexibility Score: inf
ROOT
ATOM      1  C   UNL     1       6.580 -19.190 -36.226  1.00  0.00     0.138 A 
ATOM      2  C   UNL     1       5.912 -19.975 -37.189  1.00  0.00     0.100 A 
ATOM      3  C   UNL     1       6.307 -21.297 -37.396  1.00  0.00     0.193 A 
ATOM      4  O   UNL     1       5.708 -21.998 -38.257  1.00  0.00    -0.289 OA
ATOM      5  C   UNL     1       7.364 -21.827 -36.643  1.00  0.00     0.065 A 
ATOM      6  C   UNL     1       7.813 -23.152 -36.803  1.00  0.00     0.016 A 
ATOM      7  C   UNL     1       8.872 -23.630 -36.025  1.00  0.00     0.001 A 
ATOM      8  C   UNL     1       9.489 -22.797 -35.089  1.00  0.00     0.004 A 
ATOM      9  C   UNL     1       9.051 -21.480 -34.924  1.00  0.00     0.048 A 
ATOM     10  C   UNL     1       7.991 -20.990 -35.696  1.00  0.00     0.138 A 
ATOM     11  O   UNL     1       7.581 -19.737 -35.532  1.00  0.00    -0.456 OA
ENDROOT
BRANCH   1  12
ATOM     12  C   UNL     1       6.221 -17.767 -35.941  1.00  0.00     0.017 A 
ATOM     13  C   UNL     1       5.505 -15.108 -35.320  1.00  0.00     0.000 A 
ATOM     14  C   UNL     1       5.217 -16.136 -34.423  1.00  0.00     0.001 A 
ATOM     15  C   UNL     1       6.147 -15.395 -36.524  1.00  0.00     0.001 A 
ATOM     16  C   UNL     1       5.570 -17.454 -34.729  1.00  0.00     0.012 A 
ATOM     17  C   UNL     1       6.504 -16.711 -36.838  1.00  0.00     0.012 A 
ENDBRANCH   1  12
TORSDOF 1
ENDMDL
MODEL 3
REMARK VINA RESULT:    -6.127      1.589      5.754
REMARK INTER + INTRA:          -6.729
REMARK INTER:                  -6.500
REMARK INTRA:                  -0.229
REMARK UNBOUND:                -0.244
REMARK SMILES O=c1cc(-c2ccccc2)oc2ccccc12
REMARK SMILES IDX 4 1 3 2 2 3 1 4 17 5 16 6 15 7 14 8 13 9 12 10 11 11 5 12
REMARK SMILES IDX 8 13 7 14 9 15 6 16 10 17
REMARK H PARENT
REMARK Flexibility Score: inf
ROOT
ATOM      1  C   UNL     1      11.851 -11.054 -43.410  1.00  0.00     0.138 A 
ATOM      2  C   UNL     1      11.300 -12.324 -43.138  1.00  0.00     0.100 A 
ATOM      3  C   UNL     1      12.054 -13.470 -43.395  1.00  0.00     0.193 A 
ATOM      4  O   UNL     1      11.561 -14.606 -43.151  1.00  0.00    -0.289 OA
ATOM      5  C   UNL     1      13.348 -13.343 -43.919  1.00  0.00     0.065 A 
ATOM      6  C   UNL     1      14.159 -14.458 -44.200  1.00  0.00     0.016 A 
ATOM      7  C   UNL     1      15.444 -14.274 -44.723  1.00  0.00     0.001 A 
ATOM      8  C   UNL     1      15.926 -12.986 -44.966  1.00  0.00     0.004 A 
ATOM      9  C   UNL     1      15.126 -11.872 -44.690  1.00  0.00     0.048 A 
ATOM     10  C   UNL     1      13.840 -12.044 -44.168  1.00  0.00     0.138 A 
ATOM     11  O   UNL     1      13.087 -10.980 -43.908  1.00  0.00    -0.456 OA
ENDROOT
BRANCH   1  12
ATOM     12  C   UNL     1      11.113  -9.776 -43.165  1.00  0.00     0.017 A 
ATOM     13  C   UNL     1       9.725  -7.382 -42.609  1.00  0.00     0.000 A 
ATOM     14  C   UNL     1      10.142  -8.206 -41.564  1.00  0.00     0.001 A 
ATOM     15  C   UNL     1       9.994  -7.742 -43.929  1.00  0.00     0.001 A 
ATOM     16  C   UNL     1      10.829  -9.393 -41.837  1.00  0.00     0.012 A 
ATOM     17  C   UNL     1      10.682  -8.928 -44.211  1.00  0.00     0.012 A 
ENDBRANCH   1  12
TORSDOF 1
ENDMDL
MODEL 4
REMARK VINA RESULT:    -6.094     11.980     13.066
REMARK INTER + INTRA:          -6.694
REMARK INTER:                  -6.461
REMARK INTRA:                  -0.234
REMARK UNBOUND:                -0.244
REMARK SMILES O=c1cc(-c2ccccc2)oc2ccccc12
REMARK SMILES IDX 4 1 3 2 2 3 1 4 17 5 16 6 15 7 14 8 13 9 12 10 11 11 5 12
REMARK SMILES IDX 8 13 7 14 9 15 6 16 10 17
REMARK H PARENT
REMARK Flexibility Score: inf
ROOT
ATOM      1  C   UNL     1       6.989 -19.056 -36.353  1.00  0.00     0.138 A 
ATOM      2  C   UNL     1       7.224 -18.261 -37.495  1.00  0.00     0.100 A 
ATOM      3  C   UNL     1       6.732 -16.955 -37.538  1.00  0.00     0.193 A 
ATOM      4  O   UNL     1       6.943 -16.245 -38.559  1.00  0.00    -0.289 OA
ATOM      5  C   UNL     1       6.012 -16.452 -36.446  1.00  0.00     0.065 A 
ATOM      6  C   UNL     1       5.489 -15.146 -36.426  1.00  0.00     0.016 A 
ATOM      7  C   UNL     1       4.777 -14.695 -35.309  1.00  0.00     0.001 A 
ATOM      8  C   UNL     1       4.583 -15.537 -34.212  1.00  0.00     0.004 A 
ATOM      9  C   UNL     1       5.098 -16.836 -34.223  1.00  0.00     0.048 A 
ATOM     10  C   UNL     1       5.812 -17.298 -35.335  1.00  0.00     0.138 A 
ATOM     11  O   UNL     1       6.299 -18.536 -35.337  1.00  0.00    -0.456 OA
ENDROOT
BRANCH   1  12
ATOM     12  C   UNL     1       7.480 -20.463 -36.225  1.00  0.00     0.017 A 
ATOM     13  C   UNL     1       8.457 -23.091 -35.905  1.00  0.00     0.000 A 
ATOM     14  C   UNL     1       8.850 -22.088 -35.019  1.00  0.00     0.001 A 
ATOM     15  C   UNL     1       7.582 -22.794 -36.949  1.00  0.00     0.001 A 
ATOM     16  C   UNL     1       8.367 -20.785 -35.176  1.00  0.00     0.012 A 
ATOM     17  C   UNL     1       7.094 -21.493 -37.113  1.00  0.00     0.012 A 
ENDBRANCH   1  12
TORSDOF 1
ENDMDL
MODEL 5
REMARK VINA RESULT:    -6.000      1.686      2.859
REMARK INTER + INTRA:          -6.594
REMARK INTER:                  -6.337
REMARK INTRA:                  -0.257
REMARK UNBOUND:                -0.244
REMARK SMILES O=c1cc(-c2ccccc2)oc2ccccc12
REMARK SMILES IDX 4 1 3 2 2 3 1 4 17 5 16 6 15 7 14 8 13 9 12 10 11 11 5 12
REMARK SMILES IDX 8 13 7 14 9 15 6 16 10 17
REMARK H PARENT
REMARK Flexibility Score: inf
ROOT
ATOM      1  C   UNL     1      12.286 -11.501 -44.571  1.00  0.00     0.138 A 
ATOM      2  C   UNL     1      11.891 -10.197 -44.206  1.00  0.00     0.100 A 
ATOM      3  C   UNL     1      10.584  -9.777 -44.458  1.00  0.00     0.193 A 
ATOM      4  O   UNL     1      10.232  -8.611 -44.132  1.00  0.00    -0.289 OA
ATOM      5  C   UNL     1       9.682 -10.658 -45.071  1.00  0.00     0.065 A 
ATOM      6  C   UNL     1       8.351 -10.298 -45.354  1.00  0.00     0.016 A 
ATOM      7  C   UNL     1       7.493 -11.216 -45.967  1.00  0.00     0.001 A 
ATOM      8  C   UNL     1       7.952 -12.493 -46.300  1.00  0.00     0.004 A 
ATOM      9  C   UNL     1       9.272 -12.860 -46.024  1.00  0.00     0.048 A 
ATOM     10  C   UNL     1      10.140 -11.949 -45.411  1.00  0.00     0.138 A 
ATOM     11  O   UNL     1      11.394 -12.306 -45.151  1.00  0.00    -0.456 OA
ENDROOT
BRANCH   1  12
ATOM     12  C   UNL     1      13.665 -12.031 -44.337  1.00  0.00     0.017 A 
ATOM     13  C   UNL     1      16.256 -13.089 -43.972  1.00  0.00     0.000 A 
ATOM     14  C   UNL     1      15.457 -13.545 -45.020  1.00  0.00     0.001 A 
ATOM     15  C   UNL     1      15.773 -12.111 -43.104  1.00  0.00     0.001 A 
ATOM     16  C   UNL     1      14.173 -13.023 -45.203  1.00  0.00     0.012 A 
ATOM     17  C   UNL     1      14.489 -11.583 -43.280  1.00  0.00     0.012 A 
ENDBRANCH   1  12
TORSDOF 1
ENDMDL
MODEL 6
REMARK VINA RESULT:    -5.921      2.116      5.802
REMARK INTER + INTRA:          -6.511
REMARK INTER:                  -6.278
REMARK INTRA:                  -0.233
REMARK UNBOUND:                -0.244
REMARK SMILES O=c1cc(-c2ccccc2)oc2ccccc12
REMARK SMILES IDX 4 1 3 2 2 3 1 4 17 5 16 6 15 7 14 8 13 9 12 10 11 11 5 12
REMARK SMILES IDX 8 13 7 14 9 15 6 16 10 17
REMARK H PARENT
REMARK Flexibility Score: inf
ROOT
ATOM      1  C   UNL     1      12.229 -11.114 -43.649  1.00  0.00     0.138 A 
ATOM      2  C   UNL     1      13.553 -11.080 -44.136  1.00  0.00     0.100 A 
ATOM      3  C   UNL     1      14.242 -12.276 -44.344  1.00  0.00     0.193 A 
ATOM      4  O   UNL     1      15.425 -12.245 -44.780  1.00  0.00    -0.289 OA
ATOM      5  C   UNL     1      13.608 -13.495 -44.067  1.00  0.00     0.065 A 
ATOM      6  C   UNL     1      14.246 -14.736 -44.254  1.00  0.00     0.016 A 
ATOM      7  C   UNL     1      13.566 -15.923 -43.961  1.00  0.00     0.001 A 
ATOM      8  C   UNL     1      12.254 -15.882 -43.483  1.00  0.00     0.004 A 
ATOM      9  C   UNL     1      11.613 -14.655 -43.293  1.00  0.00     0.048 A 
ATOM     10  C   UNL     1      12.283 -13.461 -43.582  1.00  0.00     0.138 A 
ATOM     11  O   UNL     1      11.665 -12.298 -43.399  1.00  0.00    -0.456 OA
ENDROOT
BRANCH   1  12
ATOM     12  C   UNL     1      11.421  -9.882 -43.398  1.00  0.00     0.017 A 
ATOM     13  C   UNL     1       9.906  -7.531 -43.016  1.00  0.00     0.000 A 
ATOM     14  C   UNL     1      10.430  -7.827 -44.274  1.00  0.00     0.001 A 
ATOM     15  C   UNL     1      10.132  -8.397 -41.947  1.00  0.00     0.001 A 
ATOM     16  C   UNL     1      11.181  -8.990 -44.465  1.00  0.00     0.012 A 
ATOM     17  C   UNL     1      10.882  -9.564 -42.130  1.00  0.00     0.012 A 
ENDBRANCH   1  12
TORSDOF 1
ENDMDL
MODEL 7
REMARK VINA RESULT:    -5.776     11.642     13.509
REMARK INTER + INTRA:          -6.357
REMARK INTER:                  -6.092
REMARK INTRA:                  -0.266
REMARK UNBOUND:                -0.244
REMARK SMILES O=c1cc(-c2ccccc2)oc2ccccc12
REMARK SMILES IDX 4 1 3 2 2 3 1 4 17 5 16 6 15 7 14 8 13 9 12 10 11 11 5 12
REMARK SMILES IDX 8 13 7 14 9 15 6 16 10 17
REMARK H PARENT
REMARK Flexibility Score: inf
ROOT
ATOM      1  C   UNL     1      11.702 -21.365 -37.241  1.00  0.00     0.138 A 
ATOM      2  C   UNL     1      12.069 -20.039 -37.554  1.00  0.00     0.100 A 
ATOM      3  C   UNL     1      13.205 -19.805 -38.331  1.00  0.00     0.193 A 
ATOM      4  O   UNL     1      13.533 -18.619 -38.611  1.00  0.00    -0.289 OA
ATOM      5  C   UNL     1      13.965 -20.890 -38.788  1.00  0.00     0.065 A 
ATOM      6  C   UNL     1      15.121 -20.723 -39.574  1.00  0.00     0.016 A 
ATOM      7  C   UNL     1      15.842 -21.841 -40.004  1.00  0.00     0.001 A 
ATOM      8  C   UNL     1      15.419 -23.126 -39.657  1.00  0.00     0.004 A 
ATOM      9  C   UNL     1      14.273 -23.302 -38.876  1.00  0.00     0.048 A 
ATOM     10  C   UNL     1      13.543 -22.191 -38.440  1.00  0.00     0.138 A 
ATOM     11  O   UNL     1      12.454 -22.367 -37.698  1.00  0.00    -0.456 OA
ENDROOT
BRANCH   1  12
ATOM     12  C   UNL     1      10.502 -21.705 -36.416  1.00  0.00     0.017 A 
ATOM     13  C   UNL     1       8.215 -22.253 -34.856  1.00  0.00     0.000 A 
ATOM     14  C   UNL     1       8.508 -20.941 -35.226  1.00  0.00     0.001 A 
ATOM     15  C   UNL     1       9.052 -23.293 -35.255  1.00  0.00     0.001 A 
ATOM     16  C   UNL     1       9.641 -20.667 -35.999  1.00  0.00     0.012 A 
ATOM     17  C   UNL     1      10.188 -23.028 -36.029  1.00  0.00     0.012 A 
ENDBRANCH   1  12
TORSDOF 1
ENDMDL
MODEL 8
REMARK VINA RESULT:    -5.742     12.897     13.407
REMARK INTER + INTRA:          -6.322
REMARK INTER:                  -6.063
REMARK INTRA:                  -0.258
REMARK UNBOUND:                -0.244
REMARK SMILES O=c1cc(-c2ccccc2)oc2ccccc12
REMARK SMILES IDX 4 1 3 2 2 3 1 4 17 5 16 6 15 7 14 8 13 9 12 10 11 11 5 12
REMARK SMILES IDX 8 13 7 14 9 15 6 16 10 17
REMARK H PARENT
REMARK Flexibility Score: inf
ROOT
ATOM      1  C   UNL     1       6.346 -19.539 -36.436  1.00  0.00     0.138 A 
ATOM      2  C   UNL     1       5.600 -19.302 -37.610  1.00  0.00     0.100 A 
ATOM      3  C   UNL     1       4.788 -18.170 -37.692  1.00  0.00     0.193 A 
ATOM      4  O   UNL     1       4.121 -17.958 -38.742  1.00  0.00    -0.289 OA
ATOM      5  C   UNL     1       4.726 -17.284 -36.608  1.00  0.00     0.065 A 
ATOM      6  C   UNL     1       3.927 -16.125 -36.627  1.00  0.00     0.016 A 
ATOM      7  C   UNL     1       3.903 -15.275 -35.517  1.00  0.00     0.001 A 
ATOM      8  C   UNL     1       4.669 -15.571 -34.387  1.00  0.00     0.004 A 
ATOM      9  C   UNL     1       5.464 -16.720 -34.359  1.00  0.00     0.048 A 
ATOM     10  C   UNL     1       5.497 -17.578 -35.464  1.00  0.00     0.138 A 
ATOM     11  O   UNL     1       6.257 -18.669 -35.429  1.00  0.00    -0.456 OA
ENDROOT
BRANCH   1  12
ATOM     12  C   UNL     1       7.239 -20.726 -36.264  1.00  0.00     0.017 A 
ATOM     13  C   UNL     1       8.978 -22.915 -35.877  1.00  0.00     0.000 A 
ATOM     14  C   UNL     1       9.194 -21.722 -35.188  1.00  0.00     0.001 A 
ATOM     15  C   UNL     1       7.903 -23.026 -36.758  1.00  0.00     0.001 A 
ATOM     16  C   UNL     1       8.334 -20.637 -35.378  1.00  0.00     0.012 A 
ATOM     17  C   UNL     1       7.038 -21.944 -36.954  1.00  0.00     0.012 A 
ENDBRANCH   1  12
TORSDOF 1
ENDMDL
MODEL 9
REMARK VINA RESULT:    -5.674      1.684      2.354
REMARK INTER + INTRA:          -6.249
REMARK INTER:                  -6.006
REMARK INTRA:                  -0.243
REMARK UNBOUND:                -0.244
REMARK SMILES O=c1cc(-c2ccccc2)oc2ccccc12
REMARK SMILES IDX 4 1 3 2 2 3 1 4 17 5 16 6 15 7 14 8 13 9 12 10 11 11 5 12
REMARK SMILES IDX 8 13 7 14 9 15 6 16 10 17
REMARK H PARENT
REMARK Flexibility Score: inf
ROOT
ATOM      1  C   UNL     1      12.174 -12.914 -44.919  1.00  0.00     0.138 A 
ATOM      2  C   UNL     1      11.571 -14.157 -45.200  1.00  0.00     0.100 A 
ATOM      3  C   UNL     1      10.218 -14.205 -45.540  1.00  0.00     0.193 A 
ATOM      4  O   UNL     1       9.679 -15.318 -45.792  1.00  0.00    -0.289 OA
ATOM      5  C   UNL     1       9.478 -13.016 -45.596  1.00  0.00     0.065 A 
ATOM      6  C   UNL     1       8.111 -12.995 -45.931  1.00  0.00     0.016 A 
ATOM      7  C   UNL     1       7.420 -11.779 -45.973  1.00  0.00     0.001 A 
ATOM      8  C   UNL     1       8.082 -10.584 -45.683  1.00  0.00     0.004 A 
ATOM      9  C   UNL     1       9.439 -10.596 -45.349  1.00  0.00     0.048 A 
ATOM     10  C   UNL     1      10.141 -11.806 -45.304  1.00  0.00     0.138 A 
ATOM     11  O   UNL     1      11.432 -11.807 -44.985  1.00  0.00    -0.456 OA
ENDROOT
BRANCH   1  12
ATOM     12  C   UNL     1      13.616 -12.773 -44.548  1.00  0.00     0.017 A 
ATOM     13  C   UNL     1      16.360 -12.565 -43.920  1.00  0.00     0.000 A 
ATOM     14  C   UNL     1      15.948 -13.344 -45.001  1.00  0.00     0.001 A 
ATOM     15  C   UNL     1      15.415 -11.890 -43.149  1.00  0.00     0.001 A 
ATOM     16  C   UNL     1      14.590 -13.448 -45.314  1.00  0.00     0.012 A 
ATOM     17  C   UNL     1      14.053 -11.989 -43.455  1.00  0.00     0.012 A 
ENDBRANCH   1  12
TORSDOF 1
ENDMDL
