MODEL 1
REMARK VINA RESULT:    -2.344      0.000      0.000
REMARK INTER + INTRA:          -4.955
REMARK INTER:                  -3.989
REMARK INTRA:                  -0.966
REMARK UNBOUND:                -0.966
REMARK SMILES CCCCCCCCCCCCCC(=O)[O-]
REMARK SMILES IDX 8 1 9 2 10 3 11 4 12 5 13 6 14 7 15 8 16 9 7 10 6 11 5 12
REMARK SMILES IDX 4 13 3 14 2 15 1 16
REMARK H PARENT
REMARK Flexibility Score: inf
ROOT
ATOM      1  C   UNL     1      30.286  63.460  15.254  1.00  0.00     0.000 C 
ENDROOT
BRANCH   1   2
ATOM      2  C   UNL     1      31.527  63.402  14.341  1.00  0.00     0.000 C 
BRANCH   2   3
ATOM      3  C   UNL     1      32.877  63.393  15.079  1.00  0.00     0.000 C 
BRANCH   3   4
ATOM      4  C   UNL     1      32.801  62.692  16.446  1.00  0.00     0.000 C 
BRANCH   4   5
ATOM      5  C   UNL     1      33.078  63.651  17.615  1.00  0.00     0.006 C 
BRANCH   5   6
ATOM      6  C   UNL     1      32.168  63.390  18.824  1.00  0.00     0.053 C 
BRANCH   6   7
ATOM      7  C   UNL     1      32.363  64.451  19.860  1.00  0.00     0.041 C 
ATOM      8  O   UNL     1      32.782  65.592  19.529  1.00  0.00    -0.550 OA
ATOM      9  O   UNL     1      32.127  64.167  21.200  1.00  0.00    -0.550 OA
ENDBRANCH   6   7
ENDBRANCH   5   6
ENDBRANCH   4   5
ENDBRANCH   3   4
ENDBRANCH   2   3
ENDBRANCH   1   2
BRANCH   1  10
ATOM     10  C   UNL     1      29.753  64.890  15.488  1.00  0.00     0.000 C 
BRANCH  10  11
ATOM     11  C   UNL     1      29.639  65.230  16.985  1.00  0.00    -0.000 C 
BRANCH  11  12
ATOM     12  C   UNL     1      28.209  65.603  17.402  1.00  0.00    -0.000 C 
BRANCH  12  13
ATOM     13  C   UNL     1      27.145  65.012  16.465  1.00  0.00    -0.000 C 
BRANCH  13  14
ATOM     14  C   UNL     1      25.830  65.800  16.564  1.00  0.00    -0.000 C 
BRANCH  14  15
ATOM     15  C   UNL     1      24.657  65.080  15.879  1.00  0.00    -0.003 C 
ATOM     16  C   UNL     1      23.297  65.646  16.288  1.00  0.00     0.004 C 
ENDBRANCH  14  15
ENDBRANCH  13  14
ENDBRANCH  12  13
ENDBRANCH  11  12
ENDBRANCH  10  11
ENDBRANCH   1  10
TORSDOF 12
ENDMDL
MODEL 2
REMARK VINA RESULT:    -2.331      4.513      7.986
REMARK INTER + INTRA:          -4.932
REMARK INTER:                  -4.846
REMARK INTRA:                  -0.086
REMARK UNBOUND:                -0.966
REMARK SMILES CCCCCCCCCCCCCC(=O)[O-]
REMARK SMILES IDX 8 1 9 2 10 3 11 4 12 5 13 6 14 7 15 8 16 9 7 10 6 11 5 12
REMARK SMILES IDX 4 13 3 14 2 15 1 16
REMARK H PARENT
REMARK Flexibility Score: inf
ROOT
ATOM      1  C   UNL     1      22.280  65.290  16.166  1.00  0.00     0.000 C 
ENDROOT
BRANCH   1   2
ATOM      2  C   UNL     1      23.607  66.069  16.064  1.00  0.00     0.000 C 
BRANCH   2   3
ATOM      3  C   UNL     1      24.875  65.197  16.070  1.00  0.00     0.000 C 
BRANCH   3   4
ATOM      4  C   UNL     1      26.088  65.918  16.684  1.00  0.00     0.000 C 
BRANCH   4   5
ATOM      5  C   UNL     1      27.418  65.235  16.330  1.00  0.00     0.006 C 
BRANCH   5   6
ATOM      6  C   UNL     1      28.639  66.010  16.847  1.00  0.00     0.053 C 
BRANCH   6   7
ATOM      7  C   UNL     1      28.968  65.590  18.244  1.00  0.00     0.041 C 
ATOM      8  O   UNL     1      30.128  65.189  18.529  1.00  0.00    -0.550 OA
ATOM      9  O   UNL     1      27.983  65.597  19.224  1.00  0.00    -0.550 OA
ENDBRANCH   6   7
ENDBRANCH   5   6
ENDBRANCH   4   5
ENDBRANCH   3   4
ENDBRANCH   2   3
ENDBRANCH   1   2
BRANCH   1  10
ATOM     10  C   UNL     1      21.038  66.125  15.785  1.00  0.00     0.000 C 
BRANCH  10  11
ATOM     11  C   UNL     1      19.783  65.251  15.608  1.00  0.00    -0.000 C 
BRANCH  11  12
ATOM     12  C   UNL     1      18.480  66.054  15.731  1.00  0.00    -0.000 C 
BRANCH  12  13
ATOM     13  C   UNL     1      17.528  65.483  16.793  1.00  0.00    -0.000 C 
BRANCH  13  14
ATOM     14  C   UNL     1      16.066  65.795  16.443  1.00  0.00    -0.000 C 
BRANCH  14  15
ATOM     15  C   UNL     1      15.083  64.783  17.052  1.00  0.00    -0.003 C 
ATOM     16  C   UNL     1      13.647  65.304  17.094  1.00  0.00     0.004 C 
ENDBRANCH  14  15
ENDBRANCH  13  14
ENDBRANCH  12  13
ENDBRANCH  11  12
ENDBRANCH  10  11
ENDBRANCH   1  10
TORSDOF 12
ENDMDL
MODEL 3
REMARK VINA RESULT:    -2.278      2.296      3.338
REMARK INTER + INTRA:          -4.842
REMARK INTER:                  -4.381
REMARK INTRA:                  -0.461
REMARK UNBOUND:                -0.966
REMARK SMILES CCCCCCCCCCCCCC(=O)[O-]
REMARK SMILES IDX 8 1 9 2 10 3 11 4 12 5 13 6 14 7 15 8 16 9 7 10 6 11 5 12
REMARK SMILES IDX 4 13 3 14 2 15 1 16
REMARK H PARENT
REMARK Flexibility Score: inf
ROOT
ATOM      1  C   UNL     1      31.972  62.787  15.744  1.00  0.00     0.000 C 
ENDROOT
BRANCH   1   2
ATOM      2  C   UNL     1      33.072  63.660  16.382  1.00  0.00     0.000 C 
BRANCH   2   3
ATOM      3  C   UNL     1      32.739  64.204  17.782  1.00  0.00     0.000 C 
BRANCH   3   4
ATOM      4  C   UNL     1      32.618  63.092  18.838  1.00  0.00     0.000 C 
BRANCH   4   5
ATOM      5  C   UNL     1      31.849  63.549  20.088  1.00  0.00     0.006 C 
BRANCH   5   6
ATOM      6  C   UNL     1      32.694  63.470  21.366  1.00  0.00     0.053 C 
BRANCH   6   7
ATOM      7  C   UNL     1      32.909  62.044  21.762  1.00  0.00     0.041 C 
ATOM      8  O   UNL     1      32.853  61.130  20.897  1.00  0.00    -0.550 OA
ATOM      9  O   UNL     1      33.125  61.717  23.095  1.00  0.00    -0.550 OA
ENDBRANCH   6   7
ENDBRANCH   5   6
ENDBRANCH   4   5
ENDBRANCH   3   4
ENDBRANCH   2   3
ENDBRANCH   1   2
BRANCH   1  10
ATOM     10  C   UNL     1      31.429  63.347  14.411  1.00  0.00     0.000 C 
BRANCH  10  11
ATOM     11  C   UNL     1      29.993  63.885  14.549  1.00  0.00    -0.000 C 
BRANCH  11  12
ATOM     12  C   UNL     1      29.781  64.686  15.842  1.00  0.00    -0.000 C 
BRANCH  12  13
ATOM     13  C   UNL     1      28.302  64.998  16.111  1.00  0.00    -0.000 C 
BRANCH  13  14
ATOM     14  C   UNL     1      28.147  65.882  17.358  1.00  0.00    -0.000 C 
BRANCH  14  15
ATOM     15  C   UNL     1      28.599  65.174  18.645  1.00  0.00    -0.003 C 
ATOM     16  C   UNL     1      29.271  66.122  19.637  1.00  0.00     0.004 C 
ENDBRANCH  14  15
ENDBRANCH  13  14
ENDBRANCH  12  13
ENDBRANCH  11  12
ENDBRANCH  10  11
ENDBRANCH   1  10
TORSDOF 12
ENDMDL
MODEL 4
REMARK VINA RESULT:    -2.222      9.534     14.816
REMARK INTER + INTRA:          -4.748
REMARK INTER:                  -4.080
REMARK INTRA:                  -0.668
REMARK UNBOUND:                -0.966
REMARK SMILES CCCCCCCCCCCCCC(=O)[O-]
REMARK SMILES IDX 8 1 9 2 10 3 11 4 12 5 13 6 14 7 15 8 16 9 7 10 6 11 5 12
REMARK SMILES IDX 4 13 3 14 2 15 1 16
REMARK H PARENT
REMARK Flexibility Score: inf
ROOT
ATOM      1  C   UNL     1      17.231  64.743  16.870  1.00  0.00     0.000 C 
ENDROOT
BRANCH   1   2
ATOM      2  C   UNL     1      16.093  65.001  17.878  1.00  0.00     0.000 C 
BRANCH   2   3
ATOM      3  C   UNL     1      14.691  64.593  17.392  1.00  0.00     0.000 C 
BRANCH   3   4
ATOM      4  C   UNL     1      14.288  65.297  16.085  1.00  0.00     0.000 C 
BRANCH   4   5
ATOM      5  C   UNL     1      13.103  64.609  15.388  1.00  0.00     0.006 C 
BRANCH   5   6
ATOM      6  C   UNL     1      13.545  63.655  14.270  1.00  0.00     0.053 C 
BRANCH   6   7
ATOM      7  C   UNL     1      13.883  64.424  13.032  1.00  0.00     0.041 C 
ATOM      8  O   UNL     1      15.075  64.754  12.797  1.00  0.00    -0.550 OA
ATOM      9  O   UNL     1      12.875  64.818  12.161  1.00  0.00    -0.550 OA
ENDBRANCH   6   7
ENDBRANCH   5   6
ENDBRANCH   4   5
ENDBRANCH   3   4
ENDBRANCH   2   3
ENDBRANCH   1   2
BRANCH   1  10
ATOM     10  C   UNL     1      17.811  66.029  16.244  1.00  0.00     0.000 C 
BRANCH  10  11
ATOM     11  C   UNL     1      18.275  65.812  14.792  1.00  0.00    -0.000 C 
BRANCH  11  12
ATOM     12  C   UNL     1      19.787  65.569  14.682  1.00  0.00    -0.000 C 
BRANCH  12  13
ATOM     13  C   UNL     1      20.565  66.117  15.888  1.00  0.00    -0.000 C 
BRANCH  13  14
ATOM     14  C   UNL     1      21.733  65.190  16.253  1.00  0.00    -0.000 C 
BRANCH  14  15
ATOM     15  C   UNL     1      23.090  65.912  16.233  1.00  0.00    -0.003 C 
ATOM     16  C   UNL     1      24.244  64.992  15.833  1.00  0.00     0.004 C 
ENDBRANCH  14  15
ENDBRANCH  13  14
ENDBRANCH  12  13
ENDBRANCH  11  12
ENDBRANCH  10  11
ENDBRANCH   1  10
TORSDOF 12
ENDMDL
MODEL 5
REMARK VINA RESULT:    -2.164      2.214      4.122
REMARK INTER + INTRA:          -4.648
REMARK INTER:                  -4.192
REMARK INTRA:                  -0.456
REMARK UNBOUND:                -0.966
REMARK SMILES CCCCCCCCCCCCCC(=O)[O-]
REMARK SMILES IDX 8 1 9 2 10 3 11 4 12 5 13 6 14 7 15 8 16 9 7 10 6 11 5 12
REMARK SMILES IDX 4 13 3 14 2 15 1 16
REMARK H PARENT
REMARK Flexibility Score: inf
ROOT
ATOM      1  C   UNL     1      27.382  64.949  17.780  1.00  0.00     0.000 C 
ENDROOT
BRANCH   1   2
ATOM      2  C   UNL     1      28.443  66.051  17.977  1.00  0.00     0.000 C 
BRANCH   2   3
ATOM      3  C   UNL     1      29.747  65.846  17.186  1.00  0.00     0.000 C 
BRANCH   3   4
ATOM      4  C   UNL     1      31.001  65.964  18.068  1.00  0.00     0.000 C 
BRANCH   4   5
ATOM      5  C   UNL     1      31.711  64.615  18.265  1.00  0.00     0.006 C 
BRANCH   5   6
ATOM      6  C   UNL     1      32.837  64.383  17.249  1.00  0.00     0.053 C 
BRANCH   6   7
ATOM      7  C   UNL     1      32.587  63.129  16.472  1.00  0.00     0.041 C 
ATOM      8  O   UNL     1      33.080  62.036  16.857  1.00  0.00    -0.550 OA
ATOM      9  O   UNL     1      31.847  63.174  15.297  1.00  0.00    -0.550 OA
ENDBRANCH   6   7
ENDBRANCH   5   6
ENDBRANCH   4   5
ENDBRANCH   3   4
ENDBRANCH   2   3
ENDBRANCH   1   2
BRANCH   1  10
ATOM     10  C   UNL     1      26.718  64.967  16.386  1.00  0.00     0.000 C 
BRANCH  10  11
ATOM     11  C   UNL     1      25.382  65.732  16.389  1.00  0.00    -0.000 C 
BRANCH  11  12
ATOM     12  C   UNL     1      24.273  64.990  15.629  1.00  0.00    -0.000 C 
BRANCH  12  13
ATOM     13  C   UNL     1      22.942  64.966  16.395  1.00  0.00    -0.000 C 
BRANCH  13  14
ATOM     14  C   UNL     1      21.997  66.064  15.885  1.00  0.00    -0.000 C 
BRANCH  14  15
ATOM     15  C   UNL     1      20.520  65.641  15.932  1.00  0.00    -0.003 C 
ATOM     16  C   UNL     1      20.008  65.127  14.586  1.00  0.00     0.004 C 
ENDBRANCH  14  15
ENDBRANCH  13  14
ENDBRANCH  12  13
ENDBRANCH  11  12
ENDBRANCH  10  11
ENDBRANCH   1  10
TORSDOF 12
ENDMDL
MODEL 6
REMARK VINA RESULT:    -2.133      1.519      2.980
REMARK INTER + INTRA:          -4.595
REMARK INTER:                  -3.391
REMARK INTRA:                  -1.204
REMARK UNBOUND:                -0.966
REMARK SMILES CCCCCCCCCCCCCC(=O)[O-]
REMARK SMILES IDX 8 1 9 2 10 3 11 4 12 5 13 6 14 7 15 8 16 9 7 10 6 11 5 12
REMARK SMILES IDX 4 13 3 14 2 15 1 16
REMARK H PARENT
REMARK Flexibility Score: inf
ROOT
ATOM      1  C   UNL     1      32.014  62.662  15.996  1.00  0.00     0.000 C 
ENDROOT
BRANCH   1   2
ATOM      2  C   UNL     1      33.125  63.357  16.808  1.00  0.00     0.000 C 
BRANCH   2   3
ATOM      3  C   UNL     1      32.689  64.638  17.542  1.00  0.00     0.000 C 
BRANCH   3   4
ATOM      4  C   UNL     1      32.843  64.528  19.069  1.00  0.00     0.000 C 
BRANCH   4   5
ATOM      5  C   UNL     1      32.247  65.738  19.808  1.00  0.00     0.006 C 
BRANCH   5   6
ATOM      6  C   UNL     1      30.906  65.419  20.483  1.00  0.00     0.053 C 
BRANCH   6   7
ATOM      7  C   UNL     1      31.056  65.437  21.972  1.00  0.00     0.041 C 
ATOM      8  O   UNL     1      30.062  65.681  22.706  1.00  0.00    -0.550 OA
ATOM      9  O   UNL     1      32.303  65.232  22.548  1.00  0.00    -0.550 OA
ENDBRANCH   6   7
ENDBRANCH   5   6
ENDBRANCH   4   5
ENDBRANCH   3   4
ENDBRANCH   2   3
ENDBRANCH   1   2
BRANCH   1  10
ATOM     10  C   UNL     1      31.903  63.164  14.539  1.00  0.00     0.000 C 
BRANCH  10  11
ATOM     11  C   UNL     1      30.571  63.891  14.275  1.00  0.00    -0.000 C 
BRANCH  11  12
ATOM     12  C   UNL     1      29.623  63.849  15.483  1.00  0.00    -0.000 C 
BRANCH  12  13
ATOM     13  C   UNL     1      29.090  65.237  15.868  1.00  0.00    -0.000 C 
BRANCH  13  14
ATOM     14  C   UNL     1      28.974  65.375  17.393  1.00  0.00    -0.000 C 
BRANCH  14  15
ATOM     15  C   UNL     1      27.553  65.743  17.847  1.00  0.00    -0.003 C 
ATOM     16  C   UNL     1      26.506  65.510  16.758  1.00  0.00     0.004 C 
ENDBRANCH  14  15
ENDBRANCH  13  14
ENDBRANCH  12  13
ENDBRANCH  11  12
ENDBRANCH  10  11
ENDBRANCH   1  10
TORSDOF 12
ENDMDL
MODEL 7
REMARK VINA RESULT:    -2.054      1.955      4.135
REMARK INTER + INTRA:          -4.461
REMARK INTER:                  -3.806
REMARK INTRA:                  -0.656
REMARK UNBOUND:                -0.966
REMARK SMILES CCCCCCCCCCCCCC(=O)[O-]
REMARK SMILES IDX 8 1 9 2 10 3 11 4 12 5 13 6 14 7 15 8 16 9 7 10 6 11 5 12
REMARK SMILES IDX 4 13 3 14 2 15 1 16
REMARK H PARENT
REMARK Flexibility Score: inf
ROOT
ATOM      1  C   UNL     1      28.762  64.306  15.872  1.00  0.00     0.000 C 
ENDROOT
BRANCH   1   2
ATOM      2  C   UNL     1      30.243  64.330  15.443  1.00  0.00     0.000 C 
BRANCH   2   3
ATOM      3  C   UNL     1      30.696  63.124  14.601  1.00  0.00     0.000 C 
BRANCH   3   4
ATOM      4  C   UNL     1      32.160  63.237  14.143  1.00  0.00     0.000 C 
BRANCH   4   5
ATOM      5  C   UNL     1      33.125  63.482  15.315  1.00  0.00     0.006 C 
BRANCH   5   6
ATOM      6  C   UNL     1      32.890  62.520  16.488  1.00  0.00     0.053 C 
BRANCH   6   7
ATOM      7  C   UNL     1      33.027  63.244  17.790  1.00  0.00     0.041 C 
ATOM      8  O   UNL     1      33.119  64.500  17.810  1.00  0.00    -0.550 OA
ATOM      9  O   UNL     1      33.100  62.529  18.979  1.00  0.00    -0.550 OA
ENDBRANCH   6   7
ENDBRANCH   5   6
ENDBRANCH   4   5
ENDBRANCH   3   4
ENDBRANCH   2   3
ENDBRANCH   1   2
BRANCH   1  10
ATOM     10  C   UNL     1      28.248  65.658  16.411  1.00  0.00     0.000 C 
BRANCH  10  11
ATOM     11  C   UNL     1      27.468  65.500  17.730  1.00  0.00    -0.000 C 
BRANCH  11  12
ATOM     12  C   UNL     1      28.299  65.894  18.959  1.00  0.00    -0.000 C 
BRANCH  12  13
ATOM     13  C   UNL     1      29.669  65.201  18.997  1.00  0.00    -0.000 C 
BRANCH  13  14
ATOM     14  C   UNL     1      30.733  66.123  19.611  1.00  0.00    -0.000 C 
BRANCH  14  15
ATOM     15  C   UNL     1      30.700  66.124  21.147  1.00  0.00    -0.003 C 
ATOM     16  C   UNL     1      31.719  65.164  21.761  1.00  0.00     0.004 C 
ENDBRANCH  14  15
ENDBRANCH  13  14
ENDBRANCH  12  13
ENDBRANCH  11  12
ENDBRANCH  10  11
ENDBRANCH   1  10
TORSDOF 12
ENDMDL
MODEL 8
REMARK VINA RESULT:    -2.031      5.514      9.497
REMARK INTER + INTRA:          -4.423
REMARK INTER:                  -4.186
REMARK INTRA:                  -0.237
REMARK UNBOUND:                -0.966
REMARK SMILES CCCCCCCCCCCCCC(=O)[O-]
REMARK SMILES IDX 8 1 9 2 10 3 11 4 12 5 13 6 14 7 15 8 16 9 7 10 6 11 5 12
REMARK SMILES IDX 4 13 3 14 2 15 1 16
REMARK H PARENT
REMARK Flexibility Score: inf
ROOT
ATOM      1  C   UNL     1      26.719  65.982  16.728  1.00  0.00     0.000 C 
ENDROOT
BRANCH   1   2
ATOM      2  C   UNL     1      25.499  65.123  16.339  1.00  0.00     0.000 C 
BRANCH   2   3
ATOM      3  C   UNL     1      24.229  65.919  15.988  1.00  0.00     0.000 C 
BRANCH   3   4
ATOM      4  C   UNL     1      22.939  65.129  16.265  1.00  0.00     0.000 C 
BRANCH   4   5
ATOM      5  C   UNL     1      21.673  65.935  15.929  1.00  0.00     0.006 C 
BRANCH   5   6
ATOM      6  C   UNL     1      20.381  65.166  16.237  1.00  0.00     0.053 C 
BRANCH   6   7
ATOM      7  C   UNL     1      19.253  65.688  15.405  1.00  0.00     0.041 C 
ATOM      8  O   UNL     1      19.402  65.851  14.165  1.00  0.00    -0.550 OA
ATOM      9  O   UNL     1      18.051  66.041  16.006  1.00  0.00    -0.550 OA
ENDBRANCH   6   7
ENDBRANCH   5   6
ENDBRANCH   4   5
ENDBRANCH   3   4
ENDBRANCH   2   3
ENDBRANCH   1   2
BRANCH   1  10
ATOM     10  C   UNL     1      28.023  65.171  16.891  1.00  0.00     0.000 C 
BRANCH  10  11
ATOM     11  C   UNL     1      29.064  65.912  17.751  1.00  0.00    -0.000 C 
BRANCH  11  12
ATOM     12  C   UNL     1      30.489  65.378  17.547  1.00  0.00    -0.000 C 
BRANCH  12  13
ATOM     13  C   UNL     1      31.232  65.146  18.871  1.00  0.00    -0.000 C 
BRANCH  13  14
ATOM     14  C   UNL     1      31.646  63.674  19.017  1.00  0.00    -0.000 C 
BRANCH  14  15
ATOM     15  C   UNL     1      32.147  63.338  20.430  1.00  0.00    -0.003 C 
ATOM     16  C   UNL     1      32.544  61.870  20.583  1.00  0.00     0.004 C 
ENDBRANCH  14  15
ENDBRANCH  13  14
ENDBRANCH  12  13
ENDBRANCH  11  12
ENDBRANCH  10  11
ENDBRANCH   1  10
TORSDOF 12
ENDMDL
MODEL 9
REMARK VINA RESULT:    -1.977      2.195      4.116
REMARK INTER + INTRA:          -4.330
REMARK INTER:                  -3.856
REMARK INTRA:                  -0.474
REMARK UNBOUND:                -0.966
REMARK SMILES CCCCCCCCCCCCCC(=O)[O-]
REMARK SMILES IDX 8 1 9 2 10 3 11 4 12 5 13 6 14 7 15 8 16 9 7 10 6 11 5 12
REMARK SMILES IDX 4 13 3 14 2 15 1 16
REMARK H PARENT
REMARK Flexibility Score: inf
ROOT
ATOM      1  C   UNL     1      27.199  64.997  17.402  1.00  0.00     0.000 C 
ENDROOT
BRANCH   1   2
ATOM      2  C   UNL     1      27.582  65.592  18.772  1.00  0.00     0.000 C 
BRANCH   2   3
ATOM      3  C   UNL     1      29.089  65.818  18.985  1.00  0.00     0.000 C 
BRANCH   3   4
ATOM      4  C   UNL     1      29.935  65.328  17.796  1.00  0.00     0.000 C 
BRANCH   4   5
ATOM      5  C   UNL     1      31.313  64.805  18.232  1.00  0.00     0.006 C 
BRANCH   5   6
ATOM      6  C   UNL     1      31.659  65.178  19.680  1.00  0.00     0.053 C 
BRANCH   6   7
ATOM      7  C   UNL     1      31.960  63.948  20.477  1.00  0.00     0.041 C 
ATOM      8  O   UNL     1      32.284  64.042  21.690  1.00  0.00    -0.550 OA
ATOM      9  O   UNL     1      31.928  62.699  19.868  1.00  0.00    -0.550 OA
ENDBRANCH   6   7
ENDBRANCH   5   6
ENDBRANCH   4   5
ENDBRANCH   3   4
ENDBRANCH   2   3
ENDBRANCH   1   2
BRANCH   1  10
ATOM     10  C   UNL     1      26.247  65.892  16.580  1.00  0.00     0.000 C 
BRANCH  10  11
ATOM     11  C   UNL     1      25.049  65.104  16.018  1.00  0.00    -0.000 C 
BRANCH  11  12
ATOM     12  C   UNL     1      23.750  65.922  16.016  1.00  0.00    -0.000 C 
BRANCH  12  13
ATOM     13  C   UNL     1      22.510  65.068  16.321  1.00  0.00    -0.000 C 
BRANCH  13  14
ATOM     14  C   UNL     1      21.225  65.896  16.174  1.00  0.00    -0.000 C 
BRANCH  14  15
ATOM     15  C   UNL     1      20.416  65.514  14.925  1.00  0.00    -0.003 C 
ATOM     16  C   UNL     1      18.920  65.791  15.080  1.00  0.00     0.004 C 
ENDBRANCH  14  15
ENDBRANCH  13  14
ENDBRANCH  12  13
ENDBRANCH  11  12
ENDBRANCH  10  11
ENDBRANCH   1  10
TORSDOF 12
ENDMDL
