MODEL 1
REMARK VINA RESULT:    -5.515      0.000      0.000
REMARK INTER + INTRA:          -6.456
REMARK INTER:                  -6.320
REMARK INTRA:                  -0.135
REMARK UNBOUND:                -0.135
REMARK SMILES O=C([O-])C=Cc1ccc(O)cc1
REMARK SMILES IDX 6 1 7 2 12 3 8 4 11 5 9 6 5 7 4 8 2 9 1 10 3 11 10 12
REMARK H PARENT 10 13
REMARK Flexibility Score: inf
ROOT
ATOM      1  C   UNL     1      21.022  -6.134  17.803  1.00  0.00    -0.025 A 
ATOM      2  C   UNL     1      19.668  -6.358  17.503  1.00  0.00     0.012 A 
ATOM      3  C   UNL     1      21.994  -6.984  17.234  1.00  0.00     0.012 A 
ATOM      4  C   UNL     1      19.288  -7.419  16.675  1.00  0.00     0.047 A 
ATOM      5  C   UNL     1      21.610  -8.043  16.406  1.00  0.00     0.047 A 
ATOM      6  C   UNL     1      20.255  -8.264  16.126  1.00  0.00     0.115 A 
ENDROOT
BRANCH   1   7
ATOM      7  C   UNL     1      21.377  -4.990  18.679  1.00  0.00     0.010 C 
ATOM      8  C   UNL     1      22.021  -5.117  19.846  1.00  0.00     0.025 C 
BRANCH   8   9
ATOM      9  C   UNL     1      22.341  -3.952  20.688  1.00  0.00     0.064 C 
ATOM     10  O   UNL     1      22.470  -4.102  21.931  1.00  0.00    -0.545 OA
ATOM     11  O   UNL     1      22.508  -2.689  20.132  1.00  0.00    -0.545 OA
ENDBRANCH   8   9
ENDBRANCH   1   7
BRANCH   6  12
ATOM     12  O   UNL     1      19.862  -9.317  15.303  1.00  0.00    -0.508 OA
ATOM     13  H   UNL     1      19.256  -9.168  14.504  1.00  0.00     0.293 HD
ENDBRANCH   6  12
TORSDOF 3
ENDMDL
MODEL 2
REMARK VINA RESULT:    -4.973     17.682     18.316
REMARK INTER + INTRA:          -5.836
REMARK INTER:                  -5.681
REMARK INTRA:                  -0.154
REMARK UNBOUND:                -0.135
REMARK SMILES O=C([O-])C=Cc1ccc(O)cc1
REMARK SMILES IDX 6 1 7 2 12 3 8 4 11 5 9 6 5 7 4 8 2 9 1 10 3 11 10 12
REMARK H PARENT 10 13
REMARK Flexibility Score: inf
ROOT
ATOM      1  C   UNL     1      20.227   7.985  29.133  1.00  0.00    -0.025 A 
ATOM      2  C   UNL     1      21.601   7.692  29.121  1.00  0.00     0.012 A 
ATOM      3  C   UNL     1      19.685   8.743  28.075  1.00  0.00     0.012 A 
ATOM      4  C   UNL     1      22.422   8.166  28.093  1.00  0.00     0.047 A 
ATOM      5  C   UNL     1      20.509   9.215  27.048  1.00  0.00     0.047 A 
ATOM      6  C   UNL     1      21.879   8.929  27.056  1.00  0.00     0.115 A 
ENDROOT
BRANCH   1   7
ATOM      7  C   UNL     1      19.396   7.451  30.241  1.00  0.00     0.010 C 
ATOM      8  C   UNL     1      19.878   6.695  31.236  1.00  0.00     0.025 C 
BRANCH   8   9
ATOM      9  C   UNL     1      19.012   6.178  32.309  1.00  0.00     0.064 C 
ATOM     10  O   UNL     1      17.772   6.090  32.115  1.00  0.00    -0.545 OA
ATOM     11  O   UNL     1      19.543   5.780  33.530  1.00  0.00    -0.545 OA
ENDBRANCH   8   9
ENDBRANCH   1   7
BRANCH   6  12
ATOM     12  O   UNL     1      22.709   9.395  26.037  1.00  0.00    -0.508 OA
ATOM     13  H   UNL     1      22.668  10.356  25.719  1.00  0.00     0.293 HD
ENDBRANCH   6  12
TORSDOF 3
ENDMDL
MODEL 3
REMARK VINA RESULT:    -4.860      1.167      5.774
REMARK INTER + INTRA:          -5.706
REMARK INTER:                  -5.572
REMARK INTRA:                  -0.134
REMARK UNBOUND:                -0.135
REMARK SMILES O=C([O-])C=Cc1ccc(O)cc1
REMARK SMILES IDX 6 1 7 2 12 3 8 4 11 5 9 6 5 7 4 8 2 9 1 10 3 11 10 12
REMARK H PARENT 10 13
REMARK Flexibility Score: inf
ROOT
ATOM      1  C   UNL     1      21.419  -5.421  18.208  1.00  0.00    -0.025 A 
ATOM      2  C   UNL     1      21.231  -4.031  18.290  1.00  0.00     0.012 A 
ATOM      3  C   UNL     1      22.051  -6.085  19.280  1.00  0.00     0.012 A 
ATOM      4  C   UNL     1      21.687  -3.315  19.401  1.00  0.00     0.047 A 
ATOM      5  C   UNL     1      22.505  -5.366  20.389  1.00  0.00     0.047 A 
ATOM      6  C   UNL     1      22.326  -3.978  20.452  1.00  0.00     0.115 A 
ENDROOT
BRANCH   1   7
ATOM      7  C   UNL     1      20.909  -6.138  17.013  1.00  0.00     0.010 C 
ATOM      8  C   UNL     1      19.783  -6.864  17.004  1.00  0.00     0.025 C 
BRANCH   8   9
ATOM      9  C   UNL     1      19.322  -7.569  15.797  1.00  0.00     0.064 C 
ATOM     10  O   UNL     1      18.759  -6.920  14.877  1.00  0.00    -0.545 OA
ATOM     11  O   UNL     1      19.502  -8.940  15.654  1.00  0.00    -0.545 OA
ENDBRANCH   8   9
ENDBRANCH   1   7
BRANCH   6  12
ATOM     12  O   UNL     1      22.775  -3.252  21.553  1.00  0.00    -0.508 OA
ATOM     13  H   UNL     1      23.649  -3.475  22.014  1.00  0.00     0.293 HD
ENDBRANCH   6  12
TORSDOF 3
ENDMDL
MODEL 4
REMARK VINA RESULT:    -4.815     17.607     18.530
REMARK INTER + INTRA:          -5.654
REMARK INTER:                  -5.520
REMARK INTRA:                  -0.134
REMARK UNBOUND:                -0.135
REMARK SMILES O=C([O-])C=Cc1ccc(O)cc1
REMARK SMILES IDX 6 1 7 2 12 3 8 4 11 5 9 6 5 7 4 8 2 9 1 10 3 11 10 12
REMARK H PARENT 10 13
REMARK Flexibility Score: inf
ROOT
ATOM      1  C   UNL     1      22.145   9.212  28.427  1.00  0.00    -0.025 A 
ATOM      2  C   UNL     1      21.194   9.971  29.129  1.00  0.00     0.012 A 
ATOM      3  C   UNL     1      21.776   8.630  27.196  1.00  0.00     0.012 A 
ATOM      4  C   UNL     1      19.897  10.125  28.630  1.00  0.00     0.047 A 
ATOM      5  C   UNL     1      20.479   8.787  26.700  1.00  0.00     0.047 A 
ATOM      6  C   UNL     1      19.535   9.533  27.417  1.00  0.00     0.115 A 
ENDROOT
BRANCH   1   7
ATOM      7  C   UNL     1      23.512   9.085  28.992  1.00  0.00     0.010 C 
ATOM      8  C   UNL     1      24.153   7.918  29.137  1.00  0.00     0.025 C 
BRANCH   8   9
ATOM      9  C   UNL     1      25.505   7.841  29.715  1.00  0.00     0.064 C 
ATOM     10  O   UNL     1      25.649   7.892  30.964  1.00  0.00    -0.545 OA
ATOM     11  O   UNL     1      26.625   7.708  28.903  1.00  0.00    -0.545 OA
ENDBRANCH   8   9
ENDBRANCH   1   7
BRANCH   6  12
ATOM     12  O   UNL     1      18.239   9.695  26.932  1.00  0.00    -0.508 OA
ATOM     13  H   UNL     1      17.451   9.220  27.358  1.00  0.00     0.293 HD
ENDBRANCH   6  12
TORSDOF 3
ENDMDL
MODEL 5
REMARK VINA RESULT:    -4.786     10.288     13.311
REMARK INTER + INTRA:          -5.621
REMARK INTER:                  -5.471
REMARK INTRA:                  -0.150
REMARK UNBOUND:                -0.135
REMARK SMILES O=C([O-])C=Cc1ccc(O)cc1
REMARK SMILES IDX 6 1 7 2 12 3 8 4 11 5 9 6 5 7 4 8 2 9 1 10 3 11 10 12
REMARK H PARENT 10 13
REMARK Flexibility Score: inf
ROOT
ATOM      1  C   UNL     1      26.795   3.402  24.258  1.00  0.00    -0.025 A 
ATOM      2  C   UNL     1      25.502   3.171  24.756  1.00  0.00     0.012 A 
ATOM      3  C   UNL     1      27.411   4.644  24.516  1.00  0.00     0.012 A 
ATOM      4  C   UNL     1      24.827   4.164  25.473  1.00  0.00     0.047 A 
ATOM      5  C   UNL     1      26.733   5.634  25.233  1.00  0.00     0.047 A 
ATOM      6  C   UNL     1      25.438   5.397  25.711  1.00  0.00     0.115 A 
ENDROOT
BRANCH   1   7
ATOM      7  C   UNL     1      27.474   2.313  23.512  1.00  0.00     0.010 C 
ATOM      8  C   UNL     1      27.048   1.044  23.495  1.00  0.00     0.025 C 
BRANCH   8   9
ATOM      9  C   UNL     1      27.763  -0.006  22.749  1.00  0.00     0.064 C 
ATOM     10  O   UNL     1      27.314  -0.392  21.639  1.00  0.00    -0.545 OA
ATOM     11  O   UNL     1      28.927  -0.575  23.250  1.00  0.00    -0.545 OA
ENDBRANCH   8   9
ENDBRANCH   1   7
BRANCH   6  12
ATOM     12  O   UNL     1      24.754   6.378  26.427  1.00  0.00    -0.508 OA
ATOM     13  H   UNL     1      23.819   6.670  26.164  1.00  0.00     0.293 HD
ENDBRANCH   6  12
TORSDOF 3
ENDMDL
MODEL 6
REMARK VINA RESULT:    -4.696      9.842     13.051
REMARK INTER + INTRA:          -5.517
REMARK INTER:                  -5.381
REMARK INTRA:                  -0.137
REMARK UNBOUND:                -0.135
REMARK SMILES O=C([O-])C=Cc1ccc(O)cc1
REMARK SMILES IDX 6 1 7 2 12 3 8 4 11 5 9 6 5 7 4 8 2 9 1 10 3 11 10 12
REMARK H PARENT 10 13
REMARK Flexibility Score: inf
ROOT
ATOM      1  C   UNL     1      26.489   2.751  24.476  1.00  0.00    -0.025 A 
ATOM      2  C   UNL     1      27.291   3.903  24.450  1.00  0.00     0.012 A 
ATOM      3  C   UNL     1      25.200   2.833  25.042  1.00  0.00     0.012 A 
ATOM      4  C   UNL     1      26.831   5.105  24.998  1.00  0.00     0.047 A 
ATOM      5  C   UNL     1      24.743   4.036  25.588  1.00  0.00     0.047 A 
ATOM      6  C   UNL     1      25.558   5.174  25.570  1.00  0.00     0.115 A 
ENDROOT
BRANCH   1   7
ATOM      7  C   UNL     1      27.018   1.502  23.872  1.00  0.00     0.010 C 
ATOM      8  C   UNL     1      27.001   1.245  22.558  1.00  0.00     0.025 C 
BRANCH   8   9
ATOM      9  C   UNL     1      27.526  -0.014  22.006  1.00  0.00     0.064 C 
ATOM     10  O   UNL     1      27.081  -0.445  20.910  1.00  0.00    -0.545 OA
ATOM     11  O   UNL     1      28.510  -0.735  22.672  1.00  0.00    -0.545 OA
ENDBRANCH   8   9
ENDBRANCH   1   7
BRANCH   6  12
ATOM     12  O   UNL     1      25.112   6.378  26.113  1.00  0.00    -0.508 OA
ATOM     13  H   UNL     1      25.431   7.271  25.754  1.00  0.00     0.293 HD
ENDBRANCH   6  12
TORSDOF 3
ENDMDL
MODEL 7
REMARK VINA RESULT:    -4.690     17.650     18.482
REMARK INTER + INTRA:          -5.511
REMARK INTER:                  -5.359
REMARK INTRA:                  -0.152
REMARK UNBOUND:                -0.135
REMARK SMILES O=C([O-])C=Cc1ccc(O)cc1
REMARK SMILES IDX 6 1 7 2 12 3 8 4 11 5 9 6 5 7 4 8 2 9 1 10 3 11 10 12
REMARK H PARENT 10 13
REMARK Flexibility Score: inf
ROOT
ATOM      1  C   UNL     1      19.541   7.248  30.235  1.00  0.00    -0.025 A 
ATOM      2  C   UNL     1      20.689   6.729  30.856  1.00  0.00     0.012 A 
ATOM      3  C   UNL     1      18.283   7.014  30.829  1.00  0.00     0.012 A 
ATOM      4  C   UNL     1      20.585   5.972  32.027  1.00  0.00     0.047 A 
ATOM      5  C   UNL     1      18.183   6.258  32.001  1.00  0.00     0.047 A 
ATOM      6  C   UNL     1      19.334   5.733  32.601  1.00  0.00     0.115 A 
ENDROOT
BRANCH   1   7
ATOM      7  C   UNL     1      19.703   8.052  28.998  1.00  0.00     0.010 C 
ATOM      8  C   UNL     1      20.835   8.102  28.285  1.00  0.00     0.025 C 
BRANCH   8   9
ATOM      9  C   UNL     1      20.953   8.926  27.070  1.00  0.00     0.064 C 
ATOM     10  O   UNL     1      19.974   9.016  26.286  1.00  0.00    -0.545 OA
ATOM     11  O   UNL     1      22.128   9.607  26.777  1.00  0.00    -0.545 OA
ENDBRANCH   8   9
ENDBRANCH   1   7
BRANCH   6  12
ATOM     12  O   UNL     1      19.246   4.978  33.769  1.00  0.00    -0.508 OA
ATOM     13  H   UNL     1      18.371   4.877  34.270  1.00  0.00     0.293 HD
ENDBRANCH   6  12
TORSDOF 3
ENDMDL
MODEL 8
REMARK VINA RESULT:    -4.516     17.653     18.101
REMARK INTER + INTRA:          -5.312
REMARK INTER:                  -5.163
REMARK INTRA:                  -0.149
REMARK UNBOUND:                -0.135
REMARK SMILES O=C([O-])C=Cc1ccc(O)cc1
REMARK SMILES IDX 6 1 7 2 12 3 8 4 11 5 9 6 5 7 4 8 2 9 1 10 3 11 10 12
REMARK H PARENT 10 13
REMARK Flexibility Score: inf
ROOT
ATOM      1  C   UNL     1      21.264   7.992  28.980  1.00  0.00    -0.025 A 
ATOM      2  C   UNL     1      19.986   8.319  29.460  1.00  0.00     0.012 A 
ATOM      3  C   UNL     1      21.593   8.315  27.647  1.00  0.00     0.012 A 
ATOM      4  C   UNL     1      19.046   8.932  28.624  1.00  0.00     0.047 A 
ATOM      5  C   UNL     1      20.652   8.928  26.815  1.00  0.00     0.047 A 
ATOM      6  C   UNL     1      19.375   9.235  27.301  1.00  0.00     0.115 A 
ENDROOT
BRANCH   1   7
ATOM      7  C   UNL     1      22.230   7.352  29.908  1.00  0.00     0.010 C 
ATOM      8  C   UNL     1      21.882   6.464  30.849  1.00  0.00     0.025 C 
BRANCH   8   9
ATOM      9  C   UNL     1      22.875   5.864  31.756  1.00  0.00     0.064 C 
ATOM     10  O   UNL     1      24.034   6.350  31.815  1.00  0.00    -0.545 OA
ATOM     11  O   UNL     1      22.551   4.772  32.552  1.00  0.00    -0.545 OA
ENDBRANCH   8   9
ENDBRANCH   1   7
BRANCH   6  12
ATOM     12  O   UNL     1      18.429   9.845  26.479  1.00  0.00    -0.508 OA
ATOM     13  H   UNL     1      17.435   9.727  26.638  1.00  0.00     0.293 HD
ENDBRANCH   6  12
TORSDOF 3
ENDMDL
MODEL 9
REMARK VINA RESULT:    -4.339     18.341     19.610
REMARK INTER + INTRA:          -5.109
REMARK INTER:                  -4.965
REMARK INTRA:                  -0.144
REMARK UNBOUND:                -0.135
REMARK SMILES O=C([O-])C=Cc1ccc(O)cc1
REMARK SMILES IDX 6 1 7 2 12 3 8 4 11 5 9 6 5 7 4 8 2 9 1 10 3 11 10 12
REMARK H PARENT 10 13
REMARK Flexibility Score: inf
ROOT
ATOM      1  C   UNL     1      20.625   8.911  30.609  1.00  0.00    -0.025 A 
ATOM      2  C   UNL     1      21.034   9.936  29.740  1.00  0.00     0.012 A 
ATOM      3  C   UNL     1      19.575   8.058  30.206  1.00  0.00     0.012 A 
ATOM      4  C   UNL     1      20.397  10.125  28.510  1.00  0.00     0.047 A 
ATOM      5  C   UNL     1      18.941   8.250  28.975  1.00  0.00     0.047 A 
ATOM      6  C   UNL     1      19.349   9.285  28.125  1.00  0.00     0.115 A 
ENDROOT
BRANCH   1   7
ATOM      7  C   UNL     1      21.339   8.744  31.899  1.00  0.00     0.010 C 
ATOM      8  C   UNL     1      21.472   7.570  32.530  1.00  0.00     0.025 C 
BRANCH   8   9
ATOM      9  C   UNL     1      22.180   7.455  33.816  1.00  0.00     0.064 C 
ATOM     10  O   UNL     1      22.485   8.498  34.451  1.00  0.00    -0.545 OA
ATOM     11  O   UNL     1      22.513   6.213  34.343  1.00  0.00    -0.545 OA
ENDBRANCH   8   9
ENDBRANCH   1   7
BRANCH   6  12
ATOM     12  O   UNL     1      18.722   9.485  26.897  1.00  0.00    -0.508 OA
ATOM     13  H   UNL     1      18.428  10.407  26.596  1.00  0.00     0.293 HD
ENDBRANCH   6  12
TORSDOF 3
ENDMDL
