MODEL 1
REMARK VINA RESULT:    -4.021      0.000      0.000
REMARK INTER + INTRA:          -5.591
REMARK INTER:                  -5.432
REMARK INTRA:                  -0.160
REMARK UNBOUND:                -0.160
REMARK SMILES [NH3+]CCCC[C@H]([NH3+])C(=O)[O-]
REMARK SMILES IDX 4 1 3 2 2 3 1 4 5 8 6 9 7 10 8 14 9 15 10 16
REMARK H PARENT 1 5 1 6 1 7 7 11 7 12 7 13
REMARK Flexibility Score: inf
ROOT
ATOM      1  C   UNL     1     112.421   0.498  64.329  1.00  0.00     0.012 C 
ENDROOT
BRANCH   1   2
ATOM      2  C   UNL     1     111.289  -0.540  64.276  1.00  0.00     0.061 C 
BRANCH   2   3
ATOM      3  C   UNL     1     111.026  -1.054  62.850  1.00  0.00     0.258 C 
BRANCH   3   4
ATOM      4  N   UNL     1     109.863  -1.942  62.789  1.00  0.00    -0.358 N 
ATOM      5  H   UNL     1     109.122  -1.620  63.453  1.00  0.00     0.344 HD
ATOM      6  H   UNL     1     109.474  -1.924  61.818  1.00  0.00     0.344 HD
ATOM      7  H   UNL     1     110.142  -2.924  63.011  1.00  0.00     0.344 HD
ENDBRANCH   3   4
ENDBRANCH   2   3
ENDBRANCH   1   2
BRANCH   1   8
ATOM      8  C   UNL     1     112.763   1.010  62.921  1.00  0.00     0.072 C 
BRANCH   8   9
ATOM      9  C   UNL     1     114.235   0.749  62.534  1.00  0.00     0.227 C 
BRANCH   9  10
ATOM     10  N   UNL     1     115.082   1.924  62.780  1.00  0.00    -0.350 N 
ATOM     11  H   UNL     1     115.329   1.999  63.794  1.00  0.00     0.345 HD
ATOM     12  H   UNL     1     115.959   1.861  62.214  1.00  0.00     0.345 HD
ATOM     13  H   UNL     1     114.580   2.794  62.486  1.00  0.00     0.345 HD
ENDBRANCH   9  10
BRANCH   9  14
ATOM     14  C   UNL     1     114.313   0.348  61.084  1.00  0.00     0.099 C 
ATOM     15  O   UNL     1     115.368  -0.158  60.617  1.00  0.00    -0.544 OA
ATOM     16  O   UNL     1     113.224   0.554  60.247  1.00  0.00    -0.544 OA
ENDBRANCH   9  14
ENDBRANCH   8   9
ENDBRANCH   1   8
TORSDOF 7
ENDMDL
MODEL 2
REMARK VINA RESULT:    -4.014      2.447      4.566
REMARK INTER + INTRA:          -5.582
REMARK INTER:                  -5.074
REMARK INTRA:                  -0.508
REMARK UNBOUND:                -0.160
REMARK SMILES [NH3+]CCCC[C@H]([NH3+])C(=O)[O-]
REMARK SMILES IDX 4 1 3 2 2 3 1 4 5 8 6 9 7 10 8 14 9 15 10 16
REMARK H PARENT 1 5 1 6 1 7 7 11 7 12 7 13
REMARK Flexibility Score: inf
ROOT
ATOM      1  C   UNL     1     111.747   0.167  60.245  1.00  0.00     0.012 C 
ENDROOT
BRANCH   1   2
ATOM      2  C   UNL     1     113.042   0.973  60.430  1.00  0.00     0.061 C 
BRANCH   2   3
ATOM      3  C   UNL     1     114.297   0.083  60.434  1.00  0.00     0.258 C 
BRANCH   3   4
ATOM      4  N   UNL     1     114.904  -0.010  61.763  1.00  0.00    -0.358 N 
ATOM      5  H   UNL     1     115.942  -0.106  61.685  1.00  0.00     0.344 HD
ATOM      6  H   UNL     1     114.686   0.863  62.296  1.00  0.00     0.344 HD
ATOM      7  H   UNL     1     114.507  -0.822  62.289  1.00  0.00     0.344 HD
ENDBRANCH   3   4
ENDBRANCH   2   3
ENDBRANCH   1   2
BRANCH   1   8
ATOM      8  C   UNL     1     110.885   0.214  61.517  1.00  0.00     0.072 C 
BRANCH   8   9
ATOM      9  C   UNL     1     111.211  -0.933  62.499  1.00  0.00     0.227 C 
BRANCH   9  10
ATOM     10  N   UNL     1     110.056  -1.819  62.708  1.00  0.00    -0.350 N 
ATOM     11  H   UNL     1     110.302  -2.606  63.352  1.00  0.00     0.345 HD
ATOM     12  H   UNL     1     109.257  -1.279  63.110  1.00  0.00     0.345 HD
ATOM     13  H   UNL     1     109.740  -2.214  61.792  1.00  0.00     0.345 HD
ENDBRANCH   9  10
BRANCH   9  14
ATOM     14  C   UNL     1     111.668  -0.358  63.814  1.00  0.00     0.099 C 
ATOM     15  O   UNL     1     110.982  -0.526  64.857  1.00  0.00    -0.544 OA
ATOM     16  O   UNL     1     112.843   0.379  63.879  1.00  0.00    -0.544 OA
ENDBRANCH   9  14
ENDBRANCH   8   9
ENDBRANCH   1   8
TORSDOF 7
ENDMDL
MODEL 3
REMARK VINA RESULT:    -3.960      2.303      4.038
REMARK INTER + INTRA:          -5.508
REMARK INTER:                  -5.001
REMARK INTRA:                  -0.507
REMARK UNBOUND:                -0.160
REMARK SMILES [NH3+]CCCC[C@H]([NH3+])C(=O)[O-]
REMARK SMILES IDX 4 1 3 2 2 3 1 4 5 8 6 9 7 10 8 14 9 15 10 16
REMARK H PARENT 1 5 1 6 1 7 7 11 7 12 7 13
REMARK Flexibility Score: inf
ROOT
ATOM      1  C   UNL     1     112.681   2.275  63.661  1.00  0.00     0.012 C 
ENDROOT
BRANCH   1   2
ATOM      2  C   UNL     1     114.145   2.111  63.223  1.00  0.00     0.061 C 
BRANCH   2   3
ATOM      3  C   UNL     1     114.280   1.421  61.855  1.00  0.00     0.258 C 
BRANCH   3   4
ATOM      4  N   UNL     1     114.765   0.045  61.976  1.00  0.00    -0.358 N 
ATOM      5  H   UNL     1     115.191  -0.273  61.076  1.00  0.00     0.344 HD
ATOM      6  H   UNL     1     115.495   0.009  62.724  1.00  0.00     0.344 HD
ATOM      7  H   UNL     1     113.985  -0.594  62.249  1.00  0.00     0.344 HD
ENDBRANCH   3   4
ENDBRANCH   2   3
ENDBRANCH   1   2
BRANCH   1   8
ATOM      8  C   UNL     1     112.297   1.211  64.701  1.00  0.00     0.072 C 
BRANCH   8   9
ATOM      9  C   UNL     1     111.063   0.384  64.279  1.00  0.00     0.227 C 
BRANCH   9  10
ATOM     10  N   UNL     1     110.326  -0.131  65.443  1.00  0.00    -0.350 N 
ATOM     11  H   UNL     1     109.783  -0.989  65.189  1.00  0.00     0.345 HD
ATOM     12  H   UNL     1     110.991  -0.358  66.217  1.00  0.00     0.345 HD
ATOM     13  H   UNL     1     109.666   0.598  65.798  1.00  0.00     0.345 HD
ENDBRANCH   9  10
BRANCH   9  14
ATOM     14  C   UNL     1     111.495  -0.754  63.393  1.00  0.00     0.099 C 
ATOM     15  O   UNL     1     112.644  -1.255  63.513  1.00  0.00    -0.544 OA
ATOM     16  O   UNL     1     110.632  -1.245  62.422  1.00  0.00    -0.544 OA
ENDBRANCH   9  14
ENDBRANCH   8   9
ENDBRANCH   1   8
TORSDOF 7
ENDMDL
MODEL 4
REMARK VINA RESULT:    -3.888      1.589      1.816
REMARK INTER + INTRA:          -5.412
REMARK INTER:                  -4.864
REMARK INTRA:                  -0.548
REMARK UNBOUND:                -0.160
REMARK SMILES [NH3+]CCCC[C@H]([NH3+])C(=O)[O-]
REMARK SMILES IDX 4 1 3 2 2 3 1 4 5 8 6 9 7 10 8 14 9 15 10 16
REMARK H PARENT 1 5 1 6 1 7 7 11 7 12 7 13
REMARK Flexibility Score: inf
ROOT
ATOM      1  C   UNL     1     112.728   1.437  64.122  1.00  0.00     0.012 C 
ENDROOT
BRANCH   1   2
ATOM      2  C   UNL     1     112.457   0.050  64.725  1.00  0.00     0.061 C 
BRANCH   2   3
ATOM      3  C   UNL     1     110.973  -0.349  64.645  1.00  0.00     0.258 C 
BRANCH   3   4
ATOM      4  N   UNL     1     110.697  -1.226  63.505  1.00  0.00    -0.358 N 
ATOM      5  H   UNL     1     110.734  -2.229  63.798  1.00  0.00     0.344 HD
ATOM      6  H   UNL     1     109.739  -1.017  63.142  1.00  0.00     0.344 HD
ATOM      7  H   UNL     1     111.384  -1.052  62.737  1.00  0.00     0.344 HD
ENDBRANCH   3   4
ENDBRANCH   2   3
ENDBRANCH   1   2
BRANCH   1   8
ATOM      8  C   UNL     1     113.909   1.387  63.140  1.00  0.00     0.072 C 
BRANCH   8   9
ATOM      9  C   UNL     1     113.799   0.220  62.134  1.00  0.00     0.227 C 
BRANCH   9  10
ATOM     10  N   UNL     1     115.098  -0.101  61.525  1.00  0.00    -0.350 N 
ATOM     11  H   UNL     1     115.579  -0.863  62.055  1.00  0.00     0.345 HD
ATOM     12  H   UNL     1     114.965  -0.400  60.532  1.00  0.00     0.345 HD
ATOM     13  H   UNL     1     115.708   0.749  61.518  1.00  0.00     0.345 HD
ENDBRANCH   9  10
BRANCH   9  14
ATOM     14  C   UNL     1     112.795   0.567  61.066  1.00  0.00     0.099 C 
ATOM     15  O   UNL     1     111.743  -0.112  60.934  1.00  0.00    -0.544 OA
ATOM     16  O   UNL     1     113.038   1.628  60.204  1.00  0.00    -0.544 OA
ENDBRANCH   9  14
ENDBRANCH   8   9
ENDBRANCH   1   8
TORSDOF 7
ENDMDL
MODEL 5
REMARK VINA RESULT:    -3.845      1.557      4.152
REMARK INTER + INTRA:          -5.353
REMARK INTER:                  -5.146
REMARK INTRA:                  -0.207
REMARK UNBOUND:                -0.160
REMARK SMILES [NH3+]CCCC[C@H]([NH3+])C(=O)[O-]
REMARK SMILES IDX 4 1 3 2 2 3 1 4 5 8 6 9 7 10 8 14 9 15 10 16
REMARK H PARENT 1 5 1 6 1 7 7 11 7 12 7 13
REMARK Flexibility Score: inf
ROOT
ATOM      1  C   UNL     1     112.276   0.015  64.622  1.00  0.00     0.012 C 
ENDROOT
BRANCH   1   2
ATOM      2  C   UNL     1     113.009   1.335  64.337  1.00  0.00     0.061 C 
BRANCH   2   3
ATOM      3  C   UNL     1     113.912   1.253  63.095  1.00  0.00     0.258 C 
BRANCH   3   4
ATOM      4  N   UNL     1     115.019   2.211  63.153  1.00  0.00    -0.358 N 
ATOM      5  H   UNL     1     115.840   1.792  63.647  1.00  0.00     0.344 HD
ATOM      6  H   UNL     1     115.304   2.458  62.177  1.00  0.00     0.344 HD
ATOM      7  H   UNL     1     114.718   3.087  63.638  1.00  0.00     0.344 HD
ENDBRANCH   3   4
ENDBRANCH   2   3
ENDBRANCH   1   2
BRANCH   1   8
ATOM      8  C   UNL     1     112.087  -0.797  63.331  1.00  0.00     0.072 C 
BRANCH   8   9
ATOM      9  C   UNL     1     110.661  -0.668  62.751  1.00  0.00     0.227 C 
BRANCH   9  10
ATOM     10  N   UNL     1     109.993  -1.974  62.646  1.00  0.00    -0.350 N 
ATOM     11  H   UNL     1     108.953  -1.863  62.667  1.00  0.00     0.345 HD
ATOM     12  H   UNL     1     110.273  -2.451  61.759  1.00  0.00     0.345 HD
ATOM     13  H   UNL     1     110.287  -2.589  63.440  1.00  0.00     0.345 HD
ENDBRANCH   9  10
BRANCH   9  14
ATOM     14  C   UNL     1     110.722  -0.007  61.399  1.00  0.00     0.099 C 
ATOM     15  O   UNL     1     109.744   0.659  60.969  1.00  0.00    -0.544 OA
ATOM     16  O   UNL     1     111.856  -0.146  60.609  1.00  0.00    -0.544 OA
ENDBRANCH   9  14
ENDBRANCH   8   9
ENDBRANCH   1   8
TORSDOF 7
ENDMDL
MODEL 6
REMARK VINA RESULT:    -3.798      2.528      4.219
REMARK INTER + INTRA:          -5.290
REMARK INTER:                  -4.813
REMARK INTRA:                  -0.477
REMARK UNBOUND:                -0.160
REMARK SMILES [NH3+]CCCC[C@H]([NH3+])C(=O)[O-]
REMARK SMILES IDX 4 1 3 2 2 3 1 4 5 8 6 9 7 10 8 14 9 15 10 16
REMARK H PARENT 1 5 1 6 1 7 7 11 7 12 7 13
REMARK Flexibility Score: inf
ROOT
ATOM      1  C   UNL     1     111.684  -0.119  62.161  1.00  0.00     0.012 C 
ENDROOT
BRANCH   1   2
ATOM      2  C   UNL     1     112.706   0.352  61.115  1.00  0.00     0.061 C 
BRANCH   2   3
ATOM      3  C   UNL     1     114.156   0.033  61.520  1.00  0.00     0.258 C 
BRANCH   3   4
ATOM      4  N   UNL     1     114.916   1.241  61.846  1.00  0.00    -0.358 N 
ATOM      5  H   UNL     1     114.674   2.015  61.185  1.00  0.00     0.344 HD
ATOM      6  H   UNL     1     114.674   1.541  62.818  1.00  0.00     0.344 HD
ATOM      7  H   UNL     1     115.942   1.047  61.809  1.00  0.00     0.344 HD
ENDBRANCH   3   4
ENDBRANCH   2   3
ENDBRANCH   1   2
BRANCH   1   8
ATOM      8  C   UNL     1     112.384  -0.823  63.334  1.00  0.00     0.072 C 
BRANCH   8   9
ATOM      9  C   UNL     1     112.074  -0.162  64.696  1.00  0.00     0.227 C 
BRANCH   9  10
ATOM     10  N   UNL     1     110.700  -0.440  65.138  1.00  0.00    -0.350 N 
ATOM     11  H   UNL     1     110.008   0.080  64.551  1.00  0.00     0.345 HD
ATOM     12  H   UNL     1     110.504  -1.465  65.080  1.00  0.00     0.345 HD
ATOM     13  H   UNL     1     110.583  -0.155  66.138  1.00  0.00     0.345 HD
ENDBRANCH   9  10
BRANCH   9  14
ATOM     14  C   UNL     1     112.297   1.324  64.599  1.00  0.00     0.099 C 
ATOM     15  O   UNL     1     113.452   1.785  64.395  1.00  0.00    -0.544 OA
ATOM     16  O   UNL     1     111.230   2.198  64.755  1.00  0.00    -0.544 OA
ENDBRANCH   9  14
ENDBRANCH   8   9
ENDBRANCH   1   8
TORSDOF 7
ENDMDL
MODEL 7
REMARK VINA RESULT:    -3.779      2.862      4.093
REMARK INTER + INTRA:          -5.264
REMARK INTER:                  -4.983
REMARK INTRA:                  -0.282
REMARK UNBOUND:                -0.160
REMARK SMILES [NH3+]CCCC[C@H]([NH3+])C(=O)[O-]
REMARK SMILES IDX 4 1 3 2 2 3 1 4 5 8 6 9 7 10 8 14 9 15 10 16
REMARK H PARENT 1 5 1 6 1 7 7 11 7 12 7 13
REMARK Flexibility Score: inf
ROOT
ATOM      1  C   UNL     1     110.883  -0.807  62.380  1.00  0.00     0.012 C 
ENDROOT
BRANCH   1   2
ATOM      2  C   UNL     1     111.064   0.120  61.168  1.00  0.00     0.061 C 
BRANCH   2   3
ATOM      3  C   UNL     1     112.544   0.329  60.800  1.00  0.00     0.258 C 
BRANCH   3   4
ATOM      4  N   UNL     1     112.800   0.081  59.380  1.00  0.00    -0.358 N 
ATOM      5  H   UNL     1     112.311  -0.789  59.067  1.00  0.00     0.344 HD
ATOM      6  H   UNL     1     112.436   0.889  58.824  1.00  0.00     0.344 HD
ATOM      7  H   UNL     1     113.827  -0.002  59.204  1.00  0.00     0.344 HD
ENDBRANCH   3   4
ENDBRANCH   2   3
ENDBRANCH   1   2
BRANCH   1   8
ATOM      8  C   UNL     1     112.162  -0.853  63.231  1.00  0.00     0.072 C 
BRANCH   8   9
ATOM      9  C   UNL     1     111.982  -0.185  64.612  1.00  0.00     0.227 C 
BRANCH   9  10
ATOM     10  N   UNL     1     110.638  -0.416  65.160  1.00  0.00    -0.350 N 
ATOM     11  H   UNL     1     110.685  -1.000  66.027  1.00  0.00     0.345 HD
ATOM     12  H   UNL     1     110.178   0.496  65.382  1.00  0.00     0.345 HD
ATOM     13  H   UNL     1     110.043  -0.904  64.452  1.00  0.00     0.345 HD
ENDBRANCH   9  10
BRANCH   9  14
ATOM     14  C   UNL     1     112.249   1.293  64.497  1.00  0.00     0.099 C 
ATOM     15  O   UNL     1     111.333   2.126  64.726  1.00  0.00    -0.544 OA
ATOM     16  O   UNL     1     113.505   1.744  64.117  1.00  0.00    -0.544 OA
ENDBRANCH   9  14
ENDBRANCH   8   9
ENDBRANCH   1   8
TORSDOF 7
ENDMDL
MODEL 8
REMARK VINA RESULT:    -3.720      2.395      4.600
REMARK INTER + INTRA:          -5.184
REMARK INTER:                  -4.668
REMARK INTRA:                  -0.516
REMARK UNBOUND:                -0.160
REMARK SMILES [NH3+]CCCC[C@H]([NH3+])C(=O)[O-]
REMARK SMILES IDX 4 1 3 2 2 3 1 4 5 8 6 9 7 10 8 14 9 15 10 16
REMARK H PARENT 1 5 1 6 1 7 7 11 7 12 7 13
REMARK Flexibility Score: inf
ROOT
ATOM      1  C   UNL     1     112.815   0.028  60.718  1.00  0.00     0.012 C 
ENDROOT
BRANCH   1   2
ATOM      2  C   UNL     1     114.122   0.206  61.506  1.00  0.00     0.061 C 
BRANCH   2   3
ATOM      3  C   UNL     1     114.406   1.678  61.853  1.00  0.00     0.258 C 
BRANCH   3   4
ATOM      4  N   UNL     1     114.712   1.860  63.274  1.00  0.00    -0.358 N 
ATOM      5  H   UNL     1     114.993   0.950  63.707  1.00  0.00     0.344 HD
ATOM      6  H   UNL     1     115.507   2.534  63.364  1.00  0.00     0.344 HD
ATOM      7  H   UNL     1     113.887   2.257  63.777  1.00  0.00     0.344 HD
ENDBRANCH   3   4
ENDBRANCH   2   3
ENDBRANCH   1   2
BRANCH   1   8
ATOM      8  C   UNL     1     111.594   0.291  61.613  1.00  0.00     0.072 C 
BRANCH   8   9
ATOM      9  C   UNL     1     111.503  -0.693  62.800  1.00  0.00     0.227 C 
BRANCH   9  10
ATOM     10  N   UNL     1     110.371  -1.621  62.656  1.00  0.00    -0.350 N 
ATOM     11  H   UNL     1     110.549  -2.308  61.887  1.00  0.00     0.345 HD
ATOM     12  H   UNL     1     110.212  -2.137  63.551  1.00  0.00     0.345 HD
ATOM     13  H   UNL     1     109.498  -1.087  62.441  1.00  0.00     0.345 HD
ENDBRANCH   9  10
BRANCH   9  14
ATOM     14  C   UNL     1     111.381   0.078  64.088  1.00  0.00     0.099 C 
ATOM     15  O   UNL     1     110.926  -0.477  65.123  1.00  0.00    -0.544 OA
ATOM     16  O   UNL     1     111.751   1.415  64.135  1.00  0.00    -0.544 OA
ENDBRANCH   9  14
ENDBRANCH   8   9
ENDBRANCH   1   8
TORSDOF 7
ENDMDL
MODEL 9
REMARK VINA RESULT:    -3.651      2.278      4.228
REMARK INTER + INTRA:          -5.091
REMARK INTER:                  -4.693
REMARK INTRA:                  -0.398
REMARK UNBOUND:                -0.160
REMARK SMILES [NH3+]CCCC[C@H]([NH3+])C(=O)[O-]
REMARK SMILES IDX 4 1 3 2 2 3 1 4 5 8 6 9 7 10 8 14 9 15 10 16
REMARK H PARENT 1 5 1 6 1 7 7 11 7 12 7 13
REMARK Flexibility Score: inf
ROOT
ATOM      1  C   UNL     1     113.215   0.539  62.840  1.00  0.00     0.012 C 
ENDROOT
BRANCH   1   2
ATOM      2  C   UNL     1     114.400   0.400  61.871  1.00  0.00     0.061 C 
BRANCH   2   3
ATOM      3  C   UNL     1     113.951   0.124  60.425  1.00  0.00     0.258 C 
BRANCH   3   4
ATOM      4  N   UNL     1     113.119   1.203  59.890  1.00  0.00    -0.358 N 
ATOM      5  H   UNL     1     112.150   1.144  60.278  1.00  0.00     0.344 HD
ATOM      6  H   UNL     1     113.537   2.121  60.167  1.00  0.00     0.344 HD
ATOM      7  H   UNL     1     113.091   1.158  58.846  1.00  0.00     0.344 HD
ENDBRANCH   3   4
ENDBRANCH   2   3
ENDBRANCH   1   2
BRANCH   1   8
ATOM      8  C   UNL     1     112.463  -0.794  62.981  1.00  0.00     0.072 C 
BRANCH   8   9
ATOM      9  C   UNL     1     110.941  -0.602  63.162  1.00  0.00     0.227 C 
BRANCH   9  10
ATOM     10  N   UNL     1     110.193  -1.824  62.833  1.00  0.00    -0.350 N 
ATOM     11  H   UNL     1     110.814  -2.527  62.369  1.00  0.00     0.345 HD
ATOM     12  H   UNL     1     109.786  -2.241  63.701  1.00  0.00     0.345 HD
ATOM     13  H   UNL     1     109.399  -1.594  62.192  1.00  0.00     0.345 HD
ENDBRANCH   9  10
BRANCH   9  14
ATOM     14  C   UNL     1     110.470   0.542  62.304  1.00  0.00     0.099 C 
ATOM     15  O   UNL     1     110.080   1.617  62.831  1.00  0.00    -0.544 OA
ATOM     16  O   UNL     1     110.444   0.408  60.922  1.00  0.00    -0.544 OA
ENDBRANCH   9  14
ENDBRANCH   8   9
ENDBRANCH   1   8
TORSDOF 7
ENDMDL
