MODEL 1
REMARK VINA RESULT:    -2.933      0.000      0.000
REMARK INTER + INTRA:          -6.174
REMARK INTER:                  -5.505
REMARK INTRA:                  -0.669
REMARK UNBOUND:                -0.669
REMARK SMILES O=C([O-])CCCCCCCCCCCCCCC(=O)[O-]
REMARK SMILES IDX 10 1 9 2 8 3 7 4 6 5 5 6 4 7 2 8 1 9 3 10 11 11 12 12 13 13
REMARK SMILES IDX 14 14 15 15 16 16 17 17 18 18 19 19 20 20
REMARK H PARENT
REMARK Flexibility Score: inf
ROOT
ATOM      1  C   UNL     1      32.482  36.944   2.228  1.00  0.00     0.000 C 
ENDROOT
BRANCH   1   2
ATOM      2  C   UNL     1      33.291  36.050   1.269  1.00  0.00     0.000 C 
BRANCH   2   3
ATOM      3  C   UNL     1      32.693  35.886  -0.141  1.00  0.00     0.000 C 
BRANCH   3   4
ATOM      4  C   UNL     1      33.590  36.460  -1.248  1.00  0.00     0.000 C 
BRANCH   4   5
ATOM      5  C   UNL     1      34.184  37.814  -0.831  1.00  0.00     0.000 C 
BRANCH   5   6
ATOM      6  C   UNL     1      34.278  38.801  -2.013  1.00  0.00     0.006 C 
BRANCH   6   7
ATOM      7  C   UNL     1      33.031  38.802  -2.913  1.00  0.00     0.053 C 
BRANCH   7   8
ATOM      8  C   UNL     1      33.347  38.442  -4.332  1.00  0.00     0.041 C 
ATOM      9  O   UNL     1      34.428  38.821  -4.857  1.00  0.00    -0.550 OA
ATOM     10  O   UNL     1      32.460  37.664  -5.067  1.00  0.00    -0.550 OA
ENDBRANCH   7   8
ENDBRANCH   6   7
ENDBRANCH   5   6
ENDBRANCH   4   5
ENDBRANCH   3   4
ENDBRANCH   2   3
ENDBRANCH   1   2
BRANCH   1  11
ATOM     11  C   UNL     1      32.998  38.390   2.287  1.00  0.00     0.000 C 
BRANCH  11  12
ATOM     12  C   UNL     1      34.530  38.427   2.258  1.00  0.00     0.000 C 
BRANCH  12  13
ATOM     13  C   UNL     1      35.111  38.138   3.650  1.00  0.00     0.000 C 
BRANCH  13  14
ATOM     14  C   UNL     1      34.555  39.074   4.738  1.00  0.00     0.000 C 
BRANCH  14  15
ATOM     15  C   UNL     1      33.843  38.365   5.910  1.00  0.00     0.000 C 
BRANCH  15  16
ATOM     16  C   UNL     1      33.888  39.117   7.256  1.00  0.00     0.006 C 
BRANCH  16  17
ATOM     17  C   UNL     1      34.467  38.299   8.419  1.00  0.00     0.053 C 
BRANCH  17  18
ATOM     18  C   UNL     1      34.042  38.840   9.750  1.00  0.00     0.041 C 
ATOM     19  O   UNL     1      34.904  39.123  10.623  1.00  0.00    -0.550 OA
ATOM     20  O   UNL     1      32.697  39.066  10.013  1.00  0.00    -0.550 OA
ENDBRANCH  17  18
ENDBRANCH  16  17
ENDBRANCH  15  16
ENDBRANCH  14  15
ENDBRANCH  13  14
ENDBRANCH  12  13
ENDBRANCH  11  12
ENDBRANCH   1  11
TORSDOF 15
ENDMDL
MODEL 2
REMARK VINA RESULT:    -2.436      1.179      9.769
REMARK INTER + INTRA:          -5.241
REMARK INTER:                  -4.830
REMARK INTRA:                  -0.411
REMARK UNBOUND:                -0.669
REMARK SMILES O=C([O-])CCCCCCCCCCCCCCC(=O)[O-]
REMARK SMILES IDX 10 1 9 2 8 3 7 4 6 5 5 6 4 7 2 8 1 9 3 10 11 11 12 12 13 13
REMARK SMILES IDX 14 14 15 15 16 16 17 17 18 18 19 19 20 20
REMARK H PARENT
REMARK Flexibility Score: inf
ROOT
ATOM      1  C   UNL     1      32.827  36.207   2.319  1.00  0.00     0.000 C 
ENDROOT
BRANCH   1   2
ATOM      2  C   UNL     1      33.351  37.391   3.154  1.00  0.00     0.000 C 
BRANCH   2   3
ATOM      3  C   UNL     1      34.831  37.296   3.574  1.00  0.00     0.000 C 
BRANCH   3   4
ATOM      4  C   UNL     1      35.096  37.852   4.981  1.00  0.00     0.000 C 
BRANCH   4   5
ATOM      5  C   UNL     1      34.265  39.117   5.241  1.00  0.00     0.000 C 
BRANCH   5   6
ATOM      6  C   UNL     1      33.424  39.011   6.530  1.00  0.00     0.006 C 
BRANCH   6   7
ATOM      7  C   UNL     1      34.196  38.416   7.720  1.00  0.00     0.053 C 
BRANCH   7   8
ATOM      8  C   UNL     1      33.478  38.600   9.021  1.00  0.00     0.041 C 
ATOM      9  O   UNL     1      34.126  38.682  10.097  1.00  0.00    -0.550 OA
ATOM     10  O   UNL     1      32.092  38.707   9.042  1.00  0.00    -0.550 OA
ENDBRANCH   7   8
ENDBRANCH   6   7
ENDBRANCH   5   6
ENDBRANCH   4   5
ENDBRANCH   3   4
ENDBRANCH   2   3
ENDBRANCH   1   2
BRANCH   1  11
ATOM     11  C   UNL     1      33.130  36.342   0.820  1.00  0.00     0.000 C 
BRANCH  11  12
ATOM     12  C   UNL     1      33.464  37.794   0.457  1.00  0.00     0.000 C 
BRANCH  12  13
ATOM     13  C   UNL     1      34.909  37.911  -0.051  1.00  0.00     0.000 C 
BRANCH  13  14
ATOM     14  C   UNL     1      35.124  39.125  -0.972  1.00  0.00     0.000 C 
BRANCH  14  15
ATOM     15  C   UNL     1      34.813  38.879  -2.464  1.00  0.00     0.000 C 
BRANCH  15  16
ATOM     16  C   UNL     1      33.319  38.934  -2.841  1.00  0.00     0.006 C 
BRANCH  16  17
ATOM     17  C   UNL     1      32.553  37.628  -2.586  1.00  0.00     0.053 C 
BRANCH  17  18
ATOM     18  C   UNL     1      32.250  36.898  -3.858  1.00  0.00     0.041 C 
ATOM     19  O   UNL     1      31.596  35.822  -3.831  1.00  0.00    -0.550 OA
ATOM     20  O   UNL     1      32.659  37.423  -5.076  1.00  0.00    -0.550 OA
ENDBRANCH  17  18
ENDBRANCH  16  17
ENDBRANCH  15  16
ENDBRANCH  14  15
ENDBRANCH  13  14
ENDBRANCH  12  13
ENDBRANCH  11  12
ENDBRANCH   1  11
TORSDOF 15
ENDMDL
MODEL 3
REMARK VINA RESULT:    -0.607      1.297      2.039
REMARK INTER + INTRA:          -1.808
REMARK INTER:                  -0.825
REMARK INTRA:                  -0.983
REMARK UNBOUND:                -0.669
REMARK SMILES O=C([O-])CCCCCCCCCCCCCCC(=O)[O-]
REMARK SMILES IDX 10 1 9 2 8 3 7 4 6 5 5 6 4 7 2 8 1 9 3 10 11 11 12 12 13 13
REMARK SMILES IDX 14 14 15 15 16 16 17 17 18 18 19 19 20 20
REMARK H PARENT
REMARK Flexibility Score: inf
ROOT
ATOM      1  C   UNL     1      32.135  35.025   1.373  1.00  0.00     0.000 C 
ENDROOT
BRANCH   1   2
ATOM      2  C   UNL     1      32.087  35.161  -0.161  1.00  0.00     0.000 C 
BRANCH   2   3
ATOM      3  C   UNL     1      33.335  35.795  -0.805  1.00  0.00     0.000 C 
BRANCH   3   4
ATOM      4  C   UNL     1      33.339  37.329  -0.731  1.00  0.00     0.000 C 
BRANCH   4   5
ATOM      5  C   UNL     1      34.613  37.908  -1.364  1.00  0.00     0.000 C 
BRANCH   5   6
ATOM      6  C   UNL     1      34.317  39.123  -2.269  1.00  0.00     0.006 C 
BRANCH   6   7
ATOM      7  C   UNL     1      33.070  38.943  -3.150  1.00  0.00     0.053 C 
BRANCH   7   8
ATOM      8  C   UNL     1      33.397  38.390  -4.503  1.00  0.00     0.041 C 
ATOM      9  O   UNL     1      32.581  37.632  -5.093  1.00  0.00    -0.550 OA
ATOM     10  O   UNL     1      34.591  38.732  -5.125  1.00  0.00    -0.550 OA
ENDBRANCH   7   8
ENDBRANCH   6   7
ENDBRANCH   5   6
ENDBRANCH   4   5
ENDBRANCH   3   4
ENDBRANCH   2   3
ENDBRANCH   1   2
BRANCH   1  11
ATOM     11  C   UNL     1      31.801  36.332   2.107  1.00  0.00     0.000 C 
BRANCH  11  12
ATOM     12  C   UNL     1      32.779  36.577   3.262  1.00  0.00     0.000 C 
BRANCH  12  13
ATOM     13  C   UNL     1      34.199  36.827   2.733  1.00  0.00     0.000 C 
BRANCH  13  14
ATOM     14  C   UNL     1      34.491  38.316   2.480  1.00  0.00     0.000 C 
BRANCH  14  15
ATOM     15  C   UNL     1      34.932  39.118   3.723  1.00  0.00     0.000 C 
BRANCH  15  16
ATOM     16  C   UNL     1      35.094  38.290   5.014  1.00  0.00     0.006 C 
BRANCH  16  17
ATOM     17  C   UNL     1      35.096  39.123   6.304  1.00  0.00     0.053 C 
BRANCH  17  18
ATOM     18  C   UNL     1      34.391  38.422   7.424  1.00  0.00     0.041 C 
ATOM     19  O   UNL     1      35.047  37.748   8.261  1.00  0.00    -0.550 OA
ATOM     20  O   UNL     1      33.015  38.543   7.566  1.00  0.00    -0.550 OA
ENDBRANCH  17  18
ENDBRANCH  16  17
ENDBRANCH  15  16
ENDBRANCH  14  15
ENDBRANCH  13  14
ENDBRANCH  12  13
ENDBRANCH  11  12
ENDBRANCH   1  11
TORSDOF 15
ENDMDL
MODEL 4
REMARK VINA RESULT:    -0.250      2.074      8.606
REMARK INTER + INTRA:          -1.137
REMARK INTER:                  -1.017
REMARK INTRA:                  -0.121
REMARK UNBOUND:                -0.669
REMARK SMILES O=C([O-])CCCCCCCCCCCCCCC(=O)[O-]
REMARK SMILES IDX 10 1 9 2 8 3 7 4 6 5 5 6 4 7 2 8 1 9 3 10 11 11 12 12 13 13
REMARK SMILES IDX 14 14 15 15 16 16 17 17 18 18 19 19 20 20
REMARK H PARENT
REMARK Flexibility Score: inf
ROOT
ATOM      1  C   UNL     1      32.897  35.353   2.259  1.00  0.00     0.000 C 
ENDROOT
BRANCH   1   2
ATOM      2  C   UNL     1      34.276  35.273   2.941  1.00  0.00     0.000 C 
BRANCH   2   3
ATOM      3  C   UNL     1      35.124  36.558   2.865  1.00  0.00     0.000 C 
BRANCH   3   4
ATOM      4  C   UNL     1      34.319  37.831   3.166  1.00  0.00     0.000 C 
BRANCH   4   5
ATOM      5  C   UNL     1      34.998  38.667   4.261  1.00  0.00     0.000 C 
BRANCH   5   6
ATOM      6  C   UNL     1      34.015  39.084   5.375  1.00  0.00     0.006 C 
BRANCH   6   7
ATOM      7  C   UNL     1      33.793  37.994   6.438  1.00  0.00     0.053 C 
BRANCH   7   8
ATOM      8  C   UNL     1      33.986  38.504   7.832  1.00  0.00     0.041 C 
ATOM      9  O   UNL     1      35.110  38.408   8.392  1.00  0.00    -0.550 OA
ATOM     10  O   UNL     1      32.931  39.110   8.505  1.00  0.00    -0.550 OA
ENDBRANCH   7   8
ENDBRANCH   6   7
ENDBRANCH   5   6
ENDBRANCH   4   5
ENDBRANCH   3   4
ENDBRANCH   2   3
ENDBRANCH   1   2
BRANCH   1  11
ATOM     11  C   UNL     1      32.877  34.728   0.857  1.00  0.00     0.000 C 
BRANCH  11  12
ATOM     12  C   UNL     1      32.373  35.733  -0.185  1.00  0.00     0.000 C 
BRANCH  12  13
ATOM     13  C   UNL     1      32.513  35.166  -1.605  1.00  0.00     0.000 C 
BRANCH  13  14
ATOM     14  C   UNL     1      32.067  36.158  -2.693  1.00  0.00     0.000 C 
BRANCH  14  15
ATOM     15  C   UNL     1      33.156  37.143  -3.168  1.00  0.00     0.000 C 
BRANCH  15  16
ATOM     16  C   UNL     1      32.961  38.605  -2.714  1.00  0.00     0.006 C 
BRANCH  16  17
ATOM     17  C   UNL     1      34.046  39.120  -1.757  1.00  0.00     0.053 C 
BRANCH  17  18
ATOM     18  C   UNL     1      34.125  38.298  -0.507  1.00  0.00     0.041 C 
ATOM     19  O   UNL     1      35.125  37.562  -0.296  1.00  0.00    -0.550 OA
ATOM     20  O   UNL     1      33.113  38.373   0.441  1.00  0.00    -0.550 OA
ENDBRANCH  17  18
ENDBRANCH  16  17
ENDBRANCH  15  16
ENDBRANCH  14  15
ENDBRANCH  13  14
ENDBRANCH  12  13
ENDBRANCH  11  12
ENDBRANCH   1  11
TORSDOF 15
ENDMDL
