MODEL 1
REMARK VINA RESULT:    -4.194      0.000      0.000
REMARK INTER + INTRA:          -4.194
REMARK INTER:                  -4.194
REMARK INTRA:                   0.000
REMARK UNBOUND:                 0.000
REMARK SMILES C=C1CCC[C@]2(C)Cc3occ(C)c3C[C@@H]12
REMARK SMILES IDX 13 1 12 2 11 3 10 4 9 5 14 6 15 7 16 8 2 9 1 10 3 11 4 12
REMARK SMILES IDX 5 13 6 14 8 15 7 16
REMARK H PARENT
REMARK Flexibility Score: inf
ROOT
ATOM      1  C   UNL     1      51.572  38.232 123.570  1.00  0.00     0.048 C 
ATOM      2  C   UNL     1      52.955  37.669 123.531  1.00  0.00    -0.009 A 
ATOM      3  C   UNL     1      53.309  36.334 123.624  1.00  0.00     0.198 A 
ATOM      4  O   UNL     1      54.621  36.225 123.667  1.00  0.00    -0.469 OA
ATOM      5  C   UNL     1      55.137  37.432 123.624  1.00  0.00     0.107 A 
ATOM      6  C   UNL     1      54.141  38.373 123.524  1.00  0.00    -0.003 A 
ATOM      7  C   UNL     1      54.366  39.853 123.589  1.00  0.00     0.048 C 
ATOM      8  C   UNL     1      55.855  40.189 123.292  1.00  0.00     0.025 C 
ATOM      9  C   UNL     1      56.237  41.655 123.493  1.00  0.00    -0.073 C 
ATOM     10  C   UNL     1      55.347  42.629 123.763  1.00  0.00     0.008 C 
ATOM     11  C   UNL     1      57.677  42.025 123.221  1.00  0.00     0.031 C 
ATOM     12  C   UNL     1      58.632  41.097 123.977  1.00  0.00     0.005 C 
ATOM     13  C   UNL     1      58.310  39.617 123.715  1.00  0.00     0.008 C 
ATOM     14  C   UNL     1      56.841  39.244 124.074  1.00  0.00    -0.019 C 
ATOM     15  C   UNL     1      56.598  37.763 123.646  1.00  0.00     0.083 C 
ATOM     16  C   UNL     1      56.635  39.362 125.610  1.00  0.00     0.012 C 
ENDROOT
TORSDOF 0
ENDMDL
MODEL 2
REMARK VINA RESULT:    -4.122      1.892      3.182
REMARK INTER + INTRA:          -4.122
REMARK INTER:                  -4.122
REMARK INTRA:                   0.000
REMARK UNBOUND:                 0.000
REMARK SMILES C=C1CCC[C@]2(C)Cc3occ(C)c3C[C@@H]12
REMARK SMILES IDX 13 1 12 2 11 3 10 4 9 5 14 6 15 7 16 8 2 9 1 10 3 11 4 12
REMARK SMILES IDX 5 13 6 14 8 15 7 16
REMARK H PARENT
REMARK Flexibility Score: inf
ROOT
ATOM      1  C   UNL     1      49.176  39.612 122.903  1.00  0.00     0.048 C 
ATOM      2  C   UNL     1      49.993  38.367 123.024  1.00  0.00    -0.009 A 
ATOM      3  C   UNL     1      49.521  37.082 123.231  1.00  0.00     0.198 A 
ATOM      4  O   UNL     1      50.536  36.259 123.401  1.00  0.00    -0.469 OA
ATOM      5  C   UNL     1      51.647  36.955 123.329  1.00  0.00     0.107 A 
ATOM      6  C   UNL     1      51.368  38.276 123.081  1.00  0.00    -0.003 A 
ATOM      7  C   UNL     1      52.392  39.371 123.075  1.00  0.00     0.048 C 
ATOM      8  C   UNL     1      53.818  38.778 122.894  1.00  0.00     0.025 C 
ATOM      9  C   UNL     1      54.958  39.786 123.038  1.00  0.00    -0.073 C 
ATOM     10  C   UNL     1      54.769  41.114 123.165  1.00  0.00     0.008 C 
ATOM     11  C   UNL     1      56.363  39.252 122.875  1.00  0.00     0.031 C 
ATOM     12  C   UNL     1      56.590  38.031 123.771  1.00  0.00     0.005 C 
ATOM     13  C   UNL     1      55.493  36.972 123.573  1.00  0.00     0.008 C 
ATOM     14  C   UNL     1      54.061  37.529 123.820  1.00  0.00    -0.019 C 
ATOM     15  C   UNL     1      53.036  36.406 123.464  1.00  0.00     0.083 C 
ATOM     16  C   UNL     1      53.897  37.898 125.320  1.00  0.00     0.012 C 
ENDROOT
TORSDOF 0
ENDMDL
MODEL 3
REMARK VINA RESULT:    -4.084     12.082     14.145
REMARK INTER + INTRA:          -4.084
REMARK INTER:                  -4.084
REMARK INTRA:                   0.000
REMARK UNBOUND:                 0.000
REMARK SMILES C=C1CCC[C@]2(C)Cc3occ(C)c3C[C@@H]12
REMARK SMILES IDX 13 1 12 2 11 3 10 4 9 5 14 6 15 7 16 8 2 9 1 10 3 11 4 12
REMARK SMILES IDX 5 13 6 14 8 15 7 16
REMARK H PARENT
REMARK Flexibility Score: inf
ROOT
ATOM      1  C   UNL     1      49.164  37.755 137.903  1.00  0.00     0.048 C 
ATOM      2  C   UNL     1      48.876  37.140 136.572  1.00  0.00    -0.009 A 
ATOM      3  C   UNL     1      49.528  36.063 135.999  1.00  0.00     0.198 A 
ATOM      4  O   UNL     1      49.081  35.875 134.774  1.00  0.00    -0.469 OA
ATOM      5  C   UNL     1      48.178  36.793 134.519  1.00  0.00     0.107 A 
ATOM      6  C   UNL     1      47.999  37.603 135.613  1.00  0.00    -0.003 A 
ATOM      7  C   UNL     1      47.145  38.835 135.625  1.00  0.00     0.048 C 
ATOM      8  C   UNL     1      46.134  38.804 134.444  1.00  0.00     0.025 C 
ATOM      9  C   UNL     1      45.322  40.086 134.257  1.00  0.00    -0.073 C 
ATOM     10  C   UNL     1      45.352  41.121 135.118  1.00  0.00     0.008 C 
ATOM     11  C   UNL     1      44.330  40.102 133.116  1.00  0.00     0.031 C 
ATOM     12  C   UNL     1      44.997  39.675 131.806  1.00  0.00     0.005 C 
ATOM     13  C   UNL     1      45.748  38.343 131.960  1.00  0.00     0.008 C 
ATOM     14  C   UNL     1      46.816  38.376 133.092  1.00  0.00    -0.019 C 
ATOM     15  C   UNL     1      47.414  36.941 133.238  1.00  0.00     0.083 C 
ATOM     16  C   UNL     1      47.958  39.355 132.702  1.00  0.00     0.012 C 
ENDROOT
TORSDOF 0
ENDMDL
MODEL 4
REMARK VINA RESULT:    -4.036     12.873     14.095
REMARK INTER + INTRA:          -4.036
REMARK INTER:                  -4.036
REMARK INTRA:                   0.000
REMARK UNBOUND:                 0.000
REMARK SMILES C=C1CCC[C@]2(C)Cc3occ(C)c3C[C@@H]12
REMARK SMILES IDX 13 1 12 2 11 3 10 4 9 5 14 6 15 7 16 8 2 9 1 10 3 11 4 12
REMARK SMILES IDX 5 13 6 14 8 15 7 16
REMARK H PARENT
REMARK Flexibility Score: inf
ROOT
ATOM      1  C   UNL     1      48.221  43.074 135.035  1.00  0.00     0.048 C 
ATOM      2  C   UNL     1      47.570  41.729 135.033  1.00  0.00    -0.009 A 
ATOM      3  C   UNL     1      46.211  41.466 135.018  1.00  0.00     0.198 A 
ATOM      4  O   UNL     1      46.009  40.170 135.139  1.00  0.00    -0.469 OA
ATOM      5  C   UNL     1      47.177  39.579 135.249  1.00  0.00     0.107 A 
ATOM      6  C   UNL     1      48.188  40.505 135.175  1.00  0.00    -0.003 A 
ATOM      7  C   UNL     1      49.637  40.195 135.401  1.00  0.00     0.048 C 
ATOM      8  C   UNL     1      49.897  38.670 135.239  1.00  0.00     0.025 C 
ATOM      9  C   UNL     1      51.308  38.214 135.608  1.00  0.00    -0.073 C 
ATOM     10  C   UNL     1      52.311  39.061 135.912  1.00  0.00     0.008 C 
ATOM     11  C   UNL     1      51.603  36.738 135.471  1.00  0.00     0.031 C 
ATOM     12  C   UNL     1      50.545  35.900 136.194  1.00  0.00     0.005 C 
ATOM     13  C   UNL     1      49.122  36.293 135.767  1.00  0.00     0.008 C 
ATOM     14  C   UNL     1      48.818  37.804 135.989  1.00  0.00    -0.019 C 
ATOM     15  C   UNL     1      47.403  38.106 135.402  1.00  0.00     0.083 C 
ATOM     16  C   UNL     1      48.805  38.115 137.511  1.00  0.00     0.012 C 
ENDROOT
TORSDOF 0
ENDMDL
MODEL 5
REMARK VINA RESULT:    -4.033     12.176     13.862
REMARK INTER + INTRA:          -4.033
REMARK INTER:                  -4.033
REMARK INTRA:                   0.000
REMARK UNBOUND:                 0.000
REMARK SMILES C=C1CCC[C@]2(C)Cc3occ(C)c3C[C@@H]12
REMARK SMILES IDX 13 1 12 2 11 3 10 4 9 5 14 6 15 7 16 8 2 9 1 10 3 11 4 12
REMARK SMILES IDX 5 13 6 14 8 15 7 16
REMARK H PARENT
REMARK Flexibility Score: inf
ROOT
ATOM      1  C   UNL     1      47.637  37.935 131.014  1.00  0.00     0.048 C 
ATOM      2  C   UNL     1      47.142  38.333 132.366  1.00  0.00    -0.009 A 
ATOM      3  C   UNL     1      46.099  39.200 132.645  1.00  0.00     0.198 A 
ATOM      4  O   UNL     1      46.025  39.401 133.945  1.00  0.00    -0.469 OA
ATOM      5  C   UNL     1      46.984  38.716 134.523  1.00  0.00     0.107 A 
ATOM      6  C   UNL     1      47.705  38.018 133.586  1.00  0.00    -0.003 A 
ATOM      7  C   UNL     1      48.953  37.243 133.881  1.00  0.00     0.048 C 
ATOM      8  C   UNL     1      49.046  36.925 135.401  1.00  0.00     0.025 C 
ATOM      9  C   UNL     1      50.359  36.281 135.846  1.00  0.00    -0.073 C 
ATOM     10  C   UNL     1      51.318  35.875 134.992  1.00  0.00     0.008 C 
ATOM     11  C   UNL     1      50.494  35.960 137.317  1.00  0.00     0.031 C 
ATOM     12  C   UNL     1      50.161  37.183 138.176  1.00  0.00     0.005 C 
ATOM     13  C   UNL     1      48.801  37.790 137.793  1.00  0.00     0.008 C 
ATOM     14  C   UNL     1      48.713  38.181 136.289  1.00  0.00    -0.019 C 
ATOM     15  C   UNL     1      47.256  38.659 135.996  1.00  0.00     0.083 C 
ATOM     16  C   UNL     1      49.692  39.352 135.998  1.00  0.00     0.012 C 
ENDROOT
TORSDOF 0
ENDMDL
MODEL 6
REMARK VINA RESULT:    -3.950     12.508     14.132
REMARK INTER + INTRA:          -3.950
REMARK INTER:                  -3.950
REMARK INTRA:                   0.000
REMARK UNBOUND:                 0.000
REMARK SMILES C=C1CCC[C@]2(C)Cc3occ(C)c3C[C@@H]12
REMARK SMILES IDX 13 1 12 2 11 3 10 4 9 5 14 6 15 7 16 8 2 9 1 10 3 11 4 12
REMARK SMILES IDX 5 13 6 14 8 15 7 16
REMARK H PARENT
REMARK Flexibility Score: inf
ROOT
ATOM      1  C   UNL     1      53.767  37.272 136.440  1.00  0.00     0.048 C 
ATOM      2  C   UNL     1      52.395  37.030 136.979  1.00  0.00    -0.009 A 
ATOM      3  C   UNL     1      52.014  36.029 137.856  1.00  0.00     0.198 A 
ATOM      4  O   UNL     1      50.706  36.056 138.017  1.00  0.00    -0.469 OA
ATOM      5  C   UNL     1      50.218  37.019 137.271  1.00  0.00     0.107 A 
ATOM      6  C   UNL     1      51.231  37.671 136.610  1.00  0.00    -0.003 A 
ATOM      7  C   UNL     1      51.020  38.730 135.572  1.00  0.00     0.048 C 
ATOM      8  C   UNL     1      49.590  39.330 135.692  1.00  0.00     0.025 C 
ATOM      9  C   UNL     1      49.204  40.304 134.579  1.00  0.00    -0.073 C 
ATOM     10  C   UNL     1      50.063  40.741 133.637  1.00  0.00     0.008 C 
ATOM     11  C   UNL     1      47.820  40.907 134.653  1.00  0.00     0.031 C 
ATOM     12  C   UNL     1      46.758  39.817 134.826  1.00  0.00     0.005 C 
ATOM     13  C   UNL     1      47.093  38.881 135.998  1.00  0.00     0.008 C 
ATOM     14  C   UNL     1      48.493  38.214 135.860  1.00  0.00    -0.019 C 
ATOM     15  C   UNL     1      48.772  37.397 137.160  1.00  0.00     0.083 C 
ATOM     16  C   UNL     1      48.489  37.241 134.648  1.00  0.00     0.012 C 
ENDROOT
TORSDOF 0
ENDMDL
MODEL 7
REMARK VINA RESULT:    -3.948     12.624     14.295
REMARK INTER + INTRA:          -3.948
REMARK INTER:                  -3.948
REMARK INTRA:                   0.000
REMARK UNBOUND:                 0.000
REMARK SMILES C=C1CCC[C@]2(C)Cc3occ(C)c3C[C@@H]12
REMARK SMILES IDX 13 1 12 2 11 3 10 4 9 5 14 6 15 7 16 8 2 9 1 10 3 11 4 12
REMARK SMILES IDX 5 13 6 14 8 15 7 16
REMARK H PARENT
REMARK Flexibility Score: inf
ROOT
ATOM      1  C   UNL     1      55.257  36.737 135.630  1.00  0.00     0.048 C 
ATOM      2  C   UNL     1      54.261  36.669 136.741  1.00  0.00    -0.009 A 
ATOM      3  C   UNL     1      54.418  36.022 137.955  1.00  0.00     0.198 A 
ATOM      4  O   UNL     1      53.291  36.078 138.635  1.00  0.00    -0.469 OA
ATOM      5  C   UNL     1      52.403  36.718 137.910  1.00  0.00     0.107 A 
ATOM      6  C   UNL     1      52.959  37.123 136.722  1.00  0.00    -0.003 A 
ATOM      7  C   UNL     1      52.193  37.758 135.601  1.00  0.00     0.048 C 
ATOM      8  C   UNL     1      50.847  38.336 136.124  1.00  0.00     0.025 C 
ATOM      9  C   UNL     1      49.908  38.862 135.040  1.00  0.00    -0.073 C 
ATOM     10  C   UNL     1      50.250  38.966 133.741  1.00  0.00     0.008 C 
ATOM     11  C   UNL     1      48.584  39.428 135.503  1.00  0.00     0.031 C 
ATOM     12  C   UNL     1      47.863  38.444 136.428  1.00  0.00     0.005 C 
ATOM     13  C   UNL     1      48.774  37.972 137.573  1.00  0.00     0.008 C 
ATOM     14  C   UNL     1      50.097  37.325 137.068  1.00  0.00    -0.019 C 
ATOM     15  C   UNL     1      50.988  37.008 138.310  1.00  0.00     0.083 C 
ATOM     16  C   UNL     1      49.777  35.996 136.329  1.00  0.00     0.012 C 
ENDROOT
TORSDOF 0
ENDMDL
MODEL 8
REMARK VINA RESULT:    -3.827     12.740     13.911
REMARK INTER + INTRA:          -3.827
REMARK INTER:                  -3.827
REMARK INTRA:                   0.000
REMARK UNBOUND:                 0.000
REMARK SMILES C=C1CCC[C@]2(C)Cc3occ(C)c3C[C@@H]12
REMARK SMILES IDX 13 1 12 2 11 3 10 4 9 5 14 6 15 7 16 8 2 9 1 10 3 11 4 12
REMARK SMILES IDX 5 13 6 14 8 15 7 16
REMARK H PARENT
REMARK Flexibility Score: inf
ROOT
ATOM      1  C   UNL     1      43.942  40.752 134.688  1.00  0.00     0.048 C 
ATOM      2  C   UNL     1      44.739  39.504 134.492  1.00  0.00    -0.009 A 
ATOM      3  C   UNL     1      44.245  38.238 134.230  1.00  0.00     0.198 A 
ATOM      4  O   UNL     1      45.233  37.366 134.234  1.00  0.00    -0.469 OA
ATOM      5  C   UNL     1      46.347  38.007 134.504  1.00  0.00     0.107 A 
ATOM      6  C   UNL     1      46.099  39.349 134.661  1.00  0.00    -0.003 A 
ATOM      7  C   UNL     1      47.118  40.351 135.110  1.00  0.00     0.048 C 
ATOM      8  C   UNL     1      48.555  39.794 134.901  1.00  0.00     0.025 C 
ATOM      9  C   UNL     1      49.674  40.663 135.476  1.00  0.00    -0.073 C 
ATOM     10  C   UNL     1      49.474  41.888 135.997  1.00  0.00     0.008 C 
ATOM     11  C   UNL     1      51.087  40.156 135.300  1.00  0.00     0.031 C 
ATOM     12  C   UNL     1      51.211  38.707 135.780  1.00  0.00     0.005 C 
ATOM     13  C   UNL     1      50.142  37.805 135.142  1.00  0.00     0.008 C 
ATOM     14  C   UNL     1      48.691  38.308 135.401  1.00  0.00    -0.019 C 
ATOM     15  C   UNL     1      47.710  37.394 134.602  1.00  0.00     0.083 C 
ATOM     16  C   UNL     1      48.363  38.192 136.915  1.00  0.00     0.012 C 
ENDROOT
TORSDOF 0
ENDMDL
