MODEL 1
REMARK VINA RESULT:    -5.040      0.000      0.000
REMARK INTER + INTRA:          -5.869
REMARK INTER:                  -5.777
REMARK INTRA:                  -0.092
REMARK UNBOUND:                -0.092
REMARK SMILES COc1cc(C(=O)[O-])ccc1O
REMARK SMILES IDX 5 1 9 2 4 3 10 4 3 5 11 6 6 7 7 8 8 9 2 10 1 11 12 12
REMARK H PARENT 12 13
REMARK Flexibility Score: inf
ROOT
ATOM      1  C   UNL     1       3.259 -10.401  10.579  1.00  0.00     0.001 A 
ATOM      2  C   UNL     1       3.267 -10.772   9.224  1.00  0.00     0.014 A 
ATOM      3  C   UNL     1       2.089  -9.849  11.130  1.00  0.00     0.060 A 
ATOM      4  C   UNL     1       2.128 -10.594   8.437  1.00  0.00     0.051 A 
ATOM      5  C   UNL     1       0.936  -9.668  10.339  1.00  0.00     0.161 A 
ATOM      6  C   UNL     1       0.965 -10.047   8.985  1.00  0.00     0.157 A 
ENDROOT
BRANCH   1   7
ATOM      7  C   UNL     1       4.466 -10.588  11.417  1.00  0.00     0.072 C 
ATOM      8  O   UNL     1       5.362  -9.704  11.457  1.00  0.00    -0.545 OA
ATOM      9  O   UNL     1       4.627 -11.745  12.171  1.00  0.00    -0.545 OA
ENDBRANCH   1   7
BRANCH   5  10
ATOM     10  O   UNL     1      -0.245  -9.120  10.863  1.00  0.00    -0.493 OA
ATOM     11  C   UNL     1      -1.264  -9.868  11.519  1.00  0.00     0.278 C 
ENDBRANCH   5  10
BRANCH   6  12
ATOM     12  O   UNL     1      -0.152  -9.885   8.167  1.00  0.00    -0.504 OA
ATOM     13  H   UNL     1      -0.527 -10.643   7.609  1.00  0.00     0.293 HD
ENDBRANCH   6  12
TORSDOF 3
ENDMDL
MODEL 2
REMARK VINA RESULT:    -5.012      1.806      2.800
REMARK INTER + INTRA:          -5.837
REMARK INTER:                  -5.743
REMARK INTRA:                  -0.094
REMARK UNBOUND:                -0.092
REMARK SMILES COc1cc(C(=O)[O-])ccc1O
REMARK SMILES IDX 5 1 9 2 4 3 10 4 3 5 11 6 6 7 7 8 8 9 2 10 1 11 12 12
REMARK H PARENT 12 13
REMARK Flexibility Score: inf
ROOT
ATOM      1  C   UNL     1       2.141  -9.569  10.039  1.00  0.00     0.001 A 
ATOM      2  C   UNL     1       2.162  -8.431  10.862  1.00  0.00     0.014 A 
ATOM      3  C   UNL     1       0.922 -10.236   9.824  1.00  0.00     0.060 A 
ATOM      4  C   UNL     1       0.987  -7.969  11.458  1.00  0.00     0.051 A 
ATOM      5  C   UNL     1      -0.267  -9.773  10.423  1.00  0.00     0.161 A 
ATOM      6  C   UNL     1      -0.225  -8.631  11.243  1.00  0.00     0.157 A 
ENDROOT
BRANCH   1   7
ATOM      7  C   UNL     1       3.386 -10.061   9.406  1.00  0.00     0.072 C 
ATOM      8  O   UNL     1       4.508  -9.824   9.929  1.00  0.00    -0.545 OA
ATOM      9  O   UNL     1       3.335 -10.792   8.225  1.00  0.00    -0.545 OA
ENDBRANCH   1   7
BRANCH   5  10
ATOM     10  O   UNL     1      -1.498 -10.419  10.225  1.00  0.00    -0.493 OA
ATOM     11  C   UNL     1      -1.987 -11.491  11.024  1.00  0.00     0.278 C 
ENDBRANCH   5  10
BRANCH   6  12
ATOM     12  O   UNL     1      -1.378  -8.140  11.855  1.00  0.00    -0.504 OA
ATOM     13  H   UNL     1      -2.133  -7.722  11.325  1.00  0.00     0.293 HD
ENDBRANCH   6  12
TORSDOF 3
ENDMDL
MODEL 3
REMARK VINA RESULT:    -4.985      1.600      2.560
REMARK INTER + INTRA:          -5.805
REMARK INTER:                  -5.712
REMARK INTRA:                  -0.093
REMARK UNBOUND:                -0.092
REMARK SMILES COc1cc(C(=O)[O-])ccc1O
REMARK SMILES IDX 5 1 9 2 4 3 10 4 3 5 11 6 6 7 7 8 8 9 2 10 1 11 12 12
REMARK H PARENT 12 13
REMARK Flexibility Score: inf
ROOT
ATOM      1  C   UNL     1       3.004  -9.241  10.514  1.00  0.00     0.001 A 
ATOM      2  C   UNL     1       2.685  -8.055  11.196  1.00  0.00     0.014 A 
ATOM      3  C   UNL     1       1.968 -10.115  10.139  1.00  0.00     0.060 A 
ATOM      4  C   UNL     1       1.356  -7.750  11.497  1.00  0.00     0.051 A 
ATOM      5  C   UNL     1       0.625  -9.810  10.439  1.00  0.00     0.161 A 
ATOM      6  C   UNL     1       0.326  -8.618  11.123  1.00  0.00     0.157 A 
ENDROOT
BRANCH   1   7
ATOM      7  C   UNL     1       4.412  -9.568  10.194  1.00  0.00     0.072 C 
ATOM      8  O   UNL     1       4.833  -9.501   9.008  1.00  0.00    -0.545 OA
ATOM      9  O   UNL     1       5.292  -9.954  11.199  1.00  0.00    -0.545 OA
ENDBRANCH   1   7
BRANCH   5  10
ATOM     10  O   UNL     1      -0.429 -10.664  10.077  1.00  0.00    -0.493 OA
ATOM     11  C   UNL     1      -0.868 -10.888   8.741  1.00  0.00     0.278 C 
ENDBRANCH   5  10
BRANCH   6  12
ATOM     12  O   UNL     1      -0.988  -8.278  11.440  1.00  0.00    -0.504 OA
ATOM     13  H   UNL     1      -1.539  -7.655  10.862  1.00  0.00     0.293 HD
ENDBRANCH   6  12
TORSDOF 3
ENDMDL
MODEL 4
REMARK VINA RESULT:    -4.939      2.229      3.110
REMARK INTER + INTRA:          -5.752
REMARK INTER:                  -5.664
REMARK INTRA:                  -0.088
REMARK UNBOUND:                -0.092
REMARK SMILES COc1cc(C(=O)[O-])ccc1O
REMARK SMILES IDX 5 1 9 2 4 3 10 4 3 5 11 6 6 7 7 8 8 9 2 10 1 11 12 12
REMARK H PARENT 12 13
REMARK Flexibility Score: inf
ROOT
ATOM      1  C   UNL     1       3.220  -8.943  10.295  1.00  0.00     0.001 A 
ATOM      2  C   UNL     1       2.477  -9.751  11.172  1.00  0.00     0.014 A 
ATOM      3  C   UNL     1       2.626  -7.787   9.761  1.00  0.00     0.060 A 
ATOM      4  C   UNL     1       1.166  -9.409  11.507  1.00  0.00     0.051 A 
ATOM      5  C   UNL     1       1.302  -7.436  10.097  1.00  0.00     0.161 A 
ATOM      6  C   UNL     1       0.576  -8.258  10.977  1.00  0.00     0.157 A 
ENDROOT
BRANCH   1   7
ATOM      7  C   UNL     1       4.611  -9.305   9.938  1.00  0.00     0.072 C 
ATOM      8  O   UNL     1       5.414  -9.713  10.818  1.00  0.00    -0.545 OA
ATOM      9  O   UNL     1       5.051  -9.198   8.623  1.00  0.00    -0.545 OA
ENDBRANCH   1   7
BRANCH   5  10
ATOM     10  O   UNL     1       0.684  -6.287   9.578  1.00  0.00    -0.493 OA
ATOM     11  C   UNL     1       0.576  -5.981   8.192  1.00  0.00     0.278 C 
ENDBRANCH   5  10
BRANCH   6  12
ATOM     12  O   UNL     1      -0.736  -7.949  11.335  1.00  0.00    -0.504 OA
ATOM     13  H   UNL     1      -1.017  -7.011  11.596  1.00  0.00     0.293 HD
ENDBRANCH   6  12
TORSDOF 3
ENDMDL
MODEL 5
REMARK VINA RESULT:    -4.809      3.103      4.638
REMARK INTER + INTRA:          -5.604
REMARK INTER:                  -5.528
REMARK INTRA:                  -0.075
REMARK UNBOUND:                -0.092
REMARK SMILES COc1cc(C(=O)[O-])ccc1O
REMARK SMILES IDX 5 1 9 2 4 3 10 4 3 5 11 6 6 7 7 8 8 9 2 10 1 11 12 12
REMARK H PARENT 12 13
REMARK Flexibility Score: inf
ROOT
ATOM      1  C   UNL     1       2.604  -7.361   8.474  1.00  0.00     0.001 A 
ATOM      2  C   UNL     1       1.447  -6.682   8.890  1.00  0.00     0.014 A 
ATOM      3  C   UNL     1       3.214  -8.275   9.351  1.00  0.00     0.060 A 
ATOM      4  C   UNL     1       0.911  -6.913  10.158  1.00  0.00     0.051 A 
ATOM      5  C   UNL     1       2.676  -8.512  10.632  1.00  0.00     0.161 A 
ATOM      6  C   UNL     1       1.516  -7.822  11.029  1.00  0.00     0.157 A 
ENDROOT
BRANCH   1   7
ATOM      7  C   UNL     1       3.174  -7.118   7.129  1.00  0.00     0.072 C 
ATOM      8  O   UNL     1       4.061  -6.239   6.958  1.00  0.00    -0.545 OA
ATOM      9  O   UNL     1       2.739  -7.857   6.035  1.00  0.00    -0.545 OA
ENDBRANCH   1   7
BRANCH   5  10
ATOM     10  O   UNL     1       3.264  -9.419  11.528  1.00  0.00    -0.493 OA
ATOM     11  C   UNL     1       3.981 -10.587  11.144  1.00  0.00     0.278 C 
ENDBRANCH   5  10
BRANCH   6  12
ATOM     12  O   UNL     1       0.951  -8.026  12.288  1.00  0.00    -0.504 OA
ATOM     13  H   UNL     1       1.433  -8.534  13.020  1.00  0.00     0.293 HD
ENDBRANCH   6  12
TORSDOF 3
ENDMDL
MODEL 6
REMARK VINA RESULT:    -4.743      1.772      2.279
REMARK INTER + INTRA:          -5.528
REMARK INTER:                  -5.426
REMARK INTRA:                  -0.102
REMARK UNBOUND:                -0.092
REMARK SMILES COc1cc(C(=O)[O-])ccc1O
REMARK SMILES IDX 5 1 9 2 4 3 10 4 3 5 11 6 6 7 7 8 8 9 2 10 1 11 12 12
REMARK H PARENT 12 13
REMARK Flexibility Score: inf
ROOT
ATOM      1  C   UNL     1       4.491 -10.121  11.224  1.00  0.00     0.001 A 
ATOM      2  C   UNL     1       5.010  -9.146  10.356  1.00  0.00     0.014 A 
ATOM      3  C   UNL     1       3.109 -10.138  11.486  1.00  0.00     0.060 A 
ATOM      4  C   UNL     1       4.165  -8.208   9.761  1.00  0.00     0.051 A 
ATOM      5  C   UNL     1       2.251  -9.194  10.886  1.00  0.00     0.161 A 
ATOM      6  C   UNL     1       2.791  -8.227  10.020  1.00  0.00     0.157 A 
ENDROOT
BRANCH   1   7
ATOM      7  C   UNL     1       5.386 -11.116  11.857  1.00  0.00     0.072 C 
ATOM      8  O   UNL     1       4.914 -12.162  12.378  1.00  0.00    -0.545 OA
ATOM      9  O   UNL     1       6.761 -10.911  11.885  1.00  0.00    -0.545 OA
ENDBRANCH   1   7
BRANCH   5  10
ATOM     10  O   UNL     1       0.868  -9.188  11.129  1.00  0.00    -0.493 OA
ATOM     11  C   UNL     1      -0.077 -10.003  10.445  1.00  0.00     0.278 C 
ENDBRANCH   5  10
BRANCH   6  12
ATOM     12  O   UNL     1       1.979  -7.274   9.406  1.00  0.00    -0.504 OA
ATOM     13  H   UNL     1       2.098  -7.007   8.437  1.00  0.00     0.293 HD
ENDBRANCH   6  12
TORSDOF 3
ENDMDL
MODEL 7
REMARK VINA RESULT:    -4.685      2.637      3.635
REMARK INTER + INTRA:          -5.461
REMARK INTER:                  -5.364
REMARK INTRA:                  -0.097
REMARK UNBOUND:                -0.092
REMARK SMILES COc1cc(C(=O)[O-])ccc1O
REMARK SMILES IDX 5 1 9 2 4 3 10 4 3 5 11 6 6 7 7 8 8 9 2 10 1 11 12 12
REMARK H PARENT 12 13
REMARK Flexibility Score: inf
ROOT
ATOM      1  C   UNL     1       3.139  -8.662  10.583  1.00  0.00     0.001 A 
ATOM      2  C   UNL     1       2.066  -8.199  11.363  1.00  0.00     0.014 A 
ATOM      3  C   UNL     1       3.262  -8.216   9.256  1.00  0.00     0.060 A 
ATOM      4  C   UNL     1       1.136  -7.307  10.826  1.00  0.00     0.051 A 
ATOM      5  C   UNL     1       2.326  -7.315   8.709  1.00  0.00     0.161 A 
ATOM      6  C   UNL     1       1.260  -6.863   9.506  1.00  0.00     0.157 A 
ENDROOT
BRANCH   1   7
ATOM      7  C   UNL     1       4.127  -9.607  11.151  1.00  0.00     0.072 C 
ATOM      8  O   UNL     1       3.771 -10.753  11.534  1.00  0.00    -0.545 OA
ATOM      9  O   UNL     1       5.464  -9.243  11.269  1.00  0.00    -0.545 OA
ENDBRANCH   1   7
BRANCH   5  10
ATOM     10  O   UNL     1       2.425  -6.853   7.386  1.00  0.00    -0.493 OA
ATOM     11  C   UNL     1       2.057  -7.606   6.236  1.00  0.00     0.278 C 
ENDBRANCH   5  10
BRANCH   6  12
ATOM     12  O   UNL     1       0.311  -5.972   9.005  1.00  0.00    -0.504 OA
ATOM     13  H   UNL     1      -0.508  -5.701   9.536  1.00  0.00     0.293 HD
ENDBRANCH   6  12
TORSDOF 3
ENDMDL
MODEL 8
REMARK VINA RESULT:    -4.669      1.861      4.801
REMARK INTER + INTRA:          -5.443
REMARK INTER:                  -5.347
REMARK INTRA:                  -0.096
REMARK UNBOUND:                -0.092
REMARK SMILES COc1cc(C(=O)[O-])ccc1O
REMARK SMILES IDX 5 1 9 2 4 3 10 4 3 5 11 6 6 7 7 8 8 9 2 10 1 11 12 12
REMARK H PARENT 12 13
REMARK Flexibility Score: inf
ROOT
ATOM      1  C   UNL     1       0.285  -9.534  10.716  1.00  0.00     0.001 A 
ATOM      2  C   UNL     1       0.731  -8.417  11.441  1.00  0.00     0.014 A 
ATOM      3  C   UNL     1       1.205 -10.251   9.929  1.00  0.00     0.060 A 
ATOM      4  C   UNL     1       2.070  -8.025  11.380  1.00  0.00     0.051 A 
ATOM      5  C   UNL     1       2.557  -9.860   9.866  1.00  0.00     0.161 A 
ATOM      6  C   UNL     1       2.984  -8.738  10.600  1.00  0.00     0.157 A 
ENDROOT
BRANCH   1   7
ATOM      7  C   UNL     1      -1.134  -9.952  10.777  1.00  0.00     0.072 C 
ATOM      8  O   UNL     1      -1.665 -10.258  11.878  1.00  0.00    -0.545 OA
ATOM      9  O   UNL     1      -1.901 -10.013   9.619  1.00  0.00    -0.545 OA
ENDBRANCH   1   7
BRANCH   5  10
ATOM     10  O   UNL     1       3.497 -10.557   9.090  1.00  0.00    -0.493 OA
ATOM     11  C   UNL     1       3.713 -10.347   7.699  1.00  0.00     0.278 C 
ENDBRANCH   5  10
BRANCH   6  12
ATOM     12  O   UNL     1       4.312  -8.316  10.566  1.00  0.00    -0.504 OA
ATOM     13  H   UNL     1       4.932  -8.422  11.360  1.00  0.00     0.293 HD
ENDBRANCH   6  12
TORSDOF 3
ENDMDL
MODEL 9
REMARK VINA RESULT:    -4.654      1.632      4.559
REMARK INTER + INTRA:          -5.426
REMARK INTER:                  -5.350
REMARK INTRA:                  -0.075
REMARK UNBOUND:                -0.092
REMARK SMILES COc1cc(C(=O)[O-])ccc1O
REMARK SMILES IDX 5 1 9 2 4 3 10 4 3 5 11 6 6 7 7 8 8 9 2 10 1 11 12 12
REMARK H PARENT 12 13
REMARK Flexibility Score: inf
ROOT
ATOM      1  C   UNL     1       1.277  -9.173  10.329  1.00  0.00     0.001 A 
ATOM      2  C   UNL     1       1.584  -8.061   9.529  1.00  0.00     0.014 A 
ATOM      3  C   UNL     1       2.316  -9.843  10.998  1.00  0.00     0.060 A 
ATOM      4  C   UNL     1       2.905  -7.628   9.400  1.00  0.00     0.051 A 
ATOM      5  C   UNL     1       3.651  -9.409  10.872  1.00  0.00     0.161 A 
ATOM      6  C   UNL     1       3.938  -8.293  10.066  1.00  0.00     0.157 A 
ENDROOT
BRANCH   1   7
ATOM      7  C   UNL     1      -0.123  -9.635  10.467  1.00  0.00     0.072 C 
ATOM      8  O   UNL     1      -0.477 -10.755  10.011  1.00  0.00    -0.545 OA
ATOM      9  O   UNL     1      -1.069  -8.838  11.102  1.00  0.00    -0.545 OA
ENDBRANCH   1   7
BRANCH   5  10
ATOM     10  O   UNL     1       4.709 -10.059  11.529  1.00  0.00    -0.493 OA
ATOM     11  C   UNL     1       4.688 -11.420  11.946  1.00  0.00     0.278 C 
ENDBRANCH   5  10
BRANCH   6  12
ATOM     12  O   UNL     1       5.245  -7.830   9.914  1.00  0.00    -0.504 OA
ATOM     13  H   UNL     1       5.587  -7.011  10.402  1.00  0.00     0.293 HD
ENDBRANCH   6  12
TORSDOF 3
ENDMDL
