MODEL 1
REMARK VINA RESULT:    -3.465      0.000      0.000
REMARK INTER + INTRA:          -5.168
REMARK INTER:                  -4.681
REMARK INTRA:                  -0.487
REMARK UNBOUND:                -0.487
REMARK SMILES [NH3+]CCCC[C@H]([NH3+])C(=O)[O-]
REMARK SMILES IDX 4 1 3 2 2 3 1 4 5 8 6 9 7 10 8 14 9 15 10 16
REMARK H PARENT 1 5 1 6 1 7 7 11 7 12 7 13
REMARK Flexibility Score: inf
ROOT
ATOM      1  C   UNL     1      16.044  46.400  24.938  1.00  0.00     0.012 C 
ENDROOT
BRANCH   1   2
ATOM      2  C   UNL     1      16.027  44.861  24.967  1.00  0.00     0.061 C 
BRANCH   2   3
ATOM      3  C   UNL     1      15.992  44.289  26.393  1.00  0.00     0.258 C 
BRANCH   3   4
ATOM      4  N   UNL     1      17.189  43.495  26.665  1.00  0.00    -0.358 N 
ATOM      5  H   UNL     1      17.917  43.717  25.949  1.00  0.00     0.344 HD
ATOM      6  H   UNL     1      17.566  43.725  27.613  1.00  0.00     0.344 HD
ATOM      7  H   UNL     1      16.964  42.474  26.613  1.00  0.00     0.344 HD
ENDBRANCH   3   4
ENDBRANCH   2   3
ENDBRANCH   1   2
BRANCH   1   8
ATOM      8  C   UNL     1      17.447  47.039  24.875  1.00  0.00     0.072 C 
BRANCH   8   9
ATOM      9  C   UNL     1      17.920  47.708  26.187  1.00  0.00     0.227 C 
BRANCH   9  10
ATOM     10  N   UNL     1      18.253  49.125  25.986  1.00  0.00    -0.350 N 
ATOM     11  H   UNL     1      18.252  49.367  24.968  1.00  0.00     0.345 HD
ATOM     12  H   UNL     1      19.199  49.329  26.384  1.00  0.00     0.345 HD
ATOM     13  H   UNL     1      17.565  49.731  26.487  1.00  0.00     0.345 HD
ENDBRANCH   9  10
BRANCH   9  14
ATOM     14  C   UNL     1      19.117  46.966  26.719  1.00  0.00     0.099 C 
ATOM     15  O   UNL     1      19.987  47.573  27.398  1.00  0.00    -0.544 OA
ATOM     16  O   UNL     1      19.254  45.601  26.495  1.00  0.00    -0.544 OA
ENDBRANCH   9  14
ENDBRANCH   8   9
ENDBRANCH   1   8
TORSDOF 7
ENDMDL
MODEL 2
REMARK VINA RESULT:    -3.426     21.715     23.239
REMARK INTER + INTRA:          -5.115
REMARK INTER:                  -4.540
REMARK INTRA:                  -0.575
REMARK UNBOUND:                -0.487
REMARK SMILES [NH3+]CCCC[C@H]([NH3+])C(=O)[O-]
REMARK SMILES IDX 4 1 3 2 2 3 1 4 5 8 6 9 7 10 8 14 9 15 10 16
REMARK H PARENT 1 5 1 6 1 7 7 11 7 12 7 13
REMARK Flexibility Score: inf
ROOT
ATOM      1  C   UNL     1      18.480  31.249  44.882  1.00  0.00     0.012 C 
ENDROOT
BRANCH   1   2
ATOM      2  C   UNL     1      19.953  30.823  44.752  1.00  0.00     0.061 C 
BRANCH   2   3
ATOM      3  C   UNL     1      20.130  29.300  44.649  1.00  0.00     0.258 C 
BRANCH   3   4
ATOM      4  N   UNL     1      20.179  28.875  43.251  1.00  0.00    -0.358 N 
ATOM      5  H   UNL     1      19.293  29.161  42.775  1.00  0.00     0.344 HD
ATOM      6  H   UNL     1      20.985  29.329  42.764  1.00  0.00     0.344 HD
ATOM      7  H   UNL     1      20.272  27.834  43.194  1.00  0.00     0.344 HD
ENDBRANCH   3   4
ENDBRANCH   2   3
ENDBRANCH   1   2
BRANCH   1   8
ATOM      8  C   UNL     1      17.951  32.141  43.741  1.00  0.00     0.072 C 
BRANCH   8   9
ATOM      9  C   UNL     1      17.113  31.404  42.670  1.00  0.00     0.227 C 
BRANCH   9  10
ATOM     10  N   UNL     1      16.775  30.037  43.090  1.00  0.00    -0.350 N 
ATOM     11  H   UNL     1      15.771  29.823  42.887  1.00  0.00     0.345 HD
ATOM     12  H   UNL     1      16.947  29.927  44.116  1.00  0.00     0.345 HD
ATOM     13  H   UNL     1      17.384  29.347  42.594  1.00  0.00     0.345 HD
ENDBRANCH   9  10
BRANCH   9  14
ATOM     14  C   UNL     1      17.880  31.371  41.375  1.00  0.00     0.099 C 
ATOM     15  O   UNL     1      18.796  30.523  41.203  1.00  0.00    -0.544 OA
ATOM     16  O   UNL     1      17.561  32.251  40.348  1.00  0.00    -0.544 OA
ENDBRANCH   9  14
ENDBRANCH   8   9
ENDBRANCH   1   8
TORSDOF 7
ENDMDL
MODEL 3
REMARK VINA RESULT:    -3.419      2.534      4.009
REMARK INTER + INTRA:          -5.106
REMARK INTER:                  -4.550
REMARK INTRA:                  -0.556
REMARK UNBOUND:                -0.487
REMARK SMILES [NH3+]CCCC[C@H]([NH3+])C(=O)[O-]
REMARK SMILES IDX 4 1 3 2 2 3 1 4 5 8 6 9 7 10 8 14 9 15 10 16
REMARK H PARENT 1 5 1 6 1 7 7 11 7 12 7 13
REMARK Flexibility Score: inf
ROOT
ATOM      1  C   UNL     1      18.098  45.686  25.244  1.00  0.00     0.012 C 
ENDROOT
BRANCH   1   2
ATOM      2  C   UNL     1      18.941  45.820  26.525  1.00  0.00     0.061 C 
BRANCH   2   3
ATOM      3  C   UNL     1      19.089  47.275  26.996  1.00  0.00     0.258 C 
BRANCH   3   4
ATOM      4  N   UNL     1      17.866  48.034  26.734  1.00  0.00    -0.358 N 
ATOM      5  H   UNL     1      17.039  47.417  26.900  1.00  0.00     0.344 HD
ATOM      6  H   UNL     1      17.809  48.857  27.377  1.00  0.00     0.344 HD
ATOM      7  H   UNL     1      17.851  48.360  25.740  1.00  0.00     0.344 HD
ENDBRANCH   3   4
ENDBRANCH   2   3
ENDBRANCH   1   2
BRANCH   1   8
ATOM      8  C   UNL     1      17.014  44.590  25.284  1.00  0.00     0.072 C 
BRANCH   8   9
ATOM      9  C   UNL     1      15.579  45.099  25.560  1.00  0.00     0.227 C 
BRANCH   9  10
ATOM     10  N   UNL     1      15.313  46.372  24.875  1.00  0.00    -0.350 N 
ATOM     11  H   UNL     1      16.205  46.821  24.564  1.00  0.00     0.345 HD
ATOM     12  H   UNL     1      14.808  47.024  25.519  1.00  0.00     0.345 HD
ATOM     13  H   UNL     1      14.698  46.212  24.046  1.00  0.00     0.345 HD
ENDBRANCH   9  10
BRANCH   9  14
ATOM     14  C   UNL     1      15.386  45.260  27.044  1.00  0.00     0.099 C 
ATOM     15  O   UNL     1      15.185  44.250  27.770  1.00  0.00    -0.544 OA
ATOM     16  O   UNL     1      15.464  46.519  27.629  1.00  0.00    -0.544 OA
ENDBRANCH   9  14
ENDBRANCH   8   9
ENDBRANCH   1   8
TORSDOF 7
ENDMDL
MODEL 4
REMARK VINA RESULT:    -3.416     22.665     23.773
REMARK INTER + INTRA:          -5.101
REMARK INTER:                  -4.545
REMARK INTRA:                  -0.557
REMARK UNBOUND:                -0.487
REMARK SMILES [NH3+]CCCC[C@H]([NH3+])C(=O)[O-]
REMARK SMILES IDX 4 1 3 2 2 3 1 4 5 8 6 9 7 10 8 14 9 15 10 16
REMARK H PARENT 1 5 1 6 1 7 7 11 7 12 7 13
REMARK Flexibility Score: inf
ROOT
ATOM      1  C   UNL     1      20.772  31.443  43.387  1.00  0.00     0.012 C 
ENDROOT
BRANCH   1   2
ATOM      2  C   UNL     1      21.206  30.042  42.922  1.00  0.00     0.061 C 
BRANCH   2   3
ATOM      3  C   UNL     1      20.445  28.912  43.634  1.00  0.00     0.258 C 
BRANCH   3   4
ATOM      4  N   UNL     1      20.331  29.183  45.066  1.00  0.00    -0.358 N 
ATOM      5  H   UNL     1      19.980  30.158  45.203  1.00  0.00     0.344 HD
ATOM      6  H   UNL     1      19.656  28.515  45.506  1.00  0.00     0.344 HD
ATOM      7  H   UNL     1      21.267  29.093  45.525  1.00  0.00     0.344 HD
ENDBRANCH   3   4
ENDBRANCH   2   3
ENDBRANCH   1   2
BRANCH   1   8
ATOM      8  C   UNL     1      19.482  31.980  42.734  1.00  0.00     0.072 C 
BRANCH   8   9
ATOM      9  C   UNL     1      18.287  32.162  43.699  1.00  0.00     0.227 C 
BRANCH   9  10
ATOM     10  N   UNL     1      18.733  32.364  45.085  1.00  0.00    -0.350 N 
ATOM     11  H   UNL     1      19.592  31.801  45.285  1.00  0.00     0.345 HD
ATOM     12  H   UNL     1      17.975  32.080  45.748  1.00  0.00     0.345 HD
ATOM     13  H   UNL     1      18.935  33.376  45.254  1.00  0.00     0.345 HD
ENDBRANCH   9  10
BRANCH   9  14
ATOM     14  C   UNL     1      17.393  30.954  43.616  1.00  0.00     0.099 C 
ATOM     15  O   UNL     1      16.737  30.723  42.565  1.00  0.00    -0.544 OA
ATOM     16  O   UNL     1      17.312  30.066  44.682  1.00  0.00    -0.544 OA
ENDBRANCH   9  14
ENDBRANCH   8   9
ENDBRANCH   1   8
TORSDOF 7
ENDMDL
MODEL 5
REMARK VINA RESULT:    -3.396     22.712     23.709
REMARK INTER + INTRA:          -5.074
REMARK INTER:                  -4.544
REMARK INTRA:                  -0.530
REMARK UNBOUND:                -0.487
REMARK SMILES [NH3+]CCCC[C@H]([NH3+])C(=O)[O-]
REMARK SMILES IDX 4 1 3 2 2 3 1 4 5 8 6 9 7 10 8 14 9 15 10 16
REMARK H PARENT 1 5 1 6 1 7 7 11 7 12 7 13
REMARK Flexibility Score: inf
ROOT
ATOM      1  C   UNL     1      18.928  31.498  44.721  1.00  0.00     0.012 C 
ENDROOT
BRANCH   1   2
ATOM      2  C   UNL     1      17.586  30.861  45.123  1.00  0.00     0.061 C 
BRANCH   2   3
ATOM      3  C   UNL     1      16.765  30.380  43.915  1.00  0.00     0.258 C 
BRANCH   3   4
ATOM      4  N   UNL     1      16.898  31.308  42.793  1.00  0.00    -0.358 N 
ATOM      5  H   UNL     1      16.421  32.207  43.033  1.00  0.00     0.344 HD
ATOM      6  H   UNL     1      17.908  31.502  42.603  1.00  0.00     0.344 HD
ATOM      7  H   UNL     1      16.448  30.906  41.938  1.00  0.00     0.344 HD
ENDBRANCH   3   4
ENDBRANCH   2   3
ENDBRANCH   1   2
BRANCH   1   8
ATOM      8  C   UNL     1      20.147  30.554  44.783  1.00  0.00     0.072 C 
BRANCH   8   9
ATOM      9  C   UNL     1      20.359  29.676  43.528  1.00  0.00     0.227 C 
BRANCH   9  10
ATOM     10  N   UNL     1      21.587  28.875  43.625  1.00  0.00    -0.350 N 
ATOM     11  H   UNL     1      22.099  29.084  44.514  1.00  0.00     0.345 HD
ATOM     12  H   UNL     1      22.213  29.083  42.813  1.00  0.00     0.345 HD
ATOM     13  H   UNL     1      21.356  27.857  43.590  1.00  0.00     0.345 HD
ENDBRANCH   9  10
BRANCH   9  14
ATOM     14  C   UNL     1      20.412  30.557  42.308  1.00  0.00     0.099 C 
ATOM     15  O   UNL     1      21.368  31.362  42.151  1.00  0.00    -0.544 OA
ATOM     16  O   UNL     1      19.427  30.465  41.332  1.00  0.00    -0.544 OA
ENDBRANCH   9  14
ENDBRANCH   8   9
ENDBRANCH   1   8
TORSDOF 7
ENDMDL
MODEL 6
REMARK VINA RESULT:    -3.326     21.754     23.284
REMARK INTER + INTRA:          -4.979
REMARK INTER:                  -4.508
REMARK INTRA:                  -0.472
REMARK UNBOUND:                -0.487
REMARK SMILES [NH3+]CCCC[C@H]([NH3+])C(=O)[O-]
REMARK SMILES IDX 4 1 3 2 2 3 1 4 5 8 6 9 7 10 8 14 9 15 10 16
REMARK H PARENT 1 5 1 6 1 7 7 11 7 12 7 13
REMARK Flexibility Score: inf
ROOT
ATOM      1  C   UNL     1      17.516  30.500  42.722  1.00  0.00     0.012 C 
ENDROOT
BRANCH   1   2
ATOM      2  C   UNL     1      16.935  31.750  42.036  1.00  0.00     0.061 C 
BRANCH   2   3
ATOM      3  C   UNL     1      17.916  32.402  41.049  1.00  0.00     0.258 C 
BRANCH   3   4
ATOM      4  N   UNL     1      19.172  32.746  41.714  1.00  0.00    -0.358 N 
ATOM      5  H   UNL     1      19.446  31.965  42.353  1.00  0.00     0.344 HD
ATOM      6  H   UNL     1      19.929  32.883  41.005  1.00  0.00     0.344 HD
ATOM      7  H   UNL     1      19.053  33.618  42.279  1.00  0.00     0.344 HD
ENDBRANCH   3   4
ENDBRANCH   2   3
ENDBRANCH   1   2
BRANCH   1   8
ATOM      8  C   UNL     1      17.288  30.423  44.246  1.00  0.00     0.072 C 
BRANCH   8   9
ATOM      9  C   UNL     1      18.459  30.948  45.109  1.00  0.00     0.227 C 
BRANCH   9  10
ATOM     10  N   UNL     1      18.508  32.416  45.123  1.00  0.00    -0.350 N 
ATOM     11  H   UNL     1      17.801  32.819  44.466  1.00  0.00     0.345 HD
ATOM     12  H   UNL     1      19.462  32.744  44.842  1.00  0.00     0.345 HD
ATOM     13  H   UNL     1      18.327  32.773  46.089  1.00  0.00     0.345 HD
ENDBRANCH   9  10
BRANCH   9  14
ATOM     14  C   UNL     1      19.755  30.393  44.579  1.00  0.00     0.099 C 
ATOM     15  O   UNL     1      20.047  29.181  44.764  1.00  0.00    -0.544 OA
ATOM     16  O   UNL     1      20.620  31.202  43.853  1.00  0.00    -0.544 OA
ENDBRANCH   9  14
ENDBRANCH   8   9
ENDBRANCH   1   8
TORSDOF 7
ENDMDL
MODEL 7
REMARK VINA RESULT:    -3.311      2.245      2.392
REMARK INTER + INTRA:          -4.960
REMARK INTER:                  -4.444
REMARK INTRA:                  -0.516
REMARK UNBOUND:                -0.487
REMARK SMILES [NH3+]CCCC[C@H]([NH3+])C(=O)[O-]
REMARK SMILES IDX 4 1 3 2 2 3 1 4 5 8 6 9 7 10 8 14 9 15 10 16
REMARK H PARENT 1 5 1 6 1 7 7 11 7 12 7 13
REMARK Flexibility Score: inf
ROOT
ATOM      1  C   UNL     1      16.758  45.307  24.875  1.00  0.00     0.012 C 
ENDROOT
BRANCH   1   2
ATOM      2  C   UNL     1      15.345  44.831  25.259  1.00  0.00     0.061 C 
BRANCH   2   3
ATOM      3  C   UNL     1      15.047  44.988  26.758  1.00  0.00     0.258 C 
BRANCH   3   4
ATOM      4  N   UNL     1      14.725  46.378  27.082  1.00  0.00    -0.358 N 
ATOM      5  H   UNL     1      13.783  46.414  27.536  1.00  0.00     0.344 HD
ATOM      6  H   UNL     1      15.435  46.767  27.744  1.00  0.00     0.344 HD
ATOM      7  H   UNL     1      14.701  46.954  26.209  1.00  0.00     0.344 HD
ENDBRANCH   3   4
ENDBRANCH   2   3
ENDBRANCH   1   2
BRANCH   1   8
ATOM      8  C   UNL     1      17.860  44.986  25.905  1.00  0.00     0.072 C 
BRANCH   8   9
ATOM      9  C   UNL     1      18.902  46.109  26.117  1.00  0.00     0.227 C 
BRANCH   9  10
ATOM     10  N   UNL     1      19.995  45.678  27.001  1.00  0.00    -0.350 N 
ATOM     11  H   UNL     1      19.618  45.289  27.896  1.00  0.00     0.345 HD
ATOM     12  H   UNL     1      20.620  46.489  27.217  1.00  0.00     0.345 HD
ATOM     13  H   UNL     1      20.577  44.952  26.525  1.00  0.00     0.345 HD
ENDBRANCH   9  10
BRANCH   9  14
ATOM     14  C   UNL     1      18.218  47.319  26.696  1.00  0.00     0.099 C 
ATOM     15  O   UNL     1      18.258  48.421  26.086  1.00  0.00    -0.544 OA
ATOM     16  O   UNL     1      17.508  47.221  27.886  1.00  0.00    -0.544 OA
ENDBRANCH   9  14
ENDBRANCH   8   9
ENDBRANCH   1   8
TORSDOF 7
ENDMDL
MODEL 8
REMARK VINA RESULT:    -3.307     21.602     23.086
REMARK INTER + INTRA:          -4.955
REMARK INTER:                  -4.692
REMARK INTRA:                  -0.262
REMARK UNBOUND:                -0.487
REMARK SMILES [NH3+]CCCC[C@H]([NH3+])C(=O)[O-]
REMARK SMILES IDX 4 1 3 2 2 3 1 4 5 8 6 9 7 10 8 14 9 15 10 16
REMARK H PARENT 1 5 1 6 1 7 7 11 7 12 7 13
REMARK Flexibility Score: inf
ROOT
ATOM      1  C   UNL     1      18.755  31.300  44.895  1.00  0.00     0.012 C 
ENDROOT
BRANCH   1   2
ATOM      2  C   UNL     1      20.186  30.750  44.755  1.00  0.00     0.061 C 
BRANCH   2   3
ATOM      3  C   UNL     1      20.221  29.254  44.402  1.00  0.00     0.258 C 
BRANCH   3   4
ATOM      4  N   UNL     1      21.399  28.938  43.593  1.00  0.00    -0.358 N 
ATOM      5  H   UNL     1      21.213  28.067  43.045  1.00  0.00     0.344 HD
ATOM      6  H   UNL     1      21.600  29.720  42.929  1.00  0.00     0.344 HD
ATOM      7  H   UNL     1      22.227  28.777  44.212  1.00  0.00     0.344 HD
ENDBRANCH   3   4
ENDBRANCH   2   3
ENDBRANCH   1   2
BRANCH   1   8
ATOM      8  C   UNL     1      18.480  32.612  44.134  1.00  0.00     0.072 C 
BRANCH   8   9
ATOM      9  C   UNL     1      18.601  32.513  42.595  1.00  0.00     0.227 C 
BRANCH   9  10
ATOM     10  N   UNL     1      18.226  33.773  41.938  1.00  0.00    -0.350 N 
ATOM     11  H   UNL     1      17.398  34.206  42.408  1.00  0.00     0.345 HD
ATOM     12  H   UNL     1      17.994  33.595  40.933  1.00  0.00     0.345 HD
ATOM     13  H   UNL     1      19.027  34.443  41.960  1.00  0.00     0.345 HD
ENDBRANCH   9  10
BRANCH   9  14
ATOM     14  C   UNL     1      17.728  31.391  42.099  1.00  0.00     0.099 C 
ATOM     15  O   UNL     1      16.474  31.497  42.147  1.00  0.00    -0.544 OA
ATOM     16  O   UNL     1      18.298  30.247  41.554  1.00  0.00    -0.544 OA
ENDBRANCH   9  14
ENDBRANCH   8   9
ENDBRANCH   1   8
TORSDOF 7
ENDMDL
MODEL 9
REMARK VINA RESULT:    -3.263     21.133     22.707
REMARK INTER + INTRA:          -4.895
REMARK INTER:                  -4.354
REMARK INTRA:                  -0.541
REMARK UNBOUND:                -0.487
REMARK SMILES [NH3+]CCCC[C@H]([NH3+])C(=O)[O-]
REMARK SMILES IDX 4 1 3 2 2 3 1 4 5 8 6 9 7 10 8 14 9 15 10 16
REMARK H PARENT 1 5 1 6 1 7 7 11 7 12 7 13
REMARK Flexibility Score: inf
ROOT
ATOM      1  C   UNL     1      17.361  30.366  43.386  1.00  0.00     0.012 C 
ENDROOT
BRANCH   1   2
ATOM      2  C   UNL     1      18.044  30.422  44.765  1.00  0.00     0.061 C 
BRANCH   2   3
ATOM      3  C   UNL     1      19.487  29.894  44.741  1.00  0.00     0.258 C 
BRANCH   3   4
ATOM      4  N   UNL     1      20.443  30.984  44.930  1.00  0.00    -0.358 N 
ATOM      5  H   UNL     1      20.382  31.638  44.116  1.00  0.00     0.344 HD
ATOM      6  H   UNL     1      20.219  31.512  45.804  1.00  0.00     0.344 HD
ATOM      7  H   UNL     1      21.416  30.604  44.985  1.00  0.00     0.344 HD
ENDBRANCH   3   4
ENDBRANCH   2   3
ENDBRANCH   1   2
BRANCH   1   8
ATOM      8  C   UNL     1      18.295  30.031  42.205  1.00  0.00     0.072 C 
BRANCH   8   9
ATOM      9  C   UNL     1      18.384  31.123  41.113  1.00  0.00     0.227 C 
BRANCH   9  10
ATOM     10  N   UNL     1      19.269  30.720  40.011  1.00  0.00    -0.350 N 
ATOM     11  H   UNL     1      20.266  30.945  40.233  1.00  0.00     0.345 HD
ATOM     12  H   UNL     1      18.993  31.217  39.133  1.00  0.00     0.345 HD
ATOM     13  H   UNL     1      19.176  29.694  39.833  1.00  0.00     0.345 HD
ENDBRANCH   9  10
BRANCH   9  14
ATOM     14  C   UNL     1      18.879  32.404  41.731  1.00  0.00     0.099 C 
ATOM     15  O   UNL     1      18.137  33.422  41.759  1.00  0.00    -0.544 OA
ATOM     16  O   UNL     1      20.143  32.463  42.305  1.00  0.00    -0.544 OA
ENDBRANCH   9  14
ENDBRANCH   8   9
ENDBRANCH   1   8
TORSDOF 7
ENDMDL
