MODEL 1
REMARK VINA RESULT:    -8.959      0.000      0.000
REMARK INTER + INTRA:         -13.915
REMARK INTER:                 -12.101
REMARK INTRA:                  -1.814
REMARK UNBOUND:                -1.814
REMARK SMILES CC[C@H](CC[C@H](C)[C@H]1CC[C@@H]2[C@H]3CC(=O)C4=CC(=O)CC[C@@]4(C)[C@H]3CC[C@@]21C)C(C)C
REMARK SMILES IDX 4 1 3 2 2 3 1 4 29 5 30 6 31 7 5 8 6 9 7 10 8 11 9 12 27 13
REMARK SMILES IDX 10 14 11 15 26 16 28 17 12 18 25 19 24 20 13 21 22 22 14 23
REMARK SMILES IDX 16 24 21 25 23 26 15 27 17 28 20 29 18 30 19 31
REMARK H PARENT
REMARK Flexibility Score: inf
ROOT
ATOM      1  C   UNL     1      29.388  54.727  11.767  1.00  0.00     0.004 C 
ENDROOT
BRANCH   1   2
ATOM      2  C   UNL     1      28.692  55.820  10.897  1.00  0.00    -0.009 C 
BRANCH   2   3
ATOM      3  C   UNL     1      27.247  56.120  11.381  1.00  0.00     0.000 C 
ATOM      4  C   UNL     1      26.194  55.963  10.279  1.00  0.00     0.004 C 
ENDBRANCH   2   3
BRANCH   2   5
ATOM      5  C   UNL     1      29.554  57.112  10.673  1.00  0.00    -0.014 C 
ATOM      6  C   UNL     1      31.060  56.801  10.633  1.00  0.00     0.007 C 
ATOM      7  C   UNL     1      29.279  58.241  11.678  1.00  0.00     0.007 C 
ENDBRANCH   2   5
ENDBRANCH   1   2
BRANCH   1   8
ATOM      8  C   UNL     1      29.732  53.405  11.035  1.00  0.00     0.004 C 
BRANCH   8   9
ATOM      9  C   UNL     1      28.612  52.340  11.181  1.00  0.00    -0.011 C 
ATOM     10  C   UNL     1      28.007  51.961   9.817  1.00  0.00     0.008 C 
BRANCH   9  11
ATOM     11  C   UNL     1      27.500  52.634  12.248  1.00  0.00    -0.002 C 
ATOM     12  C   UNL     1      26.077  52.522  11.697  1.00  0.00     0.005 C 
ATOM     13  C   UNL     1      27.483  51.950  13.679  1.00  0.00    -0.026 C 
ATOM     14  C   UNL     1      25.203  52.550  12.932  1.00  0.00     0.005 C 
ATOM     15  C   UNL     1      25.956  51.684  13.938  1.00  0.00    -0.001 C 
ATOM     16  C   UNL     1      28.126  52.927  14.717  1.00  0.00     0.007 C 
ATOM     17  C   UNL     1      28.234  50.597  13.740  1.00  0.00     0.012 C 
ATOM     18  C   UNL     1      25.403  51.838  15.391  1.00  0.00     0.004 C 
ATOM     19  C   UNL     1      27.614  52.776  16.149  1.00  0.00     0.005 C 
ATOM     20  C   UNL     1      26.081  52.983  16.190  1.00  0.00     0.003 C 
ATOM     21  C   UNL     1      25.453  50.491  16.149  1.00  0.00     0.085 C 
ATOM     22  C   UNL     1      25.449  53.169  17.634  1.00  0.00    -0.000 C 
ATOM     23  C   UNL     1      25.004  50.607  17.571  1.00  0.00     0.159 C 
ATOM     24  C   UNL     1      25.278  51.834  18.357  1.00  0.00     0.005 C 
ATOM     25  C   UNL     1      26.321  54.124  18.517  1.00  0.00     0.020 C 
ATOM     26  C   UNL     1      24.038  53.803  17.476  1.00  0.00     0.017 C 
ATOM     27  O   UNL     1      24.456  49.610  18.117  1.00  0.00    -0.295 OA
ATOM     28  C   UNL     1      25.225  51.784  19.704  1.00  0.00     0.055 C 
ATOM     29  C   UNL     1      25.763  54.309  19.933  1.00  0.00     0.081 C 
ATOM     30  C   UNL     1      25.439  52.978  20.545  1.00  0.00     0.156 C 
ATOM     31  O   UNL     1      25.323  52.884  21.796  1.00  0.00    -0.295 OA
ENDBRANCH   9  11
ENDBRANCH   8   9
ENDBRANCH   1   8
TORSDOF 6
ENDMDL
MODEL 2
REMARK VINA RESULT:    -8.951      3.775      8.211
REMARK INTER + INTRA:         -13.904
REMARK INTER:                 -12.099
REMARK INTRA:                  -1.805
REMARK UNBOUND:                -1.814
REMARK SMILES CC[C@H](CC[C@H](C)[C@H]1CC[C@@H]2[C@H]3CC(=O)C4=CC(=O)CC[C@@]4(C)[C@H]3CC[C@@]21C)C(C)C
REMARK SMILES IDX 4 1 3 2 2 3 1 4 29 5 30 6 31 7 5 8 6 9 7 10 8 11 9 12 27 13
REMARK SMILES IDX 10 14 11 15 26 16 28 17 12 18 25 19 24 20 13 21 22 22 14 23
REMARK SMILES IDX 16 24 21 25 23 26 15 27 17 28 20 29 18 30 19 31
REMARK H PARENT
REMARK Flexibility Score: inf
ROOT
ATOM      1  C   UNL     1      29.395  51.324  15.857  1.00  0.00     0.004 C 
ENDROOT
BRANCH   1   2
ATOM      2  C   UNL     1      28.789  50.189  16.741  1.00  0.00    -0.009 C 
BRANCH   2   3
ATOM      3  C   UNL     1      27.326  49.854  16.342  1.00  0.00     0.000 C 
ATOM      4  C   UNL     1      26.299  50.271  17.399  1.00  0.00     0.004 C 
ENDBRANCH   2   3
BRANCH   2   5
ATOM      5  C   UNL     1      29.703  48.920  16.877  1.00  0.00    -0.014 C 
ATOM      6  C   UNL     1      31.197  49.273  16.784  1.00  0.00     0.007 C 
ATOM      7  C   UNL     1      29.370  47.789  15.893  1.00  0.00     0.007 C 
ENDBRANCH   2   5
ENDBRANCH   1   2
BRANCH   1   8
ATOM      8  C   UNL     1      29.785  52.622  16.607  1.00  0.00     0.004 C 
BRANCH   8   9
ATOM      9  C   UNL     1      28.701  53.726  16.481  1.00  0.00    -0.011 C 
ATOM     10  C   UNL     1      28.149  54.140  17.857  1.00  0.00     0.008 C 
BRANCH   9  11
ATOM     11  C   UNL     1      27.550  53.464  15.448  1.00  0.00    -0.002 C 
ATOM     12  C   UNL     1      26.148  53.652  16.032  1.00  0.00     0.005 C 
ATOM     13  C   UNL     1      27.527  54.121  14.004  1.00  0.00    -0.026 C 
ATOM     14  C   UNL     1      25.243  53.642  14.820  1.00  0.00     0.005 C 
ATOM     15  C   UNL     1      26.008  54.452  13.778  1.00  0.00    -0.001 C 
ATOM     16  C   UNL     1      28.099  53.095  12.971  1.00  0.00     0.007 C 
ATOM     17  C   UNL     1      28.338  55.436  13.896  1.00  0.00     0.012 C 
ATOM     18  C   UNL     1      25.411  54.296  12.342  1.00  0.00     0.004 C 
ATOM     19  C   UNL     1      27.557  53.242  11.549  1.00  0.00     0.005 C 
ATOM     20  C   UNL     1      26.016  53.105  11.551  1.00  0.00     0.003 C 
ATOM     21  C   UNL     1      25.504  55.624  11.556  1.00  0.00     0.085 C 
ATOM     22  C   UNL     1      25.339  52.921  10.127  1.00  0.00    -0.000 C 
ATOM     23  C   UNL     1      25.013  55.502  10.148  1.00  0.00     0.159 C 
ATOM     24  C   UNL     1      25.210  54.248   9.381  1.00  0.00     0.005 C 
ATOM     25  C   UNL     1      26.142  51.910   9.242  1.00  0.00     0.020 C 
ATOM     26  C   UNL     1      23.904  52.356  10.333  1.00  0.00     0.017 C 
ATOM     27  O   UNL     1      24.497  56.512   9.596  1.00  0.00    -0.295 OA
ATOM     28  C   UNL     1      25.125  54.275   8.035  1.00  0.00     0.055 C 
ATOM     29  C   UNL     1      25.540  51.724   7.844  1.00  0.00     0.081 C 
ATOM     30  C   UNL     1      25.262  53.057   7.214  1.00  0.00     0.156 C 
ATOM     31  O   UNL     1      25.118  53.132   5.964  1.00  0.00    -0.295 OA
ENDBRANCH   9  11
ENDBRANCH   8   9
ENDBRANCH   1   8
TORSDOF 6
ENDMDL
MODEL 3
REMARK VINA RESULT:    -8.494      3.817      8.229
REMARK INTER + INTRA:         -13.288
REMARK INTER:                 -11.702
REMARK INTRA:                  -1.586
REMARK UNBOUND:                -1.814
REMARK SMILES CC[C@H](CC[C@H](C)[C@H]1CC[C@@H]2[C@H]3CC(=O)C4=CC(=O)CC[C@@]4(C)[C@H]3CC[C@@]21C)C(C)C
REMARK SMILES IDX 4 1 3 2 2 3 1 4 29 5 30 6 31 7 5 8 6 9 7 10 8 11 9 12 27 13
REMARK SMILES IDX 10 14 11 15 26 16 28 17 12 18 25 19 24 20 13 21 22 22 14 23
REMARK SMILES IDX 16 24 21 25 23 26 15 27 17 28 20 29 18 30 19 31
REMARK H PARENT
REMARK Flexibility Score: inf
ROOT
ATOM      1  C   UNL     1      27.255  49.388  16.209  1.00  0.00     0.004 C 
ENDROOT
BRANCH   1   2
ATOM      2  C   UNL     1      28.670  48.815  16.530  1.00  0.00    -0.009 C 
BRANCH   2   3
ATOM      3  C   UNL     1      29.093  47.706  15.528  1.00  0.00     0.000 C 
ATOM      4  C   UNL     1      28.260  47.702  14.243  1.00  0.00     0.004 C 
ENDBRANCH   2   3
BRANCH   2   5
ATOM      5  C   UNL     1      29.774  49.909  16.750  1.00  0.00    -0.014 C 
ATOM      6  C   UNL     1      29.830  50.914  15.587  1.00  0.00     0.007 C 
ATOM      7  C   UNL     1      31.177  49.349  17.028  1.00  0.00     0.007 C 
ENDBRANCH   2   5
ENDBRANCH   1   2
BRANCH   1   8
ATOM      8  C   UNL     1      26.580  50.189  17.351  1.00  0.00     0.004 C 
BRANCH   8   9
ATOM      9  C   UNL     1      26.476  51.704  17.029  1.00  0.00    -0.011 C 
ATOM     10  C   UNL     1      26.156  52.532  18.287  1.00  0.00     0.008 C 
BRANCH   9  11
ATOM     11  C   UNL     1      25.558  52.102  15.822  1.00  0.00    -0.002 C 
ATOM     12  C   UNL     1      24.387  53.006  16.214  1.00  0.00     0.005 C 
ATOM     13  C   UNL     1      26.133  52.678  14.460  1.00  0.00    -0.026 C 
ATOM     14  C   UNL     1      23.836  53.487  14.890  1.00  0.00     0.005 C 
ATOM     15  C   UNL     1      25.079  53.770  14.051  1.00  0.00    -0.001 C 
ATOM     16  C   UNL     1      26.249  51.512  13.424  1.00  0.00     0.007 C 
ATOM     17  C   UNL     1      27.517  53.358  14.597  1.00  0.00     0.012 C 
ATOM     18  C   UNL     1      24.748  53.965  12.537  1.00  0.00     0.004 C 
ATOM     19  C   UNL     1      26.120  51.933  11.961  1.00  0.00     0.005 C 
ATOM     20  C   UNL     1      24.763  52.640  11.728  1.00  0.00     0.003 C 
ATOM     21  C   UNL     1      25.658  55.043  11.905  1.00  0.00     0.085 C 
ATOM     22  C   UNL     1      24.348  52.853  10.212  1.00  0.00    -0.000 C 
ATOM     23  C   UNL     1      25.428  55.209  10.435  1.00  0.00     0.159 C 
ATOM     24  C   UNL     1      25.066  54.049   9.587  1.00  0.00     0.005 C 
ATOM     25  C   UNL     1      24.640  51.574   9.357  1.00  0.00     0.020 C 
ATOM     26  C   UNL     1      22.821  53.140  10.154  1.00  0.00     0.017 C 
ATOM     27  O   UNL     1      25.623  56.342   9.916  1.00  0.00    -0.295 OA
ATOM     28  C   UNL     1      25.242  54.123   8.251  1.00  0.00     0.055 C 
ATOM     29  C   UNL     1      24.282  51.746   7.876  1.00  0.00     0.081 C 
ATOM     30  C   UNL     1      24.858  53.025   7.344  1.00  0.00     0.156 C 
ATOM     31  O   UNL     1      24.994  53.173   6.100  1.00  0.00    -0.295 OA
ENDBRANCH   9  11
ENDBRANCH   8   9
ENDBRANCH   1   8
TORSDOF 6
ENDMDL
MODEL 4
REMARK VINA RESULT:    -8.485      1.356      2.168
REMARK INTER + INTRA:         -13.274
REMARK INTER:                 -11.920
REMARK INTRA:                  -1.355
REMARK UNBOUND:                -1.814
REMARK SMILES CC[C@H](CC[C@H](C)[C@H]1CC[C@@H]2[C@H]3CC(=O)C4=CC(=O)CC[C@@]4(C)[C@H]3CC[C@@]21C)C(C)C
REMARK SMILES IDX 4 1 3 2 2 3 1 4 29 5 30 6 31 7 5 8 6 9 7 10 8 11 9 12 27 13
REMARK SMILES IDX 10 14 11 15 26 16 28 17 12 18 25 19 24 20 13 21 22 22 14 23
REMARK SMILES IDX 16 24 21 25 23 26 15 27 17 28 20 29 18 30 19 31
REMARK H PARENT
REMARK Flexibility Score: inf
ROOT
ATOM      1  C   UNL     1      27.425  56.654  11.636  1.00  0.00     0.004 C 
ENDROOT
BRANCH   1   2
ATOM      2  C   UNL     1      28.658  57.450  11.106  1.00  0.00    -0.009 C 
BRANCH   2   3
ATOM      3  C   UNL     1      29.078  58.591  12.072  1.00  0.00     0.000 C 
ATOM      4  C   UNL     1      28.309  58.576  13.397  1.00  0.00     0.004 C 
ENDBRANCH   2   3
BRANCH   2   5
ATOM      5  C   UNL     1      29.860  56.548  10.649  1.00  0.00    -0.014 C 
ATOM      6  C   UNL     1      29.744  55.115  11.194  1.00  0.00     0.007 C 
ATOM      7  C   UNL     1      31.245  57.124  10.975  1.00  0.00     0.007 C 
ENDBRANCH   2   5
ENDBRANCH   1   2
BRANCH   1   8
ATOM      8  C   UNL     1      26.444  56.138  10.554  1.00  0.00     0.004 C 
BRANCH   8   9
ATOM      9  C   UNL     1      26.211  54.606  10.650  1.00  0.00    -0.011 C 
ATOM     10  C   UNL     1      25.714  54.022   9.315  1.00  0.00     0.008 C 
BRANCH   9  11
ATOM     11  C   UNL     1      25.350  54.102  11.860  1.00  0.00    -0.002 C 
ATOM     12  C   UNL     1      24.224  53.148  11.456  1.00  0.00     0.005 C 
ATOM     13  C   UNL     1      25.994  53.503  13.180  1.00  0.00    -0.026 C 
ATOM     14  C   UNL     1      23.737  52.578  12.771  1.00  0.00     0.005 C 
ATOM     15  C   UNL     1      25.017  52.334  13.565  1.00  0.00    -0.001 C 
ATOM     16  C   UNL     1      26.070  54.628  14.264  1.00  0.00     0.007 C 
ATOM     17  C   UNL     1      27.411  52.913  12.979  1.00  0.00     0.012 C 
ATOM     18  C   UNL     1      24.739  52.054  15.077  1.00  0.00     0.004 C 
ATOM     19  C   UNL     1      26.006  54.137  15.710  1.00  0.00     0.005 C 
ATOM     20  C   UNL     1      24.699  53.341  15.943  1.00  0.00     0.003 C 
ATOM     21  C   UNL     1      25.726  51.005  15.637  1.00  0.00     0.085 C 
ATOM     22  C   UNL     1      24.338  53.038  17.459  1.00  0.00    -0.000 C 
ATOM     23  C   UNL     1      25.546  50.762  17.103  1.00  0.00     0.159 C 
ATOM     24  C   UNL     1      25.141  51.861  18.011  1.00  0.00     0.005 C 
ATOM     25  C   UNL     1      24.579  54.294  18.362  1.00  0.00     0.020 C 
ATOM     26  C   UNL     1      22.832  52.659  17.541  1.00  0.00     0.017 C 
ATOM     27  O   UNL     1      25.822  49.621  17.566  1.00  0.00    -0.295 OA
ATOM     28  C   UNL     1      25.357  51.739  19.337  1.00  0.00     0.055 C 
ATOM     29  C   UNL     1      24.271  54.037  19.843  1.00  0.00     0.081 C 
ATOM     30  C   UNL     1      24.935  52.773  20.302  1.00  0.00     0.156 C 
ATOM     31  O   UNL     1      25.112  52.579  21.535  1.00  0.00    -0.295 OA
ENDBRANCH   9  11
ENDBRANCH   8   9
ENDBRANCH   1   8
TORSDOF 6
ENDMDL
MODEL 5
REMARK VINA RESULT:    -8.168      2.363      4.138
REMARK INTER + INTRA:         -12.846
REMARK INTER:                 -11.638
REMARK INTRA:                  -1.209
REMARK UNBOUND:                -1.814
REMARK SMILES CC[C@H](CC[C@H](C)[C@H]1CC[C@@H]2[C@H]3CC(=O)C4=CC(=O)CC[C@@]4(C)[C@H]3CC[C@@]21C)C(C)C
REMARK SMILES IDX 4 1 3 2 2 3 1 4 29 5 30 6 31 7 5 8 6 9 7 10 8 11 9 12 27 13
REMARK SMILES IDX 10 14 11 15 26 16 28 17 12 18 25 19 24 20 13 21 22 22 14 23
REMARK SMILES IDX 16 24 21 25 23 26 15 27 17 28 20 29 18 30 19 31
REMARK H PARENT
REMARK Flexibility Score: inf
ROOT
ATOM      1  C   UNL     1      24.725  53.069  10.033  1.00  0.00     0.004 C 
ENDROOT
BRANCH   1   2
ATOM      2  C   UNL     1      23.617  53.356   8.971  1.00  0.00    -0.009 C 
BRANCH   2   3
ATOM      3  C   UNL     1      23.351  54.876   8.799  1.00  0.00     0.000 C 
ATOM      4  C   UNL     1      21.885  55.263   9.015  1.00  0.00     0.004 C 
ENDBRANCH   2   3
BRANCH   2   5
ATOM      5  C   UNL     1      23.819  52.602   7.609  1.00  0.00    -0.014 C 
ATOM      6  C   UNL     1      24.205  51.127   7.818  1.00  0.00     0.007 C 
ATOM      7  C   UNL     1      24.813  53.274   6.652  1.00  0.00     0.007 C 
ENDBRANCH   2   5
ENDBRANCH   1   2
BRANCH   1   8
ATOM      8  C   UNL     1      26.066  53.815   9.821  1.00  0.00     0.004 C 
BRANCH   8   9
ATOM      9  C   UNL     1      27.284  52.997  10.329  1.00  0.00    -0.011 C 
ATOM     10  C   UNL     1      27.698  51.908   9.322  1.00  0.00     0.008 C 
BRANCH   9  11
ATOM     11  C   UNL     1      27.189  52.432  11.789  1.00  0.00    -0.002 C 
ATOM     12  C   UNL     1      28.273  51.405  12.121  1.00  0.00     0.005 C 
ATOM     13  C   UNL     1      27.052  53.367  13.063  1.00  0.00    -0.026 C 
ATOM     14  C   UNL     1      28.168  51.232  13.620  1.00  0.00     0.005 C 
ATOM     15  C   UNL     1      27.940  52.649  14.141  1.00  0.00    -0.001 C 
ATOM     16  C   UNL     1      25.543  53.459  13.466  1.00  0.00     0.007 C 
ATOM     17  C   UNL     1      27.597  54.802  12.855  1.00  0.00     0.012 C 
ATOM     18  C   UNL     1      27.477  52.669  15.633  1.00  0.00     0.004 C 
ATOM     19  C   UNL     1      25.286  53.709  14.952  1.00  0.00     0.005 C 
ATOM     20  C   UNL     1      25.935  52.588  15.799  1.00  0.00     0.003 C 
ATOM     21  C   UNL     1      28.080  53.878  16.384  1.00  0.00     0.085 C 
ATOM     22  C   UNL     1      25.494  52.533  17.322  1.00  0.00    -0.000 C 
ATOM     23  C   UNL     1      27.601  53.982  17.798  1.00  0.00     0.159 C 
ATOM     24  C   UNL     1      26.223  53.579  18.165  1.00  0.00     0.005 C 
ATOM     25  C   UNL     1      23.949  52.736  17.474  1.00  0.00     0.020 C 
ATOM     26  C   UNL     1      25.860  51.133  17.891  1.00  0.00     0.017 C 
ATOM     27  O   UNL     1      28.367  54.493  18.661  1.00  0.00    -0.295 OA
ATOM     28  C   UNL     1      25.685  54.028  19.318  1.00  0.00     0.055 C 
ATOM     29  C   UNL     1      23.481  52.720  18.935  1.00  0.00     0.081 C 
ATOM     30  C   UNL     1      24.338  53.627  19.767  1.00  0.00     0.156 C 
ATOM     31  O   UNL     1      23.910  54.034  20.881  1.00  0.00    -0.295 OA
ENDBRANCH   9  11
ENDBRANCH   8   9
ENDBRANCH   1   8
TORSDOF 6
ENDMDL
MODEL 6
REMARK VINA RESULT:    -8.098      3.525      8.340
REMARK INTER + INTRA:         -12.752
REMARK INTER:                 -11.165
REMARK INTRA:                  -1.587
REMARK UNBOUND:                -1.814
REMARK SMILES CC[C@H](CC[C@H](C)[C@H]1CC[C@@H]2[C@H]3CC(=O)C4=CC(=O)CC[C@@]4(C)[C@H]3CC[C@@]21C)C(C)C
REMARK SMILES IDX 4 1 3 2 2 3 1 4 29 5 30 6 31 7 5 8 6 9 7 10 8 11 9 12 27 13
REMARK SMILES IDX 10 14 11 15 26 16 28 17 12 18 25 19 24 20 13 21 22 22 14 23
REMARK SMILES IDX 16 24 21 25 23 26 15 27 17 28 20 29 18 30 19 31
REMARK H PARENT
REMARK Flexibility Score: inf
ROOT
ATOM      1  C   UNL     1      25.599  52.805  18.888  1.00  0.00     0.004 C 
ENDROOT
BRANCH   1   2
ATOM      2  C   UNL     1      24.619  51.905  18.071  1.00  0.00    -0.009 C 
BRANCH   2   3
ATOM      3  C   UNL     1      24.893  50.392  18.292  1.00  0.00     0.000 C 
ATOM      4  C   UNL     1      25.289  49.655  17.009  1.00  0.00     0.004 C 
ENDBRANCH   2   3
BRANCH   2   5
ATOM      5  C   UNL     1      23.106  52.293  18.227  1.00  0.00    -0.014 C 
ATOM      6  C   UNL     1      22.224  51.067  18.517  1.00  0.00     0.007 C 
ATOM      7  C   UNL     1      22.530  53.087  17.046  1.00  0.00     0.007 C 
ENDBRANCH   2   5
ENDBRANCH   1   2
BRANCH   1   8
ATOM      8  C   UNL     1      26.146  54.048  18.143  1.00  0.00     0.004 C 
BRANCH   8   9
ATOM      9  C   UNL     1      27.336  53.701  17.208  1.00  0.00    -0.011 C 
ATOM     10  C   UNL     1      28.683  54.130  17.819  1.00  0.00     0.008 C 
BRANCH   9  11
ATOM     11  C   UNL     1      27.208  54.154  15.712  1.00  0.00    -0.002 C 
ATOM     12  C   UNL     1      28.296  55.135  15.272  1.00  0.00     0.005 C 
ATOM     13  C   UNL     1      27.021  53.126  14.518  1.00  0.00    -0.026 C 
ATOM     14  C   UNL     1      28.150  55.194  13.768  1.00  0.00     0.005 C 
ATOM     15  C   UNL     1      27.888  53.746  13.364  1.00  0.00    -0.001 C 
ATOM     16  C   UNL     1      25.500  53.028  14.166  1.00  0.00     0.007 C 
ATOM     17  C   UNL     1      27.551  51.703  14.822  1.00  0.00     0.012 C 
ATOM     18  C   UNL     1      27.381  53.618  11.891  1.00  0.00     0.004 C 
ATOM     19  C   UNL     1      25.196  52.669  12.711  1.00  0.00     0.005 C 
ATOM     20  C   UNL     1      25.837  53.711  11.762  1.00  0.00     0.003 C 
ATOM     21  C   UNL     1      27.946  52.346  11.219  1.00  0.00     0.085 C 
ATOM     22  C   UNL     1      25.353  53.656  10.252  1.00  0.00    -0.000 C 
ATOM     23  C   UNL     1      27.425  52.141   9.831  1.00  0.00     0.159 C 
ATOM     24  C   UNL     1      26.042  52.537   9.472  1.00  0.00     0.005 C 
ATOM     25  C   UNL     1      23.801  53.467  10.159  1.00  0.00     0.020 C 
ATOM     26  C   UNL     1      25.722  55.003   9.567  1.00  0.00     0.017 C 
ATOM     27  O   UNL     1      28.158  51.553   8.989  1.00  0.00    -0.295 OA
ATOM     28  C   UNL     1      25.466  52.010   8.373  1.00  0.00     0.055 C 
ATOM     29  C   UNL     1      23.292  53.379   8.715  1.00  0.00     0.081 C 
ATOM     30  C   UNL     1      24.112  52.396   7.932  1.00  0.00     0.156 C 
ATOM     31  O   UNL     1      23.646  51.913   6.865  1.00  0.00    -0.295 OA
ENDBRANCH   9  11
ENDBRANCH   8   9
ENDBRANCH   1   8
TORSDOF 6
ENDMDL
MODEL 7
REMARK VINA RESULT:    -7.808      3.582      8.100
REMARK INTER + INTRA:         -12.360
REMARK INTER:                 -11.182
REMARK INTRA:                  -1.178
REMARK UNBOUND:                -1.814
REMARK SMILES CC[C@H](CC[C@H](C)[C@H]1CC[C@@H]2[C@H]3CC(=O)C4=CC(=O)CC[C@@]4(C)[C@H]3CC[C@@]21C)C(C)C
REMARK SMILES IDX 4 1 3 2 2 3 1 4 29 5 30 6 31 7 5 8 6 9 7 10 8 11 9 12 27 13
REMARK SMILES IDX 10 14 11 15 26 16 28 17 12 18 25 19 24 20 13 21 22 22 14 23
REMARK SMILES IDX 16 24 21 25 23 26 15 27 17 28 20 29 18 30 19 31
REMARK H PARENT
REMARK Flexibility Score: inf
ROOT
ATOM      1  C   UNL     1      28.519  49.258  17.109  1.00  0.00     0.004 C 
ENDROOT
BRANCH   1   2
ATOM      2  C   UNL     1      29.174  48.923  15.732  1.00  0.00    -0.009 C 
BRANCH   2   3
ATOM      3  C   UNL     1      30.696  49.232  15.717  1.00  0.00     0.000 C 
ATOM      4  C   UNL     1      31.285  49.441  17.116  1.00  0.00     0.004 C 
ENDBRANCH   2   3
BRANCH   2   5
ATOM      5  C   UNL     1      28.823  47.496  15.182  1.00  0.00    -0.014 C 
ATOM      6  C   UNL     1      30.035  46.550  15.218  1.00  0.00     0.007 C 
ATOM      7  C   UNL     1      28.196  47.492  13.780  1.00  0.00     0.007 C 
ENDBRANCH   2   5
ENDBRANCH   1   2
BRANCH   1   8
ATOM      8  C   UNL     1      27.101  49.878  17.045  1.00  0.00     0.004 C 
BRANCH   8   9
ATOM      9  C   UNL     1      27.118  51.418  17.243  1.00  0.00    -0.011 C 
ATOM     10  C   UNL     1      25.836  51.917  17.933  1.00  0.00     0.008 C 
BRANCH   9  11
ATOM     11  C   UNL     1      27.475  52.282  15.984  1.00  0.00    -0.002 C 
ATOM     12  C   UNL     1      28.978  52.402  15.728  1.00  0.00     0.005 C 
ATOM     13  C   UNL     1      26.795  52.057  14.568  1.00  0.00    -0.026 C 
ATOM     14  C   UNL     1      29.067  53.005  14.343  1.00  0.00     0.005 C 
ATOM     15  C   UNL     1      27.973  52.289  13.556  1.00  0.00    -0.001 C 
ATOM     16  C   UNL     1      25.623  53.079  14.399  1.00  0.00     0.007 C 
ATOM     17  C   UNL     1      26.239  50.627  14.355  1.00  0.00     0.012 C 
ATOM     18  C   UNL     1      27.666  52.985  12.191  1.00  0.00     0.004 C 
ATOM     19  C   UNL     1      25.317  53.477  12.956  1.00  0.00     0.005 C 
ATOM     20  C   UNL     1      26.576  54.086  12.294  1.00  0.00     0.003 C 
ATOM     21  C   UNL     1      27.338  51.942  11.098  1.00  0.00     0.085 C 
ATOM     22  C   UNL     1      26.338  54.830  10.913  1.00  0.00    -0.000 C 
ATOM     23  C   UNL     1      26.961  52.567   9.792  1.00  0.00     0.159 C 
ATOM     24  C   UNL     1      26.215  53.847   9.749  1.00  0.00     0.005 C 
ATOM     25  C   UNL     1      25.056  55.728  10.965  1.00  0.00     0.020 C 
ATOM     26  C   UNL     1      27.563  55.745  10.627  1.00  0.00     0.017 C 
ATOM     27  O   UNL     1      27.222  51.946   8.725  1.00  0.00    -0.295 OA
ATOM     28  C   UNL     1      25.555  54.193   8.624  1.00  0.00     0.055 C 
ATOM     29  C   UNL     1      24.769  56.444   9.639  1.00  0.00     0.081 C 
ATOM     30  C   UNL     1      24.833  55.473   8.497  1.00  0.00     0.156 C 
ATOM     31  O   UNL     1      24.283  55.768   7.403  1.00  0.00    -0.295 OA
ENDBRANCH   9  11
ENDBRANCH   8   9
ENDBRANCH   1   8
TORSDOF 6
ENDMDL
MODEL 8
REMARK VINA RESULT:    -7.736      1.786      3.418
REMARK INTER + INTRA:         -12.263
REMARK INTER:                 -11.336
REMARK INTRA:                  -0.927
REMARK UNBOUND:                -1.814
REMARK SMILES CC[C@H](CC[C@H](C)[C@H]1CC[C@@H]2[C@H]3CC(=O)C4=CC(=O)CC[C@@]4(C)[C@H]3CC[C@@]21C)C(C)C
REMARK SMILES IDX 4 1 3 2 2 3 1 4 29 5 30 6 31 7 5 8 6 9 7 10 8 11 9 12 27 13
REMARK SMILES IDX 10 14 11 15 26 16 28 17 12 18 25 19 24 20 13 21 22 22 14 23
REMARK SMILES IDX 16 24 21 25 23 26 15 27 17 28 20 29 18 30 19 31
REMARK H PARENT
REMARK Flexibility Score: inf
ROOT
ATOM      1  C   UNL     1      29.245  54.601  10.993  1.00  0.00     0.004 C 
ENDROOT
BRANCH   1   2
ATOM      2  C   UNL     1      28.474  55.946  11.172  1.00  0.00    -0.009 C 
BRANCH   2   3
ATOM      3  C   UNL     1      29.269  57.155  10.608  1.00  0.00     0.000 C 
ATOM      4  C   UNL     1      30.758  57.120  10.963  1.00  0.00     0.004 C 
ENDBRANCH   2   3
BRANCH   2   5
ATOM      5  C   UNL     1      26.981  55.903  10.689  1.00  0.00    -0.014 C 
ATOM      6  C   UNL     1      26.045  56.668  11.641  1.00  0.00     0.007 C 
ATOM      7  C   UNL     1      26.435  54.490  10.440  1.00  0.00     0.007 C 
ENDBRANCH   2   5
ENDBRANCH   1   2
BRANCH   1   8
ATOM      8  C   UNL     1      29.873  54.011  12.281  1.00  0.00     0.004 C 
BRANCH   8   9
ATOM      9  C   UNL     1      29.557  52.501  12.454  1.00  0.00    -0.011 C 
ATOM     10  C   UNL     1      29.258  51.824  11.105  1.00  0.00     0.008 C 
BRANCH   9  11
ATOM     11  C   UNL     1      28.488  52.129  13.540  1.00  0.00    -0.002 C 
ATOM     12  C   UNL     1      28.888  50.935  14.410  1.00  0.00     0.005 C 
ATOM     13  C   UNL     1      27.849  53.202  14.518  1.00  0.00    -0.026 C 
ATOM     14  C   UNL     1      27.881  50.950  15.538  1.00  0.00     0.005 C 
ATOM     15  C   UNL     1      27.729  52.430  15.881  1.00  0.00    -0.001 C 
ATOM     16  C   UNL     1      26.468  53.657  13.941  1.00  0.00     0.007 C 
ATOM     17  C   UNL     1      28.730  54.457  14.740  1.00  0.00     0.012 C 
ATOM     18  C   UNL     1      26.495  52.708  16.797  1.00  0.00     0.004 C 
ATOM     19  C   UNL     1      25.450  54.113  14.986  1.00  0.00     0.005 C 
ATOM     20  C   UNL     1      25.188  52.977  16.003  1.00  0.00     0.003 C 
ATOM     21  C   UNL     1      26.801  53.833  17.812  1.00  0.00     0.085 C 
ATOM     22  C   UNL     1      23.935  53.180  16.955  1.00  0.00    -0.000 C 
ATOM     23  C   UNL     1      25.620  54.188  18.661  1.00  0.00     0.159 C 
ATOM     24  C   UNL     1      24.245  54.130  18.111  1.00  0.00     0.005 C 
ATOM     25  C   UNL     1      22.700  53.724  16.160  1.00  0.00     0.020 C 
ATOM     26  C   UNL     1      23.553  51.803  17.568  1.00  0.00     0.017 C 
ATOM     27  O   UNL     1      25.821  54.613  19.832  1.00  0.00    -0.295 OA
ATOM     28  C   UNL     1      23.254  54.804  18.731  1.00  0.00     0.055 C 
ATOM     29  C   UNL     1      21.472  53.964  17.047  1.00  0.00     0.081 C 
ATOM     30  C   UNL     1      21.855  54.751  18.266  1.00  0.00     0.156 C 
ATOM     31  O   UNL     1      20.962  55.356  18.918  1.00  0.00    -0.295 OA
ENDBRANCH   9  11
ENDBRANCH   8   9
ENDBRANCH   1   8
TORSDOF 6
ENDMDL
MODEL 9
REMARK VINA RESULT:    -7.669      1.755      2.902
REMARK INTER + INTRA:         -12.173
REMARK INTER:                 -10.993
REMARK INTRA:                  -1.180
REMARK UNBOUND:                -1.814
REMARK SMILES CC[C@H](CC[C@H](C)[C@H]1CC[C@@H]2[C@H]3CC(=O)C4=CC(=O)CC[C@@]4(C)[C@H]3CC[C@@]21C)C(C)C
REMARK SMILES IDX 4 1 3 2 2 3 1 4 29 5 30 6 31 7 5 8 6 9 7 10 8 11 9 12 27 13
REMARK SMILES IDX 10 14 11 15 26 16 28 17 12 18 25 19 24 20 13 21 22 22 14 23
REMARK SMILES IDX 16 24 21 25 23 26 15 27 17 28 20 29 18 30 19 31
REMARK H PARENT
REMARK Flexibility Score: inf
ROOT
ATOM      1  C   UNL     1      29.168  55.792  10.756  1.00  0.00     0.004 C 
ENDROOT
BRANCH   1   2
ATOM      2  C   UNL     1      28.209  57.001  10.986  1.00  0.00    -0.009 C 
BRANCH   2   3
ATOM      3  C   UNL     1      26.853  56.563  11.603  1.00  0.00     0.000 C 
ATOM      4  C   UNL     1      25.707  56.533  10.587  1.00  0.00     0.004 C 
ENDBRANCH   2   3
BRANCH   2   5
ATOM      5  C   UNL     1      28.869  58.215  11.731  1.00  0.00    -0.014 C 
ATOM      6  C   UNL     1      30.387  58.034  11.896  1.00  0.00     0.007 C 
ATOM      7  C   UNL     1      28.230  58.552  13.086  1.00  0.00     0.007 C 
ENDBRANCH   2   5
ENDBRANCH   1   2
BRANCH   1   8
ATOM      8  C   UNL     1      28.547  54.391  10.984  1.00  0.00     0.004 C 
BRANCH   8   9
ATOM      9  C   UNL     1      29.515  53.428  11.722  1.00  0.00    -0.011 C 
ATOM     10  C   UNL     1      30.107  52.374  10.768  1.00  0.00     0.008 C 
BRANCH   9  11
ATOM     11  C   UNL     1      28.983  52.778  13.047  1.00  0.00    -0.002 C 
ATOM     12  C   UNL     1      30.024  51.924  13.773  1.00  0.00     0.005 C 
ATOM     13  C   UNL     1      28.224  53.608  14.165  1.00  0.00    -0.026 C 
ATOM     14  C   UNL     1      29.401  51.657  15.125  1.00  0.00     0.005 C 
ATOM     15  C   UNL     1      28.757  52.987  15.506  1.00  0.00    -0.001 C 
ATOM     16  C   UNL     1      26.682  53.432  13.971  1.00  0.00     0.007 C 
ATOM     17  C   UNL     1      28.553  55.122  14.160  1.00  0.00     0.012 C 
ATOM     18  C   UNL     1      27.776  52.853  16.715  1.00  0.00     0.004 C 
ATOM     19  C   UNL     1      25.852  53.556  15.249  1.00  0.00     0.005 C 
ATOM     20  C   UNL     1      26.321  52.513  16.291  1.00  0.00     0.003 C 
ATOM     21  C   UNL     1      27.840  54.101  17.623  1.00  0.00     0.085 C 
ATOM     22  C   UNL     1      25.362  52.305  17.538  1.00  0.00    -0.000 C 
ATOM     23  C   UNL     1      26.860  54.050  18.753  1.00  0.00     0.159 C 
ATOM     24  C   UNL     1      25.535  53.409  18.580  1.00  0.00     0.005 C 
ATOM     25  C   UNL     1      23.861  52.245  17.096  1.00  0.00     0.020 C 
ATOM     26  C   UNL     1      25.725  50.955  18.219  1.00  0.00     0.017 C 
ATOM     27  O   UNL     1      27.151  54.632  19.834  1.00  0.00    -0.295 OA
ATOM     28  C   UNL     1      24.539  53.702  19.442  1.00  0.00     0.055 C 
ATOM     29  C   UNL     1      22.894  52.075  18.275  1.00  0.00     0.081 C 
ATOM     30  C   UNL     1      23.212  53.064  19.357  1.00  0.00     0.156 C 
ATOM     31  O   UNL     1      22.338  53.335  20.223  1.00  0.00    -0.295 OA
ENDBRANCH   9  11
ENDBRANCH   8   9
ENDBRANCH   1   8
TORSDOF 6
ENDMDL
