MODEL 1
REMARK VINA RESULT:    -2.946      0.000      0.000
REMARK INTER + INTRA:          -3.214
REMARK INTER:                  -3.118
REMARK INTRA:                  -0.096
REMARK UNBOUND:                -0.096
REMARK SMILES C=C(C)[C@@H]1CC=C(C)C(=O)C1
REMARK SMILES IDX 8 1 7 2 6 3 5 4 4 5 11 6 9 7 10 8 2 9 1 10 3 11
REMARK H PARENT
REMARK Flexibility Score: inf
ROOT
ATOM      1  C   UNL     1      -5.191   3.310   8.313  1.00  0.00     0.048 C 
ATOM      2  C   UNL     1      -4.356   4.525   8.611  1.00  0.00    -0.012 C 
ATOM      3  C   UNL     1      -3.127   4.639   8.081  1.00  0.00    -0.019 C 
ATOM      4  C   UNL     1      -2.257   5.842   8.331  1.00  0.00     0.036 C 
ATOM      5  C   UNL     1      -2.508   6.426   9.734  1.00  0.00     0.025 C 
ATOM      6  C   UNL     1      -4.004   6.738   9.923  1.00  0.00     0.089 C 
ATOM      7  C   UNL     1      -4.842   5.535   9.584  1.00  0.00     0.158 C 
ATOM      8  O   UNL     1      -5.980   5.412  10.111  1.00  0.00    -0.295 OA
ENDROOT
BRANCH   5   9
ATOM      9  C   UNL     1      -1.641   7.650   9.997  1.00  0.00    -0.077 C 
ATOM     10  C   UNL     1      -2.181   8.875  10.125  1.00  0.00     0.008 C 
ATOM     11  C   UNL     1      -0.146   7.507  10.118  1.00  0.00     0.039 C 
ENDBRANCH   5   9
TORSDOF 1
ENDMDL
MODEL 2
REMARK VINA RESULT:    -2.877      0.237      1.072
REMARK INTER + INTRA:          -3.142
REMARK INTER:                  -3.050
REMARK INTRA:                  -0.091
REMARK UNBOUND:                -0.096
REMARK SMILES C=C(C)[C@@H]1CC=C(C)C(=O)C1
REMARK SMILES IDX 8 1 7 2 6 3 5 4 4 5 11 6 9 7 10 8 2 9 1 10 3 11
REMARK H PARENT
REMARK Flexibility Score: inf
ROOT
ATOM      1  C   UNL     1      -5.001   3.112   8.175  1.00  0.00     0.048 C 
ATOM      2  C   UNL     1      -4.256   4.376   8.507  1.00  0.00    -0.012 C 
ATOM      3  C   UNL     1      -3.060   4.615   7.943  1.00  0.00    -0.019 C 
ATOM      4  C   UNL     1      -2.280   5.872   8.226  1.00  0.00     0.036 C 
ATOM      5  C   UNL     1      -2.525   6.365   9.664  1.00  0.00     0.025 C 
ATOM      6  C   UNL     1      -4.034   6.544   9.918  1.00  0.00     0.089 C 
ATOM      7  C   UNL     1      -4.785   5.295   9.545  1.00  0.00     0.158 C 
ATOM      8  O   UNL     1      -5.890   5.055  10.102  1.00  0.00    -0.295 OA
ENDROOT
BRANCH   5   9
ATOM      9  C   UNL     1      -1.750   7.642   9.962  1.00  0.00    -0.077 C 
ATOM     10  C   UNL     1      -0.412   7.635  10.086  1.00  0.00     0.008 C 
ATOM     11  C   UNL     1      -2.481   8.949  10.125  1.00  0.00     0.039 C 
ENDBRANCH   5   9
TORSDOF 1
ENDMDL
MODEL 3
REMARK VINA RESULT:    -0.445      1.651      2.507
REMARK INTER + INTRA:          -0.568
REMARK INTER:                  -0.471
REMARK INTRA:                  -0.097
REMARK UNBOUND:                -0.096
REMARK SMILES C=C(C)[C@@H]1CC=C(C)C(=O)C1
REMARK SMILES IDX 8 1 7 2 6 3 5 4 4 5 11 6 9 7 10 8 2 9 1 10 3 11
REMARK H PARENT
REMARK Flexibility Score: inf
ROOT
ATOM      1  C   UNL     1      -6.180   2.836   8.152  1.00  0.00     0.048 C 
ATOM      2  C   UNL     1      -5.141   3.827   8.601  1.00  0.00    -0.012 C 
ATOM      3  C   UNL     1      -5.407   4.658   9.624  1.00  0.00    -0.019 C 
ATOM      4  C   UNL     1      -4.396   5.655  10.125  1.00  0.00     0.036 C 
ATOM      5  C   UNL     1      -3.504   6.165   8.978  1.00  0.00     0.025 C 
ATOM      6  C   UNL     1      -2.841   4.980   8.249  1.00  0.00     0.089 C 
ATOM      7  C   UNL     1      -3.876   3.968   7.838  1.00  0.00     0.158 C 
ATOM      8  O   UNL     1      -3.640   3.214   6.856  1.00  0.00    -0.295 OA
ENDROOT
BRANCH   5   9
ATOM      9  C   UNL     1      -2.470   7.168   9.473  1.00  0.00    -0.077 C 
ATOM     10  C   UNL     1      -1.152   6.935   9.345  1.00  0.00     0.008 C 
ATOM     11  C   UNL     1      -2.913   8.453  10.123  1.00  0.00     0.039 C 
ENDBRANCH   5   9
TORSDOF 1
ENDMDL
MODEL 4
REMARK VINA RESULT:    -0.130     10.759     11.672
REMARK INTER + INTRA:          -0.234
REMARK INTER:                  -0.140
REMARK INTRA:                  -0.094
REMARK UNBOUND:                -0.096
REMARK SMILES C=C(C)[C@@H]1CC=C(C)C(=O)C1
REMARK SMILES IDX 8 1 7 2 6 3 5 4 4 5 11 6 9 7 10 8 2 9 1 10 3 11
REMARK H PARENT
REMARK Flexibility Score: inf
ROOT
ATOM      1  C   UNL     1      -5.620   9.983  -0.475  1.00  0.00     0.048 C 
ATOM      2  C   UNL     1      -4.349   9.270  -0.851  1.00  0.00    -0.012 C 
ATOM      3  C   UNL     1      -3.461   8.940   0.102  1.00  0.00    -0.019 C 
ATOM      4  C   UNL     1      -2.183   8.210  -0.217  1.00  0.00     0.036 C 
ATOM      5  C   UNL     1      -1.654   8.599  -1.609  1.00  0.00     0.025 C 
ATOM      6  C   UNL     1      -2.740   8.368  -2.678  1.00  0.00     0.089 C 
ATOM      7  C   UNL     1      -4.024   9.045  -2.281  1.00  0.00     0.158 C 
ATOM      8  O   UNL     1      -4.839   9.387  -3.179  1.00  0.00    -0.295 OA
ENDROOT
BRANCH   5   9
ATOM      9  C   UNL     1      -0.366   7.861  -1.949  1.00  0.00    -0.077 C 
ATOM     10  C   UNL     1       0.650   7.786  -1.072  1.00  0.00     0.008 C 
ATOM     11  C   UNL     1      -0.208   7.196  -3.292  1.00  0.00     0.039 C 
ENDBRANCH   5   9
TORSDOF 1
ENDMDL
MODEL 5
REMARK VINA RESULT:    -0.039      1.450      4.479
REMARK INTER + INTRA:          -0.137
REMARK INTER:                  -0.042
REMARK INTRA:                  -0.095
REMARK UNBOUND:                -0.096
REMARK SMILES C=C(C)[C@@H]1CC=C(C)C(=O)C1
REMARK SMILES IDX 8 1 7 2 6 3 5 4 4 5 11 6 9 7 10 8 2 9 1 10 3 11
REMARK H PARENT
REMARK Flexibility Score: inf
ROOT
ATOM      1  C   UNL     1      -1.404   7.518   8.735  1.00  0.00     0.048 C 
ATOM      2  C   UNL     1      -2.457   6.462   8.934  1.00  0.00    -0.012 C 
ATOM      3  C   UNL     1      -2.300   5.248   8.381  1.00  0.00    -0.019 C 
ATOM      4  C   UNL     1      -3.315   4.150   8.564  1.00  0.00     0.036 C 
ATOM      5  C   UNL     1      -4.739   4.724   8.682  1.00  0.00     0.025 C 
ATOM      6  C   UNL     1      -4.801   5.770   9.811  1.00  0.00     0.089 C 
ATOM      7  C   UNL     1      -3.720   6.802   9.636  1.00  0.00     0.158 C 
ATOM      8  O   UNL     1      -3.885   7.952  10.125  1.00  0.00    -0.295 OA
ENDROOT
BRANCH   5   9
ATOM      9  C   UNL     1      -5.775   3.625   8.878  1.00  0.00    -0.077 C 
ATOM     10  C   UNL     1      -5.643   2.426   8.284  1.00  0.00     0.008 C 
ATOM     11  C   UNL     1      -6.979   3.868   9.750  1.00  0.00     0.039 C 
ENDBRANCH   5   9
TORSDOF 1
ENDMDL
