MODEL 1
REMARK VINA RESULT:    -0.691      0.000      0.000
REMARK INTER + INTRA:           0.644
REMARK INTER:                  -0.853
REMARK INTRA:                   1.497
REMARK UNBOUND:                 1.497
REMARK SMILES C=C1CC[C@@H]2[C@H]([C@H]3[C@H](C)CC[C@@H]13)C2(C)C
REMARK SMILES IDX 3 1 2 2 1 3 12 4 9 5 8 6 10 7 7 8 11 9 4 11 5 12 6 13 13 14
REMARK SMILES IDX 14 16 15 17
REMARK H PARENT
REMARK Flexibility Score: 80.00
ROOT
ATOM      1  C   UNL     1     137.485 135.781 126.000  1.00  0.00     0.031 C 
ENDROOT
BRANCH   1   2
ATOM      2  C   UNL     1     136.574 136.522 125.069  1.00  0.00    -0.074 C 
ATOM      3  C   UNL     1     135.511 135.886 124.537  1.00  0.00     0.008 C 
BRANCH   2   4
ATOM      4  C   UNL     1     137.014 137.907 124.647  1.00  0.00     0.018 C 
ATOM      5  C   UNL     1     137.845 138.536 120.998  1.00  0.00     0.008 C 
ATOM      6  C   UNL     1     137.102 137.958 122.209  1.00  0.00    -0.010 C 
ATOM      7  C   UNL     1     135.904 138.823 122.634  1.00  0.00     0.004 C 
ATOM      8  C   UNL     1     137.979 137.879 123.465  1.00  0.00     0.003 CG0
ATOM      9  C   UNL     1     135.872 138.823 124.170  1.00  0.00     0.008 C 
ATOM     10  G   UNL     1     139.266 136.979 123.480  1.00  0.00     0.000 G0
ENDBRANCH   2   4
ENDBRANCH   1   2
BRANCH   1  11
ATOM     11  C   UNL     1     138.437 134.908 125.198  1.00  0.00     0.009 C 
BRANCH  11  12
ATOM     12  C   UNL     1     139.490 135.698 124.379  1.00  0.00    -0.001 C 
ATOM     13  C   UNL     1     139.272 136.957 123.495  1.00  0.00     0.002 CG0
ATOM     14  C   UNL     1     139.399 135.571 122.838  1.00  0.00    -0.029 C 
ATOM     15  G   UNL     1     137.993 137.868 123.481  1.00  0.00     0.000 G0
ATOM     16  C   UNL     1     138.188 134.882 122.192  1.00  0.00     0.011 C 
ATOM     17  C   UNL     1     140.738 135.311 122.136  1.00  0.00     0.011 C 
ENDBRANCH  11  12
ENDBRANCH   1  11
TORSDOF 0
ENDMDL
MODEL 2
REMARK VINA RESULT:    -0.237      1.288      3.124
REMARK INTER + INTRA:           1.205
REMARK INTER:                  -0.247
REMARK INTRA:                   1.453
REMARK UNBOUND:                 1.497
REMARK SMILES C=C1CC[C@@H]2[C@H]([C@H]3[C@H](C)CC[C@@H]13)C2(C)C
REMARK SMILES IDX 3 1 2 2 1 3 12 4 9 5 8 6 10 7 7 8 11 9 4 11 5 12 6 13 13 14
REMARK SMILES IDX 14 16 15 17
REMARK H PARENT
REMARK Flexibility Score: 80.00
ROOT
ATOM      1  C   UNL     1     138.142 135.802 121.374  1.00  0.00     0.031 C 
ENDROOT
BRANCH   1   2
ATOM      2  C   UNL     1     137.474 137.028 121.920  1.00  0.00    -0.074 C 
ATOM      3  C   UNL     1     138.000 138.240 121.658  1.00  0.00     0.008 C 
BRANCH   2   4
ATOM      4  C   UNL     1     136.333 136.804 122.889  1.00  0.00     0.018 C 
ATOM      5  C   UNL     1     136.750 137.899 126.498  1.00  0.00     0.008 C 
ATOM      6  C   UNL     1     136.879 137.954 124.972  1.00  0.00    -0.010 C 
ATOM      7  C   UNL     1     135.734 138.740 124.311  1.00  0.00     0.004 C 
ATOM      8  C   UNL     1     136.816 136.568 124.317  1.00  0.00     0.003 CG0
ATOM      9  C   UNL     1     135.364 137.994 123.019  1.00  0.00     0.008 C 
ATOM     10  G   UNL     1     137.906 135.486 124.644  1.00  0.00     0.000 G0
ENDBRANCH   2   4
ENDBRANCH   1   2
BRANCH   1  11
ATOM     11  C   UNL     1     139.331 135.434 122.247  1.00  0.00     0.009 C 
BRANCH  11  12
ATOM     12  C   UNL     1     138.949 134.894 123.650  1.00  0.00    -0.001 C 
ATOM     13  C   UNL     1     137.923 135.482 124.658  1.00  0.00     0.002 CG0
ATOM     14  C   UNL     1     139.428 135.732 124.862  1.00  0.00    -0.029 C 
ATOM     15  G   UNL     1     136.842 136.577 124.347  1.00  0.00     0.000 G0
ATOM     16  C   UNL     1     140.041 137.123 124.642  1.00  0.00     0.011 C 
ATOM     17  C   UNL     1     140.070 134.916 125.991  1.00  0.00     0.011 C 
ENDBRANCH  11  12
ENDBRANCH   1  11
TORSDOF 0
ENDMDL
MODEL 3
REMARK VINA RESULT:    -0.200     13.962     16.088
REMARK INTER + INTRA:           1.251
REMARK INTER:                  -0.297
REMARK INTRA:                   1.547
REMARK UNBOUND:                 1.497
REMARK SMILES C=C1CC[C@@H]2[C@H]([C@H]3[C@H](C)CC[C@@H]13)C2(C)C
REMARK SMILES IDX 3 1 2 2 1 3 12 4 9 5 8 6 10 7 7 8 11 9 4 11 5 12 6 13 13 14
REMARK SMILES IDX 14 16 15 17
REMARK H PARENT
REMARK Flexibility Score: 80.00
ROOT
ATOM      1  C   UNL     1     134.995 151.790 121.672  1.00  0.00     0.031 C 
ENDROOT
BRANCH   1   2
ATOM      2  C   UNL     1     136.085 152.787 121.919  1.00  0.00    -0.074 C 
ATOM      3  C   UNL     1     137.292 152.605 121.347  1.00  0.00     0.008 C 
BRANCH   2   4
ATOM      4  C   UNL     1     135.805 153.859 122.951  1.00  0.00     0.018 C 
ATOM      5  C   UNL     1     137.843 153.903 126.151  1.00  0.00     0.008 C 
ATOM      6  C   UNL     1     137.546 153.735 124.656  1.00  0.00    -0.010 C 
ATOM      7  C   UNL     1     137.790 155.026 123.857  1.00  0.00     0.004 C 
ATOM      8  C   UNL     1     136.079 153.385 124.375  1.00  0.00     0.003 CG0
ATOM      9  C   UNL     1     136.671 155.125 122.809  1.00  0.00     0.008 C 
ATOM     10  G   UNL     1     135.460 152.052 124.928  1.00  0.00     0.000 G0
ENDBRANCH   2   4
ENDBRANCH   1   2
BRANCH   1  11
ATOM     11  C   UNL     1     135.195 150.579 122.571  1.00  0.00     0.009 C 
BRANCH  11  12
ATOM     12  C   UNL     1     134.947 150.855 124.077  1.00  0.00    -0.001 C 
ATOM     13  C   UNL     1     135.452 152.053 124.929  1.00  0.00     0.002 CG0
ATOM     14  C   UNL     1     136.170 150.694 125.014  1.00  0.00    -0.029 C 
ATOM     15  G   UNL     1     136.069 153.387 124.378  1.00  0.00     0.000 G0
ATOM     16  C   UNL     1     137.574 150.496 124.423  1.00  0.00     0.011 C 
ATOM     17  C   UNL     1     135.893 149.898 126.297  1.00  0.00     0.011 C 
ENDBRANCH  11  12
ENDBRANCH   1  11
TORSDOF 0
ENDMDL
MODEL 4
REMARK VINA RESULT:     1.527     15.138     16.575
REMARK INTER + INTRA:           3.382
REMARK INTER:                   1.824
REMARK INTRA:                   1.558
REMARK UNBOUND:                 1.497
REMARK SMILES C=C1CC[C@@H]2[C@H]([C@H]3[C@H](C)CC[C@@H]13)C2(C)C
REMARK SMILES IDX 3 1 2 2 1 3 12 4 9 5 8 6 10 7 7 8 11 9 4 11 5 12 6 13 13 14
REMARK SMILES IDX 14 16 15 17
REMARK H PARENT
REMARK Flexibility Score: 80.00
ROOT
ATOM      1  C   UNL     1     139.283 154.201 124.500  1.00  0.00     0.031 C 
ENDROOT
BRANCH   1   2
ATOM      2  C   UNL     1     138.677 154.036 123.139  1.00  0.00    -0.074 C 
ATOM      3  C   UNL     1     138.230 155.121 122.477  1.00  0.00     0.008 C 
BRANCH   2   4
ATOM      4  C   UNL     1     138.449 152.616 122.665  1.00  0.00     0.018 C 
ATOM      5  C   UNL     1     134.889 151.406 122.149  1.00  0.00     0.008 C 
ATOM      6  C   UNL     1     136.079 152.373 122.135  1.00  0.00    -0.010 C 
ATOM      7  C   UNL     1     136.843 152.350 120.801  1.00  0.00     0.004 C 
ATOM      8  C   UNL     1     137.141 152.030 123.188  1.00  0.00     0.003 CG0
ATOM      9  C   UNL     1     138.338 152.463 121.137  1.00  0.00     0.008 C 
ATOM     10  G   UNL     1     136.782 152.060 124.716  1.00  0.00     0.000 G0
ENDBRANCH   2   4
ENDBRANCH   1   2
BRANCH   1  11
ATOM     11  C   UNL     1     138.181 154.357 125.536  1.00  0.00     0.009 C 
BRANCH  11  12
ATOM     12  C   UNL     1     137.343 153.073 125.773  1.00  0.00    -0.001 C 
ATOM     13  C   UNL     1     136.762 152.096 124.714  1.00  0.00     0.002 CG0
ATOM     14  C   UNL     1     135.848 153.145 125.373  1.00  0.00    -0.029 C 
ATOM     15  G   UNL     1     137.151 152.040 123.194  1.00  0.00     0.000 G0
ATOM     16  C   UNL     1     135.319 154.351 124.582  1.00  0.00     0.011 C 
ATOM     17  C   UNL     1     134.877 152.586 126.422  1.00  0.00     0.011 C 
ENDBRANCH  11  12
ENDBRANCH   1  11
TORSDOF 0
ENDMDL
MODEL 5
REMARK VINA RESULT:     1.892      1.286      2.254
REMARK INTER + INTRA:           3.832
REMARK INTER:                   2.341
REMARK INTRA:                   1.491
REMARK UNBOUND:                 1.497
REMARK SMILES C=C1CC[C@@H]2[C@H]([C@H]3[C@H](C)CC[C@@H]13)C2(C)C
REMARK SMILES IDX 3 1 2 2 1 3 12 4 9 5 8 6 10 7 7 8 11 9 4 11 5 12 6 13 13 14
REMARK SMILES IDX 14 16 15 17
REMARK H PARENT
REMARK Flexibility Score: 80.00
ROOT
ATOM      1  C   UNL     1     138.810 134.938 123.910  1.00  0.00     0.031 C 
ENDROOT
BRANCH   1   2
ATOM      2  C   UNL     1     137.536 135.584 124.364  1.00  0.00    -0.074 C 
ATOM      3  C   UNL     1     136.390 134.875 124.341  1.00  0.00     0.008 C 
BRANCH   2   4
ATOM      4  C   UNL     1     137.594 137.067 124.660  1.00  0.00     0.018 C 
ATOM      5  C   UNL     1     135.544 139.445 122.529  1.00  0.00     0.008 C 
ATOM      6  C   UNL     1     135.887 138.171 123.310  1.00  0.00    -0.010 C 
ATOM      7  C   UNL     1     135.412 138.229 124.771  1.00  0.00     0.004 C 
ATOM      8  C   UNL     1     137.397 137.920 123.410  1.00  0.00     0.003 CG0
ATOM      9  C   UNL     1     136.506 137.569 125.626  1.00  0.00     0.008 C 
ATOM     10  G   UNL     1     138.251 137.684 122.114  1.00  0.00     0.000 G0
ENDBRANCH   2   4
ENDBRANCH   1   2
BRANCH   1  11
ATOM     11  C   UNL     1     138.880 134.955 122.392  1.00  0.00     0.009 C 
BRANCH  11  12
ATOM     12  C   UNL     1     139.052 136.369 121.777  1.00  0.00    -0.001 C 
ATOM     13  C   UNL     1     138.292 137.673 122.142  1.00  0.00     0.002 CG0
ATOM     14  C   UNL     1     137.890 136.877 120.888  1.00  0.00    -0.029 C 
ATOM     15  G   UNL     1     137.399 137.900 123.414  1.00  0.00     0.000 G0
ATOM     16  C   UNL     1     136.568 136.098 120.829  1.00  0.00     0.011 C 
ATOM     17  C   UNL     1     138.328 137.505 119.558  1.00  0.00     0.011 C 
ENDBRANCH  11  12
ENDBRANCH   1  11
TORSDOF 0
ENDMDL
