MODEL 1
REMARK VINA RESULT:    -3.840      0.000      0.000
REMARK INTER + INTRA:          -4.720
REMARK INTER:                  -4.625
REMARK INTRA:                  -0.095
REMARK UNBOUND:                -0.095
REMARK SMILES CC[C@H](C)[C@H]([NH3+])C(=O)[O-]
REMARK SMILES IDX 3 1 4 2 5 3 6 4 7 8 8 9 9 10 2 11 1 12
REMARK H PARENT 6 5 6 6 6 7
REMARK Flexibility Score: inf
ROOT
ATOM      1  C   UNL     1     -25.403  94.595 -28.296  1.00  0.00     0.050 C 
ATOM      2  C   UNL     1     -24.470  93.376 -28.162  1.00  0.00     0.014 C 
ENDROOT
BRANCH   1   3
ATOM      3  C   UNL     1     -24.642  95.838 -28.857  1.00  0.00     0.230 C 
BRANCH   3   4
ATOM      4  N   UNL     1     -25.376  97.089 -28.609  1.00  0.00    -0.350 N 
ATOM      5  H   UNL     1     -25.909  97.372 -29.461  1.00  0.00     0.345 HD
ATOM      6  H   UNL     1     -24.719  97.856 -28.337  1.00  0.00     0.345 HD
ATOM      7  H   UNL     1     -26.073  96.951 -27.842  1.00  0.00     0.345 HD
ENDBRANCH   3   4
BRANCH   3   8
ATOM      8  C   UNL     1     -24.394  95.687 -30.338  1.00  0.00     0.099 C 
ATOM      9  O   UNL     1     -23.343  96.147 -30.859  1.00  0.00    -0.544 OA
ATOM     10  O   UNL     1     -25.333  95.049 -31.139  1.00  0.00    -0.544 OA
ENDBRANCH   3   8
ENDBRANCH   1   3
BRANCH   1  11
ATOM     11  C   UNL     1     -26.145  94.864 -26.959  1.00  0.00     0.006 C 
ATOM     12  C   UNL     1     -27.545  94.249 -26.873  1.00  0.00     0.004 C 
ENDBRANCH   1  11
TORSDOF 4
ENDMDL
MODEL 2
REMARK VINA RESULT:    -3.756     11.346     12.308
REMARK INTER + INTRA:          -4.620
REMARK INTER:                  -4.520
REMARK INTRA:                  -0.100
REMARK UNBOUND:                -0.095
REMARK SMILES CC[C@H](C)[C@H]([NH3+])C(=O)[O-]
REMARK SMILES IDX 3 1 4 2 5 3 6 4 7 8 8 9 9 10 2 11 1 12
REMARK H PARENT 6 5 6 6 6 7
REMARK Flexibility Score: inf
ROOT
ATOM      1  C   UNL     1     -22.086  84.427 -22.311  1.00  0.00     0.050 C 
ATOM      2  C   UNL     1     -21.335  83.096 -22.513  1.00  0.00     0.014 C 
ENDROOT
BRANCH   1   3
ATOM      3  C   UNL     1     -21.471  85.567 -23.182  1.00  0.00     0.230 C 
BRANCH   3   4
ATOM      4  N   UNL     1     -20.708  86.527 -22.369  1.00  0.00    -0.350 N 
ATOM      5  H   UNL     1     -20.179  86.029 -21.619  1.00  0.00     0.345 HD
ATOM      6  H   UNL     1     -21.344  87.235 -21.936  1.00  0.00     0.345 HD
ATOM      7  H   UNL     1     -20.004  87.022 -22.965  1.00  0.00     0.345 HD
ENDBRANCH   3   4
BRANCH   3   8
ATOM      8  C   UNL     1     -22.550  86.300 -23.941  1.00  0.00     0.099 C 
ATOM      9  O   UNL     1     -23.736  85.873 -23.937  1.00  0.00    -0.544 OA
ATOM     10  O   UNL     1     -22.238  87.447 -24.661  1.00  0.00    -0.544 OA
ENDBRANCH   3   8
ENDBRANCH   1   3
BRANCH   1  11
ATOM     11  C   UNL     1     -22.186  84.773 -20.801  1.00  0.00     0.006 C 
ATOM     12  C   UNL     1     -21.823  83.624 -19.858  1.00  0.00     0.004 C 
ENDBRANCH   1  11
TORSDOF 4
ENDMDL
MODEL 3
REMARK VINA RESULT:    -3.687     18.747     19.814
REMARK INTER + INTRA:          -4.536
REMARK INTER:                  -4.458
REMARK INTRA:                  -0.079
REMARK UNBOUND:                -0.095
REMARK SMILES CC[C@H](C)[C@H]([NH3+])C(=O)[O-]
REMARK SMILES IDX 3 1 4 2 5 3 6 4 7 8 8 9 9 10 2 11 1 12
REMARK H PARENT 6 5 6 6 6 7
REMARK Flexibility Score: inf
ROOT
ATOM      1  C   UNL     1     -37.098  82.547 -19.129  1.00  0.00     0.050 C 
ATOM      2  C   UNL     1     -37.183  83.429 -20.389  1.00  0.00     0.014 C 
ENDROOT
BRANCH   1   3
ATOM      3  C   UNL     1     -35.854  82.912 -18.259  1.00  0.00     0.230 C 
BRANCH   3   4
ATOM      4  N   UNL     1     -35.839  82.174 -16.986  1.00  0.00    -0.350 N 
ATOM      5  H   UNL     1     -35.918  81.147 -17.160  1.00  0.00     0.345 HD
ATOM      6  H   UNL     1     -36.624  82.485 -16.368  1.00  0.00     0.345 HD
ATOM      7  H   UNL     1     -34.932  82.333 -16.489  1.00  0.00     0.345 HD
ENDBRANCH   3   4
BRANCH   3   8
ATOM      8  C   UNL     1     -35.815  84.394 -17.980  1.00  0.00     0.099 C 
ATOM      9  O   UNL     1     -36.714  84.937 -17.284  1.00  0.00    -0.544 OA
ATOM     10  O   UNL     1     -34.789  85.173 -18.502  1.00  0.00    -0.544 OA
ENDBRANCH   3   8
ENDBRANCH   1   3
BRANCH   1  11
ATOM     11  C   UNL     1     -37.180  81.044 -19.508  1.00  0.00     0.006 C 
ATOM     12  C   UNL     1     -38.593  80.541 -19.817  1.00  0.00     0.004 C 
ENDBRANCH   1  11
TORSDOF 4
ENDMDL
MODEL 4
REMARK VINA RESULT:    -3.680      3.081      4.043
REMARK INTER + INTRA:          -4.528
REMARK INTER:                  -4.373
REMARK INTRA:                  -0.155
REMARK UNBOUND:                -0.095
REMARK SMILES CC[C@H](C)[C@H]([NH3+])C(=O)[O-]
REMARK SMILES IDX 3 1 4 2 5 3 6 4 7 8 8 9 9 10 2 11 1 12
REMARK H PARENT 6 5 6 6 6 7
REMARK Flexibility Score: inf
ROOT
ATOM      1  C   UNL     1     -24.922  93.849 -28.064  1.00  0.00     0.050 C 
ATOM      2  C   UNL     1     -23.916  92.693 -28.223  1.00  0.00     0.014 C 
ENDROOT
BRANCH   1   3
ATOM      3  C   UNL     1     -26.380  93.318 -27.890  1.00  0.00     0.230 C 
BRANCH   3   4
ATOM      4  N   UNL     1     -27.110  93.288 -29.167  1.00  0.00    -0.350 N 
ATOM      5  H   UNL     1     -28.005  92.759 -29.062  1.00  0.00     0.345 HD
ATOM      6  H   UNL     1     -26.528  92.846 -29.916  1.00  0.00     0.345 HD
ATOM      7  H   UNL     1     -27.360  94.260 -29.461  1.00  0.00     0.345 HD
ENDBRANCH   3   4
BRANCH   3   8
ATOM      8  C   UNL     1     -27.141  94.163 -26.897  1.00  0.00     0.099 C 
ATOM      9  O   UNL     1     -28.400  94.156 -26.886  1.00  0.00    -0.544 OA
ATOM     10  O   UNL     1     -26.452  94.966 -25.996  1.00  0.00    -0.544 OA
ENDBRANCH   3   8
ENDBRANCH   1   3
BRANCH   1  11
ATOM     11  C   UNL     1     -24.762  94.876 -29.217  1.00  0.00     0.006 C 
ATOM     12  C   UNL     1     -24.766  96.341 -28.771  1.00  0.00     0.004 C 
ENDBRANCH   1  11
TORSDOF 4
ENDMDL
MODEL 5
REMARK VINA RESULT:    -3.581     17.044     17.659
REMARK INTER + INTRA:          -4.408
REMARK INTER:                  -4.298
REMARK INTRA:                  -0.110
REMARK UNBOUND:                -0.095
REMARK SMILES CC[C@H](C)[C@H]([NH3+])C(=O)[O-]
REMARK SMILES IDX 3 1 4 2 5 3 6 4 7 8 8 9 9 10 2 11 1 12
REMARK H PARENT 6 5 6 6 6 7
REMARK Flexibility Score: inf
ROOT
ATOM      1  C   UNL     1     -34.721  84.072 -19.459  1.00  0.00     0.050 C 
ATOM      2  C   UNL     1     -35.950  83.180 -19.721  1.00  0.00     0.014 C 
ENDROOT
BRANCH   1   3
ATOM      3  C   UNL     1     -33.453  83.218 -19.143  1.00  0.00     0.230 C 
BRANCH   3   4
ATOM      4  N   UNL     1     -32.315  84.056 -18.732  1.00  0.00    -0.350 N 
ATOM      5  H   UNL     1     -31.895  83.690 -17.849  1.00  0.00     0.345 HD
ATOM      6  H   UNL     1     -32.617  85.047 -18.591  1.00  0.00     0.345 HD
ATOM      7  H   UNL     1     -31.567  84.029 -19.463  1.00  0.00     0.345 HD
ENDBRANCH   3   4
BRANCH   3   8
ATOM      8  C   UNL     1     -33.057  82.388 -20.339  1.00  0.00     0.099 C 
ATOM      9  O   UNL     1     -32.997  81.132 -20.254  1.00  0.00    -0.544 OA
ATOM     10  O   UNL     1     -32.744  83.008 -21.543  1.00  0.00    -0.544 OA
ENDBRANCH   3   8
ENDBRANCH   1   3
BRANCH   1  11
ATOM     11  C   UNL     1     -35.042  85.142 -18.381  1.00  0.00     0.006 C 
ATOM     12  C   UNL     1     -36.051  84.695 -17.320  1.00  0.00     0.004 C 
ENDBRANCH   1  11
TORSDOF 4
ENDMDL
MODEL 6
REMARK VINA RESULT:    -3.574     13.498     14.133
REMARK INTER + INTRA:          -4.400
REMARK INTER:                  -4.312
REMARK INTRA:                  -0.089
REMARK UNBOUND:                -0.095
REMARK SMILES CC[C@H](C)[C@H]([NH3+])C(=O)[O-]
REMARK SMILES IDX 3 1 4 2 5 3 6 4 7 8 8 9 9 10 2 11 1 12
REMARK H PARENT 6 5 6 6 6 7
REMARK Flexibility Score: inf
ROOT
ATOM      1  C   UNL     1     -22.796  83.419 -21.643  1.00  0.00     0.050 C 
ATOM      2  C   UNL     1     -23.610  82.132 -21.405  1.00  0.00     0.014 C 
ENDROOT
BRANCH   1   3
ATOM      3  C   UNL     1     -21.582  83.160 -22.590  1.00  0.00     0.230 C 
BRANCH   3   4
ATOM      4  N   UNL     1     -20.631  84.282 -22.583  1.00  0.00    -0.350 N 
ATOM      5  H   UNL     1     -20.251  84.431 -21.621  1.00  0.00     0.345 HD
ATOM      6  H   UNL     1     -21.091  85.161 -22.916  1.00  0.00     0.345 HD
ATOM      7  H   UNL     1     -19.817  84.068 -23.205  1.00  0.00     0.345 HD
ENDBRANCH   3   4
BRANCH   3   8
ATOM      8  C   UNL     1     -22.052  82.911 -24.003  1.00  0.00     0.099 C 
ATOM      9  O   UNL     1     -21.464  82.069 -24.732  1.00  0.00    -0.544 OA
ATOM     10  O   UNL     1     -23.133  83.622 -24.512  1.00  0.00    -0.544 OA
ENDBRANCH   3   8
ENDBRANCH   1   3
BRANCH   1  11
ATOM     11  C   UNL     1     -22.409  84.079 -20.292  1.00  0.00     0.006 C 
ATOM     12  C   UNL     1     -21.657  83.159 -19.327  1.00  0.00     0.004 C 
ENDBRANCH   1  11
TORSDOF 4
ENDMDL
MODEL 7
REMARK VINA RESULT:    -3.557     18.247     19.563
REMARK INTER + INTRA:          -4.380
REMARK INTER:                  -4.253
REMARK INTRA:                  -0.127
REMARK UNBOUND:                -0.095
REMARK SMILES CC[C@H](C)[C@H]([NH3+])C(=O)[O-]
REMARK SMILES IDX 3 1 4 2 5 3 6 4 7 8 8 9 9 10 2 11 1 12
REMARK H PARENT 6 5 6 6 6 7
REMARK Flexibility Score: inf
ROOT
ATOM      1  C   UNL     1     -36.048  83.764 -18.585  1.00  0.00     0.050 C 
ATOM      2  C   UNL     1     -36.021  84.689 -17.353  1.00  0.00     0.014 C 
ENDROOT
BRANCH   1   3
ATOM      3  C   UNL     1     -36.048  82.260 -18.170  1.00  0.00     0.230 C 
BRANCH   3   4
ATOM      4  N   UNL     1     -34.683  81.739 -17.991  1.00  0.00    -0.350 N 
ATOM      5  H   UNL     1     -34.287  81.433 -18.908  1.00  0.00     0.345 HD
ATOM      6  H   UNL     1     -34.677  80.935 -17.322  1.00  0.00     0.345 HD
ATOM      7  H   UNL     1     -34.056  82.492 -17.622  1.00  0.00     0.345 HD
ENDBRANCH   3   4
BRANCH   3   8
ATOM      8  C   UNL     1     -36.772  81.423 -19.195  1.00  0.00     0.099 C 
ATOM      9  O   UNL     1     -37.922  81.752 -19.592  1.00  0.00    -0.544 OA
ATOM     10  O   UNL     1     -36.177  80.272 -19.700  1.00  0.00    -0.544 OA
ENDBRANCH   3   8
ENDBRANCH   1   3
BRANCH   1  11
ATOM     11  C   UNL     1     -34.915  84.142 -19.576  1.00  0.00     0.006 C 
ATOM     12  C   UNL     1     -35.401  84.624 -20.946  1.00  0.00     0.004 C 
ENDBRANCH   1  11
TORSDOF 4
ENDMDL
MODEL 8
REMARK VINA RESULT:    -3.554     17.753     18.884
REMARK INTER + INTRA:          -4.376
REMARK INTER:                  -4.221
REMARK INTRA:                  -0.155
REMARK UNBOUND:                -0.095
REMARK SMILES CC[C@H](C)[C@H]([NH3+])C(=O)[O-]
REMARK SMILES IDX 3 1 4 2 5 3 6 4 7 8 8 9 9 10 2 11 1 12
REMARK H PARENT 6 5 6 6 6 7
REMARK Flexibility Score: inf
ROOT
ATOM      1  C   UNL     1     -36.239  82.598 -19.027  1.00  0.00     0.050 C 
ATOM      2  C   UNL     1     -37.402  81.651 -19.382  1.00  0.00     0.014 C 
ENDROOT
BRANCH   1   3
ATOM      3  C   UNL     1     -34.855  81.929 -19.299  1.00  0.00     0.230 C 
BRANCH   3   4
ATOM      4  N   UNL     1     -34.246  81.405 -18.066  1.00  0.00    -0.350 N 
ATOM      5  H   UNL     1     -33.867  80.445 -18.228  1.00  0.00     0.345 HD
ATOM      6  H   UNL     1     -34.947  81.378 -17.290  1.00  0.00     0.345 HD
ATOM      7  H   UNL     1     -33.442  82.008 -17.778  1.00  0.00     0.345 HD
ENDBRANCH   3   4
BRANCH   3   8
ATOM      8  C   UNL     1     -33.908  82.908 -19.949  1.00  0.00     0.099 C 
ATOM      9  O   UNL     1     -33.873  83.027 -21.203  1.00  0.00    -0.544 OA
ATOM     10  O   UNL     1     -33.057  83.677 -19.164  1.00  0.00    -0.544 OA
ENDBRANCH   3   8
ENDBRANCH   1   3
BRANCH   1  11
ATOM     11  C   UNL     1     -36.400  83.142 -17.582  1.00  0.00     0.006 C 
ATOM     12  C   UNL     1     -36.039  84.621 -17.415  1.00  0.00     0.004 C 
ENDBRANCH   1  11
TORSDOF 4
ENDMDL
MODEL 9
REMARK VINA RESULT:    -3.546     14.285     15.264
REMARK INTER + INTRA:          -4.366
REMARK INTER:                  -4.212
REMARK INTRA:                  -0.154
REMARK UNBOUND:                -0.095
REMARK SMILES CC[C@H](C)[C@H]([NH3+])C(=O)[O-]
REMARK SMILES IDX 3 1 4 2 5 3 6 4 7 8 8 9 9 10 2 11 1 12
REMARK H PARENT 6 5 6 6 6 7
REMARK Flexibility Score: inf
ROOT
ATOM      1  C   UNL     1     -22.117  83.306 -22.073  1.00  0.00     0.050 C 
ATOM      2  C   UNL     1     -21.933  84.180 -23.329  1.00  0.00     0.014 C 
ENDROOT
BRANCH   1   3
ATOM      3  C   UNL     1     -23.190  82.196 -22.302  1.00  0.00     0.230 C 
BRANCH   3   4
ATOM      4  N   UNL     1     -24.414  82.446 -21.524  1.00  0.00    -0.350 N 
ATOM      5  H   UNL     1     -25.169  81.783 -21.809  1.00  0.00     0.345 HD
ATOM      6  H   UNL     1     -24.744  83.430 -21.658  1.00  0.00     0.345 HD
ATOM      7  H   UNL     1     -24.232  82.285 -20.506  1.00  0.00     0.345 HD
ENDBRANCH   3   4
BRANCH   3   8
ATOM      8  C   UNL     1     -22.638  80.838 -21.945  1.00  0.00     0.099 C 
ATOM      9  O   UNL     1     -21.402  80.679 -21.762  1.00  0.00    -0.544 OA
ATOM     10  O   UNL     1     -23.494  79.748 -21.829  1.00  0.00    -0.544 OA
ENDBRANCH   3   8
ENDBRANCH   1   3
BRANCH   1  11
ATOM     11  C   UNL     1     -22.384  84.190 -20.826  1.00  0.00     0.006 C 
ATOM     12  C   UNL     1     -21.729  83.688 -19.536  1.00  0.00     0.004 C 
ENDBRANCH   1  11
TORSDOF 4
ENDMDL
