MODEL 1
REMARK VINA RESULT:    -5.686      0.000      0.000
REMARK INTER + INTRA:          -6.278
REMARK INTER:                  -6.018
REMARK INTRA:                  -0.260
REMARK UNBOUND:                -0.260
REMARK SMILES O=c1cc(-c2ccccc2)oc2ccccc12
REMARK SMILES IDX 4 1 3 2 2 3 1 4 17 5 16 6 15 7 14 8 13 9 12 10 11 11 5 12
REMARK SMILES IDX 8 13 7 14 9 15 6 16 10 17
REMARK H PARENT
REMARK Flexibility Score: inf
ROOT
ATOM      1  C   UNL     1      -5.375 -17.454  -7.399  1.00  0.00     0.138 A 
ATOM      2  C   UNL     1      -4.249 -18.129  -7.915  1.00  0.00     0.100 A 
ATOM      3  C   UNL     1      -4.376 -18.888  -9.080  1.00  0.00     0.193 A 
ATOM      4  O   UNL     1      -3.369 -19.491  -9.541  1.00  0.00    -0.289 OA
ATOM      5  C   UNL     1      -5.620 -18.969  -9.719  1.00  0.00     0.065 A 
ATOM      6  C   UNL     1      -5.816 -19.716 -10.895  1.00  0.00     0.016 A 
ATOM      7  C   UNL     1      -7.080 -19.763 -11.492  1.00  0.00     0.001 A 
ATOM      8  C   UNL     1      -8.152 -19.068 -10.925  1.00  0.00     0.004 A 
ATOM      9  C   UNL     1      -7.967 -18.323  -9.757  1.00  0.00     0.048 A 
ATOM     10  C   UNL     1      -6.706 -18.270  -9.151  1.00  0.00     0.138 A 
ATOM     11  O   UNL     1      -6.541 -17.559  -8.040  1.00  0.00    -0.456 OA
ENDROOT
BRANCH   1  12
ATOM     12  C   UNL     1      -5.327 -16.620  -6.158  1.00  0.00     0.017 A 
ATOM     13  C   UNL     1      -5.332 -15.060  -3.806  1.00  0.00     0.000 A 
ATOM     14  C   UNL     1      -4.142 -15.271  -4.502  1.00  0.00     0.001 A 
ATOM     15  C   UNL     1      -6.519 -15.621  -4.274  1.00  0.00     0.001 A 
ATOM     16  C   UNL     1      -4.133 -16.042  -5.667  1.00  0.00     0.012 A 
ATOM     17  C   UNL     1      -6.519 -16.394  -5.438  1.00  0.00     0.012 A 
ENDBRANCH   1  12
TORSDOF 1
ENDMDL
MODEL 2
REMARK VINA RESULT:    -5.488      1.512      3.045
REMARK INTER + INTRA:          -6.069
REMARK INTER:                  -5.817
REMARK INTRA:                  -0.252
REMARK UNBOUND:                -0.260
REMARK SMILES O=c1cc(-c2ccccc2)oc2ccccc12
REMARK SMILES IDX 4 1 3 2 2 3 1 4 17 5 16 6 15 7 14 8 13 9 12 10 11 11 5 12
REMARK SMILES IDX 8 13 7 14 9 15 6 16 10 17
REMARK H PARENT
REMARK Flexibility Score: inf
ROOT
ATOM      1  C   UNL     1      -4.770 -17.033  -6.198  1.00  0.00     0.138 A 
ATOM      2  C   UNL     1      -6.123 -16.659  -6.330  1.00  0.00     0.100 A 
ATOM      3  C   UNL     1      -6.865 -17.130  -7.416  1.00  0.00     0.193 A 
ATOM      4  O   UNL     1      -8.075 -16.797  -7.534  1.00  0.00    -0.289 OA
ATOM      5  C   UNL     1      -6.252 -17.966  -8.360  1.00  0.00     0.065 A 
ATOM      6  C   UNL     1      -6.940 -18.474  -9.477  1.00  0.00     0.016 A 
ATOM      7  C   UNL     1      -6.280 -19.304 -10.388  1.00  0.00     0.001 A 
ATOM      8  C   UNL     1      -4.935 -19.633 -10.193  1.00  0.00     0.004 A 
ATOM      9  C   UNL     1      -4.243 -19.133  -9.087  1.00  0.00     0.048 A 
ATOM     10  C   UNL     1      -4.894 -18.301  -8.169  1.00  0.00     0.138 A 
ATOM     11  O   UNL     1      -4.227 -17.830  -7.120  1.00  0.00    -0.456 OA
ENDROOT
BRANCH   1  12
ATOM     12  C   UNL     1      -3.906 -16.574  -5.066  1.00  0.00     0.017 A 
ATOM     13  C   UNL     1      -2.231 -15.797  -2.931  1.00  0.00     0.000 A 
ATOM     14  C   UNL     1      -3.172 -14.903  -3.442  1.00  0.00     0.001 A 
ATOM     15  C   UNL     1      -2.120 -17.076  -3.476  1.00  0.00     0.001 A 
ATOM     16  C   UNL     1      -4.004 -15.283  -4.500  1.00  0.00     0.012 A 
ATOM     17  C   UNL     1      -2.948 -17.462  -4.534  1.00  0.00     0.012 A 
ENDBRANCH   1  12
TORSDOF 1
ENDMDL
MODEL 3
REMARK VINA RESULT:    -5.480      1.492      2.963
REMARK INTER + INTRA:          -6.060
REMARK INTER:                  -5.811
REMARK INTRA:                  -0.250
REMARK UNBOUND:                -0.260
REMARK SMILES O=c1cc(-c2ccccc2)oc2ccccc12
REMARK SMILES IDX 4 1 3 2 2 3 1 4 17 5 16 6 15 7 14 8 13 9 12 10 11 11 5 12
REMARK SMILES IDX 8 13 7 14 9 15 6 16 10 17
REMARK H PARENT
REMARK Flexibility Score: inf
ROOT
ATOM      1  C   UNL     1      -4.756 -17.028  -6.176  1.00  0.00     0.138 A 
ATOM      2  C   UNL     1      -6.110 -16.662  -6.323  1.00  0.00     0.100 A 
ATOM      3  C   UNL     1      -6.835 -17.131  -7.421  1.00  0.00     0.193 A 
ATOM      4  O   UNL     1      -8.045 -16.804  -7.552  1.00  0.00    -0.289 OA
ATOM      5  C   UNL     1      -6.205 -17.958  -8.361  1.00  0.00     0.065 A 
ATOM      6  C   UNL     1      -6.876 -18.464  -9.489  1.00  0.00     0.016 A 
ATOM      7  C   UNL     1      -6.200 -19.285 -10.397  1.00  0.00     0.001 A 
ATOM      8  C   UNL     1      -4.855 -19.607 -10.187  1.00  0.00     0.004 A 
ATOM      9  C   UNL     1      -4.180 -19.108  -9.070  1.00  0.00     0.048 A 
ATOM     10  C   UNL     1      -4.848 -18.286  -8.155  1.00  0.00     0.138 A 
ATOM     11  O   UNL     1      -4.196 -17.817  -7.095  1.00  0.00    -0.456 OA
ENDROOT
BRANCH   1  12
ATOM     12  C   UNL     1      -3.909 -16.570  -5.031  1.00  0.00     0.017 A 
ATOM     13  C   UNL     1      -2.355 -15.619  -2.875  1.00  0.00     0.000 A 
ATOM     14  C   UNL     1      -2.192 -16.927  -3.331  1.00  0.00     0.001 A 
ATOM     15  C   UNL     1      -3.287 -14.782  -3.487  1.00  0.00     0.001 A 
ATOM     16  C   UNL     1      -2.958 -17.404  -4.398  1.00  0.00     0.012 A 
ATOM     17  C   UNL     1      -4.058 -15.251  -4.554  1.00  0.00     0.012 A 
ENDBRANCH   1  12
TORSDOF 1
ENDMDL
MODEL 4
REMARK VINA RESULT:    -5.300      1.129      1.583
REMARK INTER + INTRA:          -5.869
REMARK INTER:                  -5.629
REMARK INTRA:                  -0.240
REMARK UNBOUND:                -0.260
REMARK SMILES O=c1cc(-c2ccccc2)oc2ccccc12
REMARK SMILES IDX 4 1 3 2 2 3 1 4 17 5 16 6 15 7 14 8 13 9 12 10 11 11 5 12
REMARK SMILES IDX 8 13 7 14 9 15 6 16 10 17
REMARK H PARENT
REMARK Flexibility Score: inf
ROOT
ATOM      1  C   UNL     1      -4.453 -17.760  -7.279  1.00  0.00     0.138 A 
ATOM      2  C   UNL     1      -3.568 -18.457  -8.127  1.00  0.00     0.100 A 
ATOM      3  C   UNL     1      -4.057 -19.057  -9.290  1.00  0.00     0.193 A 
ATOM      4  O   UNL     1      -3.265 -19.681 -10.048  1.00  0.00    -0.289 OA
ATOM      5  C   UNL     1      -5.421 -18.959  -9.596  1.00  0.00     0.065 A 
ATOM      6  C   UNL     1      -5.979 -19.540 -10.749  1.00  0.00     0.016 A 
ATOM      7  C   UNL     1      -7.347 -19.412 -11.006  1.00  0.00     0.001 A 
ATOM      8  C   UNL     1      -8.166 -18.705 -10.121  1.00  0.00     0.004 A 
ATOM      9  C   UNL     1      -7.621 -18.125  -8.972  1.00  0.00     0.048 A 
ATOM     10  C   UNL     1      -6.252 -18.247  -8.705  1.00  0.00     0.138 A 
ATOM     11  O   UNL     1      -5.744 -17.691  -7.610  1.00  0.00    -0.456 OA
ENDROOT
BRANCH   1  12
ATOM     12  C   UNL     1      -4.012 -17.089  -6.018  1.00  0.00     0.017 A 
ATOM     13  C   UNL     1      -3.134 -15.905  -3.610  1.00  0.00     0.000 A 
ATOM     14  C   UNL     1      -3.900 -15.167  -4.513  1.00  0.00     0.001 A 
ATOM     15  C   UNL     1      -2.803 -17.229  -3.899  1.00  0.00     0.001 A 
ATOM     16  C   UNL     1      -4.338 -15.749  -5.706  1.00  0.00     0.012 A 
ATOM     17  C   UNL     1      -3.236 -17.816  -5.090  1.00  0.00     0.012 A 
ENDBRANCH   1  12
TORSDOF 1
ENDMDL
MODEL 5
REMARK VINA RESULT:    -5.193      2.088      5.978
REMARK INTER + INTRA:          -5.756
REMARK INTER:                  -5.522
REMARK INTRA:                  -0.234
REMARK UNBOUND:                -0.260
REMARK SMILES O=c1cc(-c2ccccc2)oc2ccccc12
REMARK SMILES IDX 4 1 3 2 2 3 1 4 17 5 16 6 15 7 14 8 13 9 12 10 11 11 5 12
REMARK SMILES IDX 8 13 7 14 9 15 6 16 10 17
REMARK H PARENT
REMARK Flexibility Score: inf
ROOT
ATOM      1  C   UNL     1      -5.342 -18.386  -8.239  1.00  0.00     0.138 A 
ATOM      2  C   UNL     1      -5.006 -17.041  -7.979  1.00  0.00     0.100 A 
ATOM      3  C   UNL     1      -4.269 -16.724  -6.835  1.00  0.00     0.193 A 
ATOM      4  O   UNL     1      -3.968 -15.522  -6.602  1.00  0.00    -0.289 OA
ATOM      5  C   UNL     1      -3.876 -17.748  -5.962  1.00  0.00     0.065 A 
ATOM      6  C   UNL     1      -3.133 -17.499  -4.794  1.00  0.00     0.016 A 
ATOM      7  C   UNL     1      -2.767 -18.558  -3.957  1.00  0.00     0.001 A 
ATOM      8  C   UNL     1      -3.135 -19.868  -4.279  1.00  0.00     0.004 A 
ATOM      9  C   UNL     1      -3.873 -20.125  -5.438  1.00  0.00     0.048 A 
ATOM     10  C   UNL     1      -4.245 -19.072  -6.282  1.00  0.00     0.138 A 
ATOM     11  O   UNL     1      -4.947 -19.328  -7.381  1.00  0.00    -0.456 OA
ENDROOT
BRANCH   1  12
ATOM     12  C   UNL     1      -6.127 -18.810  -9.440  1.00  0.00     0.017 A 
ATOM     13  C   UNL     1      -7.681 -19.552 -11.676  1.00  0.00     0.000 A 
ATOM     14  C   UNL     1      -6.414 -20.104 -11.492  1.00  0.00     0.001 A 
ATOM     15  C   UNL     1      -8.180 -18.633 -10.753  1.00  0.00     0.001 A 
ATOM     16  C   UNL     1      -5.640 -19.740 -10.386  1.00  0.00     0.012 A 
ATOM     17  C   UNL     1      -7.412 -18.264  -9.646  1.00  0.00     0.012 A 
ENDBRANCH   1  12
TORSDOF 1
ENDMDL
MODEL 6
REMARK VINA RESULT:    -5.148      1.699      5.898
REMARK INTER + INTRA:          -5.709
REMARK INTER:                  -5.466
REMARK INTRA:                  -0.243
REMARK UNBOUND:                -0.260
REMARK SMILES O=c1cc(-c2ccccc2)oc2ccccc12
REMARK SMILES IDX 4 1 3 2 2 3 1 4 17 5 16 6 15 7 14 8 13 9 12 10 11 11 5 12
REMARK SMILES IDX 8 13 7 14 9 15 6 16 10 17
REMARK H PARENT
REMARK Flexibility Score: inf
ROOT
ATOM      1  C   UNL     1      -5.172 -18.498  -7.635  1.00  0.00     0.138 A 
ATOM      2  C   UNL     1      -4.558 -19.524  -6.886  1.00  0.00     0.100 A 
ATOM      3  C   UNL     1      -3.883 -19.207  -5.706  1.00  0.00     0.193 A 
ATOM      4  O   UNL     1      -3.334 -20.124  -5.037  1.00  0.00    -0.289 OA
ATOM      5  C   UNL     1      -3.824 -17.872  -5.283  1.00  0.00     0.065 A 
ATOM      6  C   UNL     1      -3.160 -17.483  -4.105  1.00  0.00     0.016 A 
ATOM      7  C   UNL     1      -3.131 -16.137  -3.729  1.00  0.00     0.001 A 
ATOM      8  C   UNL     1      -3.762 -15.172  -4.520  1.00  0.00     0.004 A 
ATOM      9  C   UNL     1      -4.423 -15.549  -5.692  1.00  0.00     0.048 A 
ATOM     10  C   UNL     1      -4.458 -16.894  -6.078  1.00  0.00     0.138 A 
ATOM     11  O   UNL     1      -5.090 -17.241  -7.194  1.00  0.00    -0.456 OA
ENDROOT
BRANCH   1  12
ATOM     12  C   UNL     1      -5.914 -18.752  -8.908  1.00  0.00     0.017 A 
ATOM     13  C   UNL     1      -7.391 -19.176 -11.276  1.00  0.00     0.000 A 
ATOM     14  C   UNL     1      -6.125 -19.744 -11.130  1.00  0.00     0.001 A 
ATOM     15  C   UNL     1      -7.925 -18.398 -10.250  1.00  0.00     0.001 A 
ATOM     16  C   UNL     1      -5.390 -19.538  -9.959  1.00  0.00     0.012 A 
ATOM     17  C   UNL     1      -7.196 -18.187  -9.077  1.00  0.00     0.012 A 
ENDBRANCH   1  12
TORSDOF 1
ENDMDL
MODEL 7
REMARK VINA RESULT:    -5.142      1.261      6.383
REMARK INTER + INTRA:          -5.702
REMARK INTER:                  -5.441
REMARK INTRA:                  -0.261
REMARK UNBOUND:                -0.260
REMARK SMILES O=c1cc(-c2ccccc2)oc2ccccc12
REMARK SMILES IDX 4 1 3 2 2 3 1 4 17 5 16 6 15 7 14 8 13 9 12 10 11 11 5 12
REMARK SMILES IDX 8 13 7 14 9 15 6 16 10 17
REMARK H PARENT
REMARK Flexibility Score: inf
ROOT
ATOM      1  C   UNL     1      -6.775 -17.509  -7.847  1.00  0.00     0.138 A 
ATOM      2  C   UNL     1      -7.928 -17.092  -7.150  1.00  0.00     0.100 A 
ATOM      3  C   UNL     1      -7.791 -16.382  -5.956  1.00  0.00     0.193 A 
ATOM      4  O   UNL     1      -8.822 -16.008  -5.333  1.00  0.00    -0.289 OA
ATOM      5  C   UNL     1      -6.509 -16.096  -5.466  1.00  0.00     0.065 A 
ATOM      6  C   UNL     1      -6.301 -15.385  -4.269  1.00  0.00     0.016 A 
ATOM      7  C   UNL     1      -5.000 -15.127  -3.826  1.00  0.00     0.001 A 
ATOM      8  C   UNL     1      -3.903 -15.571  -4.570  1.00  0.00     0.004 A 
ATOM      9  C   UNL     1      -4.100 -16.278  -5.759  1.00  0.00     0.048 A 
ATOM     10  C   UNL     1      -5.398 -16.542  -6.212  1.00  0.00     0.138 A 
ATOM     11  O   UNL     1      -5.575 -17.215  -7.345  1.00  0.00    -0.456 OA
ENDROOT
BRANCH   1  12
ATOM     12  C   UNL     1      -6.833 -18.272  -9.132  1.00  0.00     0.017 A 
ATOM     13  C   UNL     1      -6.850 -19.745 -11.541  1.00  0.00     0.000 A 
ATOM     14  C   UNL     1      -7.966 -18.995 -11.173  1.00  0.00     0.001 A 
ATOM     15  C   UNL     1      -5.725 -19.767 -10.717  1.00  0.00     0.001 A 
ATOM     16  C   UNL     1      -7.963 -18.263  -9.981  1.00  0.00     0.012 A 
ATOM     17  C   UNL     1      -5.715 -19.039  -9.524  1.00  0.00     0.012 A 
ENDBRANCH   1  12
TORSDOF 1
ENDMDL
MODEL 8
REMARK VINA RESULT:    -4.911      1.403      5.840
REMARK INTER + INTRA:          -5.458
REMARK INTER:                  -5.193
REMARK INTRA:                  -0.265
REMARK UNBOUND:                -0.260
REMARK SMILES O=c1cc(-c2ccccc2)oc2ccccc12
REMARK SMILES IDX 4 1 3 2 2 3 1 4 17 5 16 6 15 7 14 8 13 9 12 10 11 11 5 12
REMARK SMILES IDX 8 13 7 14 9 15 6 16 10 17
REMARK H PARENT
REMARK Flexibility Score: inf
ROOT
ATOM      1  C   UNL     1      -6.172 -17.698  -7.844  1.00  0.00     0.138 A 
ATOM      2  C   UNL     1      -4.891 -17.712  -7.255  1.00  0.00     0.100 A 
ATOM      3  C   UNL     1      -4.678 -17.035  -6.052  1.00  0.00     0.193 A 
ATOM      4  O   UNL     1      -3.533 -17.047  -5.525  1.00  0.00    -0.289 OA
ATOM      5  C   UNL     1      -5.742 -16.349  -5.449  1.00  0.00     0.065 A 
ATOM      6  C   UNL     1      -5.597 -15.646  -4.239  1.00  0.00     0.016 A 
ATOM      7  C   UNL     1      -6.691 -14.979  -3.681  1.00  0.00     0.001 A 
ATOM      8  C   UNL     1      -7.934 -15.008  -4.321  1.00  0.00     0.004 A 
ATOM      9  C   UNL     1      -8.088 -15.703  -5.524  1.00  0.00     0.048 A 
ATOM     10  C   UNL     1      -6.998 -16.374  -6.091  1.00  0.00     0.138 A 
ATOM     11  O   UNL     1      -7.156 -17.033  -7.235  1.00  0.00    -0.456 OA
ENDROOT
BRANCH   1  12
ATOM     12  C   UNL     1      -6.485 -18.398  -9.128  1.00  0.00     0.017 A 
ATOM     13  C   UNL     1      -7.165 -19.678 -11.551  1.00  0.00     0.000 A 
ATOM     14  C   UNL     1      -5.901 -19.866 -10.992  1.00  0.00     0.001 A 
ATOM     15  C   UNL     1      -8.092 -18.857 -10.910  1.00  0.00     0.001 A 
ATOM     16  C   UNL     1      -5.559 -19.235  -9.792  1.00  0.00     0.012 A 
ATOM     17  C   UNL     1      -7.757 -18.222  -9.711  1.00  0.00     0.012 A 
ENDBRANCH   1  12
TORSDOF 1
ENDMDL
MODEL 9
REMARK VINA RESULT:    -4.615      1.709      6.343
REMARK INTER + INTRA:          -5.144
REMARK INTER:                  -4.879
REMARK INTRA:                  -0.265
REMARK UNBOUND:                -0.260
REMARK SMILES O=c1cc(-c2ccccc2)oc2ccccc12
REMARK SMILES IDX 4 1 3 2 2 3 1 4 17 5 16 6 15 7 14 8 13 9 12 10 11 11 5 12
REMARK SMILES IDX 8 13 7 14 9 15 6 16 10 17
REMARK H PARENT
REMARK Flexibility Score: inf
ROOT
ATOM      1  C   UNL     1      -5.524 -17.607  -7.111  1.00  0.00     0.138 A 
ATOM      2  C   UNL     1      -6.443 -16.716  -6.519  1.00  0.00     0.100 A 
ATOM      3  C   UNL     1      -6.131 -16.114  -5.299  1.00  0.00     0.193 A 
ATOM      4  O   UNL     1      -6.953 -15.318  -4.769  1.00  0.00    -0.289 OA
ATOM      5  C   UNL     1      -4.907 -16.405  -4.679  1.00  0.00     0.065 A 
ATOM      6  C   UNL     1      -4.530 -15.833  -3.450  1.00  0.00     0.016 A 
ATOM      7  C   UNL     1      -3.298 -16.158  -2.875  1.00  0.00     0.001 A 
ATOM      8  C   UNL     1      -2.435 -17.050  -3.520  1.00  0.00     0.004 A 
ATOM      9  C   UNL     1      -2.801 -17.622  -4.741  1.00  0.00     0.048 A 
ATOM     10  C   UNL     1      -4.032 -17.304  -5.325  1.00  0.00     0.138 A 
ATOM     11  O   UNL     1      -4.371 -17.854  -6.487  1.00  0.00    -0.456 OA
ENDROOT
BRANCH   1  12
ATOM     12  C   UNL     1      -5.780 -18.293  -8.415  1.00  0.00     0.017 A 
ATOM     13  C   UNL     1      -6.355 -19.554 -10.875  1.00  0.00     0.000 A 
ATOM     14  C   UNL     1      -5.084 -19.666 -10.312  1.00  0.00     0.001 A 
ATOM     15  C   UNL     1      -7.342 -18.817 -10.219  1.00  0.00     0.001 A 
ATOM     16  C   UNL     1      -4.793 -19.044  -9.094  1.00  0.00     0.012 A 
ATOM     17  C   UNL     1      -7.059 -18.192  -9.002  1.00  0.00     0.012 A 
ENDBRANCH   1  12
TORSDOF 1
ENDMDL
