MODEL 1
REMARK VINA RESULT:    -2.076      0.000      0.000
REMARK INTER + INTRA:          -2.697
REMARK INTER:                  -2.380
REMARK INTRA:                  -0.318
REMARK UNBOUND:                -0.318
REMARK SMILES COc1ccc(C(C)=O)c(O)c1
REMARK SMILES IDX 6 1 10 2 12 3 3 4 4 5 5 6 7 7 8 8 9 9 11 10 2 12 1 13
REMARK H PARENT 11 11
REMARK Flexibility Score: inf
ROOT
ATOM      1  C   UNL     1       2.855 -14.149  15.306  1.00  0.00     0.059 A 
ATOM      2  C   UNL     1       1.941 -14.267  14.231  1.00  0.00     0.130 A 
ATOM      3  C   UNL     1       0.751 -13.529  14.247  1.00  0.00     0.093 A 
ATOM      4  C   UNL     1       0.429 -12.700  15.325  1.00  0.00     0.122 A 
ATOM      5  C   UNL     1       1.322 -12.607  16.405  1.00  0.00     0.047 A 
ATOM      6  C   UNL     1       2.520 -13.322  16.393  1.00  0.00     0.019 A 
ENDROOT
BRANCH   1   7
ATOM      7  C   UNL     1       4.167 -14.839  15.301  1.00  0.00     0.163 C 
ATOM      8  C   UNL     1       4.898 -15.120  16.578  1.00  0.00     0.093 C 
ATOM      9  O   UNL     1       4.723 -15.125  14.208  1.00  0.00    -0.294 OA
ENDBRANCH   1   7
BRANCH   2  10
ATOM     10  O   UNL     1       2.163 -15.123  13.149  1.00  0.00    -0.507 OA
ATOM     11  H   UNL     1       1.524 -15.858  12.882  1.00  0.00     0.293 HD
ENDBRANCH   2  10
BRANCH   4  12
ATOM     12  O   UNL     1      -0.782 -11.993  15.285  1.00  0.00    -0.497 OA
ATOM     13  C   UNL     1      -0.883 -10.573  15.246  1.00  0.00     0.278 C 
ENDBRANCH   4  12
TORSDOF 3
ENDMDL
MODEL 2
REMARK VINA RESULT:    -2.026      1.981      2.988
REMARK INTER + INTRA:          -2.640
REMARK INTER:                  -2.307
REMARK INTRA:                  -0.333
REMARK UNBOUND:                -0.318
REMARK SMILES COc1ccc(C(C)=O)c(O)c1
REMARK SMILES IDX 6 1 10 2 12 3 3 4 4 5 5 6 7 7 8 8 9 9 11 10 2 12 1 13
REMARK H PARENT 11 11
REMARK Flexibility Score: inf
ROOT
ATOM      1  C   UNL     1       4.637 -14.621  15.532  1.00  0.00     0.059 A 
ATOM      2  C   UNL     1       3.930 -13.862  16.498  1.00  0.00     0.130 A 
ATOM      3  C   UNL     1       2.551 -13.669  16.356  1.00  0.00     0.093 A 
ATOM      4  C   UNL     1       1.859 -14.183  15.255  1.00  0.00     0.122 A 
ATOM      5  C   UNL     1       2.565 -14.909  14.282  1.00  0.00     0.047 A 
ATOM      6  C   UNL     1       3.937 -15.125  14.421  1.00  0.00     0.019 A 
ENDROOT
BRANCH   1   7
ATOM      7  C   UNL     1       6.079 -14.930  15.678  1.00  0.00     0.163 C 
ATOM      8  C   UNL     1       6.953 -15.124  14.477  1.00  0.00     0.093 C 
ATOM      9  O   UNL     1       6.570 -15.114  16.822  1.00  0.00    -0.294 OA
ENDBRANCH   1   7
BRANCH   2  10
ATOM     10  O   UNL     1       4.564 -13.264  17.590  1.00  0.00    -0.507 OA
ATOM     11  H   UNL     1       4.068 -12.919  18.399  1.00  0.00     0.293 HD
ENDBRANCH   2  10
BRANCH   4  12
ATOM     12  O   UNL     1       0.479 -13.947  15.167  1.00  0.00    -0.497 OA
ATOM     13  C   UNL     1      -0.126 -12.663  15.277  1.00  0.00     0.278 C 
ENDBRANCH   4  12
TORSDOF 3
ENDMDL
MODEL 3
REMARK VINA RESULT:    -1.995      7.472      9.131
REMARK INTER + INTRA:          -2.605
REMARK INTER:                  -2.343
REMARK INTRA:                  -0.261
REMARK UNBOUND:                -0.318
REMARK SMILES COc1ccc(C(C)=O)c(O)c1
REMARK SMILES IDX 6 1 10 2 12 3 3 4 4 5 5 6 7 7 8 8 9 9 11 10 2 12 1 13
REMARK H PARENT 11 11
REMARK Flexibility Score: inf
ROOT
ATOM      1  C   UNL     1       2.814 -14.959   8.038  1.00  0.00     0.059 A 
ATOM      2  C   UNL     1       1.903 -14.910   6.954  1.00  0.00     0.130 A 
ATOM      3  C   UNL     1       2.382 -14.981   5.640  1.00  0.00     0.093 A 
ATOM      4  C   UNL     1       3.752 -15.065   5.375  1.00  0.00     0.122 A 
ATOM      5  C   UNL     1       4.657 -15.083   6.449  1.00  0.00     0.047 A 
ATOM      6  C   UNL     1       4.191 -15.031   7.764  1.00  0.00     0.019 A 
ENDROOT
BRANCH   1   7
ATOM      7  C   UNL     1       2.356 -14.975   9.448  1.00  0.00     0.163 C 
ATOM      8  C   UNL     1       3.337 -14.929  10.579  1.00  0.00     0.093 C 
ATOM      9  O   UNL     1       1.132 -15.110   9.710  1.00  0.00    -0.294 OA
ENDBRANCH   1   7
BRANCH   2  10
ATOM     10  O   UNL     1       0.526 -14.763   7.139  1.00  0.00    -0.507 OA
ATOM     11  H   UNL     1      -0.119 -14.575   6.384  1.00  0.00     0.293 HD
ENDBRANCH   2  10
BRANCH   4  12
ATOM     12  O   UNL     1       4.170 -15.125   4.037  1.00  0.00    -0.497 OA
ATOM     13  C   UNL     1       5.465 -14.748   3.582  1.00  0.00     0.278 C 
ENDBRANCH   4  12
TORSDOF 3
ENDMDL
MODEL 4
REMARK VINA RESULT:    -1.927      1.203      4.541
REMARK INTER + INTRA:          -2.527
REMARK INTER:                  -2.187
REMARK INTRA:                  -0.340
REMARK UNBOUND:                -0.318
REMARK SMILES COc1ccc(C(C)=O)c(O)c1
REMARK SMILES IDX 6 1 10 2 12 3 3 4 4 5 5 6 7 7 8 8 9 9 11 10 2 12 1 13
REMARK H PARENT 11 11
REMARK Flexibility Score: inf
ROOT
ATOM      1  C   UNL     1       1.556 -13.573  15.356  1.00  0.00     0.059 A 
ATOM      2  C   UNL     1       2.161 -14.513  14.486  1.00  0.00     0.130 A 
ATOM      3  C   UNL     1       3.435 -15.013  14.781  1.00  0.00     0.093 A 
ATOM      4  C   UNL     1       4.140 -14.575  15.906  1.00  0.00     0.122 A 
ATOM      5  C   UNL     1       3.552 -13.620  16.752  1.00  0.00     0.047 A 
ATOM      6  C   UNL     1       2.276 -13.128  16.479  1.00  0.00     0.019 A 
ENDROOT
BRANCH   1   7
ATOM      7  C   UNL     1       0.177 -13.077  15.139  1.00  0.00     0.163 C 
ATOM      8  C   UNL     1      -0.153 -11.623  15.282  1.00  0.00     0.093 C 
ATOM      9  O   UNL     1      -0.756 -13.891  14.909  1.00  0.00    -0.294 OA
ENDBRANCH   1   7
BRANCH   2  10
ATOM     10  O   UNL     1       1.546 -14.950  13.311  1.00  0.00    -0.507 OA
ATOM     11  H   UNL     1       0.748 -15.570  13.298  1.00  0.00     0.293 HD
ENDBRANCH   2  10
BRANCH   4  12
ATOM     12  O   UNL     1       5.416 -15.108  16.143  1.00  0.00    -0.497 OA
ATOM     13  C   UNL     1       6.295 -14.663  17.171  1.00  0.00     0.278 C 
ENDBRANCH   4  12
TORSDOF 3
ENDMDL
MODEL 5
REMARK VINA RESULT:    -1.836      1.725      2.436
REMARK INTER + INTRA:          -2.422
REMARK INTER:                  -2.086
REMARK INTRA:                  -0.336
REMARK UNBOUND:                -0.318
REMARK SMILES COc1ccc(C(C)=O)c(O)c1
REMARK SMILES IDX 6 1 10 2 12 3 3 4 4 5 5 6 7 7 8 8 9 9 11 10 2 12 1 13
REMARK H PARENT 11 11
REMARK Flexibility Score: inf
ROOT
ATOM      1  C   UNL     1       3.602 -14.338  15.621  1.00  0.00     0.059 A 
ATOM      2  C   UNL     1       3.017 -13.447  16.553  1.00  0.00     0.130 A 
ATOM      3  C   UNL     1       1.678 -13.063  16.402  1.00  0.00     0.093 A 
ATOM      4  C   UNL     1       0.914 -13.518  15.323  1.00  0.00     0.122 A 
ATOM      5  C   UNL     1       1.504 -14.378  14.382  1.00  0.00     0.047 A 
ATOM      6  C   UNL     1       2.831 -14.782  14.531  1.00  0.00     0.019 A 
ENDROOT
BRANCH   1   7
ATOM      7  C   UNL     1       4.986 -14.844  15.780  1.00  0.00     0.163 C 
ATOM      8  C   UNL     1       5.849 -15.124  14.589  1.00  0.00     0.093 C 
ATOM      9  O   UNL     1       5.425 -15.124  16.927  1.00  0.00    -0.294 OA
ENDBRANCH   1   7
BRANCH   2  10
ATOM     10  O   UNL     1       3.734 -12.901  17.620  1.00  0.00    -0.507 OA
ATOM     11  H   UNL     1       4.742 -12.828  17.632  1.00  0.00     0.293 HD
ENDBRANCH   2  10
BRANCH   4  12
ATOM     12  O   UNL     1      -0.418 -13.091  15.223  1.00  0.00    -0.497 OA
ATOM     13  C   UNL     1      -0.821 -11.728  15.130  1.00  0.00     0.278 C 
ENDBRANCH   4  12
TORSDOF 3
ENDMDL
MODEL 6
REMARK VINA RESULT:    -1.599      1.562      2.424
REMARK INTER + INTRA:          -2.151
REMARK INTER:                  -2.429
REMARK INTRA:                   0.278
REMARK UNBOUND:                -0.318
REMARK SMILES COc1ccc(C(C)=O)c(O)c1
REMARK SMILES IDX 6 1 10 2 12 3 3 4 4 5 5 6 7 7 8 8 9 9 11 10 2 12 1 13
REMARK H PARENT 11 11
REMARK Flexibility Score: inf
ROOT
ATOM      1  C   UNL     1       3.935 -14.546  15.608  1.00  0.00     0.059 A 
ATOM      2  C   UNL     1       3.274 -13.633  16.466  1.00  0.00     0.130 A 
ATOM      3  C   UNL     1       1.923 -13.331  16.251  1.00  0.00     0.093 A 
ATOM      4  C   UNL     1       1.220 -13.890  15.181  1.00  0.00     0.122 A 
ATOM      5  C   UNL     1       1.884 -14.772  14.312  1.00  0.00     0.047 A 
ATOM      6  C   UNL     1       3.224 -15.096  14.526  1.00  0.00     0.019 A 
ENDROOT
BRANCH   1   7
ATOM      7  C   UNL     1       5.337 -14.967  15.839  1.00  0.00     0.163 C 
ATOM      8  C   UNL     1       5.879 -15.122  17.227  1.00  0.00     0.093 C 
ATOM      9  O   UNL     1       6.116 -15.122  14.863  1.00  0.00    -0.294 OA
ENDBRANCH   1   7
BRANCH   2  10
ATOM     10  O   UNL     1       3.927 -12.987  17.517  1.00  0.00    -0.507 OA
ATOM     11  H   UNL     1       3.501 -12.259  18.074  1.00  0.00     0.293 HD
ENDBRANCH   2  10
BRANCH   4  12
ATOM     12  O   UNL     1      -0.129 -13.542  15.015  1.00  0.00    -0.497 OA
ATOM     13  C   UNL     1      -0.654 -12.235  15.227  1.00  0.00     0.278 C 
ENDBRANCH   4  12
TORSDOF 3
ENDMDL
MODEL 7
REMARK VINA RESULT:    -1.123      1.548      4.968
REMARK INTER + INTRA:          -1.605
REMARK INTER:                  -1.695
REMARK INTRA:                   0.090
REMARK UNBOUND:                -0.318
REMARK SMILES COc1ccc(C(C)=O)c(O)c1
REMARK SMILES IDX 6 1 10 2 12 3 3 4 4 5 5 6 7 7 8 8 9 9 11 10 2 12 1 13
REMARK H PARENT 11 11
REMARK Flexibility Score: inf
ROOT
ATOM      1  C   UNL     1       1.598 -13.748  15.219  1.00  0.00     0.059 A 
ATOM      2  C   UNL     1       2.441 -13.383  16.297  1.00  0.00     0.130 A 
ATOM      3  C   UNL     1       3.762 -13.844  16.333  1.00  0.00     0.093 A 
ATOM      4  C   UNL     1       4.259 -14.691  15.338  1.00  0.00     0.122 A 
ATOM      5  C   UNL     1       3.414 -15.077  14.284  1.00  0.00     0.047 A 
ATOM      6  C   UNL     1       2.100 -14.609  14.227  1.00  0.00     0.019 A 
ENDROOT
BRANCH   1   7
ATOM      7  C   UNL     1       0.220 -13.219  15.085  1.00  0.00     0.163 C 
ATOM      8  C   UNL     1      -0.065 -11.756  15.235  1.00  0.00     0.093 C 
ATOM      9  O   UNL     1      -0.745 -14.012  14.924  1.00  0.00    -0.294 OA
ENDBRANCH   1   7
BRANCH   2  10
ATOM     10  O   UNL     1       1.997 -12.593  17.360  1.00  0.00    -0.507 OA
ATOM     11  H   UNL     1       1.120 -12.091  17.351  1.00  0.00     0.293 HD
ENDBRANCH   2  10
BRANCH   4  12
ATOM     12  O   UNL     1       5.589 -15.125  15.434  1.00  0.00    -0.497 OA
ATOM     13  C   UNL     1       6.482 -14.753  16.480  1.00  0.00     0.278 C 
ENDBRANCH   4  12
TORSDOF 3
ENDMDL
MODEL 8
REMARK VINA RESULT:    -0.957      2.538      4.815
REMARK INTER + INTRA:          -1.415
REMARK INTER:                  -1.136
REMARK INTRA:                  -0.279
REMARK UNBOUND:                -0.318
REMARK SMILES COc1ccc(C(C)=O)c(O)c1
REMARK SMILES IDX 6 1 10 2 12 3 3 4 4 5 5 6 7 7 8 8 9 9 11 10 2 12 1 13
REMARK H PARENT 11 11
REMARK Flexibility Score: inf
ROOT
ATOM      1  C   UNL     1       3.023 -14.808  14.520  1.00  0.00     0.059 A 
ATOM      2  C   UNL     1       2.890 -14.272  15.825  1.00  0.00     0.130 A 
ATOM      3  C   UNL     1       4.033 -14.025  16.594  1.00  0.00     0.093 A 
ATOM      4  C   UNL     1       5.309 -14.330  16.111  1.00  0.00     0.122 A 
ATOM      5  C   UNL     1       5.439 -14.889  14.829  1.00  0.00     0.047 A 
ATOM      6  C   UNL     1       4.309 -15.123  14.044  1.00  0.00     0.019 A 
ENDROOT
BRANCH   1   7
ATOM      7  C   UNL     1       1.855 -15.009  13.630  1.00  0.00     0.163 C 
ATOM      8  C   UNL     1       2.021 -15.098  12.144  1.00  0.00     0.093 C 
ATOM      9  O   UNL     1       0.692 -15.026  14.113  1.00  0.00    -0.294 OA
ENDBRANCH   1   7
BRANCH   2  10
ATOM     10  O   UNL     1       1.646 -14.002  16.399  1.00  0.00    -0.507 OA
ATOM     11  H   UNL     1       0.842 -13.700  15.867  1.00  0.00     0.293 HD
ENDBRANCH   2  10
BRANCH   4  12
ATOM     12  O   UNL     1       6.414 -14.066  16.933  1.00  0.00    -0.497 OA
ATOM     13  C   UNL     1       6.324 -13.599  18.276  1.00  0.00     0.278 C 
ENDBRANCH   4  12
TORSDOF 3
ENDMDL
MODEL 9
REMARK VINA RESULT:     0.655      2.094      3.290
REMARK INTER + INTRA:           0.432
REMARK INTER:                   0.771
REMARK INTRA:                  -0.339
REMARK UNBOUND:                -0.318
REMARK SMILES COc1ccc(C(C)=O)c(O)c1
REMARK SMILES IDX 6 1 10 2 12 3 3 4 4 5 5 6 7 7 8 8 9 9 11 10 2 12 1 13
REMARK H PARENT 11 11
REMARK Flexibility Score: inf
ROOT
ATOM      1  C   UNL     1       5.190 -14.081  17.017  1.00  0.00     0.059 A 
ATOM      2  C   UNL     1       5.134 -14.555  15.683  1.00  0.00     0.130 A 
ATOM      3  C   UNL     1       3.930 -14.486  14.971  1.00  0.00     0.093 A 
ATOM      4  C   UNL     1       2.767 -13.987  15.566  1.00  0.00     0.122 A 
ATOM      5  C   UNL     1       2.816 -13.545  16.898  1.00  0.00     0.047 A 
ATOM      6  C   UNL     1       4.013 -13.591  17.613  1.00  0.00     0.019 A 
ENDROOT
BRANCH   1   7
ATOM      7  C   UNL     1       6.456 -14.050  17.787  1.00  0.00     0.163 C 
ATOM      8  C   UNL     1       7.024 -12.759  18.289  1.00  0.00     0.093 C 
ATOM      9  O   UNL     1       7.113 -15.110  17.958  1.00  0.00    -0.294 OA
ENDBRANCH   1   7
BRANCH   2  10
ATOM     10  O   UNL     1       6.237 -15.125  15.044  1.00  0.00    -0.507 OA
ATOM     11  H   UNL     1       7.106 -14.632  14.890  1.00  0.00     0.293 HD
ENDBRANCH   2  10
BRANCH   4  12
ATOM     12  O   UNL     1       1.591 -13.951  14.802  1.00  0.00    -0.497 OA
ATOM     13  C   UNL     1       0.442 -13.175  15.131  1.00  0.00     0.278 C 
ENDBRANCH   4  12
TORSDOF 3
ENDMDL
