MODEL 1
REMARK VINA RESULT:    -4.309      0.000      0.000
REMARK INTER + INTRA:          -5.670
REMARK INTER:                  -5.569
REMARK INTRA:                  -0.101
REMARK UNBOUND:                -0.101
REMARK SMILES CCCCCCC(=O)[O-]
REMARK SMILES IDX 5 1 6 2 7 3 8 4 9 5 4 6 3 7 2 8 1 9
REMARK H PARENT
REMARK Flexibility Score: inf
ROOT
ATOM      1  C   UNL     1     105.077  23.251 199.862  1.00  0.00     0.006 C 
ENDROOT
BRANCH   1   2
ATOM      2  C   UNL     1     105.893  22.489 198.809  1.00  0.00     0.053 C 
BRANCH   2   3
ATOM      3  C   UNL     1     106.961  21.648 199.437  1.00  0.00     0.041 C 
ATOM      4  O   UNL     1     107.857  22.182 200.143  1.00  0.00    -0.550 OA
ATOM      5  O   UNL     1     106.950  20.269 199.269  1.00  0.00    -0.550 OA
ENDBRANCH   2   3
ENDBRANCH   1   2
BRANCH   1   6
ATOM      6  C   UNL     1     103.568  23.203 199.575  1.00  0.00     0.000 C 
BRANCH   6   7
ATOM      7  C   UNL     1     102.763  23.171 200.882  1.00  0.00    -0.000 C 
BRANCH   7   8
ATOM      8  C   UNL     1     101.389  23.847 200.746  1.00  0.00    -0.003 C 
ATOM      9  C   UNL     1     100.727  23.575 199.395  1.00  0.00     0.004 C 
ENDBRANCH   7   8
ENDBRANCH   6   7
ENDBRANCH   1   6
TORSDOF 5
ENDMDL
MODEL 2
REMARK VINA RESULT:    -4.255      5.282      6.826
REMARK INTER + INTRA:          -5.600
REMARK INTER:                  -5.397
REMARK INTRA:                  -0.203
REMARK UNBOUND:                -0.101
REMARK SMILES CCCCCCC(=O)[O-]
REMARK SMILES IDX 5 1 6 2 7 3 8 4 9 5 4 6 3 7 2 8 1 9
REMARK H PARENT
REMARK Flexibility Score: inf
ROOT
ATOM      1  C   UNL     1     105.089  23.710 194.986  1.00  0.00     0.006 C 
ENDROOT
BRANCH   1   2
ATOM      2  C   UNL     1     105.042  25.231 195.189  1.00  0.00     0.053 C 
BRANCH   2   3
ATOM      3  C   UNL     1     104.569  25.592 196.564  1.00  0.00     0.041 C 
ATOM      4  O   UNL     1     103.379  25.361 196.906  1.00  0.00    -0.550 OA
ATOM      5  O   UNL     1     105.451  26.155 197.478  1.00  0.00    -0.550 OA
ENDBRANCH   2   3
ENDBRANCH   1   2
BRANCH   1   6
ATOM      6  C   UNL     1     104.153  23.245 193.860  1.00  0.00     0.000 C 
BRANCH   6   7
ATOM      7  C   UNL     1     104.715  22.000 193.159  1.00  0.00    -0.000 C 
BRANCH   7   8
ATOM      8  C   UNL     1     106.028  21.509 193.790  1.00  0.00    -0.003 C 
ATOM      9  C   UNL     1     107.056  21.068 192.749  1.00  0.00     0.004 C 
ENDBRANCH   7   8
ENDBRANCH   6   7
ENDBRANCH   1   6
TORSDOF 5
ENDMDL
MODEL 3
REMARK VINA RESULT:    -4.254     15.755     16.903
REMARK INTER + INTRA:          -5.599
REMARK INTER:                  -5.328
REMARK INTRA:                  -0.271
REMARK UNBOUND:                -0.101
REMARK SMILES CCCCCCC(=O)[O-]
REMARK SMILES IDX 5 1 6 2 7 3 8 4 9 5 4 6 3 7 2 8 1 9
REMARK H PARENT
REMARK Flexibility Score: inf
ROOT
ATOM      1  C   UNL     1      98.714  31.074 187.185  1.00  0.00     0.006 C 
ENDROOT
BRANCH   1   2
ATOM      2  C   UNL     1      97.898  32.032 186.306  1.00  0.00     0.053 C 
BRANCH   2   3
ATOM      3  C   UNL     1      97.620  33.326 187.008  1.00  0.00     0.041 C 
ATOM      4  O   UNL     1      96.611  34.013 186.697  1.00  0.00    -0.550 OA
ATOM      5  O   UNL     1      98.458  33.758 188.028  1.00  0.00    -0.550 OA
ENDBRANCH   2   3
ENDBRANCH   1   2
BRANCH   1   6
ATOM      6  C   UNL     1     100.171  30.951 186.713  1.00  0.00     0.000 C 
BRANCH   6   7
ATOM      7  C   UNL     1     101.146  31.221 187.868  1.00  0.00    -0.000 C 
BRANCH   7   8
ATOM      8  C   UNL     1     100.446  31.255 189.236  1.00  0.00    -0.003 C 
ATOM      9  C   UNL     1     101.161  30.406 190.287  1.00  0.00     0.004 C 
ENDBRANCH   7   8
ENDBRANCH   6   7
ENDBRANCH   1   6
TORSDOF 5
ENDMDL
MODEL 4
REMARK VINA RESULT:    -4.058      3.698      4.604
REMARK INTER + INTRA:          -5.346
REMARK INTER:                  -5.022
REMARK INTRA:                  -0.324
REMARK UNBOUND:                -0.101
REMARK SMILES CCCCCCC(=O)[O-]
REMARK SMILES IDX 5 1 6 2 7 3 8 4 9 5 4 6 3 7 2 8 1 9
REMARK H PARENT
REMARK Flexibility Score: inf
ROOT
ATOM      1  C   UNL     1     102.733  25.020 197.164  1.00  0.00     0.006 C 
ENDROOT
BRANCH   1   2
ATOM      2  C   UNL     1     103.941  24.470 196.394  1.00  0.00     0.053 C 
BRANCH   2   3
ATOM      3  C   UNL     1     104.949  25.540 196.106  1.00  0.00     0.041 C 
ATOM      4  O   UNL     1     105.284  25.794 194.919  1.00  0.00    -0.550 OA
ATOM      5  O   UNL     1     105.495  26.279 197.148  1.00  0.00    -0.550 OA
ENDBRANCH   2   3
ENDBRANCH   1   2
BRANCH   1   6
ATOM      6  C   UNL     1     102.325  24.110 198.332  1.00  0.00     0.000 C 
BRANCH   6   7
ATOM      7  C   UNL     1     103.382  23.023 198.576  1.00  0.00    -0.000 C 
BRANCH   7   8
ATOM      8  C   UNL     1     104.058  23.153 199.950  1.00  0.00    -0.003 C 
ATOM      9  C   UNL     1     105.546  23.487 199.847  1.00  0.00     0.004 C 
ENDBRANCH   7   8
ENDBRANCH   6   7
ENDBRANCH   1   6
TORSDOF 5
ENDMDL
MODEL 5
REMARK VINA RESULT:    -4.055      1.304      1.721
REMARK INTER + INTRA:          -5.342
REMARK INTER:                  -5.080
REMARK INTRA:                  -0.261
REMARK UNBOUND:                -0.101
REMARK SMILES CCCCCCC(=O)[O-]
REMARK SMILES IDX 5 1 6 2 7 3 8 4 9 5 4 6 3 7 2 8 1 9
REMARK H PARENT
REMARK Flexibility Score: inf
ROOT
ATOM      1  C   UNL     1     105.137  23.257 200.128  1.00  0.00     0.006 C 
ENDROOT
BRANCH   1   2
ATOM      2  C   UNL     1     105.815  22.527 198.960  1.00  0.00     0.053 C 
BRANCH   2   3
ATOM      3  C   UNL     1     106.930  21.645 199.431  1.00  0.00     0.041 C 
ATOM      4  O   UNL     1     107.891  22.130 200.085  1.00  0.00    -0.550 OA
ATOM      5  O   UNL     1     106.893  20.280 199.174  1.00  0.00    -0.550 OA
ENDBRANCH   2   3
ENDBRANCH   1   2
BRANCH   1   6
ATOM      6  C   UNL     1     103.606  23.260 200.002  1.00  0.00     0.000 C 
BRANCH   6   7
ATOM      7  C   UNL     1     103.172  22.873 198.580  1.00  0.00    -0.000 C 
BRANCH   7   8
ATOM      8  C   UNL     1     102.254  23.923 197.936  1.00  0.00    -0.003 C 
ATOM      9  C   UNL     1     103.032  25.032 197.227  1.00  0.00     0.004 C 
ENDBRANCH   7   8
ENDBRANCH   6   7
ENDBRANCH   1   6
TORSDOF 5
ENDMDL
MODEL 6
REMARK VINA RESULT:    -4.055      3.388      3.701
REMARK INTER + INTRA:          -5.341
REMARK INTER:                  -5.010
REMARK INTRA:                  -0.332
REMARK UNBOUND:                -0.101
REMARK SMILES CCCCCCC(=O)[O-]
REMARK SMILES IDX 5 1 6 2 7 3 8 4 9 5 4 6 3 7 2 8 1 9
REMARK H PARENT
REMARK Flexibility Score: inf
ROOT
ATOM      1  C   UNL     1     104.493  23.211 198.609  1.00  0.00     0.006 C 
ENDROOT
BRANCH   1   2
ATOM      2  C   UNL     1     105.046  24.509 198.004  1.00  0.00     0.053 C 
BRANCH   2   3
ATOM      3  C   UNL     1     104.126  25.072 196.965  1.00  0.00     0.041 C 
ATOM      4  O   UNL     1     102.976  25.472 197.285  1.00  0.00    -0.550 OA
ATOM      5  O   UNL     1     104.551  25.184 195.646  1.00  0.00    -0.550 OA
ENDBRANCH   2   3
ENDBRANCH   1   2
BRANCH   1   6
ATOM      6  C   UNL     1     104.570  23.205 200.143  1.00  0.00     0.000 C 
BRANCH   6   7
ATOM      7  C   UNL     1     103.165  23.187 200.762  1.00  0.00    -0.000 C 
BRANCH   7   8
ATOM      8  C   UNL     1     102.057  23.036 199.708  1.00  0.00    -0.003 C 
ATOM      9  C   UNL     1     100.899  24.010 199.924  1.00  0.00     0.004 C 
ENDBRANCH   7   8
ENDBRANCH   6   7
ENDBRANCH   1   6
TORSDOF 5
ENDMDL
MODEL 7
REMARK VINA RESULT:    -4.010      5.261      6.125
REMARK INTER + INTRA:          -5.283
REMARK INTER:                  -5.034
REMARK INTRA:                  -0.249
REMARK UNBOUND:                -0.101
REMARK SMILES CCCCCCC(=O)[O-]
REMARK SMILES IDX 5 1 6 2 7 3 8 4 9 5 4 6 3 7 2 8 1 9
REMARK H PARENT
REMARK Flexibility Score: inf
ROOT
ATOM      1  C   UNL     1     104.739  23.000 194.422  1.00  0.00     0.006 C 
ENDROOT
BRANCH   1   2
ATOM      2  C   UNL     1     103.580  22.723 193.455  1.00  0.00     0.053 C 
BRANCH   2   3
ATOM      3  C   UNL     1     102.342  22.295 194.182  1.00  0.00     0.041 C 
ATOM      4  O   UNL     1     101.223  22.333 193.606  1.00  0.00    -0.550 OA
ATOM      5  O   UNL     1     102.429  21.823 195.486  1.00  0.00    -0.550 OA
ENDBRANCH   2   3
ENDBRANCH   1   2
BRANCH   1   6
ATOM      6  C   UNL     1     104.850  24.489 194.787  1.00  0.00     0.000 C 
BRANCH   6   7
ATOM      7  C   UNL     1     105.555  24.671 196.139  1.00  0.00    -0.000 C 
BRANCH   7   8
ATOM      8  C   UNL     1     104.746  25.541 197.114  1.00  0.00    -0.003 C 
ATOM      9  C   UNL     1     103.253  25.215 197.098  1.00  0.00     0.004 C 
ENDBRANCH   7   8
ENDBRANCH   6   7
ENDBRANCH   1   6
TORSDOF 5
ENDMDL
MODEL 8
REMARK VINA RESULT:    -4.005      2.750      3.427
REMARK INTER + INTRA:          -5.277
REMARK INTER:                  -4.875
REMARK INTRA:                  -0.402
REMARK UNBOUND:                -0.101
REMARK SMILES CCCCCCC(=O)[O-]
REMARK SMILES IDX 5 1 6 2 7 3 8 4 9 5 4 6 3 7 2 8 1 9
REMARK H PARENT
REMARK Flexibility Score: inf
ROOT
ATOM      1  C   UNL     1     101.719  23.565 197.128  1.00  0.00     0.006 C 
ENDROOT
BRANCH   1   2
ATOM      2  C   UNL     1     102.860  24.580 197.280  1.00  0.00     0.053 C 
BRANCH   2   3
ATOM      3  C   UNL     1     104.184  23.903 197.460  1.00  0.00     0.041 C 
ATOM      4  O   UNL     1     104.965  24.270 198.377  1.00  0.00    -0.550 OA
ATOM      5  O   UNL     1     104.542  22.845 196.633  1.00  0.00    -0.550 OA
ENDBRANCH   2   3
ENDBRANCH   1   2
BRANCH   1   6
ATOM      6  C   UNL     1     101.457  22.786 198.426  1.00  0.00     0.000 C 
BRANCH   6   7
ATOM      7  C   UNL     1     100.596  23.610 199.395  1.00  0.00    -0.000 C 
BRANCH   7   8
ATOM      8  C   UNL     1     101.295  23.857 200.741  1.00  0.00    -0.003 C 
ATOM      9  C   UNL     1     102.646  23.149 200.845  1.00  0.00     0.004 C 
ENDBRANCH   7   8
ENDBRANCH   6   7
ENDBRANCH   1   6
TORSDOF 5
ENDMDL
MODEL 9
REMARK VINA RESULT:    -3.955      3.729      5.179
REMARK INTER + INTRA:          -5.212
REMARK INTER:                  -4.856
REMARK INTRA:                  -0.356
REMARK UNBOUND:                -0.101
REMARK SMILES CCCCCCC(=O)[O-]
REMARK SMILES IDX 5 1 6 2 7 3 8 4 9 5 4 6 3 7 2 8 1 9
REMARK H PARENT
REMARK Flexibility Score: inf
ROOT
ATOM      1  C   UNL     1     102.206  23.990 197.682  1.00  0.00     0.006 C 
ENDROOT
BRANCH   1   2
ATOM      2  C   UNL     1     101.135  23.170 198.415  1.00  0.00     0.053 C 
BRANCH   2   3
ATOM      3  C   UNL     1     100.953  23.634 199.828  1.00  0.00     0.041 C 
ATOM      4  O   UNL     1     101.863  23.450 200.679  1.00  0.00    -0.550 OA
ATOM      5  O   UNL     1      99.790  24.298 200.198  1.00  0.00    -0.550 OA
ENDBRANCH   2   3
ENDBRANCH   1   2
BRANCH   1   6
ATOM      6  C   UNL     1     103.221  23.098 196.951  1.00  0.00     0.000 C 
BRANCH   6   7
ATOM      7  C   UNL     1     104.296  22.584 197.920  1.00  0.00    -0.000 C 
BRANCH   7   8
ATOM      8  C   UNL     1     104.995  23.720 198.684  1.00  0.00    -0.003 C 
ATOM      9  C   UNL     1     105.410  23.313 200.098  1.00  0.00     0.004 C 
ENDBRANCH   7   8
ENDBRANCH   6   7
ENDBRANCH   1   6
TORSDOF 5
ENDMDL
