MODEL 1
REMARK VINA RESULT:    -4.208      0.000      0.000
REMARK INTER + INTRA:         -12.144
REMARK INTER:                  -9.128
REMARK INTRA:                  -3.016
REMARK UNBOUND:                -3.016
REMARK SMILES CCCCCCCCCCCCCCCCCCCCCC(=O)[O-]
REMARK SMILES IDX 12 1 11 2 10 3 9 4 8 5 7 6 6 7 5 8 4 9 3 10 2 11 1 12 13 13
REMARK SMILES IDX 14 14 15 15 16 16 17 17 18 18 19 19 20 20 21 21 22 22 23 23
REMARK SMILES IDX 24 24
REMARK H PARENT
REMARK Flexibility Score: inf
ROOT
ATOM      1  C   UNL     1      10.764  -4.706  40.455  1.00  0.00     0.000 C 
ENDROOT
BRANCH   1   2
ATOM      2  C   UNL     1      10.251  -6.159  40.366  1.00  0.00     0.000 C 
BRANCH   2   3
ATOM      3  C   UNL     1       9.663  -6.655  41.700  1.00  0.00     0.000 C 
BRANCH   3   4
ATOM      4  C   UNL     1       8.138  -6.840  41.640  1.00  0.00    -0.000 C 
BRANCH   4   5
ATOM      5  C   UNL     1       7.375  -5.539  41.946  1.00  0.00    -0.000 C 
BRANCH   5   6
ATOM      6  C   UNL     1       8.075  -4.679  43.010  1.00  0.00    -0.000 C 
BRANCH   6   7
ATOM      7  C   UNL     1       7.913  -3.171  42.752  1.00  0.00    -0.000 C 
BRANCH   7   8
ATOM      8  C   UNL     1       9.236  -2.392  42.929  1.00  0.00    -0.000 C 
BRANCH   8   9
ATOM      9  C   UNL     1       9.142  -0.908  42.523  1.00  0.00    -0.000 C 
BRANCH   9  10
ATOM     10  C   UNL     1       9.205   0.088  43.695  1.00  0.00    -0.000 C 
BRANCH  10  11
ATOM     11  C   UNL     1       8.556  -0.438  44.995  1.00  0.00    -0.003 C 
ATOM     12  C   UNL     1       9.525  -0.464  46.178  1.00  0.00     0.004 C 
ENDBRANCH  10  11
ENDBRANCH   9  10
ENDBRANCH   8   9
ENDBRANCH   7   8
ENDBRANCH   6   7
ENDBRANCH   5   6
ENDBRANCH   4   5
ENDBRANCH   3   4
ENDBRANCH   2   3
ENDBRANCH   1   2
BRANCH   1  13
ATOM     13  C   UNL     1      10.259  -3.787  39.325  1.00  0.00     0.000 C 
BRANCH  13  14
ATOM     14  C   UNL     1       8.777  -3.960  38.952  1.00  0.00     0.000 C 
BRANCH  14  15
ATOM     15  C   UNL     1       7.953  -2.680  39.170  1.00  0.00     0.000 C 
BRANCH  15  16
ATOM     16  C   UNL     1       6.750  -2.577  38.214  1.00  0.00     0.000 C 
BRANCH  16  17
ATOM     17  C   UNL     1       7.109  -2.209  36.761  1.00  0.00     0.000 C 
BRANCH  17  18
ATOM     18  C   UNL     1       6.751  -3.278  35.709  1.00  0.00     0.000 C 
BRANCH  18  19
ATOM     19  C   UNL     1       7.903  -4.259  35.405  1.00  0.00     0.000 C 
BRANCH  19  20
ATOM     20  C   UNL     1       9.243  -3.541  35.192  1.00  0.00     0.006 C 
BRANCH  20  21
ATOM     21  C   UNL     1      10.393  -4.544  35.073  1.00  0.00     0.053 C 
BRANCH  21  22
ATOM     22  C   UNL     1      10.185  -5.440  33.892  1.00  0.00     0.041 C 
ATOM     23  O   UNL     1      10.129  -6.689  34.049  1.00  0.00    -0.550 OA
ATOM     24  O   UNL     1      10.120  -4.901  32.614  1.00  0.00    -0.550 OA
ENDBRANCH  21  22
ENDBRANCH  20  21
ENDBRANCH  19  20
ENDBRANCH  18  19
ENDBRANCH  17  18
ENDBRANCH  16  17
ENDBRANCH  15  16
ENDBRANCH  14  15
ENDBRANCH  13  14
ENDBRANCH   1  13
TORSDOF 20
ENDMDL
MODEL 2
REMARK VINA RESULT:    -4.156      4.293      6.582
REMARK INTER + INTRA:         -12.031
REMARK INTER:                  -8.854
REMARK INTRA:                  -3.177
REMARK UNBOUND:                -3.016
REMARK SMILES CCCCCCCCCCCCCCCCCCCCCC(=O)[O-]
REMARK SMILES IDX 12 1 11 2 10 3 9 4 8 5 7 6 6 7 5 8 4 9 3 10 2 11 1 12 13 13
REMARK SMILES IDX 14 14 15 15 16 16 17 17 18 18 19 19 20 20 21 21 22 22 23 23
REMARK SMILES IDX 24 24
REMARK H PARENT
REMARK Flexibility Score: inf
ROOT
ATOM      1  C   UNL     1       9.294  -1.496  40.119  1.00  0.00     0.000 C 
ENDROOT
BRANCH   1   2
ATOM      2  C   UNL     1       8.300  -1.222  41.267  1.00  0.00     0.000 C 
BRANCH   2   3
ATOM      3  C   UNL     1       9.000  -0.705  42.537  1.00  0.00     0.000 C 
BRANCH   3   4
ATOM      4  C   UNL     1       8.723  -1.589  43.764  1.00  0.00    -0.000 C 
BRANCH   4   5
ATOM      5  C   UNL     1       8.738  -0.791  45.080  1.00  0.00    -0.000 C 
BRANCH   5   6
ATOM      6  C   UNL     1       9.733   0.380  45.051  1.00  0.00    -0.000 C 
BRANCH   6   7
ATOM      7  C   UNL     1      10.939   0.155  45.978  1.00  0.00    -0.000 C 
BRANCH   7   8
ATOM      8  C   UNL     1      12.290   0.320  45.248  1.00  0.00    -0.000 C 
BRANCH   8   9
ATOM      9  C   UNL     1      12.342  -0.370  43.871  1.00  0.00    -0.000 C 
BRANCH   9  10
ATOM     10  C   UNL     1      12.976   0.472  42.749  1.00  0.00    -0.000 C 
BRANCH  10  11
ATOM     11  C   UNL     1      14.396   0.008  42.349  1.00  0.00    -0.003 C 
ATOM     12  C   UNL     1      14.449  -0.620  40.956  1.00  0.00     0.004 C 
ENDBRANCH  10  11
ENDBRANCH   9  10
ENDBRANCH   8   9
ENDBRANCH   7   8
ENDBRANCH   6   7
ENDBRANCH   5   6
ENDBRANCH   4   5
ENDBRANCH   3   4
ENDBRANCH   2   3
ENDBRANCH   1   2
BRANCH   1  13
ATOM     13  C   UNL     1      10.772  -1.526  40.557  1.00  0.00     0.000 C 
BRANCH  13  14
ATOM     14  C   UNL     1      11.477  -2.883  40.395  1.00  0.00     0.000 C 
BRANCH  14  15
ATOM     15  C   UNL     1      11.852  -3.526  41.741  1.00  0.00     0.000 C 
BRANCH  15  16
ATOM     16  C   UNL     1      10.687  -4.315  42.367  1.00  0.00     0.000 C 
BRANCH  16  17
ATOM     17  C   UNL     1       9.830  -5.109  41.362  1.00  0.00     0.000 C 
BRANCH  17  18
ATOM     18  C   UNL     1       8.312  -4.857  41.455  1.00  0.00     0.000 C 
BRANCH  18  19
ATOM     19  C   UNL     1       7.523  -6.040  42.055  1.00  0.00     0.000 C 
BRANCH  19  20
ATOM     20  C   UNL     1       8.168  -7.396  41.735  1.00  0.00     0.006 C 
BRANCH  20  21
ATOM     21  C   UNL     1       8.470  -8.177  43.016  1.00  0.00     0.053 C 
BRANCH  21  22
ATOM     22  C   UNL     1       7.559  -9.359  43.135  1.00  0.00     0.041 C 
ATOM     23  O   UNL     1       7.503 -10.009  44.214  1.00  0.00    -0.550 OA
ATOM     24  O   UNL     1       6.824  -9.783  42.035  1.00  0.00    -0.550 OA
ENDBRANCH  21  22
ENDBRANCH  20  21
ENDBRANCH  19  20
ENDBRANCH  18  19
ENDBRANCH  17  18
ENDBRANCH  16  17
ENDBRANCH  15  16
ENDBRANCH  14  15
ENDBRANCH  13  14
ENDBRANCH   1  13
TORSDOF 20
ENDMDL
MODEL 3
REMARK VINA RESULT:    -4.093      3.142      8.489
REMARK INTER + INTRA:         -11.895
REMARK INTER:                  -9.516
REMARK INTRA:                  -2.379
REMARK UNBOUND:                -3.016
REMARK SMILES CCCCCCCCCCCCCCCCCCCCCC(=O)[O-]
REMARK SMILES IDX 12 1 11 2 10 3 9 4 8 5 7 6 6 7 5 8 4 9 3 10 2 11 1 12 13 13
REMARK SMILES IDX 14 14 15 15 16 16 17 17 18 18 19 19 20 20 21 21 22 22 23 23
REMARK SMILES IDX 24 24
REMARK H PARENT
REMARK Flexibility Score: inf
ROOT
ATOM      1  C   UNL     1       7.352  -2.969  39.055  1.00  0.00     0.000 C 
ENDROOT
BRANCH   1   2
ATOM      2  C   UNL     1       6.695  -2.916  37.660  1.00  0.00     0.000 C 
BRANCH   2   3
ATOM      3  C   UNL     1       7.734  -2.849  36.525  1.00  0.00     0.000 C 
BRANCH   3   4
ATOM      4  C   UNL     1       7.531  -3.951  35.473  1.00  0.00    -0.000 C 
BRANCH   4   5
ATOM      5  C   UNL     1       8.837  -4.322  34.749  1.00  0.00    -0.000 C 
BRANCH   5   6
ATOM      6  C   UNL     1      10.073  -4.191  35.653  1.00  0.00    -0.000 C 
BRANCH   6   7
ATOM      7  C   UNL     1      11.367  -3.959  34.856  1.00  0.00    -0.000 C 
BRANCH   7   8
ATOM      8  C   UNL     1      11.115  -3.834  33.337  1.00  0.00    -0.000 C 
BRANCH   8   9
ATOM      9  C   UNL     1      11.816  -4.921  32.498  1.00  0.00    -0.000 C 
BRANCH   9  10
ATOM     10  C   UNL     1      10.938  -6.139  32.155  1.00  0.00    -0.000 C 
BRANCH  10  11
ATOM     11  C   UNL     1      11.201  -7.370  33.053  1.00  0.00    -0.003 C 
ATOM     12  C   UNL     1      10.004  -7.737  33.930  1.00  0.00     0.004 C 
ENDBRANCH  10  11
ENDBRANCH   9  10
ENDBRANCH   8   9
ENDBRANCH   7   8
ENDBRANCH   6   7
ENDBRANCH   5   6
ENDBRANCH   4   5
ENDBRANCH   3   4
ENDBRANCH   2   3
ENDBRANCH   1   2
BRANCH   1  13
ATOM     13  C   UNL     1       8.893  -2.962  39.028  1.00  0.00     0.000 C 
BRANCH  13  14
ATOM     14  C   UNL     1       9.564  -2.069  40.085  1.00  0.00     0.000 C 
BRANCH  14  15
ATOM     15  C   UNL     1       8.585  -1.591  41.171  1.00  0.00     0.000 C 
BRANCH  15  16
ATOM     16  C   UNL     1       8.672  -2.429  42.460  1.00  0.00     0.000 C 
BRANCH  16  17
ATOM     17  C   UNL     1       9.824  -3.453  42.489  1.00  0.00     0.000 C 
BRANCH  17  18
ATOM     18  C   UNL     1       9.391  -4.927  42.368  1.00  0.00     0.000 C 
BRANCH  18  19
ATOM     19  C   UNL     1       7.917  -5.108  41.948  1.00  0.00     0.000 C 
BRANCH  19  20
ATOM     20  C   UNL     1       7.578  -6.568  41.615  1.00  0.00     0.006 C 
BRANCH  20  21
ATOM     21  C   UNL     1       8.044  -7.510  42.728  1.00  0.00     0.053 C 
BRANCH  21  22
ATOM     22  C   UNL     1       7.681  -8.925  42.402  1.00  0.00     0.041 C 
ATOM     23  O   UNL     1       7.368  -9.242  41.223  1.00  0.00    -0.550 OA
ATOM     24  O   UNL     1       7.625  -9.878  43.411  1.00  0.00    -0.550 OA
ENDBRANCH  21  22
ENDBRANCH  20  21
ENDBRANCH  19  20
ENDBRANCH  18  19
ENDBRANCH  17  18
ENDBRANCH  16  17
ENDBRANCH  15  16
ENDBRANCH  14  15
ENDBRANCH  13  14
ENDBRANCH   1  13
TORSDOF 20
ENDMDL
MODEL 4
REMARK VINA RESULT:    -4.071      2.102      3.880
REMARK INTER + INTRA:         -11.847
REMARK INTER:                  -8.589
REMARK INTRA:                  -3.258
REMARK UNBOUND:                -3.016
REMARK SMILES CCCCCCCCCCCCCCCCCCCCCC(=O)[O-]
REMARK SMILES IDX 12 1 11 2 10 3 9 4 8 5 7 6 6 7 5 8 4 9 3 10 2 11 1 12 13 13
REMARK SMILES IDX 14 14 15 15 16 16 17 17 18 18 19 19 20 20 21 21 22 22 23 23
REMARK SMILES IDX 24 24
REMARK H PARENT
REMARK Flexibility Score: inf
ROOT
ATOM      1  C   UNL     1       8.626  -5.424  40.915  1.00  0.00     0.000 C 
ENDROOT
BRANCH   1   2
ATOM      2  C   UNL     1      10.108  -5.609  40.527  1.00  0.00     0.000 C 
BRANCH   2   3
ATOM      3  C   UNL     1      11.026  -4.578  41.210  1.00  0.00     0.000 C 
BRANCH   3   4
ATOM      4  C   UNL     1      11.945  -3.855  40.213  1.00  0.00    -0.000 C 
BRANCH   4   5
ATOM      5  C   UNL     1      12.703  -2.680  40.857  1.00  0.00    -0.000 C 
BRANCH   5   6
ATOM      6  C   UNL     1      12.095  -2.249  42.201  1.00  0.00    -0.000 C 
BRANCH   6   7
ATOM      7  C   UNL     1      12.401  -0.781  42.545  1.00  0.00    -0.000 C 
BRANCH   7   8
ATOM      8  C   UNL     1      12.557  -0.546  44.064  1.00  0.00    -0.000 C 
BRANCH   8   9
ATOM      9  C   UNL     1      11.864   0.734  44.570  1.00  0.00    -0.000 C 
BRANCH   9  10
ATOM     10  C   UNL     1      11.146   0.588  45.925  1.00  0.00    -0.000 C 
BRANCH  10  11
ATOM     11  C   UNL     1       9.860  -0.266  45.861  1.00  0.00    -0.003 C 
ATOM     12  C   UNL     1       8.671   0.488  45.264  1.00  0.00     0.004 C 
ENDBRANCH  10  11
ENDBRANCH   9  10
ENDBRANCH   8   9
ENDBRANCH   7   8
ENDBRANCH   6   7
ENDBRANCH   5   6
ENDBRANCH   4   5
ENDBRANCH   3   4
ENDBRANCH   2   3
ENDBRANCH   1   2
BRANCH   1  13
ATOM     13  C   UNL     1       8.401  -5.064  42.397  1.00  0.00     0.000 C 
BRANCH  13  14
ATOM     14  C   UNL     1       7.700  -3.718  42.646  1.00  0.00     0.000 C 
BRANCH  14  15
ATOM     15  C   UNL     1       8.674  -2.606  43.071  1.00  0.00     0.000 C 
BRANCH  15  16
ATOM     16  C   UNL     1       8.602  -1.371  42.154  1.00  0.00     0.000 C 
BRANCH  16  17
ATOM     17  C   UNL     1       8.905  -1.650  40.669  1.00  0.00     0.000 C 
BRANCH  17  18
ATOM     18  C   UNL     1       7.760  -1.311  39.694  1.00  0.00     0.000 C 
BRANCH  18  19
ATOM     19  C   UNL     1       7.196  -2.540  38.948  1.00  0.00     0.000 C 
BRANCH  19  20
ATOM     20  C   UNL     1       8.242  -3.204  38.042  1.00  0.00     0.006 C 
BRANCH  20  21
ATOM     21  C   UNL     1       7.586  -3.826  36.807  1.00  0.00     0.053 C 
BRANCH  21  22
ATOM     22  C   UNL     1       7.919  -3.032  35.582  1.00  0.00     0.041 C 
ATOM     23  O   UNL     1       8.850  -3.407  34.820  1.00  0.00    -0.550 OA
ATOM     24  O   UNL     1       7.248  -1.845  35.320  1.00  0.00    -0.550 OA
ENDBRANCH  21  22
ENDBRANCH  20  21
ENDBRANCH  19  20
ENDBRANCH  18  19
ENDBRANCH  17  18
ENDBRANCH  16  17
ENDBRANCH  15  16
ENDBRANCH  14  15
ENDBRANCH  13  14
ENDBRANCH   1  13
TORSDOF 20
ENDMDL
MODEL 5
REMARK VINA RESULT:    -4.058      3.088      7.910
REMARK INTER + INTRA:         -11.818
REMARK INTER:                  -9.336
REMARK INTRA:                  -2.482
REMARK UNBOUND:                -3.016
REMARK SMILES CCCCCCCCCCCCCCCCCCCCCC(=O)[O-]
REMARK SMILES IDX 12 1 11 2 10 3 9 4 8 5 7 6 6 7 5 8 4 9 3 10 2 11 1 12 13 13
REMARK SMILES IDX 14 14 15 15 16 16 17 17 18 18 19 19 20 20 21 21 22 22 23 23
REMARK SMILES IDX 24 24
REMARK H PARENT
REMARK Flexibility Score: inf
ROOT
ATOM      1  C   UNL     1       8.266  -3.942  39.026  1.00  0.00     0.000 C 
ENDROOT
BRANCH   1   2
ATOM      2  C   UNL     1       7.464  -2.646  39.267  1.00  0.00     0.000 C 
BRANCH   2   3
ATOM      3  C   UNL     1       7.240  -1.846  37.970  1.00  0.00     0.000 C 
BRANCH   3   4
ATOM      4  C   UNL     1       6.006  -2.325  37.187  1.00  0.00    -0.000 C 
BRANCH   4   5
ATOM      5  C   UNL     1       6.368  -2.877  35.797  1.00  0.00    -0.000 C 
BRANCH   5   6
ATOM      6  C   UNL     1       7.886  -2.956  35.569  1.00  0.00    -0.000 C 
BRANCH   6   7
ATOM      7  C   UNL     1       8.376  -4.397  35.350  1.00  0.00    -0.000 C 
BRANCH   7   8
ATOM      8  C   UNL     1       9.280  -4.535  34.104  1.00  0.00    -0.000 C 
BRANCH   8   9
ATOM      9  C   UNL     1      10.668  -3.884  34.268  1.00  0.00    -0.000 C 
BRANCH   9  10
ATOM     10  C   UNL     1      11.858  -4.841  34.075  1.00  0.00    -0.000 C 
BRANCH  10  11
ATOM     11  C   UNL     1      11.443  -6.302  33.787  1.00  0.00    -0.003 C 
ATOM     12  C   UNL     1      12.591  -7.154  33.247  1.00  0.00     0.004 C 
ENDBRANCH  10  11
ENDBRANCH   9  10
ENDBRANCH   8   9
ENDBRANCH   7   8
ENDBRANCH   6   7
ENDBRANCH   5   6
ENDBRANCH   4   5
ENDBRANCH   3   4
ENDBRANCH   2   3
ENDBRANCH   1   2
BRANCH   1  13
ATOM     13  C   UNL     1       9.780  -3.721  38.833  1.00  0.00     0.000 C 
BRANCH  13  14
ATOM     14  C   UNL     1      10.688  -4.720  39.569  1.00  0.00     0.000 C 
BRANCH  14  15
ATOM     15  C   UNL     1      11.698  -4.032  40.504  1.00  0.00     0.000 C 
BRANCH  15  16
ATOM     16  C   UNL     1      11.101  -3.708  41.885  1.00  0.00     0.000 C 
BRANCH  16  17
ATOM     17  C   UNL     1      10.021  -4.694  42.372  1.00  0.00     0.000 C 
BRANCH  17  18
ATOM     18  C   UNL     1       8.654  -4.058  42.693  1.00  0.00     0.000 C 
BRANCH  18  19
ATOM     19  C   UNL     1       7.476  -5.052  42.624  1.00  0.00     0.000 C 
BRANCH  19  20
ATOM     20  C   UNL     1       7.705  -6.160  41.586  1.00  0.00     0.006 C 
BRANCH  20  21
ATOM     21  C   UNL     1       7.754  -7.537  42.251  1.00  0.00     0.053 C 
BRANCH  21  22
ATOM     22  C   UNL     1       8.693  -8.441  41.513  1.00  0.00     0.041 C 
ATOM     23  O   UNL     1       9.803  -8.004  41.108  1.00  0.00    -0.550 OA
ATOM     24  O   UNL     1       8.314  -9.744  41.217  1.00  0.00    -0.550 OA
ENDBRANCH  21  22
ENDBRANCH  20  21
ENDBRANCH  19  20
ENDBRANCH  18  19
ENDBRANCH  17  18
ENDBRANCH  16  17
ENDBRANCH  15  16
ENDBRANCH  14  15
ENDBRANCH  13  14
ENDBRANCH   1  13
TORSDOF 20
ENDMDL
MODEL 6
REMARK VINA RESULT:    -4.054      3.433      7.435
REMARK INTER + INTRA:         -11.811
REMARK INTER:                  -9.028
REMARK INTRA:                  -2.782
REMARK UNBOUND:                -3.016
REMARK SMILES CCCCCCCCCCCCCCCCCCCCCC(=O)[O-]
REMARK SMILES IDX 12 1 11 2 10 3 9 4 8 5 7 6 6 7 5 8 4 9 3 10 2 11 1 12 13 13
REMARK SMILES IDX 14 14 15 15 16 16 17 17 18 18 19 19 20 20 21 21 22 22 23 23
REMARK SMILES IDX 24 24
REMARK H PARENT
REMARK Flexibility Score: inf
ROOT
ATOM      1  C   UNL     1      11.369  -4.507  38.985  1.00  0.00     0.000 C 
ENDROOT
BRANCH   1   2
ATOM      2  C   UNL     1      12.003  -4.887  37.631  1.00  0.00     0.000 C 
BRANCH   2   3
ATOM      3  C   UNL     1      11.484  -4.013  36.475  1.00  0.00     0.000 C 
BRANCH   3   4
ATOM      4  C   UNL     1      11.407  -4.779  35.144  1.00  0.00    -0.000 C 
BRANCH   4   5
ATOM      5  C   UNL     1      10.106  -4.492  34.374  1.00  0.00    -0.000 C 
BRANCH   5   6
ATOM      6  C   UNL     1       9.146  -3.579  35.153  1.00  0.00    -0.000 C 
BRANCH   6   7
ATOM      7  C   UNL     1       7.688  -4.062  35.088  1.00  0.00    -0.000 C 
BRANCH   7   8
ATOM      8  C   UNL     1       6.760  -3.287  36.050  1.00  0.00    -0.000 C 
BRANCH   8   9
ATOM      9  C   UNL     1       7.144  -1.804  36.223  1.00  0.00    -0.000 C 
BRANCH   9  10
ATOM     10  C   UNL     1       5.954  -0.827  36.250  1.00  0.00    -0.000 C 
BRANCH  10  11
ATOM     11  C   UNL     1       5.375  -0.513  34.851  1.00  0.00    -0.003 C 
ATOM     12  C   UNL     1       5.807   0.854  34.319  1.00  0.00     0.004 C 
ENDBRANCH  10  11
ENDBRANCH   9  10
ENDBRANCH   8   9
ENDBRANCH   7   8
ENDBRANCH   6   7
ENDBRANCH   5   6
ENDBRANCH   4   5
ENDBRANCH   3   4
ENDBRANCH   2   3
ENDBRANCH   1   2
BRANCH   1  13
ATOM     13  C   UNL     1      10.245  -3.457  38.884  1.00  0.00     0.000 C 
BRANCH  13  14
ATOM     14  C   UNL     1       8.822  -4.027  38.762  1.00  0.00     0.000 C 
BRANCH  14  15
ATOM     15  C   UNL     1       7.826  -3.360  39.725  1.00  0.00     0.000 C 
BRANCH  15  16
ATOM     16  C   UNL     1       8.223  -1.916  40.084  1.00  0.00     0.000 C 
BRANCH  16  17
ATOM     17  C   UNL     1       8.655  -1.709  41.548  1.00  0.00     0.000 C 
BRANCH  17  18
ATOM     18  C   UNL     1       8.626  -2.977  42.424  1.00  0.00     0.000 C 
BRANCH  18  19
ATOM     19  C   UNL     1       9.985  -3.703  42.509  1.00  0.00     0.000 C 
BRANCH  19  20
ATOM     20  C   UNL     1       9.864  -5.207  42.224  1.00  0.00     0.006 C 
BRANCH  20  21
ATOM     21  C   UNL     1       8.480  -5.732  42.612  1.00  0.00     0.053 C 
BRANCH  21  22
ATOM     22  C   UNL     1       8.603  -6.871  43.576  1.00  0.00     0.041 C 
ATOM     23  O   UNL     1       9.505  -7.737  43.418  1.00  0.00    -0.550 OA
ATOM     24  O   UNL     1       7.683  -7.012  44.606  1.00  0.00    -0.550 OA
ENDBRANCH  21  22
ENDBRANCH  20  21
ENDBRANCH  19  20
ENDBRANCH  18  19
ENDBRANCH  17  18
ENDBRANCH  16  17
ENDBRANCH  15  16
ENDBRANCH  14  15
ENDBRANCH  13  14
ENDBRANCH   1  13
TORSDOF 20
ENDMDL
MODEL 7
REMARK VINA RESULT:    -4.030      3.630      7.449
REMARK INTER + INTRA:         -11.758
REMARK INTER:                  -8.795
REMARK INTRA:                  -2.963
REMARK UNBOUND:                -3.016
REMARK SMILES CCCCCCCCCCCCCCCCCCCCCC(=O)[O-]
REMARK SMILES IDX 12 1 11 2 10 3 9 4 8 5 7 6 6 7 5 8 4 9 3 10 2 11 1 12 13 13
REMARK SMILES IDX 14 14 15 15 16 16 17 17 18 18 19 19 20 20 21 21 22 22 23 23
REMARK SMILES IDX 24 24
REMARK H PARENT
REMARK Flexibility Score: inf
ROOT
ATOM      1  C   UNL     1       7.158  -2.450  38.844  1.00  0.00     0.000 C 
ENDROOT
BRANCH   1   2
ATOM      2  C   UNL     1       7.446  -3.548  37.800  1.00  0.00     0.000 C 
BRANCH   2   3
ATOM      3  C   UNL     1       6.749  -3.274  36.454  1.00  0.00     0.000 C 
BRANCH   3   4
ATOM      4  C   UNL     1       7.713  -3.369  35.260  1.00  0.00    -0.000 C 
BRANCH   4   5
ATOM      5  C   UNL     1       9.000  -4.140  35.603  1.00  0.00    -0.000 C 
BRANCH   5   6
ATOM      6  C   UNL     1      10.074  -4.014  34.510  1.00  0.00    -0.000 C 
BRANCH   6   7
ATOM      7  C   UNL     1      11.264  -4.961  34.738  1.00  0.00    -0.000 C 
BRANCH   7   8
ATOM      8  C   UNL     1      12.270  -4.413  35.775  1.00  0.00    -0.000 C 
BRANCH   8   9
ATOM      9  C   UNL     1      12.682  -5.443  36.845  1.00  0.00    -0.000 C 
BRANCH   9  10
ATOM     10  C   UNL     1      12.196  -5.125  38.271  1.00  0.00    -0.000 C 
BRANCH  10  11
ATOM     11  C   UNL     1      11.379  -3.817  38.373  1.00  0.00    -0.003 C 
ATOM     12  C   UNL     1      12.060  -2.751  39.232  1.00  0.00     0.004 C 
ENDBRANCH  10  11
ENDBRANCH   9  10
ENDBRANCH   8   9
ENDBRANCH   7   8
ENDBRANCH   6   7
ENDBRANCH   5   6
ENDBRANCH   4   5
ENDBRANCH   3   4
ENDBRANCH   2   3
ENDBRANCH   1   2
BRANCH   1  13
ATOM     13  C   UNL     1       8.421  -1.845  39.489  1.00  0.00     0.000 C 
BRANCH  13  14
ATOM     14  C   UNL     1       8.269  -1.422  40.960  1.00  0.00     0.000 C 
BRANCH  14  15
ATOM     15  C   UNL     1       9.479  -1.818  41.823  1.00  0.00     0.000 C 
BRANCH  15  16
ATOM     16  C   UNL     1       9.228  -3.095  42.646  1.00  0.00     0.000 C 
BRANCH  16  17
ATOM     17  C   UNL     1      10.137  -4.286  42.286  1.00  0.00     0.000 C 
BRANCH  17  18
ATOM     18  C   UNL     1       9.614  -5.185  41.147  1.00  0.00     0.000 C 
BRANCH  18  19
ATOM     19  C   UNL     1       8.075  -5.226  41.046  1.00  0.00     0.000 C 
BRANCH  19  20
ATOM     20  C   UNL     1       7.431  -5.971  42.225  1.00  0.00     0.006 C 
BRANCH  20  21
ATOM     21  C   UNL     1       8.064  -7.351  42.416  1.00  0.00     0.053 C 
BRANCH  21  22
ATOM     22  C   UNL     1       8.436  -7.562  43.850  1.00  0.00     0.041 C 
ATOM     23  O   UNL     1       7.698  -7.111  44.768  1.00  0.00    -0.550 OA
ATOM     24  O   UNL     1       9.629  -8.196  44.173  1.00  0.00    -0.550 OA
ENDBRANCH  21  22
ENDBRANCH  20  21
ENDBRANCH  19  20
ENDBRANCH  18  19
ENDBRANCH  17  18
ENDBRANCH  16  17
ENDBRANCH  15  16
ENDBRANCH  14  15
ENDBRANCH  13  14
ENDBRANCH   1  13
TORSDOF 20
ENDMDL
MODEL 8
REMARK VINA RESULT:    -4.012      2.619      4.990
REMARK INTER + INTRA:         -11.719
REMARK INTER:                  -9.037
REMARK INTRA:                  -2.682
REMARK UNBOUND:                -3.016
REMARK SMILES CCCCCCCCCCCCCCCCCCCCCC(=O)[O-]
REMARK SMILES IDX 12 1 11 2 10 3 9 4 8 5 7 6 6 7 5 8 4 9 3 10 2 11 1 12 13 13
REMARK SMILES IDX 14 14 15 15 16 16 17 17 18 18 19 19 20 20 21 21 22 22 23 23
REMARK SMILES IDX 24 24
REMARK H PARENT
REMARK Flexibility Score: inf
ROOT
ATOM      1  C   UNL     1      11.961  -3.379  41.608  1.00  0.00     0.000 C 
ENDROOT
BRANCH   1   2
ATOM      2  C   UNL     1      12.578  -1.982  41.825  1.00  0.00     0.000 C 
BRANCH   2   3
ATOM      3  C   UNL     1      11.517  -0.918  42.160  1.00  0.00     0.000 C 
BRANCH   3   4
ATOM      4  C   UNL     1      10.264  -1.521  42.817  1.00  0.00    -0.000 C 
BRANCH   4   5
ATOM      5  C   UNL     1       8.979  -1.206  42.032  1.00  0.00    -0.000 C 
BRANCH   5   6
ATOM      6  C   UNL     1       8.216  -2.474  41.613  1.00  0.00    -0.000 C 
BRANCH   6   7
ATOM      7  C   UNL     1       8.452  -3.650  42.574  1.00  0.00    -0.000 C 
BRANCH   7   8
ATOM      8  C   UNL     1       8.684  -4.986  41.833  1.00  0.00    -0.000 C 
BRANCH   8   9
ATOM      9  C   UNL     1       7.435  -5.888  41.772  1.00  0.00    -0.000 C 
BRANCH   9  10
ATOM     10  C   UNL     1       7.730  -7.397  41.686  1.00  0.00    -0.000 C 
BRANCH  10  11
ATOM     11  C   UNL     1       8.863  -7.864  42.628  1.00  0.00    -0.003 C 
ATOM     12  C   UNL     1       8.450  -7.880  44.100  1.00  0.00     0.004 C 
ENDBRANCH  10  11
ENDBRANCH   9  10
ENDBRANCH   8   9
ENDBRANCH   7   8
ENDBRANCH   6   7
ENDBRANCH   5   6
ENDBRANCH   4   5
ENDBRANCH   3   4
ENDBRANCH   2   3
ENDBRANCH   1   2
BRANCH   1  13
ATOM     13  C   UNL     1      12.504  -4.125  40.373  1.00  0.00     0.000 C 
BRANCH  13  14
ATOM     14  C   UNL     1      12.036  -3.574  39.016  1.00  0.00     0.000 C 
BRANCH  14  15
ATOM     15  C   UNL     1      10.595  -3.038  39.053  1.00  0.00     0.000 C 
BRANCH  15  16
ATOM     16  C   UNL     1       9.563  -4.073  38.570  1.00  0.00     0.000 C 
BRANCH  16  17
ATOM     17  C   UNL     1       8.751  -3.647  37.332  1.00  0.00     0.000 C 
BRANCH  17  18
ATOM     18  C   UNL     1       7.226  -3.574  37.545  1.00  0.00     0.000 C 
BRANCH  18  19
ATOM     19  C   UNL     1       6.753  -2.256  38.195  1.00  0.00     0.000 C 
BRANCH  19  20
ATOM     20  C   UNL     1       5.544  -1.647  37.471  1.00  0.00     0.006 C 
BRANCH  20  21
ATOM     21  C   UNL     1       5.947  -0.405  36.673  1.00  0.00     0.053 C 
BRANCH  21  22
ATOM     22  C   UNL     1       6.158  -0.754  35.233  1.00  0.00     0.041 C 
ATOM     23  O   UNL     1       6.730   0.063  34.461  1.00  0.00    -0.550 OA
ATOM     24  O   UNL     1       5.664  -1.950  34.728  1.00  0.00    -0.550 OA
ENDBRANCH  21  22
ENDBRANCH  20  21
ENDBRANCH  19  20
ENDBRANCH  18  19
ENDBRANCH  17  18
ENDBRANCH  16  17
ENDBRANCH  15  16
ENDBRANCH  14  15
ENDBRANCH  13  14
ENDBRANCH   1  13
TORSDOF 20
ENDMDL
MODEL 9
REMARK VINA RESULT:    -3.928      3.014      6.624
REMARK INTER + INTRA:         -11.536
REMARK INTER:                  -9.142
REMARK INTRA:                  -2.394
REMARK UNBOUND:                -3.016
REMARK SMILES CCCCCCCCCCCCCCCCCCCCCC(=O)[O-]
REMARK SMILES IDX 12 1 11 2 10 3 9 4 8 5 7 6 6 7 5 8 4 9 3 10 2 11 1 12 13 13
REMARK SMILES IDX 14 14 15 15 16 16 17 17 18 18 19 19 20 20 21 21 22 22 23 23
REMARK SMILES IDX 24 24
REMARK H PARENT
REMARK Flexibility Score: inf
ROOT
ATOM      1  C   UNL     1      11.854  -3.737  41.564  1.00  0.00     0.000 C 
ENDROOT
BRANCH   1   2
ATOM      2  C   UNL     1      10.551  -4.478  41.195  1.00  0.00     0.000 C 
BRANCH   2   3
ATOM      3  C   UNL     1       9.767  -4.937  42.438  1.00  0.00     0.000 C 
BRANCH   3   4
ATOM      4  C   UNL     1       8.246  -4.923  42.215  1.00  0.00    -0.000 C 
BRANCH   4   5
ATOM      5  C   UNL     1       7.639  -6.337  42.200  1.00  0.00    -0.000 C 
BRANCH   5   6
ATOM      6  C   UNL     1       8.677  -7.429  42.507  1.00  0.00    -0.000 C 
BRANCH   6   7
ATOM      7  C   UNL     1       8.552  -8.643  41.571  1.00  0.00    -0.000 C 
BRANCH   7   8
ATOM      8  C   UNL     1       7.096  -9.145  41.440  1.00  0.00    -0.000 C 
BRANCH   8   9
ATOM      9  C   UNL     1       6.933 -10.332  40.470  1.00  0.00    -0.000 C 
BRANCH   9  10
ATOM     10  C   UNL     1       5.796 -11.307  40.826  1.00  0.00    -0.000 C 
BRANCH  10  11
ATOM     11  C   UNL     1       5.604 -12.443  39.796  1.00  0.00    -0.003 C 
ATOM     12  C   UNL     1       6.801 -12.610  38.859  1.00  0.00     0.004 C 
ENDBRANCH  10  11
ENDBRANCH   9  10
ENDBRANCH   8   9
ENDBRANCH   7   8
ENDBRANCH   6   7
ENDBRANCH   5   6
ENDBRANCH   4   5
ENDBRANCH   3   4
ENDBRANCH   2   3
ENDBRANCH   1   2
BRANCH   1  13
ATOM     13  C   UNL     1      12.085  -2.435  40.773  1.00  0.00     0.000 C 
BRANCH  13  14
ATOM     14  C   UNL     1      11.867  -1.136  41.568  1.00  0.00     0.000 C 
BRANCH  14  15
ATOM     15  C   UNL     1      11.406  -1.391  43.013  1.00  0.00     0.000 C 
BRANCH  15  16
ATOM     16  C   UNL     1       9.932  -1.012  43.241  1.00  0.00     0.000 C 
BRANCH  16  17
ATOM     17  C   UNL     1       9.187  -0.523  41.983  1.00  0.00     0.000 C 
BRANCH  17  18
ATOM     18  C   UNL     1       8.249  -1.561  41.336  1.00  0.00     0.000 C 
BRANCH  18  19
ATOM     19  C   UNL     1       8.286  -1.552  39.793  1.00  0.00     0.000 C 
BRANCH  19  20
ATOM     20  C   UNL     1       7.741  -2.854  39.187  1.00  0.00     0.006 C 
BRANCH  20  21
ATOM     21  C   UNL     1       6.711  -2.563  38.093  1.00  0.00     0.053 C 
BRANCH  21  22
ATOM     22  C   UNL     1       7.265  -2.914  36.747  1.00  0.00     0.041 C 
ATOM     23  O   UNL     1       7.865  -4.009  36.576  1.00  0.00    -0.550 OA
ATOM     24  O   UNL     1       7.178  -2.004  35.701  1.00  0.00    -0.550 OA
ENDBRANCH  21  22
ENDBRANCH  20  21
ENDBRANCH  19  20
ENDBRANCH  18  19
ENDBRANCH  17  18
ENDBRANCH  16  17
ENDBRANCH  15  16
ENDBRANCH  14  15
ENDBRANCH  13  14
ENDBRANCH   1  13
TORSDOF 20
ENDMDL
