MODEL 1
REMARK VINA RESULT:    -5.336      0.000      0.000
REMARK INTER + INTRA:          -6.165
REMARK INTER:                  -6.116
REMARK INTRA:                  -0.050
REMARK UNBOUND:                -0.050
REMARK SMILES O=C([O-])c1cc(O)c(O)c(O)c1
REMARK SMILES IDX 4 1 5 2 12 3 6 4 10 5 8 6 2 7 1 8 3 9 7 10 11 12 9 14
REMARK H PARENT 7 11 11 13 9 15
REMARK Flexibility Score: inf
ROOT
ATOM      1  C   UNL     1      27.399  23.635  49.604  1.00  0.00     0.005 A 
ATOM      2  C   UNL     1      27.579  24.597  50.611  1.00  0.00     0.060 A 
ATOM      3  C   UNL     1      26.785  22.413  49.930  1.00  0.00     0.060 A 
ATOM      4  C   UNL     1      27.151  24.348  51.923  1.00  0.00     0.162 A 
ATOM      5  C   UNL     1      26.356  22.158  51.239  1.00  0.00     0.162 A 
ATOM      6  C   UNL     1      26.539  23.124  52.238  1.00  0.00     0.200 A 
ENDROOT
BRANCH   1   7
ATOM      7  C   UNL     1      27.852  23.906  48.222  1.00  0.00     0.072 C 
ATOM      8  O   UNL     1      27.183  23.499  47.236  1.00  0.00    -0.545 OA
ATOM      9  O   UNL     1      29.027  24.614  47.992  1.00  0.00    -0.545 OA
ENDBRANCH   1   7
BRANCH   4  10
ATOM     10  O   UNL     1      27.335  25.311  52.914  1.00  0.00    -0.504 OA
ATOM     11  H   UNL     1      28.207  25.389  53.424  1.00  0.00     0.293 HD
ENDBRANCH   4  10
BRANCH   5  12
ATOM     12  O   UNL     1      25.747  20.945  51.558  1.00  0.00    -0.504 OA
ATOM     13  H   UNL     1      25.032  20.882  52.272  1.00  0.00     0.293 HD
ENDBRANCH   5  12
BRANCH   6  14
ATOM     14  O   UNL     1      26.106  22.851  53.536  1.00  0.00    -0.502 OA
ATOM     15  H   UNL     1      26.405  23.403  54.331  1.00  0.00     0.293 HD
ENDBRANCH   6  14
TORSDOF 4
ENDMDL
MODEL 2
REMARK VINA RESULT:    -5.325      0.116      2.424
REMARK INTER + INTRA:          -6.153
REMARK INTER:                  -6.104
REMARK INTRA:                  -0.049
REMARK UNBOUND:                -0.050
REMARK SMILES O=C([O-])c1cc(O)c(O)c(O)c1
REMARK SMILES IDX 4 1 5 2 12 3 6 4 10 5 8 6 2 7 1 8 3 9 7 10 11 12 9 14
REMARK H PARENT 7 11 11 13 9 15
REMARK Flexibility Score: inf
ROOT
ATOM      1  C   UNL     1      27.429  23.667  49.539  1.00  0.00     0.005 A 
ATOM      2  C   UNL     1      26.807  22.440  49.823  1.00  0.00     0.060 A 
ATOM      3  C   UNL     1      27.573  24.613  50.569  1.00  0.00     0.060 A 
ATOM      4  C   UNL     1      26.336  22.159  51.113  1.00  0.00     0.162 A 
ATOM      5  C   UNL     1      27.105  24.338  51.860  1.00  0.00     0.162 A 
ATOM      6  C   UNL     1      26.485  23.111  52.135  1.00  0.00     0.200 A 
ENDROOT
BRANCH   1   7
ATOM      7  C   UNL     1      27.923  23.957  48.174  1.00  0.00     0.072 C 
ATOM      8  O   UNL     1      27.253  23.617  47.164  1.00  0.00    -0.545 OA
ATOM      9  O   UNL     1      29.137  24.609  47.989  1.00  0.00    -0.545 OA
ENDBRANCH   1   7
BRANCH   4  10
ATOM     10  O   UNL     1      25.721  20.938  51.383  1.00  0.00    -0.504 OA
ATOM     11  H   UNL     1      25.961  20.097  50.871  1.00  0.00     0.293 HD
ENDBRANCH   4  10
BRANCH   5  12
ATOM     12  O   UNL     1      27.250  25.278  52.878  1.00  0.00    -0.504 OA
ATOM     13  H   UNL     1      28.163  25.607  53.171  1.00  0.00     0.293 HD
ENDBRANCH   5  12
BRANCH   6  14
ATOM     14  O   UNL     1      26.025  22.855  53.427  1.00  0.00    -0.502 OA
ATOM     15  H   UNL     1      26.002  21.920  53.815  1.00  0.00     0.293 HD
ENDBRANCH   6  14
TORSDOF 4
ENDMDL
MODEL 3
REMARK VINA RESULT:    -5.034      1.254      2.692
REMARK INTER + INTRA:          -5.820
REMARK INTER:                  -5.775
REMARK INTRA:                  -0.045
REMARK UNBOUND:                -0.050
REMARK SMILES O=C([O-])c1cc(O)c(O)c(O)c1
REMARK SMILES IDX 4 1 5 2 12 3 6 4 10 5 8 6 2 7 1 8 3 9 7 10 11 12 9 14
REMARK H PARENT 7 11 11 13 9 15
REMARK Flexibility Score: inf
ROOT
ATOM      1  C   UNL     1      28.110  23.805  49.559  1.00  0.00     0.005 A 
ATOM      2  C   UNL     1      28.338  22.476  49.951  1.00  0.00     0.060 A 
ATOM      3  C   UNL     1      27.731  24.747  50.532  1.00  0.00     0.060 A 
ATOM      4  C   UNL     1      28.193  22.090  51.291  1.00  0.00     0.162 A 
ATOM      5  C   UNL     1      27.584  24.368  51.873  1.00  0.00     0.162 A 
ATOM      6  C   UNL     1      27.814  23.039  52.255  1.00  0.00     0.200 A 
ENDROOT
BRANCH   1   7
ATOM      7  C   UNL     1      28.265  24.204  48.143  1.00  0.00     0.072 C 
ATOM      8  O   UNL     1      29.389  24.553  47.694  1.00  0.00    -0.545 OA
ATOM      9  O   UNL     1      27.170  24.200  47.286  1.00  0.00    -0.545 OA
ENDBRANCH   1   7
BRANCH   4  10
ATOM     10  O   UNL     1      28.422  20.768  51.668  1.00  0.00    -0.504 OA
ATOM     11  H   UNL     1      27.761  20.257  52.242  1.00  0.00     0.293 HD
ENDBRANCH   4  10
BRANCH   5  12
ATOM     12  O   UNL     1      27.209  25.305  52.833  1.00  0.00    -0.504 OA
ATOM     13  H   UNL     1      26.694  25.037  53.663  1.00  0.00     0.293 HD
ENDBRANCH   5  12
BRANCH   6  14
ATOM     14  O   UNL     1      27.662  22.680  53.594  1.00  0.00    -0.502 OA
ATOM     15  H   UNL     1      26.751  22.572  54.024  1.00  0.00     0.293 HD
ENDBRANCH   6  14
TORSDOF 4
ENDMDL
MODEL 4
REMARK VINA RESULT:    -5.013      1.268      1.268
REMARK INTER + INTRA:          -5.795
REMARK INTER:                  -5.750
REMARK INTRA:                  -0.045
REMARK UNBOUND:                -0.050
REMARK SMILES O=C([O-])c1cc(O)c(O)c(O)c1
REMARK SMILES IDX 4 1 5 2 12 3 6 4 10 5 8 6 2 7 1 8 3 9 7 10 11 12 9 14
REMARK H PARENT 7 11 11 13 9 15
REMARK Flexibility Score: inf
ROOT
ATOM      1  C   UNL     1      28.063  23.761  49.554  1.00  0.00     0.005 A 
ATOM      2  C   UNL     1      27.701  24.713  50.521  1.00  0.00     0.060 A 
ATOM      3  C   UNL     1      28.320  22.440  49.960  1.00  0.00     0.060 A 
ATOM      4  C   UNL     1      27.594  24.354  51.873  1.00  0.00     0.162 A 
ATOM      5  C   UNL     1      28.215  22.075  51.309  1.00  0.00     0.162 A 
ATOM      6  C   UNL     1      27.853  23.031  52.267  1.00  0.00     0.200 A 
ENDROOT
BRANCH   1   7
ATOM      7  C   UNL     1      28.173  24.147  48.130  1.00  0.00     0.072 C 
ATOM      8  O   UNL     1      27.177  24.064  47.364  1.00  0.00    -0.545 OA
ATOM      9  O   UNL     1      29.380  24.609  47.617  1.00  0.00    -0.545 OA
ENDBRANCH   1   7
BRANCH   4  10
ATOM     10  O   UNL     1      27.234  25.307  52.824  1.00  0.00    -0.504 OA
ATOM     11  H   UNL     1      27.922  25.739  53.430  1.00  0.00     0.293 HD
ENDBRANCH   4  10
BRANCH   5  12
ATOM     12  O   UNL     1      28.471  20.764  51.706  1.00  0.00    -0.504 OA
ATOM     13  H   UNL     1      27.730  20.076  51.769  1.00  0.00     0.293 HD
ENDBRANCH   5  12
BRANCH   6  14
ATOM     14  O   UNL     1      27.755  22.650  53.606  1.00  0.00    -0.502 OA
ATOM     15  H   UNL     1      26.910  22.793  54.146  1.00  0.00     0.293 HD
ENDBRANCH   6  14
TORSDOF 4
ENDMDL
MODEL 5
REMARK VINA RESULT:    -4.925      2.690      3.849
REMARK INTER + INTRA:          -5.695
REMARK INTER:                  -5.642
REMARK INTRA:                  -0.053
REMARK UNBOUND:                -0.050
REMARK SMILES O=C([O-])c1cc(O)c(O)c(O)c1
REMARK SMILES IDX 4 1 5 2 12 3 6 4 10 5 8 6 2 7 1 8 3 9 7 10 11 12 9 14
REMARK H PARENT 7 11 11 13 9 15
REMARK Flexibility Score: inf
ROOT
ATOM      1  C   UNL     1      29.593  23.010  50.750  1.00  0.00     0.005 A 
ATOM      2  C   UNL     1      28.789  22.568  49.686  1.00  0.00     0.060 A 
ATOM      3  C   UNL     1      29.030  23.854  51.724  1.00  0.00     0.060 A 
ATOM      4  C   UNL     1      27.446  22.958  49.594  1.00  0.00     0.162 A 
ATOM      5  C   UNL     1      27.688  24.247  51.638  1.00  0.00     0.162 A 
ATOM      6  C   UNL     1      26.894  23.801  50.573  1.00  0.00     0.200 A 
ENDROOT
BRANCH   1   7
ATOM      7  C   UNL     1      31.010  22.594  50.840  1.00  0.00     0.072 C 
ATOM      8  O   UNL     1      31.737  22.994  51.788  1.00  0.00    -0.545 OA
ATOM      9  O   UNL     1      31.560  21.754  49.878  1.00  0.00    -0.545 OA
ENDBRANCH   1   7
BRANCH   4  10
ATOM     10  O   UNL     1      26.659  22.512  48.534  1.00  0.00    -0.504 OA
ATOM     11  H   UNL     1      26.783  22.869  47.594  1.00  0.00     0.293 HD
ENDBRANCH   4  10
BRANCH   5  12
ATOM     12  O   UNL     1      27.135  25.083  52.606  1.00  0.00    -0.504 OA
ATOM     13  H   UNL     1      26.794  26.008  52.375  1.00  0.00     0.293 HD
ENDBRANCH   5  12
BRANCH   6  14
ATOM     14  O   UNL     1      25.560  24.203  50.503  1.00  0.00    -0.502 OA
ATOM     15  H   UNL     1      24.931  23.864  49.785  1.00  0.00     0.293 HD
ENDBRANCH   6  14
TORSDOF 4
ENDMDL
MODEL 6
REMARK VINA RESULT:    -4.922      2.653      3.171
REMARK INTER + INTRA:          -5.691
REMARK INTER:                  -5.639
REMARK INTRA:                  -0.052
REMARK UNBOUND:                -0.050
REMARK SMILES O=C([O-])c1cc(O)c(O)c(O)c1
REMARK SMILES IDX 4 1 5 2 12 3 6 4 10 5 8 6 2 7 1 8 3 9 7 10 11 12 9 14
REMARK H PARENT 7 11 11 13 9 15
REMARK Flexibility Score: inf
ROOT
ATOM      1  C   UNL     1      29.531  23.077  50.764  1.00  0.00     0.005 A 
ATOM      2  C   UNL     1      28.956  23.909  51.738  1.00  0.00     0.060 A 
ATOM      3  C   UNL     1      28.729  22.609  49.707  1.00  0.00     0.060 A 
ATOM      4  C   UNL     1      27.604  24.272  51.662  1.00  0.00     0.162 A 
ATOM      5  C   UNL     1      27.377  22.968  49.626  1.00  0.00     0.162 A 
ATOM      6  C   UNL     1      26.812  23.799  50.602  1.00  0.00     0.200 A 
ENDROOT
BRANCH   1   7
ATOM      7  C   UNL     1      30.958  22.699  50.851  1.00  0.00     0.072 C 
ATOM      8  O   UNL     1      31.598  22.852  51.924  1.00  0.00    -0.545 OA
ATOM      9  O   UNL     1      31.614  22.167  49.746  1.00  0.00    -0.545 OA
ENDBRANCH   1   7
BRANCH   4  10
ATOM     10  O   UNL     1      27.044  25.099  52.635  1.00  0.00    -0.504 OA
ATOM     11  H   UNL     1      26.487  25.908  52.387  1.00  0.00     0.293 HD
ENDBRANCH   4  10
BRANCH   5  12
ATOM     12  O   UNL     1      26.586  22.502  48.577  1.00  0.00    -0.504 OA
ATOM     13  H   UNL     1      26.828  21.663  48.063  1.00  0.00     0.293 HD
ENDBRANCH   5  12
BRANCH   6  14
ATOM     14  O   UNL     1      25.464  24.145  50.505  1.00  0.00    -0.502 OA
ATOM     15  H   UNL     1      24.816  23.634  49.917  1.00  0.00     0.293 HD
ENDBRANCH   6  14
TORSDOF 4
ENDMDL
MODEL 7
REMARK VINA RESULT:    -4.806      1.984      2.700
REMARK INTER + INTRA:          -5.558
REMARK INTER:                  -5.509
REMARK INTRA:                  -0.049
REMARK UNBOUND:                -0.050
REMARK SMILES O=C([O-])c1cc(O)c(O)c(O)c1
REMARK SMILES IDX 4 1 5 2 12 3 6 4 10 5 8 6 2 7 1 8 3 9 7 10 11 12 9 14
REMARK H PARENT 7 11 11 13 9 15
REMARK Flexibility Score: inf
ROOT
ATOM      1  C   UNL     1      28.531  23.509  48.526  1.00  0.00     0.005 A 
ATOM      2  C   UNL     1      27.216  23.578  49.013  1.00  0.00     0.060 A 
ATOM      3  C   UNL     1      29.473  22.724  49.215  1.00  0.00     0.060 A 
ATOM      4  C   UNL     1      26.842  22.876  50.167  1.00  0.00     0.162 A 
ATOM      5  C   UNL     1      29.106  22.021  50.370  1.00  0.00     0.162 A 
ATOM      6  C   UNL     1      27.791  22.095  50.848  1.00  0.00     0.200 A 
ENDROOT
BRANCH   1   7
ATOM      7  C   UNL     1      28.917  24.252  47.306  1.00  0.00     0.072 C 
ATOM      8  O   UNL     1      30.027  24.844  47.240  1.00  0.00    -0.545 OA
ATOM      9  O   UNL     1      28.059  24.307  46.214  1.00  0.00    -0.545 OA
ENDBRANCH   1   7
BRANCH   4  10
ATOM     10  O   UNL     1      25.534  22.952  50.641  1.00  0.00    -0.504 OA
ATOM     11  H   UNL     1      24.757  22.557  50.123  1.00  0.00     0.293 HD
ENDBRANCH   4  10
BRANCH   5  12
ATOM     12  O   UNL     1      30.043  21.244  51.049  1.00  0.00    -0.504 OA
ATOM     13  H   UNL     1      29.841  20.291  51.325  1.00  0.00     0.293 HD
ENDBRANCH   5  12
BRANCH   6  14
ATOM     14  O   UNL     1      27.444  21.388  52.000  1.00  0.00    -0.502 OA
ATOM     15  H   UNL     1      27.929  21.519  52.880  1.00  0.00     0.293 HD
ENDBRANCH   6  14
TORSDOF 4
ENDMDL
MODEL 8
REMARK VINA RESULT:    -4.658     12.395     14.073
REMARK INTER + INTRA:          -5.388
REMARK INTER:                  -5.342
REMARK INTRA:                  -0.046
REMARK UNBOUND:                -0.050
REMARK SMILES O=C([O-])c1cc(O)c(O)c(O)c1
REMARK SMILES IDX 4 1 5 2 12 3 6 4 10 5 8 6 2 7 1 8 3 9 7 10 11 12 9 14
REMARK H PARENT 7 11 11 13 9 15
REMARK Flexibility Score: inf
ROOT
ATOM      1  C   UNL     1      19.380  24.366  39.748  1.00  0.00     0.005 A 
ATOM      2  C   UNL     1      20.171  23.398  40.388  1.00  0.00     0.060 A 
ATOM      3  C   UNL     1      18.993  24.156  38.412  1.00  0.00     0.060 A 
ATOM      4  C   UNL     1      20.569  22.237  39.709  1.00  0.00     0.162 A 
ATOM      5  C   UNL     1      19.388  22.998  37.729  1.00  0.00     0.162 A 
ATOM      6  C   UNL     1      20.177  22.038  38.376  1.00  0.00     0.200 A 
ENDROOT
BRANCH   1   7
ATOM      7  C   UNL     1      18.964  25.588  40.470  1.00  0.00     0.072 C 
ATOM      8  O   UNL     1      18.247  25.510  41.503  1.00  0.00    -0.545 OA
ATOM      9  O   UNL     1      19.359  26.842  40.018  1.00  0.00    -0.545 OA
ENDBRANCH   1   7
BRANCH   4  10
ATOM     10  O   UNL     1      21.354  21.283  40.355  1.00  0.00    -0.504 OA
ATOM     11  H   UNL     1      22.359  21.249  40.229  1.00  0.00     0.293 HD
ENDBRANCH   4  10
BRANCH   5  12
ATOM     12  O   UNL     1      19.001  22.795  36.406  1.00  0.00    -0.504 OA
ATOM     13  H   UNL     1      18.482  23.496  35.891  1.00  0.00     0.293 HD
ENDBRANCH   5  12
BRANCH   6  14
ATOM     14  O   UNL     1      20.561  20.891  37.679  1.00  0.00    -0.502 OA
ATOM     15  H   UNL     1      20.804  20.029  38.152  1.00  0.00     0.293 HD
ENDBRANCH   6  14
TORSDOF 4
ENDMDL
MODEL 9
REMARK VINA RESULT:    -4.636     12.415     14.130
REMARK INTER + INTRA:          -5.363
REMARK INTER:                  -5.317
REMARK INTRA:                  -0.046
REMARK UNBOUND:                -0.050
REMARK SMILES O=C([O-])c1cc(O)c(O)c(O)c1
REMARK SMILES IDX 4 1 5 2 12 3 6 4 10 5 8 6 2 7 1 8 3 9 7 10 11 12 9 14
REMARK H PARENT 7 11 11 13 9 15
REMARK Flexibility Score: inf
ROOT
ATOM      1  C   UNL     1      19.359  24.377  39.734  1.00  0.00     0.005 A 
ATOM      2  C   UNL     1      18.973  24.169  38.400  1.00  0.00     0.060 A 
ATOM      3  C   UNL     1      20.162  23.413  40.370  1.00  0.00     0.060 A 
ATOM      4  C   UNL     1      19.381  23.020  37.708  1.00  0.00     0.162 A 
ATOM      5  C   UNL     1      20.573  22.263  39.683  1.00  0.00     0.162 A 
ATOM      6  C   UNL     1      20.183  22.064  38.352  1.00  0.00     0.200 A 
ENDROOT
BRANCH   1   7
ATOM      7  C   UNL     1      18.924  25.592  40.458  1.00  0.00     0.072 C 
ATOM      8  O   UNL     1      19.277  26.735  40.064  1.00  0.00    -0.545 OA
ATOM      9  O   UNL     1      18.118  25.489  41.586  1.00  0.00    -0.545 OA
ENDBRANCH   1   7
BRANCH   4  10
ATOM     10  O   UNL     1      18.992  22.825  36.383  1.00  0.00    -0.504 OA
ATOM     11  H   UNL     1      18.082  22.447  36.148  1.00  0.00     0.293 HD
ENDBRANCH   4  10
BRANCH   5  12
ATOM     12  O   UNL     1      21.369  21.311  40.317  1.00  0.00    -0.504 OA
ATOM     13  H   UNL     1      21.863  20.599  39.793  1.00  0.00     0.293 HD
ENDBRANCH   5  12
BRANCH   6  14
ATOM     14  O   UNL     1      20.602  20.912  37.685  1.00  0.00    -0.502 OA
ATOM     15  H   UNL     1      21.528  20.828  37.283  1.00  0.00     0.293 HD
ENDBRANCH   6  14
TORSDOF 4
ENDMDL
