MODEL 1
REMARK VINA RESULT:    -1.157      0.000      0.000
REMARK INTER + INTRA:          -0.443
REMARK INTER:                  -2.002
REMARK INTRA:                   1.558
REMARK UNBOUND:                 1.558
REMARK SMILES OC[C@@H]1O[C@@H](O[C@@H]2[C@@H](O)[C@@H](O)[C@@H](O)O[C@@H]2CO)[C@H](O)[C@@H](O)[C@@H]1O[C@@H]1O[C@H](CO)[C@@H](O)[C@@H](O)[C@H]1O
REMARK SMILES IDX 22 1 3 2 4 3 5 4 18 5 20 6 23 7 24 8 26 9 29 10 25 11 31 12
REMARK SMILES IDX 33 13 27 14 28 15 30 17 32 19 34 21 2 23 1 24 21 26 19 28
REMARK SMILES IDX 6 30 7 31 15 32 8 33 14 34 10 35 12 36 16 37 17 38 9 40
REMARK SMILES IDX 11 42 13 44
REMARK H PARENT 28 16 30 18 32 20 34 22 1 25 21 27 19 29 17 39 9 41 11 43
REMARK H PARENT 13 45
REMARK Flexibility Score: inf
ROOT
ATOM      1  C   UNL     1       9.874  -6.027  -2.291  1.00  0.00     0.184 C 
ATOM      2  C   UNL     1      10.311  -7.290  -3.109  1.00  0.00     0.178 C 
ATOM      3  O   UNL     1      11.576  -7.843  -2.753  1.00  0.00    -0.341 OA
ATOM      4  C   UNL     1      11.931  -7.590  -1.406  1.00  0.00     0.282 C 
ATOM      5  C   UNL     1      12.211  -6.087  -1.218  1.00  0.00     0.202 C 
ATOM      6  C   UNL     1      11.113  -5.203  -1.874  1.00  0.00     0.180 C 
ENDROOT
BRANCH   1   7
ATOM      7  O   UNL     1       9.162  -6.420  -1.121  1.00  0.00    -0.341 OA
BRANCH   7   8
ATOM      8  C   UNL     1       8.045  -5.592  -0.854  1.00  0.00     0.282 C 
ATOM      9  C   UNL     1       6.178  -4.663  -1.924  1.00  0.00     0.178 C 
ATOM     10  C   UNL     1       6.817  -3.279  -2.239  1.00  0.00     0.177 C 
ATOM     11  O   UNL     1       7.165  -5.676  -1.970  1.00  0.00    -0.341 OA
ATOM     12  C   UNL     1       8.311  -3.249  -1.823  1.00  0.00     0.179 C 
ATOM     13  C   UNL     1       8.562  -4.145  -0.590  1.00  0.00     0.202 C 
BRANCH   9  14
ATOM     14  C   UNL     1       5.082  -4.988  -2.946  1.00  0.00     0.191 C 
BRANCH  14  15
ATOM     15  O   UNL     1       4.101  -3.985  -2.931  1.00  0.00    -0.394 OA
ATOM     16  H   UNL     1       4.280  -3.421  -3.729  1.00  0.00     0.210 HD
ENDBRANCH  14  15
ENDBRANCH   9  14
BRANCH  10  17
ATOM     17  O   UNL     1       6.076  -2.238  -1.643  1.00  0.00    -0.387 OA
ATOM     18  H   UNL     1       5.219  -2.622  -1.331  1.00  0.00     0.211 HD
ENDBRANCH  10  17
BRANCH  12  19
ATOM     19  O   UNL     1       8.750  -1.938  -1.564  1.00  0.00    -0.387 OA
ATOM     20  H   UNL     1       8.344  -1.364  -2.266  1.00  0.00     0.211 HD
ENDBRANCH  12  19
BRANCH  13  21
ATOM     21  O   UNL     1       7.924  -3.624   0.548  1.00  0.00    -0.385 OA
ATOM     22  H   UNL     1       7.850  -2.640   0.433  1.00  0.00     0.211 HD
ENDBRANCH  13  21
ENDBRANCH   7   8
ENDBRANCH   1   7
BRANCH   2  23
ATOM     23  C   UNL     1       9.243  -8.392  -3.125  1.00  0.00     0.191 C 
BRANCH  23  24
ATOM     24  O   UNL     1       8.677  -8.526  -1.849  1.00  0.00    -0.394 OA
ATOM     25  H   UNL     1       8.642  -9.500  -1.663  1.00  0.00     0.210 HD
ENDBRANCH  23  24
ENDBRANCH   2  23
BRANCH   6  26
ATOM     26  O   UNL     1      11.632  -4.496  -2.974  1.00  0.00    -0.387 OA
ATOM     27  H   UNL     1      11.560  -5.077  -3.778  1.00  0.00     0.211 HD
ENDBRANCH   6  26
BRANCH   5  28
ATOM     28  O   UNL     1      12.360  -5.778   0.144  1.00  0.00    -0.385 OA
ATOM     29  H   UNL     1      12.977  -6.444   0.535  1.00  0.00     0.211 HD
ENDBRANCH   5  28
BRANCH   4  30
ATOM     30  O   UNL     1      13.115  -8.299  -1.095  1.00  0.00    -0.341 OA
BRANCH  30  31
ATOM     31  C   UNL     1      14.268  -7.483  -1.224  1.00  0.00     0.184 C 
ATOM     32  C   UNL     1      15.483  -8.183  -0.565  1.00  0.00     0.178 C 
ATOM     33  C   UNL     1      14.542  -7.225  -2.731  1.00  0.00     0.180 C 
ATOM     34  O   UNL     1      16.057  -9.112  -1.466  1.00  0.00    -0.342 OA
ATOM     35  C   UNL     1      16.045  -7.166  -3.043  1.00  0.00     0.201 C 
ATOM     36  C   UNL     1      16.750  -8.457  -2.527  1.00  0.00     0.279 C 
BRANCH  32  37
ATOM     37  C   UNL     1      15.117  -8.889   0.752  1.00  0.00     0.191 C 
BRANCH  37  38
ATOM     38  O   UNL     1      16.240  -8.977   1.584  1.00  0.00    -0.394 OA
ATOM     39  H   UNL     1      16.180  -9.859   2.041  1.00  0.00     0.210 HD
ENDBRANCH  37  38
ENDBRANCH  32  37
BRANCH  33  40
ATOM     40  O   UNL     1      13.934  -6.020  -3.125  1.00  0.00    -0.387 OA
ATOM     41  H   UNL     1      14.193  -5.327  -2.466  1.00  0.00     0.211 HD
ENDBRANCH  33  40
BRANCH  35  42
ATOM     42  O   UNL     1      16.596  -6.019  -2.443  1.00  0.00    -0.385 OA
ATOM     43  H   UNL     1      16.163  -5.924  -1.554  1.00  0.00     0.211 HD
ENDBRANCH  35  42
BRANCH  36  44
ATOM     44  O   UNL     1      18.072  -8.185  -2.138  1.00  0.00    -0.366 OA
ATOM     45  H   UNL     1      18.656  -8.766  -2.687  1.00  0.00     0.213 HD
ENDBRANCH  36  44
ENDBRANCH  30  31
ENDBRANCH   4  30
TORSDOF 18
ENDMDL
MODEL 2
REMARK VINA RESULT:     0.870      1.427      8.228
REMARK INTER + INTRA:           3.064
REMARK INTER:                   3.065
REMARK INTRA:                  -0.001
REMARK UNBOUND:                 1.558
REMARK SMILES OC[C@@H]1O[C@@H](O[C@@H]2[C@@H](O)[C@@H](O)[C@@H](O)O[C@@H]2CO)[C@H](O)[C@@H](O)[C@@H]1O[C@@H]1O[C@H](CO)[C@@H](O)[C@@H](O)[C@H]1O
REMARK SMILES IDX 22 1 3 2 4 3 5 4 18 5 20 6 23 7 24 8 26 9 29 10 25 11 31 12
REMARK SMILES IDX 33 13 27 14 28 15 30 17 32 19 34 21 2 23 1 24 21 26 19 28
REMARK SMILES IDX 6 30 7 31 15 32 8 33 14 34 10 35 12 36 16 37 17 38 9 40
REMARK SMILES IDX 11 42 13 44
REMARK H PARENT 28 16 30 18 32 20 34 22 1 25 21 27 19 29 17 39 9 41 11 43
REMARK H PARENT 13 45
REMARK Flexibility Score: inf
ROOT
ATOM      1  C   UNL     1      12.005  -7.626  -0.348  1.00  0.00     0.184 C 
ATOM      2  C   UNL     1      10.460  -7.617  -0.085  1.00  0.00     0.178 C 
ATOM      3  O   UNL     1       9.707  -6.714  -0.891  1.00  0.00    -0.341 OA
ATOM      4  C   UNL     1      10.316  -6.450  -2.142  1.00  0.00     0.282 C 
ATOM      5  C   UNL     1      11.606  -5.636  -1.927  1.00  0.00     0.202 C 
ATOM      6  C   UNL     1      12.483  -6.224  -0.786  1.00  0.00     0.180 C 
ENDROOT
BRANCH   1   7
ATOM      7  O   UNL     1      12.325  -8.566  -1.369  1.00  0.00    -0.341 OA
BRANCH   7   8
ATOM      8  C   UNL     1      13.684  -8.965  -1.343  1.00  0.00     0.282 C 
ATOM      9  C   UNL     1      15.556  -8.934   0.067  1.00  0.00     0.178 C 
ATOM     10  C   UNL     1      16.202  -7.643  -0.516  1.00  0.00     0.177 C 
ATOM     11  O   UNL     1      14.145  -8.844  -0.001  1.00  0.00    -0.341 OA
ATOM     12  C   UNL     1      15.285  -6.996  -1.586  1.00  0.00     0.179 C 
ATOM     13  C   UNL     1      14.475  -8.070  -2.345  1.00  0.00     0.202 C 
BRANCH   9  14
ATOM     14  C   UNL     1      15.974  -9.124   1.530  1.00  0.00     0.191 C 
BRANCH  14  15
ATOM     15  O   UNL     1      17.368  -9.016   1.647  1.00  0.00    -0.394 OA
ATOM     16  H   UNL     1      17.621  -9.608   2.405  1.00  0.00     0.210 HD
ENDBRANCH  14  15
ENDBRANCH   9  14
BRANCH  10  17
ATOM     17  O   UNL     1      17.495  -7.910  -1.012  1.00  0.00    -0.387 OA
ATOM     18  H   UNL     1      17.544  -7.543  -1.930  1.00  0.00     0.211 HD
ENDBRANCH  10  17
BRANCH  12  19
ATOM     19  O   UNL     1      16.021  -6.215  -2.495  1.00  0.00    -0.387 OA
ATOM     20  H   UNL     1      16.443  -5.490  -1.962  1.00  0.00     0.211 HD
ENDBRANCH  12  19
BRANCH  13  21
ATOM     21  O   UNL     1      15.319  -8.879  -3.124  1.00  0.00    -0.385 OA
ATOM     22  H   UNL     1      14.755  -9.364  -3.782  1.00  0.00     0.211 HD
ENDBRANCH  13  21
ENDBRANCH   7   8
ENDBRANCH   1   7
BRANCH   2  23
ATOM     23  C   UNL     1       9.835  -9.017  -0.142  1.00  0.00     0.191 C 
BRANCH  23  24
ATOM     24  O   UNL     1       8.446  -8.927   0.026  1.00  0.00    -0.394 OA
ATOM     25  H   UNL     1       8.081  -9.822  -0.197  1.00  0.00     0.210 HD
ENDBRANCH  23  24
ENDBRANCH   2  23
BRANCH   6  26
ATOM     26  O   UNL     1      12.524  -5.347   0.313  1.00  0.00    -0.387 OA
ATOM     27  H   UNL     1      13.478  -5.193   0.550  1.00  0.00     0.211 HD
ENDBRANCH   6  26
BRANCH   5  28
ATOM     28  O   UNL     1      12.335  -5.540  -3.125  1.00  0.00    -0.385 OA
ATOM     29  H   UNL     1      13.247  -5.237  -2.895  1.00  0.00     0.211 HD
ENDBRANCH   5  28
BRANCH   4  30
ATOM     30  O   UNL     1       9.436  -5.676  -2.934  1.00  0.00    -0.341 OA
BRANCH  30  31
ATOM     31  C   UNL     1       8.294  -5.259  -2.202  1.00  0.00     0.184 C 
ATOM     32  C   UNL     1       8.407  -3.752  -1.866  1.00  0.00     0.178 C 
ATOM     33  C   UNL     1       7.020  -5.533  -3.048  1.00  0.00     0.180 C 
ATOM     34  O   UNL     1       7.968  -2.974  -2.965  1.00  0.00    -0.342 OA
ATOM     35  C   UNL     1       5.949  -4.451  -2.845  1.00  0.00     0.201 C 
ATOM     36  C   UNL     1       6.553  -3.041  -3.125  1.00  0.00     0.279 C 
BRANCH  32  37
ATOM     37  C   UNL     1       9.835  -3.338  -1.469  1.00  0.00     0.191 C 
BRANCH  37  38
ATOM     38  O   UNL     1      10.585  -3.029  -2.611  1.00  0.00    -0.394 OA
ATOM     39  H   UNL     1      10.119  -2.268  -3.053  1.00  0.00     0.210 HD
ENDBRANCH  37  38
ENDBRANCH  32  37
BRANCH  33  40
ATOM     40  O   UNL     1       6.487  -6.790  -2.711  1.00  0.00    -0.387 OA
ATOM     41  H   UNL     1       7.233  -7.347  -2.372  1.00  0.00     0.211 HD
ENDBRANCH  33  40
BRANCH  35  42
ATOM     42  O   UNL     1       5.453  -4.534  -1.531  1.00  0.00    -0.385 OA
ATOM     43  H   UNL     1       5.135  -3.624  -1.287  1.00  0.00     0.211 HD
ENDBRANCH  35  42
BRANCH  36  44
ATOM     44  O   UNL     1       5.934  -2.063  -2.327  1.00  0.00    -0.366 OA
ATOM     45  H   UNL     1       6.523  -1.919  -1.544  1.00  0.00     0.213 HD
ENDBRANCH  36  44
ENDBRANCH  30  31
ENDBRANCH   4  30
TORSDOF 18
ENDMDL
MODEL 3
REMARK VINA RESULT:     1.493      1.667      3.920
REMARK INTER + INTRA:           4.143
REMARK INTER:                  -1.173
REMARK INTRA:                   5.316
REMARK UNBOUND:                 1.558
REMARK SMILES OC[C@@H]1O[C@@H](O[C@@H]2[C@@H](O)[C@@H](O)[C@@H](O)O[C@@H]2CO)[C@H](O)[C@@H](O)[C@@H]1O[C@@H]1O[C@H](CO)[C@@H](O)[C@@H](O)[C@H]1O
REMARK SMILES IDX 22 1 3 2 4 3 5 4 18 5 20 6 23 7 24 8 26 9 29 10 25 11 31 12
REMARK SMILES IDX 33 13 27 14 28 15 30 17 32 19 34 21 2 23 1 24 21 26 19 28
REMARK SMILES IDX 6 30 7 31 15 32 8 33 14 34 10 35 12 36 16 37 17 38 9 40
REMARK SMILES IDX 11 42 13 44
REMARK H PARENT 28 16 30 18 32 20 34 22 1 25 21 27 19 29 17 39 9 41 11 43
REMARK H PARENT 13 45
REMARK Flexibility Score: inf
ROOT
ATOM      1  C   UNL     1      12.473  -5.450  -1.809  1.00  0.00     0.184 C 
ATOM      2  C   UNL     1      13.973  -4.999  -1.855  1.00  0.00     0.178 C 
ATOM      3  O   UNL     1      14.922  -6.046  -2.052  1.00  0.00    -0.341 OA
ATOM      4  C   UNL     1      14.387  -7.150  -2.760  1.00  0.00     0.282 C 
ATOM      5  C   UNL     1      13.343  -7.869  -1.885  1.00  0.00     0.202 C 
ATOM      6  C   UNL     1      12.358  -6.871  -1.215  1.00  0.00     0.180 C 
ENDROOT
BRANCH   1   7
ATOM      7  O   UNL     1      11.919  -5.449  -3.122  1.00  0.00    -0.341 OA
BRANCH   7   8
ATOM      8  C   UNL     1      10.515  -5.270  -3.125  1.00  0.00     0.282 C 
ATOM      9  C   UNL     1       8.860  -3.890  -2.203  1.00  0.00     0.178 C 
ATOM     10  C   UNL     1       8.491  -4.819  -1.010  1.00  0.00     0.177 C 
ATOM     11  O   UNL     1      10.235  -4.017  -2.510  1.00  0.00    -0.341 OA
ATOM     12  C   UNL     1       9.424  -6.057  -0.959  1.00  0.00     0.179 C 
ATOM     13  C   UNL     1       9.867  -6.476  -2.379  1.00  0.00     0.202 C 
BRANCH   9  14
ATOM     14  C   UNL     1       8.559  -2.428  -1.852  1.00  0.00     0.191 C 
BRANCH  14  15
ATOM     15  O   UNL     1       7.335  -2.042  -2.417  1.00  0.00    -0.394 OA
ATOM     16  H   UNL     1       6.632  -2.427  -1.829  1.00  0.00     0.210 HD
ENDBRANCH  14  15
ENDBRANCH   9  14
BRANCH  10  17
ATOM     17  O   UNL     1       7.129  -5.180  -1.058  1.00  0.00    -0.387 OA
ATOM     18  H   UNL     1       6.822  -5.314  -0.127  1.00  0.00     0.211 HD
ENDBRANCH  10  17
BRANCH  12  19
ATOM     19  O   UNL     1       8.811  -7.141  -0.305  1.00  0.00    -0.387 OA
ATOM     20  H   UNL     1       8.683  -7.846  -0.993  1.00  0.00     0.211 HD
ENDBRANCH  12  19
BRANCH  13  21
ATOM     21  O   UNL     1       8.777  -6.953  -3.125  1.00  0.00    -0.385 OA
ATOM     22  H   UNL     1       8.441  -7.776  -2.682  1.00  0.00     0.211 HD
ENDBRANCH  13  21
ENDBRANCH   7   8
ENDBRANCH   1   7
BRANCH   2  23
ATOM     23  C   UNL     1      14.228  -3.866  -2.856  1.00  0.00     0.191 C 
BRANCH  23  24
ATOM     24  O   UNL     1      13.184  -2.932  -2.797  1.00  0.00    -0.394 OA
ATOM     25  H   UNL     1      12.764  -2.928  -3.696  1.00  0.00     0.210 HD
ENDBRANCH  23  24
ENDBRANCH   2  23
BRANCH   6  26
ATOM     26  O   UNL     1      12.546  -6.843   0.179  1.00  0.00    -0.387 OA
ATOM     27  H   UNL     1      12.935  -5.960   0.421  1.00  0.00     0.211 HD
ENDBRANCH   6  26
BRANCH   5  28
ATOM     28  O   UNL     1      12.651  -8.835  -2.635  1.00  0.00    -0.385 OA
ATOM     29  H   UNL     1      12.714  -9.692  -2.146  1.00  0.00     0.211 HD
ENDBRANCH   5  28
BRANCH   4  30
ATOM     30  O   UNL     1      15.426  -8.067  -3.047  1.00  0.00    -0.341 OA
BRANCH  30  31
ATOM     31  C   UNL     1      15.976  -8.628  -1.865  1.00  0.00     0.184 C 
ATOM     32  C   UNL     1      17.480  -8.272  -1.766  1.00  0.00     0.178 C 
ATOM     33  C   UNL     1      15.204  -8.078  -0.634  1.00  0.00     0.180 C 
ATOM     34  O   UNL     1      17.638  -6.980  -1.208  1.00  0.00    -0.342 OA
ATOM     35  C   UNL     1      16.125  -7.871   0.578  1.00  0.00     0.201 C 
ATOM     36  C   UNL     1      17.333  -6.968   0.185  1.00  0.00     0.279 C 
BRANCH  32  37
ATOM     37  C   UNL     1      18.198  -8.346  -3.125  1.00  0.00     0.191 C 
BRANCH  37  38
ATOM     38  O   UNL     1      19.585  -8.290  -2.944  1.00  0.00    -0.394 OA
ATOM     39  H   UNL     1      19.832  -9.106  -2.429  1.00  0.00     0.210 HD
ENDBRANCH  37  38
ENDBRANCH  32  37
BRANCH  33  40
ATOM     40  O   UNL     1      14.167  -8.962  -0.290  1.00  0.00    -0.387 OA
ATOM     41  H   UNL     1      13.674  -8.560   0.470  1.00  0.00     0.211 HD
ENDBRANCH  33  40
BRANCH  35  42
ATOM     42  O   UNL     1      16.565  -9.124   1.042  1.00  0.00    -0.385 OA
ATOM     43  H   UNL     1      16.881  -9.630   0.247  1.00  0.00     0.211 HD
ENDBRANCH  35  42
BRANCH  36  44
ATOM     44  O   UNL     1      18.476  -7.308   0.928  1.00  0.00    -0.366 OA
ATOM     45  H   UNL     1      18.918  -6.457   1.177  1.00  0.00     0.213 HD
ENDBRANCH  36  44
ENDBRANCH  30  31
ENDBRANCH   4  30
TORSDOF 18
ENDMDL
