MODEL 1
REMARK VINA RESULT:    -4.664      0.000      0.000
REMARK INTER + INTRA:          -5.220
REMARK INTER:                  -5.073
REMARK INTRA:                  -0.147
REMARK UNBOUND:                -0.147
REMARK SMILES C=C1CCC(C(C)(C)O)CC1
REMARK SMILES IDX 7 1 6 2 8 3 5 4 4 5 10 6 3 7 11 8 2 9 1 10 9 11
REMARK H PARENT 9 12
REMARK Flexibility Score: inf
ROOT
ATOM      1  C   UNL     1      38.845 -38.495  -2.681  1.00  0.00     0.042 C 
ATOM      2  C   UNL     1      39.238 -39.982  -2.831  1.00  0.00     0.062 C 
ATOM      3  C   UNL     1      39.585 -40.556  -1.437  1.00  0.00     0.042 C 
ENDROOT
BRANCH   2   4
ATOM      4  C   UNL     1      40.420 -40.137  -3.852  1.00  0.00     0.021 C 
ATOM      5  C   UNL     1      40.215 -41.330  -4.822  1.00  0.00     0.011 C 
ATOM      6  C   UNL     1      41.822 -40.251  -3.196  1.00  0.00     0.011 C 
ATOM      7  C   UNL     1      41.286 -41.357  -5.917  1.00  0.00     0.031 C 
ATOM      8  C   UNL     1      42.935 -40.254  -4.251  1.00  0.00     0.031 C 
ATOM      9  C   UNL     1      42.666 -41.298  -5.308  1.00  0.00    -0.077 C 
ATOM     10  C   UNL     1      43.664 -42.045  -5.802  1.00  0.00     0.008 C 
ENDBRANCH   2   4
BRANCH   2  11
ATOM     11  O   UNL     1      38.127 -40.679  -3.354  1.00  0.00    -0.390 OA
ATOM     12  H   UNL     1      37.396 -40.029  -3.525  1.00  0.00     0.211 HD
ENDBRANCH   2  11
TORSDOF 2
ENDMDL
MODEL 2
REMARK VINA RESULT:    -4.488      2.187      4.179
REMARK INTER + INTRA:          -5.028
REMARK INTER:                  -4.856
REMARK INTRA:                  -0.173
REMARK UNBOUND:                -0.147
REMARK SMILES C=C1CCC(C(C)(C)O)CC1
REMARK SMILES IDX 7 1 6 2 8 3 5 4 4 5 10 6 3 7 11 8 2 9 1 10 9 11
REMARK H PARENT 9 12
REMARK Flexibility Score: inf
ROOT
ATOM      1  C   UNL     1      43.371 -41.247  -4.647  1.00  0.00     0.042 C 
ATOM      2  C   UNL     1      42.717 -40.188  -3.731  1.00  0.00     0.062 C 
ATOM      3  C   UNL     1      42.936 -40.593  -2.255  1.00  0.00     0.042 C 
ENDROOT
BRANCH   2   4
ATOM      4  C   UNL     1      41.196 -40.021  -4.085  1.00  0.00     0.021 C 
ATOM      5  C   UNL     1      40.266 -40.448  -2.920  1.00  0.00     0.011 C 
ATOM      6  C   UNL     1      40.757 -40.753  -5.382  1.00  0.00     0.011 C 
ATOM      7  C   UNL     1      38.800 -40.113  -3.219  1.00  0.00     0.031 C 
ATOM      8  C   UNL     1      39.301 -40.430  -5.741  1.00  0.00     0.031 C 
ATOM      9  C   UNL     1      38.393 -40.674  -4.560  1.00  0.00    -0.077 C 
ATOM     10  C   UNL     1      37.187 -41.235  -4.729  1.00  0.00     0.008 C 
ENDBRANCH   2   4
BRANCH   2  11
ATOM     11  O   UNL     1      43.350 -38.950  -3.969  1.00  0.00    -0.390 OA
ATOM     12  H   UNL     1      44.271 -38.988  -3.601  1.00  0.00     0.211 HD
ENDBRANCH   2  11
TORSDOF 2
ENDMDL
MODEL 3
REMARK VINA RESULT:    -4.461      1.373      1.622
REMARK INTER + INTRA:          -4.998
REMARK INTER:                  -4.827
REMARK INTRA:                  -0.171
REMARK UNBOUND:                -0.147
REMARK SMILES C=C1CCC(C(C)(C)O)CC1
REMARK SMILES IDX 7 1 6 2 8 3 5 4 4 5 10 6 3 7 11 8 2 9 1 10 9 11
REMARK H PARENT 9 12
REMARK Flexibility Score: inf
ROOT
ATOM      1  C   UNL     1      38.590 -39.445  -2.695  1.00  0.00     0.042 C 
ATOM      2  C   UNL     1      38.539 -39.649  -4.227  1.00  0.00     0.062 C 
ATOM      3  C   UNL     1      37.558 -40.800  -4.550  1.00  0.00     0.042 C 
ENDROOT
BRANCH   2   4
ATOM      4  C   UNL     1      39.979 -39.913  -4.793  1.00  0.00     0.021 C 
ATOM      5  C   UNL     1      40.192 -41.393  -5.205  1.00  0.00     0.011 C 
ATOM      6  C   UNL     1      41.129 -39.478  -3.846  1.00  0.00     0.011 C 
ATOM      7  C   UNL     1      41.535 -41.592  -5.914  1.00  0.00     0.031 C 
ATOM      8  C   UNL     1      42.498 -39.633  -4.520  1.00  0.00     0.031 C 
ATOM      9  C   UNL     1      42.661 -41.023  -5.085  1.00  0.00    -0.077 C 
ATOM     10  C   UNL     1      43.831 -41.671  -4.985  1.00  0.00     0.008 C 
ENDBRANCH   2   4
BRANCH   2  11
ATOM     11  O   UNL     1      38.061 -38.457  -4.812  1.00  0.00    -0.390 OA
ATOM     12  H   UNL     1      38.651 -37.708  -4.536  1.00  0.00     0.211 HD
ENDBRANCH   2  11
TORSDOF 2
ENDMDL
MODEL 4
REMARK VINA RESULT:    -4.426      1.593      2.464
REMARK INTER + INTRA:          -4.961
REMARK INTER:                  -4.790
REMARK INTRA:                  -0.170
REMARK UNBOUND:                -0.147
REMARK SMILES C=C1CCC(C(C)(C)O)CC1
REMARK SMILES IDX 7 1 6 2 8 3 5 4 4 5 10 6 3 7 11 8 2 9 1 10 9 11
REMARK H PARENT 9 12
REMARK Flexibility Score: inf
ROOT
ATOM      1  C   UNL     1      38.554 -39.011  -5.513  1.00  0.00     0.042 C 
ATOM      2  C   UNL     1      39.644 -38.885  -4.424  1.00  0.00     0.062 C 
ATOM      3  C   UNL     1      40.296 -37.486  -4.525  1.00  0.00     0.042 C 
ENDROOT
BRANCH   2   4
ATOM      4  C   UNL     1      40.693 -40.044  -4.562  1.00  0.00     0.021 C 
ATOM      5  C   UNL     1      42.144 -39.566  -4.295  1.00  0.00     0.011 C 
ATOM      6  C   UNL     1      40.646 -40.792  -5.921  1.00  0.00     0.011 C 
ATOM      7  C   UNL     1      43.127 -40.742  -4.261  1.00  0.00     0.031 C 
ATOM      8  C   UNL     1      41.595 -41.997  -5.930  1.00  0.00     0.031 C 
ATOM      9  C   UNL     1      42.983 -41.587  -5.503  1.00  0.00    -0.077 C 
ATOM     10  C   UNL     1      44.065 -42.088  -6.118  1.00  0.00     0.008 C 
ENDBRANCH   2   4
BRANCH   2  11
ATOM     11  O   UNL     1      39.024 -39.016  -3.164  1.00  0.00    -0.390 OA
ATOM     12  H   UNL     1      38.992 -38.123  -2.731  1.00  0.00     0.211 HD
ENDBRANCH   2  11
TORSDOF 2
ENDMDL
MODEL 5
REMARK VINA RESULT:    -4.363      1.155      2.178
REMARK INTER + INTRA:          -4.892
REMARK INTER:                  -4.731
REMARK INTRA:                  -0.162
REMARK UNBOUND:                -0.147
REMARK SMILES C=C1CCC(C(C)(C)O)CC1
REMARK SMILES IDX 7 1 6 2 8 3 5 4 4 5 10 6 3 7 11 8 2 9 1 10 9 11
REMARK H PARENT 9 12
REMARK Flexibility Score: inf
ROOT
ATOM      1  C   UNL     1      37.433 -40.226  -4.687  1.00  0.00     0.042 C 
ATOM      2  C   UNL     1      38.565 -39.787  -3.730  1.00  0.00     0.062 C 
ATOM      3  C   UNL     1      38.724 -38.251  -3.808  1.00  0.00     0.042 C 
ENDROOT
BRANCH   2   4
ATOM      4  C   UNL     1      39.897 -40.543  -4.075  1.00  0.00     0.021 C 
ATOM      5  C   UNL     1      41.149 -39.833  -3.497  1.00  0.00     0.011 C 
ATOM      6  C   UNL     1      40.113 -40.802  -5.590  1.00  0.00     0.011 C 
ATOM      7  C   UNL     1      42.414 -40.675  -3.692  1.00  0.00     0.031 C 
ATOM      8  C   UNL     1      41.356 -41.666  -5.839  1.00  0.00     0.031 C 
ATOM      9  C   UNL     1      42.560 -41.084  -5.137  1.00  0.00    -0.077 C 
ATOM     10  C   UNL     1      43.762 -41.076  -5.733  1.00  0.00     0.008 C 
ENDBRANCH   2   4
BRANCH   2  11
ATOM     11  O   UNL     1      38.196 -40.148  -2.418  1.00  0.00    -0.390 OA
ATOM     12  H   UNL     1      38.928 -39.889  -1.799  1.00  0.00     0.211 HD
ENDBRANCH   2  11
TORSDOF 2
ENDMDL
MODEL 6
REMARK VINA RESULT:    -4.264      1.388      2.227
REMARK INTER + INTRA:          -4.784
REMARK INTER:                  -4.635
REMARK INTRA:                  -0.150
REMARK UNBOUND:                -0.147
REMARK SMILES C=C1CCC(C(C)(C)O)CC1
REMARK SMILES IDX 7 1 6 2 8 3 5 4 4 5 10 6 3 7 11 8 2 9 1 10 9 11
REMARK H PARENT 9 12
REMARK Flexibility Score: inf
ROOT
ATOM      1  C   UNL     1      40.455 -37.225  -3.891  1.00  0.00     0.042 C 
ATOM      2  C   UNL     1      39.644 -38.531  -4.051  1.00  0.00     0.062 C 
ATOM      3  C   UNL     1      38.733 -38.713  -2.815  1.00  0.00     0.042 C 
ENDROOT
BRANCH   2   4
ATOM      4  C   UNL     1      40.607 -39.751  -4.269  1.00  0.00     0.021 C 
ATOM      5  C   UNL     1      42.094 -39.384  -4.027  1.00  0.00     0.011 C 
ATOM      6  C   UNL     1      40.471 -40.434  -5.656  1.00  0.00     0.011 C 
ATOM      7  C   UNL     1      42.994 -40.623  -4.072  1.00  0.00     0.031 C 
ATOM      8  C   UNL     1      41.334 -41.699  -5.744  1.00  0.00     0.031 C 
ATOM      9  C   UNL     1      42.759 -41.402  -5.343  1.00  0.00    -0.077 C 
ATOM     10  C   UNL     1      43.786 -41.947  -6.012  1.00  0.00     0.008 C 
ENDBRANCH   2   4
BRANCH   2  11
ATOM     11  O   UNL     1      38.839 -38.410  -5.204  1.00  0.00    -0.390 OA
ATOM     12  H   UNL     1      39.304 -37.822  -5.855  1.00  0.00     0.211 HD
ENDBRANCH   2  11
TORSDOF 2
ENDMDL
MODEL 7
REMARK VINA RESULT:    -4.100      2.394      4.016
REMARK INTER + INTRA:          -4.607
REMARK INTER:                  -4.457
REMARK INTRA:                  -0.150
REMARK UNBOUND:                -0.147
REMARK SMILES C=C1CCC(C(C)(C)O)CC1
REMARK SMILES IDX 7 1 6 2 8 3 5 4 4 5 10 6 3 7 11 8 2 9 1 10 9 11
REMARK H PARENT 9 12
REMARK Flexibility Score: inf
ROOT
ATOM      1  C   UNL     1      43.323 -41.079  -4.578  1.00  0.00     0.042 C 
ATOM      2  C   UNL     1      42.679 -40.053  -3.619  1.00  0.00     0.062 C 
ATOM      3  C   UNL     1      42.919 -40.507  -2.159  1.00  0.00     0.042 C 
ENDROOT
BRANCH   2   4
ATOM      4  C   UNL     1      41.154 -39.877  -3.947  1.00  0.00     0.021 C 
ATOM      5  C   UNL     1      40.633 -40.951  -4.937  1.00  0.00     0.011 C 
ATOM      6  C   UNL     1      40.770 -38.469  -4.475  1.00  0.00     0.011 C 
ATOM      7  C   UNL     1      39.112 -40.869  -5.107  1.00  0.00     0.031 C 
ATOM      8  C   UNL     1      39.252 -38.326  -4.637  1.00  0.00     0.031 C 
ATOM      9  C   UNL     1      38.693 -39.463  -5.458  1.00  0.00    -0.077 C 
ATOM     10  C   UNL     1      37.734 -39.242  -6.370  1.00  0.00     0.008 C 
ENDBRANCH   2   4
BRANCH   2  11
ATOM     11  O   UNL     1      43.306 -38.806  -3.823  1.00  0.00    -0.390 OA
ATOM     12  H   UNL     1      42.605 -38.112  -3.936  1.00  0.00     0.211 HD
ENDBRANCH   2  11
TORSDOF 2
ENDMDL
MODEL 8
REMARK VINA RESULT:    -3.894     15.506     17.412
REMARK INTER + INTRA:          -4.382
REMARK INTER:                  -4.210
REMARK INTRA:                  -0.173
REMARK UNBOUND:                -0.147
REMARK SMILES C=C1CCC(C(C)(C)O)CC1
REMARK SMILES IDX 7 1 6 2 8 3 5 4 4 5 10 6 3 7 11 8 2 9 1 10 9 11
REMARK H PARENT 9 12
REMARK Flexibility Score: inf
ROOT
ATOM      1  C   UNL     1      30.404 -30.904   7.125  1.00  0.00     0.042 C 
ATOM      2  C   UNL     1      29.240 -30.168   6.423  1.00  0.00     0.062 C 
ATOM      3  C   UNL     1      27.921 -30.927   6.704  1.00  0.00     0.042 C 
ENDROOT
BRANCH   2   4
ATOM      4  C   UNL     1      29.530 -30.022   4.887  1.00  0.00     0.021 C 
ATOM      5  C   UNL     1      28.430 -30.674   4.011  1.00  0.00     0.011 C 
ATOM      6  C   UNL     1      30.918 -30.558   4.444  1.00  0.00     0.011 C 
ATOM      7  C   UNL     1      28.640 -30.369   2.524  1.00  0.00     0.031 C 
ATOM      8  C   UNL     1      31.190 -30.253   2.966  1.00  0.00     0.031 C 
ATOM      9  C   UNL     1      30.045 -30.727   2.104  1.00  0.00    -0.077 C 
ATOM     10  C   UNL     1      30.276 -31.314   0.920  1.00  0.00     0.008 C 
ENDBRANCH   2   4
BRANCH   2  11
ATOM     11  O   UNL     1      29.150 -28.869   6.967  1.00  0.00    -0.390 OA
ATOM     12  H   UNL     1      28.572 -28.902   7.774  1.00  0.00     0.211 HD
ENDBRANCH   2  11
TORSDOF 2
ENDMDL
MODEL 9
REMARK VINA RESULT:    -3.852      2.019      4.162
REMARK INTER + INTRA:          -4.337
REMARK INTER:                  -4.167
REMARK INTRA:                  -0.169
REMARK UNBOUND:                -0.147
REMARK SMILES C=C1CCC(C(C)(C)O)CC1
REMARK SMILES IDX 7 1 6 2 8 3 5 4 4 5 10 6 3 7 11 8 2 9 1 10 9 11
REMARK H PARENT 9 12
REMARK Flexibility Score: inf
ROOT
ATOM      1  C   UNL     1      42.694 -38.602  -3.817  1.00  0.00     0.042 C 
ATOM      2  C   UNL     1      42.425 -40.112  -3.626  1.00  0.00     0.062 C 
ATOM      3  C   UNL     1      43.034 -40.887  -4.818  1.00  0.00     0.042 C 
ENDROOT
BRANCH   2   4
ATOM      4  C   UNL     1      40.886 -40.379  -3.464  1.00  0.00     0.021 C 
ATOM      5  C   UNL     1      40.224 -40.853  -4.784  1.00  0.00     0.011 C 
ATOM      6  C   UNL     1      40.085 -39.177  -2.896  1.00  0.00     0.011 C 
ATOM      7  C   UNL     1      38.767 -41.274  -4.562  1.00  0.00     0.031 C 
ATOM      8  C   UNL     1      38.622 -39.555  -2.631  1.00  0.00     0.031 C 
ATOM      9  C   UNL     1      38.002 -40.182  -3.856  1.00  0.00    -0.077 C 
ATOM     10  C   UNL     1      36.743 -39.888  -4.213  1.00  0.00     0.008 C 
ENDBRANCH   2   4
BRANCH   2  11
ATOM     11  O   UNL     1      43.058 -40.524  -2.435  1.00  0.00    -0.390 OA
ATOM     12  H   UNL     1      43.371 -41.460  -2.549  1.00  0.00     0.211 HD
ENDBRANCH   2  11
TORSDOF 2
ENDMDL
