MODEL 1
REMARK VINA RESULT:    -7.723      0.000      0.000
REMARK INTER + INTRA:          -8.215
REMARK INTER:                  -8.400
REMARK INTRA:                   0.185
REMARK UNBOUND:                 0.185
REMARK SMILES C[C@H]1[C@H](C)CC[C@]2(C(=O)[O-])CC[C@]3(C)C(=CC[C@@H]4[C@@]5(C)CC[C@H](O)C(C)(C)[C@H]5CC[C@@]43C)[C@@H]12
REMARK SMILES IDX 7 1 6 2 11 3 33 4 5 5 12 6 15 7 2 8 3 9 13 10 16 11 1 12
REMARK SMILES IDX 4 13 14 14 31 15 17 16 18 17 30 18 32 19 19 20 29 21 28 22
REMARK SMILES IDX 21 23 20 24 25 25 22 26 23 27 26 28 27 29 8 30 9 31 10 32
REMARK SMILES IDX 24 33
REMARK H PARENT 24 34
REMARK Flexibility Score: inf
ROOT
ATOM      1  C   UNL     1     179.380 181.240 176.188  1.00  0.00     0.017 C 
ATOM      2  C   UNL     1     179.438 181.534 177.710  1.00  0.00     0.014 C 
ATOM      3  C   UNL     1     177.886 181.357 175.725  1.00  0.00     0.014 C 
ATOM      4  C   UNL     1     179.829 179.760 175.910  1.00  0.00     0.030 C 
ATOM      5  C   UNL     1     180.775 181.130 178.340  1.00  0.00     0.004 C 
ATOM      6  C   UNL     1     177.641 180.944 174.248  1.00  0.00     0.013 C 
ATOM      7  C   UNL     1     179.591 179.437 174.421  1.00  0.00    -0.063 C 
ATOM      8  C   UNL     1     181.065 179.165 176.705  1.00  0.00    -0.003 C 
ATOM      9  C   UNL     1     181.055 179.619 178.201  1.00  0.00    -0.011 C 
ATOM     10  C   UNL     1     178.127 179.487 173.913  1.00  0.00    -0.006 C 
ATOM     11  C   UNL     1     180.558 179.781 173.551  1.00  0.00    -0.027 C 
ATOM     12  C   UNL     1     182.481 179.324 176.123  1.00  0.00     0.008 C 
ATOM     13  C   UNL     1     180.094 178.773 179.060  1.00  0.00     0.008 C 
ATOM     14  C   UNL     1     177.166 178.513 174.711  1.00  0.00     0.017 C 
ATOM     15  C   UNL     1     178.072 179.121 172.321  1.00  0.00    -0.020 C 
ATOM     16  C   UNL     1     180.249 180.538 172.294  1.00  0.00     0.032 C 
ATOM     17  C   UNL     1     179.148 179.892 171.419  1.00  0.00     0.006 C 
ATOM     18  C   UNL     1     176.638 179.316 171.766  1.00  0.00     0.008 C 
ATOM     19  C   UNL     1     178.400 177.595 172.129  1.00  0.00     0.012 C 
ATOM     20  C   UNL     1     178.620 180.829 170.222  1.00  0.00    -0.025 C 
ATOM     21  C   UNL     1     176.253 180.727 171.300  1.00  0.00     0.005 C 
ATOM     22  C   UNL     1     177.348 181.647 170.663  1.00  0.00     0.003 C 
ATOM     23  C   UNL     1     178.249 179.981 168.960  1.00  0.00     0.010 C 
ATOM     24  C   UNL     1     179.812 181.748 169.793  1.00  0.00     0.012 C 
ATOM     25  C   UNL     1     176.711 182.560 169.518  1.00  0.00    -0.006 C 
ATOM     26  C   UNL     1     177.633 180.809 167.808  1.00  0.00     0.033 C 
ATOM     27  C   UNL     1     176.429 181.679 168.249  1.00  0.00     0.120 C 
ATOM     28  C   UNL     1     175.363 183.174 170.006  1.00  0.00     0.014 C 
ATOM     29  C   UNL     1     177.613 183.789 169.179  1.00  0.00     0.014 C 
ENDROOT
BRANCH   1  30
ATOM     30  C   UNL     1     180.195 182.310 175.468  1.00  0.00     0.048 C 
ATOM     31  O   UNL     1     181.422 182.464 175.688  1.00  0.00    -0.550 OA
ATOM     32  O   UNL     1     179.559 183.220 174.629  1.00  0.00    -0.550 OA
ENDBRANCH   1  30
BRANCH  27  33
ATOM     33  O   UNL     1     175.943 182.451 167.176  1.00  0.00    -0.393 OA
ATOM     34  H   UNL     1     176.375 183.342 167.207  1.00  0.00     0.210 HD
ENDBRANCH  27  33
TORSDOF 2
ENDMDL
MODEL 2
REMARK VINA RESULT:    -7.636      1.578      1.944
REMARK INTER + INTRA:          -8.120
REMARK INTER:                  -8.249
REMARK INTRA:                   0.129
REMARK UNBOUND:                 0.185
REMARK SMILES C[C@H]1[C@H](C)CC[C@]2(C(=O)[O-])CC[C@]3(C)C(=CC[C@@H]4[C@@]5(C)CC[C@H](O)C(C)(C)[C@H]5CC[C@@]43C)[C@@H]12
REMARK SMILES IDX 7 1 6 2 11 3 33 4 5 5 12 6 15 7 2 8 3 9 13 10 16 11 1 12
REMARK SMILES IDX 4 13 14 14 31 15 17 16 18 17 30 18 32 19 19 20 29 21 28 22
REMARK SMILES IDX 21 23 20 24 25 25 22 26 23 27 26 28 27 29 8 30 9 31 10 32
REMARK SMILES IDX 24 33
REMARK H PARENT 24 34
REMARK Flexibility Score: inf
ROOT
ATOM      1  C   UNL     1     179.286 180.563 176.019  1.00  0.00     0.017 C 
ATOM      2  C   UNL     1     179.092 181.208 177.416  1.00  0.00     0.014 C 
ATOM      3  C   UNL     1     177.869 180.291 175.404  1.00  0.00     0.014 C 
ATOM      4  C   UNL     1     179.995 179.167 176.165  1.00  0.00     0.030 C 
ATOM      5  C   UNL     1     180.378 181.214 178.249  1.00  0.00     0.004 C 
ATOM      6  C   UNL     1     177.894 179.508 174.063  1.00  0.00     0.013 C 
ATOM      7  C   UNL     1     180.014 178.470 174.791  1.00  0.00    -0.063 C 
ATOM      8  C   UNL     1     181.190 179.012 177.196  1.00  0.00    -0.003 C 
ATOM      9  C   UNL     1     180.906 179.791 178.521  1.00  0.00    -0.011 C 
ATOM     10  C   UNL     1     178.642 178.129 174.152  1.00  0.00    -0.006 C 
ATOM     11  C   UNL     1     181.025 178.775 173.955  1.00  0.00    -0.027 C 
ATOM     12  C   UNL     1     182.629 179.291 176.727  1.00  0.00     0.008 C 
ATOM     13  C   UNL     1     179.983 179.005 179.473  1.00  0.00     0.008 C 
ATOM     14  C   UNL     1     177.747 177.207 175.077  1.00  0.00     0.017 C 
ATOM     15  C   UNL     1     178.862 177.400 172.706  1.00  0.00    -0.020 C 
ATOM     16  C   UNL     1     180.774 179.149 172.525  1.00  0.00     0.032 C 
ATOM     17  C   UNL     1     179.916 178.126 171.743  1.00  0.00     0.006 C 
ATOM     18  C   UNL     1     177.503 177.193 171.989  1.00  0.00     0.008 C 
ATOM     19  C   UNL     1     179.447 175.959 172.936  1.00  0.00     0.012 C 
ATOM     20  C   UNL     1     179.414 178.645 170.304  1.00  0.00    -0.025 C 
ATOM     21  C   UNL     1     176.968 178.361 171.149  1.00  0.00     0.005 C 
ATOM     22  C   UNL     1     177.982 179.295 170.405  1.00  0.00     0.003 C 
ATOM     23  C   UNL     1     179.354 177.475 169.268  1.00  0.00     0.010 C 
ATOM     24  C   UNL     1     180.495 179.644 169.770  1.00  0.00     0.012 C 
ATOM     25  C   UNL     1     177.371 179.783 169.013  1.00  0.00    -0.006 C 
ATOM     26  C   UNL     1     178.778 177.884 167.893  1.00  0.00     0.033 C 
ATOM     27  C   UNL     1     177.404 178.595 167.986  1.00  0.00     0.120 C 
ATOM     28  C   UNL     1     175.890 180.234 169.204  1.00  0.00     0.014 C 
ATOM     29  C   UNL     1     178.107 181.045 168.461  1.00  0.00     0.014 C 
ENDROOT
BRANCH   1  30
ATOM     30  C   UNL     1     180.014 181.568 175.131  1.00  0.00     0.048 C 
ATOM     31  O   UNL     1     181.241 181.799 175.265  1.00  0.00    -0.550 OA
ATOM     32  O   UNL     1     179.296 182.340 174.223  1.00  0.00    -0.550 OA
ENDBRANCH   1  30
BRANCH  27  33
ATOM     33  O   UNL     1     176.953 178.994 166.713  1.00  0.00    -0.393 OA
ATOM     34  H   UNL     1     176.135 178.479 166.493  1.00  0.00     0.210 HD
ENDBRANCH  27  33
TORSDOF 2
ENDMDL
MODEL 3
REMARK VINA RESULT:    -7.630      3.548      5.624
REMARK INTER + INTRA:          -8.114
REMARK INTER:                  -8.287
REMARK INTRA:                   0.173
REMARK UNBOUND:                 0.185
REMARK SMILES C[C@H]1[C@H](C)CC[C@]2(C(=O)[O-])CC[C@]3(C)C(=CC[C@@H]4[C@@]5(C)CC[C@H](O)C(C)(C)[C@H]5CC[C@@]43C)[C@@H]12
REMARK SMILES IDX 7 1 6 2 11 3 33 4 5 5 12 6 15 7 2 8 3 9 13 10 16 11 1 12
REMARK SMILES IDX 4 13 14 14 31 15 17 16 18 17 30 18 32 19 19 20 29 21 28 22
REMARK SMILES IDX 21 23 20 24 25 25 22 26 23 27 26 28 27 29 8 30 9 31 10 32
REMARK SMILES IDX 24 33
REMARK H PARENT 24 34
REMARK Flexibility Score: inf
ROOT
ATOM      1  C   UNL     1     181.340 179.503 176.213  1.00  0.00     0.017 C 
ATOM      2  C   UNL     1     181.288 179.212 177.736  1.00  0.00     0.014 C 
ATOM      3  C   UNL     1     182.829 179.367 175.740  1.00  0.00     0.014 C 
ATOM      4  C   UNL     1     180.907 180.988 175.934  1.00  0.00     0.030 C 
ATOM      5  C   UNL     1     179.960 179.634 178.373  1.00  0.00     0.004 C 
ATOM      6  C   UNL     1     183.069 179.775 174.260  1.00  0.00     0.013 C 
ATOM      7  C   UNL     1     181.139 181.305 174.444  1.00  0.00    -0.063 C 
ATOM      8  C   UNL     1     179.683 181.599 176.736  1.00  0.00    -0.003 C 
ATOM      9  C   UNL     1     179.698 181.147 178.233  1.00  0.00    -0.011 C 
ATOM     10  C   UNL     1     182.599 181.236 173.925  1.00  0.00    -0.006 C 
ATOM     11  C   UNL     1     180.162 180.970 173.580  1.00  0.00    -0.027 C 
ATOM     12  C   UNL     1     178.261 181.456 176.164  1.00  0.00     0.008 C 
ATOM     13  C   UNL     1     180.674 181.983 179.084  1.00  0.00     0.008 C 
ATOM     14  C   UNL     1     183.576 182.200 174.715  1.00  0.00     0.017 C 
ATOM     15  C   UNL     1     182.648 181.599 172.333  1.00  0.00    -0.020 C 
ATOM     16  C   UNL     1     180.454 180.208 172.323  1.00  0.00     0.032 C 
ATOM     17  C   UNL     1     181.557 180.839 171.439  1.00  0.00     0.006 C 
ATOM     18  C   UNL     1     184.076 181.385 171.769  1.00  0.00     0.008 C 
ATOM     19  C   UNL     1     182.337 183.128 172.140  1.00  0.00     0.012 C 
ATOM     20  C   UNL     1     182.067 179.893 170.240  1.00  0.00    -0.025 C 
ATOM     21  C   UNL     1     184.442 179.968 171.304  1.00  0.00     0.005 C 
ATOM     22  C   UNL     1     183.331 179.061 170.675  1.00  0.00     0.003 C 
ATOM     23  C   UNL     1     182.440 180.734 168.975  1.00  0.00     0.010 C 
ATOM     24  C   UNL     1     180.860 178.988 169.821  1.00  0.00     0.012 C 
ATOM     25  C   UNL     1     183.950 178.138 169.528  1.00  0.00    -0.006 C 
ATOM     26  C   UNL     1     183.038 179.897 167.820  1.00  0.00     0.033 C 
ATOM     27  C   UNL     1     184.234 179.013 168.255  1.00  0.00     0.120 C 
ATOM     28  C   UNL     1     185.294 177.509 170.009  1.00  0.00     0.014 C 
ATOM     29  C   UNL     1     183.031 176.919 169.198  1.00  0.00     0.014 C 
ENDROOT
BRANCH   1  30
ATOM     30  C   UNL     1     180.508 178.441 175.500  1.00  0.00     0.048 C 
ATOM     31  O   UNL     1     179.275 178.320 175.708  1.00  0.00    -0.550 OA
ATOM     32  O   UNL     1     181.131 177.503 174.683  1.00  0.00    -0.550 OA
ENDBRANCH   1  30
BRANCH  27  33
ATOM     33  O   UNL     1     184.704 178.233 167.180  1.00  0.00    -0.393 OA
ATOM     34  H   UNL     1     184.787 177.294 167.485  1.00  0.00     0.210 HD
ENDBRANCH  27  33
TORSDOF 2
ENDMDL
MODEL 4
REMARK VINA RESULT:    -7.592      3.056      5.145
REMARK INTER + INTRA:          -8.072
REMARK INTER:                  -8.205
REMARK INTRA:                   0.133
REMARK UNBOUND:                 0.185
REMARK SMILES C[C@H]1[C@H](C)CC[C@]2(C(=O)[O-])CC[C@]3(C)C(=CC[C@@H]4[C@@]5(C)CC[C@H](O)C(C)(C)[C@H]5CC[C@@]43C)[C@@H]12
REMARK SMILES IDX 7 1 6 2 11 3 33 4 5 5 12 6 15 7 2 8 3 9 13 10 16 11 1 12
REMARK SMILES IDX 4 13 14 14 31 15 17 16 18 17 30 18 32 19 19 20 29 21 28 22
REMARK SMILES IDX 21 23 20 24 25 25 22 26 23 27 26 28 27 29 8 30 9 31 10 32
REMARK SMILES IDX 24 33
REMARK H PARENT 24 34
REMARK Flexibility Score: inf
ROOT
ATOM      1  C   UNL     1     181.434 180.176 176.033  1.00  0.00     0.017 C 
ATOM      2  C   UNL     1     181.628 179.557 177.442  1.00  0.00     0.014 C 
ATOM      3  C   UNL     1     182.851 180.434 175.412  1.00  0.00     0.014 C 
ATOM      4  C   UNL     1     180.729 181.576 176.154  1.00  0.00     0.030 C 
ATOM      5  C   UNL     1     180.342 179.569 178.275  1.00  0.00     0.004 C 
ATOM      6  C   UNL     1     182.827 181.191 174.057  1.00  0.00     0.013 C 
ATOM      7  C   UNL     1     180.710 182.248 174.767  1.00  0.00    -0.063 C 
ATOM      8  C   UNL     1     179.535 181.753 177.183  1.00  0.00    -0.003 C 
ATOM      9  C   UNL     1     179.818 180.998 178.522  1.00  0.00    -0.011 C 
ATOM     10  C   UNL     1     182.082 182.573 174.121  1.00  0.00    -0.006 C 
ATOM     11  C   UNL     1     179.698 181.929 173.938  1.00  0.00    -0.027 C 
ATOM     12  C   UNL     1     178.094 181.469 176.720  1.00  0.00     0.008 C 
ATOM     13  C   UNL     1     180.744 181.799 179.458  1.00  0.00     0.008 C 
ATOM     14  C   UNL     1     182.980 183.511 175.028  1.00  0.00     0.017 C 
ATOM     15  C   UNL     1     181.864 183.276 172.662  1.00  0.00    -0.020 C 
ATOM     16  C   UNL     1     179.947 181.529 172.515  1.00  0.00     0.032 C 
ATOM     17  C   UNL     1     180.807 182.535 171.713  1.00  0.00     0.006 C 
ATOM     18  C   UNL     1     183.222 183.467 171.940  1.00  0.00     0.008 C 
ATOM     19  C   UNL     1     181.282 184.723 172.866  1.00  0.00     0.012 C 
ATOM     20  C   UNL     1     181.307 181.988 170.284  1.00  0.00    -0.025 C 
ATOM     21  C   UNL     1     183.754 182.282 171.122  1.00  0.00     0.005 C 
ATOM     22  C   UNL     1     182.737 181.337 170.396  1.00  0.00     0.003 C 
ATOM     23  C   UNL     1     181.368 183.139 169.226  1.00  0.00     0.010 C 
ATOM     24  C   UNL     1     180.223 180.982 169.769  1.00  0.00     0.012 C 
ATOM     25  C   UNL     1     183.346 180.822 169.013  1.00  0.00    -0.006 C 
ATOM     26  C   UNL     1     181.942 182.703 167.858  1.00  0.00     0.033 C 
ATOM     27  C   UNL     1     183.315 181.991 167.964  1.00  0.00     0.120 C 
ATOM     28  C   UNL     1     184.826 180.371 169.210  1.00  0.00     0.014 C 
ATOM     29  C   UNL     1     182.606 179.551 168.484  1.00  0.00     0.014 C 
ENDROOT
BRANCH   1  30
ATOM     30  C   UNL     1     180.703 179.156 175.164  1.00  0.00     0.048 C 
ATOM     31  O   UNL     1     179.473 178.938 175.296  1.00  0.00    -0.550 OA
ATOM     32  O   UNL     1     181.420 178.358 174.278  1.00  0.00    -0.550 OA
ENDBRANCH   1  30
BRANCH  27  33
ATOM     33  O   UNL     1     183.764 181.568 166.698  1.00  0.00    -0.393 OA
ATOM     34  H   UNL     1     183.090 180.950 166.315  1.00  0.00     0.210 HD
ENDBRANCH  27  33
TORSDOF 2
ENDMDL
MODEL 5
REMARK VINA RESULT:    -7.174      2.883      3.943
REMARK INTER + INTRA:          -7.618
REMARK INTER:                  -7.755
REMARK INTRA:                   0.137
REMARK UNBOUND:                 0.185
REMARK SMILES C[C@H]1[C@H](C)CC[C@]2(C(=O)[O-])CC[C@]3(C)C(=CC[C@@H]4[C@@]5(C)CC[C@H](O)C(C)(C)[C@H]5CC[C@@]43C)[C@@H]12
REMARK SMILES IDX 7 1 6 2 11 3 33 4 5 5 12 6 15 7 2 8 3 9 13 10 16 11 1 12
REMARK SMILES IDX 4 13 14 14 31 15 17 16 18 17 30 18 32 19 19 20 29 21 28 22
REMARK SMILES IDX 21 23 20 24 25 25 22 26 23 27 26 28 27 29 8 30 9 31 10 32
REMARK SMILES IDX 24 33
REMARK H PARENT 24 34
REMARK Flexibility Score: inf
ROOT
ATOM      1  C   UNL     1     180.209 181.026 175.652  1.00  0.00     0.017 C 
ATOM      2  C   UNL     1     180.313 182.333 176.480  1.00  0.00     0.014 C 
ATOM      3  C   UNL     1     179.369 181.330 174.362  1.00  0.00     0.014 C 
ATOM      4  C   UNL     1     179.419 179.937 176.464  1.00  0.00     0.030 C 
ATOM      5  C   UNL     1     180.818 182.090 177.906  1.00  0.00     0.004 C 
ATOM      6  C   UNL     1     179.049 180.080 173.499  1.00  0.00     0.013 C 
ATOM      7  C   UNL     1     179.173 178.716 175.555  1.00  0.00    -0.063 C 
ATOM      8  C   UNL     1     179.699 179.777 178.016  1.00  0.00    -0.003 C 
ATOM      9  C   UNL     1     179.881 181.166 178.710  1.00  0.00    -0.011 C 
ATOM     10  C   UNL     1     178.307 178.942 174.288  1.00  0.00    -0.006 C 
ATOM     11  C   UNL     1     180.151 177.795 175.476  1.00  0.00    -0.027 C 
ATOM     12  C   UNL     1     180.802 178.812 178.487  1.00  0.00     0.008 C 
ATOM     13  C   UNL     1     178.532 181.843 179.022  1.00  0.00     0.008 C 
ATOM     14  C   UNL     1     176.867 179.511 174.623  1.00  0.00     0.017 C 
ATOM     15  C   UNL     1     178.158 177.545 173.453  1.00  0.00    -0.020 C 
ATOM     16  C   UNL     1     180.645 177.286 174.155  1.00  0.00     0.032 C 
ATOM     17  C   UNL     1     179.530 176.752 173.224  1.00  0.00     0.006 C 
ATOM     18  C   UNL     1     177.424 177.789 172.109  1.00  0.00     0.008 C 
ATOM     19  C   UNL     1     177.246 176.552 174.263  1.00  0.00     0.012 C 
ATOM     20  C   UNL     1     180.011 176.464 171.715  1.00  0.00    -0.025 C 
ATOM     21  C   UNL     1     178.280 178.237 170.915  1.00  0.00     0.005 C 
ATOM     22  C   UNL     1     179.750 177.713 170.790  1.00  0.00     0.003 C 
ATOM     23  C   UNL     1     179.261 175.233 171.106  1.00  0.00     0.010 C 
ATOM     24  C   UNL     1     181.523 176.063 171.779  1.00  0.00     0.012 C 
ATOM     25  C   UNL     1     180.136 177.499 169.255  1.00  0.00    -0.006 C 
ATOM     26  C   UNL     1     179.597 174.965 169.621  1.00  0.00     0.033 C 
ATOM     27  C   UNL     1     179.419 176.210 168.715  1.00  0.00     0.120 C 
ATOM     28  C   UNL     1     179.667 178.721 168.407  1.00  0.00     0.014 C 
ATOM     29  C   UNL     1     181.682 177.432 169.044  1.00  0.00     0.014 C 
ENDROOT
BRANCH   1  30
ATOM     30  C   UNL     1     181.618 180.622 175.226  1.00  0.00     0.048 C 
ATOM     31  O   UNL     1     182.408 180.051 176.018  1.00  0.00    -0.550 OA
ATOM     32  O   UNL     1     182.096 180.987 173.972  1.00  0.00    -0.550 OA
ENDBRANCH   1  30
BRANCH  27  33
ATOM     33  O   UNL     1     179.791 175.925 167.386  1.00  0.00    -0.393 OA
ATOM     34  H   UNL     1     178.990 175.607 166.896  1.00  0.00     0.210 HD
ENDBRANCH  27  33
TORSDOF 2
ENDMDL
MODEL 6
REMARK VINA RESULT:    -7.152      2.741      4.765
REMARK INTER + INTRA:          -7.594
REMARK INTER:                  -7.723
REMARK INTRA:                   0.130
REMARK UNBOUND:                 0.185
REMARK SMILES C[C@H]1[C@H](C)CC[C@]2(C(=O)[O-])CC[C@]3(C)C(=CC[C@@H]4[C@@]5(C)CC[C@H](O)C(C)(C)[C@H]5CC[C@@]43C)[C@@H]12
REMARK SMILES IDX 7 1 6 2 11 3 33 4 5 5 12 6 15 7 2 8 3 9 13 10 16 11 1 12
REMARK SMILES IDX 4 13 14 14 31 15 17 16 18 17 30 18 32 19 19 20 29 21 28 22
REMARK SMILES IDX 21 23 20 24 25 25 22 26 23 27 26 28 27 29 8 30 9 31 10 32
REMARK SMILES IDX 24 33
REMARK H PARENT 24 34
REMARK Flexibility Score: inf
ROOT
ATOM      1  C   UNL     1     180.637 179.675 175.464  1.00  0.00     0.017 C 
ATOM      2  C   UNL     1     180.580 178.342 176.256  1.00  0.00     0.014 C 
ATOM      3  C   UNL     1     181.550 179.459 174.207  1.00  0.00     0.014 C 
ATOM      4  C   UNL     1     181.320 180.789 176.337  1.00  0.00     0.030 C 
ATOM      5  C   UNL     1     179.999 178.515 177.663  1.00  0.00     0.004 C 
ATOM      6  C   UNL     1     181.828 180.749 173.389  1.00  0.00     0.013 C 
ATOM      7  C   UNL     1     181.528 182.047 175.470  1.00  0.00    -0.063 C 
ATOM      8  C   UNL     1     180.963 180.890 177.879  1.00  0.00    -0.003 C 
ATOM      9  C   UNL     1     180.840 179.474 178.530  1.00  0.00    -0.011 C 
ATOM     10  C   UNL     1     182.462 181.909 174.238  1.00  0.00    -0.006 C 
ATOM     11  C   UNL     1     180.498 182.907 175.369  1.00  0.00    -0.027 C 
ATOM     12  C   UNL     1     179.782 181.771 178.322  1.00  0.00     0.008 C 
ATOM     13  C   UNL     1     182.214 178.874 178.886  1.00  0.00     0.008 C 
ATOM     14  C   UNL     1     183.918 181.422 174.625  1.00  0.00     0.017 C 
ATOM     15  C   UNL     1     182.558 183.335 173.445  1.00  0.00    -0.020 C 
ATOM     16  C   UNL     1     180.031 183.419 174.040  1.00  0.00     0.032 C 
ATOM     17  C   UNL     1     181.149 184.046 173.173  1.00  0.00     0.006 C 
ATOM     18  C   UNL     1     183.363 183.173 172.130  1.00  0.00     0.008 C 
ATOM     19  C   UNL     1     183.369 184.360 174.318  1.00  0.00     0.012 C 
ATOM     20  C   UNL     1     180.718 184.344 171.651  1.00  0.00    -0.025 C 
ATOM     21  C   UNL     1     182.591 182.705 170.888  1.00  0.00     0.005 C 
ATOM     22  C   UNL     1     181.097 183.140 170.709  1.00  0.00     0.003 C 
ATOM     23  C   UNL     1     181.414 185.635 171.106  1.00  0.00     0.010 C 
ATOM     24  C   UNL     1     179.182 184.648 171.656  1.00  0.00     0.012 C 
ATOM     25  C   UNL     1     180.766 183.370 169.164  1.00  0.00    -0.006 C 
ATOM     26  C   UNL     1     181.127 185.921 169.615  1.00  0.00     0.033 C 
ATOM     27  C   UNL     1     181.422 184.715 168.687  1.00  0.00     0.120 C 
ATOM     28  C   UNL     1     181.348 182.202 168.308  1.00  0.00     0.014 C 
ATOM     29  C   UNL     1     179.229 183.346 168.884  1.00  0.00     0.014 C 
ENDROOT
BRANCH   1  30
ATOM     30  C   UNL     1     179.226 180.002 174.985  1.00  0.00     0.048 C 
ATOM     31  O   UNL     1     178.357 180.470 175.763  1.00  0.00    -0.550 OA
ATOM     32  O   UNL     1     178.838 179.676 173.689  1.00  0.00    -0.550 OA
ENDBRANCH   1  30
BRANCH  27  33
ATOM     33  O   UNL     1     181.092 185.011 167.351  1.00  0.00    -0.393 OA
ATOM     34  H   UNL     1     180.126 185.230 167.306  1.00  0.00     0.210 HD
ENDBRANCH  27  33
TORSDOF 2
ENDMDL
MODEL 7
REMARK VINA RESULT:    -7.124      2.825      7.351
REMARK INTER + INTRA:          -7.564
REMARK INTER:                  -7.726
REMARK INTRA:                   0.163
REMARK UNBOUND:                 0.185
REMARK SMILES C[C@H]1[C@H](C)CC[C@]2(C(=O)[O-])CC[C@]3(C)C(=CC[C@@H]4[C@@]5(C)CC[C@H](O)C(C)(C)[C@H]5CC[C@@]43C)[C@@H]12
REMARK SMILES IDX 7 1 6 2 11 3 33 4 5 5 12 6 15 7 2 8 3 9 13 10 16 11 1 12
REMARK SMILES IDX 4 13 14 14 31 15 17 16 18 17 30 18 32 19 19 20 29 21 28 22
REMARK SMILES IDX 21 23 20 24 25 25 22 26 23 27 26 28 27 29 8 30 9 31 10 32
REMARK SMILES IDX 24 33
REMARK H PARENT 24 34
REMARK Flexibility Score: inf
ROOT
ATOM      1  C   UNL     1     177.485 176.522 172.557  1.00  0.00     0.017 C 
ATOM      2  C   UNL     1     176.714 175.281 172.036  1.00  0.00     0.014 C 
ATOM      3  C   UNL     1     176.790 177.011 173.875  1.00  0.00     0.014 C 
ATOM      4  C   UNL     1     177.374 177.698 171.520  1.00  0.00     0.030 C 
ATOM      5  C   UNL     1     177.086 174.916 170.595  1.00  0.00     0.004 C 
ATOM      6  C   UNL     1     177.358 178.341 174.442  1.00  0.00     0.013 C 
ATOM      7  C   UNL     1     177.990 178.969 172.138  1.00  0.00    -0.063 C 
ATOM      8  C   UNL     1     177.500 177.377 169.972  1.00  0.00    -0.003 C 
ATOM      9  C   UNL     1     176.762 176.050 169.602  1.00  0.00    -0.011 C 
ATOM     10  C   UNL     1     177.316 179.531 173.416  1.00  0.00    -0.006 C 
ATOM     11  C   UNL     1     179.321 179.133 172.019  1.00  0.00    -0.027 C 
ATOM     12  C   UNL     1     178.889 177.403 169.309  1.00  0.00     0.008 C 
ATOM     13  C   UNL     1     175.243 176.255 169.436  1.00  0.00     0.008 C 
ATOM     14  C   UNL     1     175.783 179.869 173.204  1.00  0.00     0.017 C 
ATOM     15  C   UNL     1     178.103 180.870 173.924  1.00  0.00    -0.020 C 
ATOM     16  C   UNL     1     180.176 179.482 173.200  1.00  0.00     0.032 C 
ATOM     17  C   UNL     1     179.697 180.728 173.984  1.00  0.00     0.006 C 
ATOM     18  C   UNL     1     177.535 181.354 175.283  1.00  0.00     0.008 C 
ATOM     19  C   UNL     1     177.838 182.043 172.910  1.00  0.00     0.012 C 
ATOM     20  C   UNL     1     180.437 180.946 175.396  1.00  0.00    -0.025 C 
ATOM     21  C   UNL     1     178.116 180.714 176.552  1.00  0.00     0.005 C 
ATOM     22  C   UNL     1     179.622 180.284 176.570  1.00  0.00     0.003 C 
ATOM     23  C   UNL     1     180.615 182.468 175.715  1.00  0.00     0.010 C 
ATOM     24  C   UNL     1     181.882 180.360 175.256  1.00  0.00     0.012 C 
ATOM     25  C   UNL     1     180.246 180.504 178.023  1.00  0.00    -0.006 C 
ATOM     26  C   UNL     1     181.224 182.750 177.107  1.00  0.00     0.033 C 
ATOM     27  C   UNL     1     180.476 182.039 178.263  1.00  0.00     0.120 C 
ATOM     28  C   UNL     1     179.269 179.971 179.116  1.00  0.00     0.014 C 
ATOM     29  C   UNL     1     181.561 179.684 178.226  1.00  0.00     0.014 C 
ENDROOT
BRANCH   1  30
ATOM     30  C   UNL     1     178.909 176.088 172.894  1.00  0.00     0.048 C 
ATOM     31  O   UNL     1     179.805 176.028 172.015  1.00  0.00    -0.550 OA
ATOM     32  O   UNL     1     179.213 175.636 174.174  1.00  0.00    -0.550 OA
ENDBRANCH   1  30
BRANCH  27  33
ATOM     33  O   UNL     1     181.104 182.285 179.500  1.00  0.00    -0.393 OA
ATOM     34  H   UNL     1     181.235 181.420 179.965  1.00  0.00     0.210 HD
ENDBRANCH  27  33
TORSDOF 2
ENDMDL
MODEL 8
REMARK VINA RESULT:    -6.957      3.949      7.210
REMARK INTER + INTRA:          -7.382
REMARK INTER:                  -7.526
REMARK INTRA:                   0.143
REMARK UNBOUND:                 0.185
REMARK SMILES C[C@H]1[C@H](C)CC[C@]2(C(=O)[O-])CC[C@]3(C)C(=CC[C@@H]4[C@@]5(C)CC[C@H](O)C(C)(C)[C@H]5CC[C@@]43C)[C@@H]12
REMARK SMILES IDX 7 1 6 2 11 3 33 4 5 5 12 6 15 7 2 8 3 9 13 10 16 11 1 12
REMARK SMILES IDX 4 13 14 14 31 15 17 16 18 17 30 18 32 19 19 20 29 21 28 22
REMARK SMILES IDX 21 23 20 24 25 25 22 26 23 27 26 28 27 29 8 30 9 31 10 32
REMARK SMILES IDX 24 33
REMARK H PARENT 24 34
REMARK Flexibility Score: inf
ROOT
ATOM      1  C   UNL     1     180.570 176.280 170.881  1.00  0.00     0.017 C 
ATOM      2  C   UNL     1     179.795 175.171 170.123  1.00  0.00     0.014 C 
ATOM      3  C   UNL     1     180.274 177.652 170.179  1.00  0.00     0.014 C 
ATOM      4  C   UNL     1     182.118 176.032 170.760  1.00  0.00     0.030 C 
ATOM      5  C   UNL     1     180.260 173.761 170.501  1.00  0.00     0.004 C 
ATOM      6  C   UNL     1     181.099 178.845 170.734  1.00  0.00     0.013 C 
ATOM      7  C   UNL     1     182.866 177.238 171.363  1.00  0.00    -0.063 C 
ATOM      8  C   UNL     1     182.675 174.554 170.892  1.00  0.00    -0.003 C 
ATOM      9  C   UNL     1     181.747 173.526 170.167  1.00  0.00    -0.011 C 
ATOM     10  C   UNL     1     182.652 178.615 170.682  1.00  0.00    -0.006 C 
ATOM     11  C   UNL     1     183.077 177.234 172.693  1.00  0.00    -0.027 C 
ATOM     12  C   UNL     1     183.061 174.016 172.282  1.00  0.00     0.008 C 
ATOM     13  C   UNL     1     181.998 173.486 168.647  1.00  0.00     0.008 C 
ATOM     14  C   UNL     1     183.041 178.606 169.146  1.00  0.00     0.017 C 
ATOM     15  C   UNL     1     183.518 179.765 171.455  1.00  0.00    -0.020 C 
ATOM     16  C   UNL     1     182.747 178.424 173.542  1.00  0.00     0.032 C 
ATOM     17  C   UNL     1     183.377 179.749 173.051  1.00  0.00     0.006 C 
ATOM     18  C   UNL     1     183.196 181.168 170.881  1.00  0.00     0.008 C 
ATOM     19  C   UNL     1     185.049 179.533 171.181  1.00  0.00     0.012 C 
ATOM     20  C   UNL     1     182.811 181.064 173.787  1.00  0.00    -0.025 C 
ATOM     21  C   UNL     1     181.981 181.902 171.466  1.00  0.00     0.005 C 
ATOM     22  C   UNL     1     181.618 181.697 172.976  1.00  0.00     0.003 C 
ATOM     23  C   UNL     1     183.928 182.148 173.949  1.00  0.00     0.010 C 
ATOM     24  C   UNL     1     182.401 180.642 175.237  1.00  0.00     0.012 C 
ATOM     25  C   UNL     1     181.031 183.046 173.595  1.00  0.00    -0.006 C 
ATOM     26  C   UNL     1     183.426 183.480 174.554  1.00  0.00     0.033 C 
ATOM     27  C   UNL     1     182.202 184.071 173.810  1.00  0.00     0.120 C 
ATOM     28  C   UNL     1     179.990 183.678 172.621  1.00  0.00     0.014 C 
ATOM     29  C   UNL     1     180.239 182.788 174.917  1.00  0.00     0.014 C 
ENDROOT
BRANCH   1  30
ATOM     30  C   UNL     1     180.034 176.342 172.308  1.00  0.00     0.048 C 
ATOM     31  O   UNL     1     180.221 175.405 173.124  1.00  0.00    -0.550 OA
ATOM     32  O   UNL     1     179.220 177.400 172.700  1.00  0.00    -0.550 OA
ENDBRANCH   1  30
BRANCH  27  33
ATOM     33  O   UNL     1     181.753 185.252 174.434  1.00  0.00    -0.393 OA
ATOM     34  H   UNL     1     180.779 185.171 174.598  1.00  0.00     0.210 HD
ENDBRANCH  27  33
TORSDOF 2
ENDMDL
MODEL 9
REMARK VINA RESULT:    -6.942      2.680      6.849
REMARK INTER + INTRA:          -7.365
REMARK INTER:                  -7.494
REMARK INTRA:                   0.129
REMARK UNBOUND:                 0.185
REMARK SMILES C[C@H]1[C@H](C)CC[C@]2(C(=O)[O-])CC[C@]3(C)C(=CC[C@@H]4[C@@]5(C)CC[C@H](O)C(C)(C)[C@H]5CC[C@@]43C)[C@@H]12
REMARK SMILES IDX 7 1 6 2 11 3 33 4 5 5 12 6 15 7 2 8 3 9 13 10 16 11 1 12
REMARK SMILES IDX 4 13 14 14 31 15 17 16 18 17 30 18 32 19 19 20 29 21 28 22
REMARK SMILES IDX 21 23 20 24 25 25 22 26 23 27 26 28 27 29 8 30 9 31 10 32
REMARK SMILES IDX 24 33
REMARK H PARENT 24 34
REMARK Flexibility Score: inf
ROOT
ATOM      1  C   UNL     1     180.161 184.468 170.878  1.00  0.00     0.017 C 
ATOM      2  C   UNL     1     180.915 185.573 170.092  1.00  0.00     0.014 C 
ATOM      3  C   UNL     1     180.447 183.091 170.183  1.00  0.00     0.014 C 
ATOM      4  C   UNL     1     178.610 184.709 170.790  1.00  0.00     0.030 C 
ATOM      5  C   UNL     1     180.452 186.985 170.466  1.00  0.00     0.004 C 
ATOM      6  C   UNL     1     179.641 181.900 170.768  1.00  0.00     0.013 C 
ATOM      7  C   UNL     1     177.881 183.506 171.422  1.00  0.00    -0.063 C 
ATOM      8  C   UNL     1     178.050 186.186 170.920  1.00  0.00    -0.003 C 
ATOM      9  C   UNL     1     178.957 187.210 170.164  1.00  0.00    -0.011 C 
ATOM     10  C   UNL     1     178.085 182.123 170.749  1.00  0.00    -0.006 C 
ATOM     11  C   UNL     1     177.701 183.522 172.755  1.00  0.00    -0.027 C 
ATOM     12  C   UNL     1     177.693 186.736 172.313  1.00  0.00     0.008 C 
ATOM     13  C   UNL     1     178.671 187.235 168.650  1.00  0.00     0.008 C 
ATOM     14  C   UNL     1     177.662 182.115 169.223  1.00  0.00     0.017 C 
ATOM     15  C   UNL     1     177.242 180.977 171.553  1.00  0.00    -0.020 C 
ATOM     16  C   UNL     1     178.055 182.342 173.609  1.00  0.00     0.032 C 
ATOM     17  C   UNL     1     177.419 181.009 173.145  1.00  0.00     0.006 C 
ATOM     18  C   UNL     1     177.558 179.570 170.985  1.00  0.00     0.008 C 
ATOM     19  C   UNL     1     175.704 181.201 171.311  1.00  0.00     0.012 C 
ATOM     20  C   UNL     1     178.008 179.703 173.880  1.00  0.00    -0.025 C 
ATOM     21  C   UNL     1     178.789 178.846 171.550  1.00  0.00     0.005 C 
ATOM     22  C   UNL     1     179.185 179.068 173.048  1.00  0.00     0.003 C 
ATOM     23  C   UNL     1     176.900 178.617 174.079  1.00  0.00     0.010 C 
ATOM     24  C   UNL     1     178.449 180.142 175.317  1.00  0.00     0.012 C 
ATOM     25  C   UNL     1     179.792 177.727 173.667  1.00  0.00    -0.006 C 
ATOM     26  C   UNL     1     177.421 177.293 174.685  1.00  0.00     0.033 C 
ATOM     27  C   UNL     1     178.631 176.699 173.919  1.00  0.00     0.120 C 
ATOM     28  C   UNL     1     180.813 177.090 172.676  1.00  0.00     0.014 C 
ATOM     29  C   UNL     1     180.612 178.001 174.968  1.00  0.00     0.014 C 
ENDROOT
BRANCH   1  30
ATOM     30  C   UNL     1     180.731 184.422 172.293  1.00  0.00     0.048 C 
ATOM     31  O   UNL     1     180.496 185.331 173.128  1.00  0.00    -0.550 OA
ATOM     32  O   UNL     1     181.624 183.418 172.651  1.00  0.00    -0.550 OA
ENDBRANCH   1  30
BRANCH  27  33
ATOM     33  O   UNL     1     179.098 175.527 174.544  1.00  0.00    -0.393 OA
ATOM     34  H   UNL     1     178.931 175.601 175.518  1.00  0.00     0.210 HD
ENDBRANCH  27  33
TORSDOF 2
ENDMDL
