MODEL 1
REMARK VINA RESULT:    -3.887      0.000      0.000
REMARK INTER + INTRA:         -12.155
REMARK INTER:                  -8.431
REMARK INTRA:                  -3.724
REMARK UNBOUND:                -3.724
REMARK SMILES CCCCCCCCCCCCCCCCCCCCCC(=O)[O-]
REMARK SMILES IDX 12 1 11 2 10 3 9 4 8 5 7 6 6 7 5 8 4 9 3 10 2 11 1 12 13 13
REMARK SMILES IDX 14 14 15 15 16 16 17 17 18 18 19 19 20 20 21 21 22 22 23 23
REMARK SMILES IDX 24 24
REMARK H PARENT
REMARK Flexibility Score: inf
ROOT
ATOM      1  C   UNL     1      24.842   3.073  18.179  1.00  0.00     0.000 C 
ENDROOT
BRANCH   1   2
ATOM      2  C   UNL     1      24.999   3.526  16.718  1.00  0.00     0.000 C 
BRANCH   2   3
ATOM      3  C   UNL     1      25.003   2.350  15.725  1.00  0.00     0.000 C 
BRANCH   3   4
ATOM      4  C   UNL     1      23.884   2.379  14.662  1.00  0.00    -0.000 C 
BRANCH   4   5
ATOM      5  C   UNL     1      22.626   3.176  15.048  1.00  0.00    -0.000 C 
BRANCH   5   6
ATOM      6  C   UNL     1      22.045   3.985  13.876  1.00  0.00    -0.000 C 
BRANCH   6   7
ATOM      7  C   UNL     1      22.925   3.930  12.614  1.00  0.00    -0.000 C 
BRANCH   7   8
ATOM      8  C   UNL     1      23.663   5.236  12.264  1.00  0.00    -0.000 C 
BRANCH   8   9
ATOM      9  C   UNL     1      25.031   5.356  12.958  1.00  0.00    -0.000 C 
BRANCH   9  10
ATOM     10  C   UNL     1      25.216   6.697  13.691  1.00  0.00    -0.000 C 
BRANCH  10  11
ATOM     11  C   UNL     1      25.041   6.636  15.219  1.00  0.00    -0.003 C 
ATOM     12  C   UNL     1      23.608   6.911  15.672  1.00  0.00     0.004 C 
ENDBRANCH  10  11
ENDBRANCH   9  10
ENDBRANCH   8   9
ENDBRANCH   7   8
ENDBRANCH   6   7
ENDBRANCH   5   6
ENDBRANCH   4   5
ENDBRANCH   3   4
ENDBRANCH   2   3
ENDBRANCH   1   2
BRANCH   1  13
ATOM     13  C   UNL     1      23.401   3.221  18.693  1.00  0.00     0.000 C 
BRANCH  13  14
ATOM     14  C   UNL     1      22.571   1.937  18.519  1.00  0.00     0.000 C 
BRANCH  14  15
ATOM     15  C   UNL     1      23.445   0.667  18.577  1.00  0.00     0.000 C 
BRANCH  15  16
ATOM     16  C   UNL     1      23.129  -0.348  17.465  1.00  0.00     0.000 C 
BRANCH  16  17
ATOM     17  C   UNL     1      21.731  -0.149  16.856  1.00  0.00     0.000 C 
BRANCH  17  18
ATOM     18  C   UNL     1      21.684  -0.484  15.357  1.00  0.00     0.000 C 
BRANCH  18  19
ATOM     19  C   UNL     1      22.996  -1.108  14.851  1.00  0.00     0.000 C 
BRANCH  19  20
ATOM     20  C   UNL     1      22.935  -2.645  14.782  1.00  0.00     0.006 C 
BRANCH  20  21
ATOM     21  C   UNL     1      24.025  -3.361  15.596  1.00  0.00     0.053 C 
BRANCH  21  22
ATOM     22  C   UNL     1      23.458  -4.069  16.788  1.00  0.00     0.041 C 
ATOM     23  O   UNL     1      24.170  -4.876  17.445  1.00  0.00    -0.550 OA
ATOM     24  O   UNL     1      22.153  -3.818  17.192  1.00  0.00    -0.550 OA
ENDBRANCH  21  22
ENDBRANCH  20  21
ENDBRANCH  19  20
ENDBRANCH  18  19
ENDBRANCH  17  18
ENDBRANCH  16  17
ENDBRANCH  15  16
ENDBRANCH  14  15
ENDBRANCH  13  14
ENDBRANCH   1  13
TORSDOF 20
ENDMDL
MODEL 2
REMARK VINA RESULT:    -3.811      3.703      7.666
REMARK INTER + INTRA:         -11.990
REMARK INTER:                  -8.592
REMARK INTRA:                  -3.398
REMARK UNBOUND:                -3.724
REMARK SMILES CCCCCCCCCCCCCCCCCCCCCC(=O)[O-]
REMARK SMILES IDX 12 1 11 2 10 3 9 4 8 5 7 6 6 7 5 8 4 9 3 10 2 11 1 12 13 13
REMARK SMILES IDX 14 14 15 15 16 16 17 17 18 18 19 19 20 20 21 21 22 22 23 23
REMARK SMILES IDX 24 24
REMARK H PARENT
REMARK Flexibility Score: inf
ROOT
ATOM      1  C   UNL     1      21.340  -0.028  18.260  1.00  0.00     0.000 C 
ENDROOT
BRANCH   1   2
ATOM      2  C   UNL     1      20.531  -1.055  17.450  1.00  0.00     0.000 C 
BRANCH   2   3
ATOM      3  C   UNL     1      20.108  -0.526  16.067  1.00  0.00     0.000 C 
BRANCH   3   4
ATOM      4  C   UNL     1      20.668  -1.310  14.861  1.00  0.00    -0.000 C 
BRANCH   4   5
ATOM      5  C   UNL     1      21.435  -2.598  15.208  1.00  0.00    -0.000 C 
BRANCH   5   6
ATOM      6  C   UNL     1      22.907  -2.556  14.767  1.00  0.00    -0.000 C 
BRANCH   6   7
ATOM      7  C   UNL     1      23.862  -3.183  15.800  1.00  0.00    -0.000 C 
BRANCH   7   8
ATOM      8  C   UNL     1      23.200  -4.113  16.834  1.00  0.00    -0.000 C 
BRANCH   8   9
ATOM      9  C   UNL     1      23.373  -3.620  18.281  1.00  0.00    -0.000 C 
BRANCH   9  10
ATOM     10  C   UNL     1      24.221  -2.339  18.381  1.00  0.00    -0.000 C 
BRANCH  10  11
ATOM     11  C   UNL     1      24.333  -1.739  19.794  1.00  0.00    -0.003 C 
ATOM     12  C   UNL     1      24.700  -0.255  19.790  1.00  0.00     0.004 C 
ENDBRANCH  10  11
ENDBRANCH   9  10
ENDBRANCH   8   9
ENDBRANCH   7   8
ENDBRANCH   6   7
ENDBRANCH   5   6
ENDBRANCH   4   5
ENDBRANCH   3   4
ENDBRANCH   2   3
ENDBRANCH   1   2
BRANCH   1  13
ATOM     13  C   UNL     1      21.359   1.362  17.604  1.00  0.00     0.000 C 
BRANCH  13  14
ATOM     14  C   UNL     1      22.783   1.860  17.302  1.00  0.00     0.000 C 
BRANCH  14  15
ATOM     15  C   UNL     1      23.592   0.840  16.473  1.00  0.00     0.000 C 
BRANCH  15  16
ATOM     16  C   UNL     1      23.484   1.059  14.954  1.00  0.00     0.000 C 
BRANCH  16  17
ATOM     17  C   UNL     1      22.825   2.400  14.591  1.00  0.00     0.000 C 
BRANCH  17  18
ATOM     18  C   UNL     1      22.098   2.356  13.238  1.00  0.00     0.000 C 
BRANCH  18  19
ATOM     19  C   UNL     1      22.221   3.677  12.459  1.00  0.00     0.000 C 
BRANCH  19  20
ATOM     20  C   UNL     1      23.518   4.441  12.785  1.00  0.00     0.006 C 
BRANCH  20  21
ATOM     21  C   UNL     1      23.513   5.915  12.350  1.00  0.00     0.053 C 
BRANCH  21  22
ATOM     22  C   UNL     1      24.313   6.775  13.280  1.00  0.00     0.041 C 
ATOM     23  O   UNL     1      23.814   7.830  13.755  1.00  0.00    -0.550 OA
ATOM     24  O   UNL     1      25.599   6.399  13.644  1.00  0.00    -0.550 OA
ENDBRANCH  21  22
ENDBRANCH  20  21
ENDBRANCH  19  20
ENDBRANCH  18  19
ENDBRANCH  17  18
ENDBRANCH  16  17
ENDBRANCH  15  16
ENDBRANCH  14  15
ENDBRANCH  13  14
ENDBRANCH   1  13
TORSDOF 20
ENDMDL
MODEL 3
REMARK VINA RESULT:    -3.781      2.638      7.020
REMARK INTER + INTRA:         -11.925
REMARK INTER:                  -8.170
REMARK INTRA:                  -3.755
REMARK UNBOUND:                -3.724
REMARK SMILES CCCCCCCCCCCCCCCCCCCCCC(=O)[O-]
REMARK SMILES IDX 12 1 11 2 10 3 9 4 8 5 7 6 6 7 5 8 4 9 3 10 2 11 1 12 13 13
REMARK SMILES IDX 14 14 15 15 16 16 17 17 18 18 19 19 20 20 21 21 22 22 23 23
REMARK SMILES IDX 24 24
REMARK H PARENT
REMARK Flexibility Score: inf
ROOT
ATOM      1  C   UNL     1      22.469   1.602  14.942  1.00  0.00     0.000 C 
ENDROOT
BRANCH   1   2
ATOM      2  C   UNL     1      23.510   0.542  15.337  1.00  0.00     0.000 C 
BRANCH   2   3
ATOM      3  C   UNL     1      23.381   0.094  16.804  1.00  0.00     0.000 C 
BRANCH   3   4
ATOM      4  C   UNL     1      22.031   0.418  17.478  1.00  0.00    -0.000 C 
BRANCH   4   5
ATOM      5  C   UNL     1      21.028  -0.748  17.544  1.00  0.00    -0.000 C 
BRANCH   5   6
ATOM      6  C   UNL     1      20.008  -0.727  16.394  1.00  0.00    -0.000 C 
BRANCH   6   7
ATOM      7  C   UNL     1      20.435  -1.595  15.196  1.00  0.00    -0.000 C 
BRANCH   7   8
ATOM      8  C   UNL     1      21.388  -2.758  15.528  1.00  0.00    -0.000 C 
BRANCH   8   9
ATOM      9  C   UNL     1      22.623  -2.802  14.611  1.00  0.00    -0.000 C 
BRANCH   9  10
ATOM     10  C   UNL     1      23.891  -3.291  15.336  1.00  0.00    -0.000 C 
BRANCH  10  11
ATOM     11  C   UNL     1      23.645  -3.966  16.698  1.00  0.00    -0.003 C 
ATOM     12  C   UNL     1      24.264  -3.202  17.868  1.00  0.00     0.004 C 
ENDBRANCH  10  11
ENDBRANCH   9  10
ENDBRANCH   8   9
ENDBRANCH   7   8
ENDBRANCH   6   7
ENDBRANCH   5   6
ENDBRANCH   4   5
ENDBRANCH   3   4
ENDBRANCH   2   3
ENDBRANCH   1   2
BRANCH   1  13
ATOM     13  C   UNL     1      22.043   1.494  13.470  1.00  0.00     0.000 C 
BRANCH  13  14
ATOM     14  C   UNL     1      21.976   2.861  12.765  1.00  0.00     0.000 C 
BRANCH  14  15
ATOM     15  C   UNL     1      23.114   3.802  13.215  1.00  0.00     0.000 C 
BRANCH  15  16
ATOM     16  C   UNL     1      22.641   5.235  13.520  1.00  0.00     0.000 C 
BRANCH  16  17
ATOM     17  C   UNL     1      21.608   5.291  14.657  1.00  0.00     0.000 C 
BRANCH  17  18
ATOM     18  C   UNL     1      22.222   5.736  15.994  1.00  0.00     0.000 C 
BRANCH  18  19
ATOM     19  C   UNL     1      22.782   4.557  16.807  1.00  0.00     0.000 C 
BRANCH  19  20
ATOM     20  C   UNL     1      24.294   4.681  17.073  1.00  0.00     0.006 C 
BRANCH  20  21
ATOM     21  C   UNL     1      25.116   3.453  16.651  1.00  0.00     0.053 C 
BRANCH  21  22
ATOM     22  C   UNL     1      25.728   2.758  17.829  1.00  0.00     0.041 C 
ATOM     23  O   UNL     1      25.028   2.495  18.843  1.00  0.00    -0.550 OA
ATOM     24  O   UNL     1      27.062   2.377  17.796  1.00  0.00    -0.550 OA
ENDBRANCH  21  22
ENDBRANCH  20  21
ENDBRANCH  19  20
ENDBRANCH  18  19
ENDBRANCH  17  18
ENDBRANCH  16  17
ENDBRANCH  15  16
ENDBRANCH  14  15
ENDBRANCH  13  14
ENDBRANCH   1  13
TORSDOF 20
ENDMDL
MODEL 4
REMARK VINA RESULT:    -3.778      1.489      2.963
REMARK INTER + INTRA:         -11.919
REMARK INTER:                  -8.314
REMARK INTRA:                  -3.606
REMARK UNBOUND:                -3.724
REMARK SMILES CCCCCCCCCCCCCCCCCCCCCC(=O)[O-]
REMARK SMILES IDX 12 1 11 2 10 3 9 4 8 5 7 6 6 7 5 8 4 9 3 10 2 11 1 12 13 13
REMARK SMILES IDX 14 14 15 15 16 16 17 17 18 18 19 19 20 20 21 21 22 22 23 23
REMARK SMILES IDX 24 24
REMARK H PARENT
REMARK Flexibility Score: inf
ROOT
ATOM      1  C   UNL     1      21.687   0.540  18.302  1.00  0.00     0.000 C 
ENDROOT
BRANCH   1   2
ATOM      2  C   UNL     1      23.177   0.304  18.003  1.00  0.00     0.000 C 
BRANCH   2   3
ATOM      3  C   UNL     1      23.750   1.308  16.987  1.00  0.00     0.000 C 
BRANCH   3   4
ATOM      4  C   UNL     1      23.033   2.674  16.932  1.00  0.00    -0.000 C 
BRANCH   4   5
ATOM      5  C   UNL     1      22.425   3.047  15.568  1.00  0.00    -0.000 C 
BRANCH   5   6
ATOM      6  C   UNL     1      22.855   2.095  14.439  1.00  0.00    -0.000 C 
BRANCH   6   7
ATOM      7  C   UNL     1      22.079   2.326  13.129  1.00  0.00    -0.000 C 
BRANCH   7   8
ATOM      8  C   UNL     1      21.682   3.787  12.845  1.00  0.00    -0.000 C 
BRANCH   8   9
ATOM      9  C   UNL     1      22.712   4.531  11.978  1.00  0.00    -0.000 C 
BRANCH   9  10
ATOM     10  C   UNL     1      22.982   5.966  12.466  1.00  0.00    -0.000 C 
BRANCH  10  11
ATOM     11  C   UNL     1      24.044   6.090  13.573  1.00  0.00    -0.003 C 
ATOM     12  C   UNL     1      25.125   5.013  13.493  1.00  0.00     0.004 C 
ENDBRANCH  10  11
ENDBRANCH   9  10
ENDBRANCH   8   9
ENDBRANCH   7   8
ENDBRANCH   6   7
ENDBRANCH   5   6
ENDBRANCH   4   5
ENDBRANCH   3   4
ENDBRANCH   2   3
ENDBRANCH   1   2
BRANCH   1  13
ATOM     13  C   UNL     1      20.783  -0.542  17.690  1.00  0.00     0.000 C 
BRANCH  13  14
ATOM     14  C   UNL     1      20.188  -0.124  16.333  1.00  0.00     0.000 C 
BRANCH  14  15
ATOM     15  C   UNL     1      20.149  -1.295  15.329  1.00  0.00     0.000 C 
BRANCH  15  16
ATOM     16  C   UNL     1      20.850  -0.985  13.995  1.00  0.00     0.000 C 
BRANCH  16  17
ATOM     17  C   UNL     1      22.112  -1.833  13.774  1.00  0.00     0.000 C 
BRANCH  17  18
ATOM     18  C   UNL     1      23.158  -1.639  14.883  1.00  0.00     0.000 C 
BRANCH  18  19
ATOM     19  C   UNL     1      23.754  -2.971  15.372  1.00  0.00     0.000 C 
BRANCH  19  20
ATOM     20  C   UNL     1      22.778  -3.771  16.255  1.00  0.00     0.006 C 
BRANCH  20  21
ATOM     21  C   UNL     1      22.869  -3.447  17.755  1.00  0.00     0.053 C 
BRANCH  21  22
ATOM     22  C   UNL     1      23.883  -4.303  18.451  1.00  0.00     0.041 C 
ATOM     23  O   UNL     1      24.606  -3.815  19.361  1.00  0.00    -0.550 OA
ATOM     24  O   UNL     1      24.011  -5.644  18.115  1.00  0.00    -0.550 OA
ENDBRANCH  21  22
ENDBRANCH  20  21
ENDBRANCH  19  20
ENDBRANCH  18  19
ENDBRANCH  17  18
ENDBRANCH  16  17
ENDBRANCH  15  16
ENDBRANCH  14  15
ENDBRANCH  13  14
ENDBRANCH   1  13
TORSDOF 20
ENDMDL
MODEL 5
REMARK VINA RESULT:    -3.775      2.442      4.198
REMARK INTER + INTRA:         -11.913
REMARK INTER:                  -8.734
REMARK INTRA:                  -3.179
REMARK UNBOUND:                -3.724
REMARK SMILES CCCCCCCCCCCCCCCCCCCCCC(=O)[O-]
REMARK SMILES IDX 12 1 11 2 10 3 9 4 8 5 7 6 6 7 5 8 4 9 3 10 2 11 1 12 13 13
REMARK SMILES IDX 14 14 15 15 16 16 17 17 18 18 19 19 20 20 21 21 22 22 23 23
REMARK SMILES IDX 24 24
REMARK H PARENT
REMARK Flexibility Score: inf
ROOT
ATOM      1  C   UNL     1      19.748  -0.233  17.139  1.00  0.00     0.000 C 
ENDROOT
BRANCH   1   2
ATOM      2  C   UNL     1      20.841   0.646  16.509  1.00  0.00     0.000 C 
BRANCH   2   3
ATOM      3  C   UNL     1      21.377   1.719  17.475  1.00  0.00     0.000 C 
BRANCH   3   4
ATOM      4  C   UNL     1      22.911   1.753  17.640  1.00  0.00    -0.000 C 
BRANCH   4   5
ATOM      5  C   UNL     1      23.711   1.045  16.532  1.00  0.00    -0.000 C 
BRANCH   5   6
ATOM      6  C   UNL     1      24.168   2.001  15.417  1.00  0.00    -0.000 C 
BRANCH   6   7
ATOM      7  C   UNL     1      23.236   1.983  14.191  1.00  0.00    -0.000 C 
BRANCH   7   8
ATOM      8  C   UNL     1      22.372   3.244  13.998  1.00  0.00    -0.000 C 
BRANCH   8   9
ATOM      9  C   UNL     1      22.409   3.782  12.558  1.00  0.00    -0.000 C 
BRANCH   9  10
ATOM     10  C   UNL     1      23.126   5.140  12.443  1.00  0.00    -0.000 C 
BRANCH  10  11
ATOM     11  C   UNL     1      24.637   5.108  12.737  1.00  0.00    -0.003 C 
ATOM     12  C   UNL     1      25.024   5.909  13.979  1.00  0.00     0.004 C 
ENDBRANCH  10  11
ENDBRANCH   9  10
ENDBRANCH   8   9
ENDBRANCH   7   8
ENDBRANCH   6   7
ENDBRANCH   5   6
ENDBRANCH   4   5
ENDBRANCH   3   4
ENDBRANCH   2   3
ENDBRANCH   1   2
BRANCH   1  13
ATOM     13  C   UNL     1      20.259  -1.633  17.515  1.00  0.00     0.000 C 
BRANCH  13  14
ATOM     14  C   UNL     1      21.176  -1.621  18.752  1.00  0.00     0.000 C 
BRANCH  14  15
ATOM     15  C   UNL     1      22.615  -2.064  18.412  1.00  0.00     0.000 C 
BRANCH  15  16
ATOM     16  C   UNL     1      22.691  -3.061  17.243  1.00  0.00     0.000 C 
BRANCH  16  17
ATOM     17  C   UNL     1      23.519  -2.532  16.061  1.00  0.00     0.000 C 
BRANCH  17  18
ATOM     18  C   UNL     1      23.013  -3.047  14.705  1.00  0.00     0.000 C 
BRANCH  18  19
ATOM     19  C   UNL     1      22.763  -1.911  13.698  1.00  0.00     0.000 C 
BRANCH  19  20
ATOM     20  C   UNL     1      21.408  -1.211  13.916  1.00  0.00     0.006 C 
BRANCH  20  21
ATOM     21  C   UNL     1      20.748  -0.692  12.629  1.00  0.00     0.053 C 
BRANCH  21  22
ATOM     22  C   UNL     1      19.535  -1.491  12.261  1.00  0.00     0.041 C 
ATOM     23  O   UNL     1      19.096  -1.469  11.080  1.00  0.00    -0.550 OA
ATOM     24  O   UNL     1      18.907  -2.282  13.214  1.00  0.00    -0.550 OA
ENDBRANCH  21  22
ENDBRANCH  20  21
ENDBRANCH  19  20
ENDBRANCH  18  19
ENDBRANCH  17  18
ENDBRANCH  16  17
ENDBRANCH  15  16
ENDBRANCH  14  15
ENDBRANCH  13  14
ENDBRANCH   1  13
TORSDOF 20
ENDMDL
MODEL 6
REMARK VINA RESULT:    -3.773      3.462      5.319
REMARK INTER + INTRA:         -11.909
REMARK INTER:                  -9.290
REMARK INTRA:                  -2.618
REMARK UNBOUND:                -3.724
REMARK SMILES CCCCCCCCCCCCCCCCCCCCCC(=O)[O-]
REMARK SMILES IDX 12 1 11 2 10 3 9 4 8 5 7 6 6 7 5 8 4 9 3 10 2 11 1 12 13 13
REMARK SMILES IDX 14 14 15 15 16 16 17 17 18 18 19 19 20 20 21 21 22 22 23 23
REMARK SMILES IDX 24 24
REMARK H PARENT
REMARK Flexibility Score: inf
ROOT
ATOM      1  C   UNL     1      21.971  -2.665  18.268  1.00  0.00     0.000 C 
ENDROOT
BRANCH   1   2
ATOM      2  C   UNL     1      22.255  -1.172  18.032  1.00  0.00     0.000 C 
BRANCH   2   3
ATOM      3  C   UNL     1      21.033  -0.410  17.487  1.00  0.00     0.000 C 
BRANCH   3   4
ATOM      4  C   UNL     1      21.358   0.851  16.658  1.00  0.00    -0.000 C 
BRANCH   4   5
ATOM      5  C   UNL     1      22.851   1.212  16.560  1.00  0.00    -0.000 C 
BRANCH   5   6
ATOM      6  C   UNL     1      23.433   0.977  15.156  1.00  0.00    -0.000 C 
BRANCH   6   7
ATOM      7  C   UNL     1      23.459   2.253  14.295  1.00  0.00    -0.000 C 
BRANCH   7   8
ATOM      8  C   UNL     1      22.254   2.441  13.353  1.00  0.00    -0.000 C 
BRANCH   8   9
ATOM      9  C   UNL     1      22.335   3.735  12.526  1.00  0.00    -0.000 C 
BRANCH   9  10
ATOM     10  C   UNL     1      22.420   5.000  13.400  1.00  0.00    -0.000 C 
BRANCH  10  11
ATOM     11  C   UNL     1      23.847   5.446  13.769  1.00  0.00    -0.003 C 
ATOM     12  C   UNL     1      24.844   5.274  12.624  1.00  0.00     0.004 C 
ENDBRANCH  10  11
ENDBRANCH   9  10
ENDBRANCH   8   9
ENDBRANCH   7   8
ENDBRANCH   6   7
ENDBRANCH   5   6
ENDBRANCH   4   5
ENDBRANCH   3   4
ENDBRANCH   2   3
ENDBRANCH   1   2
BRANCH   1  13
ATOM     13  C   UNL     1      22.810  -3.577  17.359  1.00  0.00     0.000 C 
BRANCH  13  14
ATOM     14  C   UNL     1      23.727  -2.789  16.406  1.00  0.00     0.000 C 
BRANCH  14  15
ATOM     15  C   UNL     1      23.566  -3.240  14.939  1.00  0.00     0.000 C 
BRANCH  15  16
ATOM     16  C   UNL     1      22.813  -2.223  14.064  1.00  0.00     0.000 C 
BRANCH  16  17
ATOM     17  C   UNL     1      21.287  -2.402  14.120  1.00  0.00     0.000 C 
BRANCH  17  18
ATOM     18  C   UNL     1      20.526  -1.105  13.806  1.00  0.00     0.000 C 
BRANCH  18  19
ATOM     19  C   UNL     1      20.471  -0.804  12.298  1.00  0.00     0.000 C 
BRANCH  19  20
ATOM     20  C   UNL     1      19.601  -1.810  11.522  1.00  0.00     0.006 C 
BRANCH  20  21
ATOM     21  C   UNL     1      18.173  -1.969  12.070  1.00  0.00     0.053 C 
BRANCH  21  22
ATOM     22  C   UNL     1      17.165  -1.259  11.220  1.00  0.00     0.041 C 
ATOM     23  O   UNL     1      17.510  -0.747  10.121  1.00  0.00    -0.550 OA
ATOM     24  O   UNL     1      15.840  -1.185  11.627  1.00  0.00    -0.550 OA
ENDBRANCH  21  22
ENDBRANCH  20  21
ENDBRANCH  19  20
ENDBRANCH  18  19
ENDBRANCH  17  18
ENDBRANCH  16  17
ENDBRANCH  15  16
ENDBRANCH  14  15
ENDBRANCH  13  14
ENDBRANCH   1  13
TORSDOF 20
ENDMDL
MODEL 7
REMARK VINA RESULT:    -3.737      3.186      7.018
REMARK INTER + INTRA:         -11.830
REMARK INTER:                  -7.799
REMARK INTRA:                  -4.031
REMARK UNBOUND:                -3.724
REMARK SMILES CCCCCCCCCCCCCCCCCCCCCC(=O)[O-]
REMARK SMILES IDX 12 1 11 2 10 3 9 4 8 5 7 6 6 7 5 8 4 9 3 10 2 11 1 12 13 13
REMARK SMILES IDX 14 14 15 15 16 16 17 17 18 18 19 19 20 20 21 21 22 22 23 23
REMARK SMILES IDX 24 24
REMARK H PARENT
REMARK Flexibility Score: inf
ROOT
ATOM      1  C   UNL     1      23.200  -3.749  16.463  1.00  0.00     0.000 C 
ENDROOT
BRANCH   1   2
ATOM      2  C   UNL     1      24.249  -4.124  17.524  1.00  0.00     0.000 C 
BRANCH   2   3
ATOM      3  C   UNL     1      23.628  -4.767  18.777  1.00  0.00     0.000 C 
BRANCH   3   4
ATOM      4  C   UNL     1      22.960  -3.784  19.762  1.00  0.00    -0.000 C 
BRANCH   4   5
ATOM      5  C   UNL     1      21.426  -3.878  19.851  1.00  0.00    -0.000 C 
BRANCH   5   6
ATOM      6  C   UNL     1      20.735  -2.508  19.746  1.00  0.00    -0.000 C 
BRANCH   6   7
ATOM      7  C   UNL     1      20.868  -1.874  18.349  1.00  0.00    -0.000 C 
BRANCH   7   8
ATOM      8  C   UNL     1      20.623  -0.354  18.286  1.00  0.00    -0.000 C 
BRANCH   8   9
ATOM      9  C   UNL     1      21.916   0.454  18.085  1.00  0.00    -0.000 C 
BRANCH   9  10
ATOM     10  C   UNL     1      23.160  -0.438  17.915  1.00  0.00    -0.000 C 
BRANCH  10  11
ATOM     11  C   UNL     1      24.200  -0.329  19.045  1.00  0.00    -0.003 C 
ATOM     12  C   UNL     1      23.757   0.588  20.184  1.00  0.00     0.004 C 
ENDBRANCH  10  11
ENDBRANCH   9  10
ENDBRANCH   8   9
ENDBRANCH   7   8
ENDBRANCH   6   7
ENDBRANCH   5   6
ENDBRANCH   4   5
ENDBRANCH   3   4
ENDBRANCH   2   3
ENDBRANCH   1   2
BRANCH   1  13
ATOM     13  C   UNL     1      23.811  -3.004  15.265  1.00  0.00     0.000 C 
BRANCH  13  14
ATOM     14  C   UNL     1      22.761  -2.601  14.215  1.00  0.00     0.000 C 
BRANCH  14  15
ATOM     15  C   UNL     1      21.363  -2.400  14.837  1.00  0.00     0.000 C 
BRANCH  15  16
ATOM     16  C   UNL     1      20.785  -0.993  14.606  1.00  0.00     0.000 C 
BRANCH  16  17
ATOM     17  C   UNL     1      21.384  -0.298  13.373  1.00  0.00     0.000 C 
BRANCH  17  18
ATOM     18  C   UNL     1      21.995   1.073  13.704  1.00  0.00     0.000 C 
BRANCH  18  19
ATOM     19  C   UNL     1      23.231   0.964  14.613  1.00  0.00     0.000 C 
BRANCH  19  20
ATOM     20  C   UNL     1      23.865   2.332  14.922  1.00  0.00     0.006 C 
BRANCH  20  21
ATOM     21  C   UNL     1      25.169   2.260  15.733  1.00  0.00     0.053 C 
BRANCH  21  22
ATOM     22  C   UNL     1      24.990   2.778  17.127  1.00  0.00     0.041 C 
ATOM     23  O   UNL     1      23.895   3.295  17.476  1.00  0.00    -0.550 OA
ATOM     24  O   UNL     1      26.022   2.665  18.050  1.00  0.00    -0.550 OA
ENDBRANCH  21  22
ENDBRANCH  20  21
ENDBRANCH  19  20
ENDBRANCH  18  19
ENDBRANCH  17  18
ENDBRANCH  16  17
ENDBRANCH  15  16
ENDBRANCH  14  15
ENDBRANCH  13  14
ENDBRANCH   1  13
TORSDOF 20
ENDMDL
MODEL 8
REMARK VINA RESULT:    -3.724      3.382      7.561
REMARK INTER + INTRA:         -11.801
REMARK INTER:                  -7.900
REMARK INTRA:                  -3.902
REMARK UNBOUND:                -3.724
REMARK SMILES CCCCCCCCCCCCCCCCCCCCCC(=O)[O-]
REMARK SMILES IDX 12 1 11 2 10 3 9 4 8 5 7 6 6 7 5 8 4 9 3 10 2 11 1 12 13 13
REMARK SMILES IDX 14 14 15 15 16 16 17 17 18 18 19 19 20 20 21 21 22 22 23 23
REMARK SMILES IDX 24 24
REMARK H PARENT
REMARK Flexibility Score: inf
ROOT
ATOM      1  C   UNL     1      22.421   2.495  14.627  1.00  0.00     0.000 C 
ENDROOT
BRANCH   1   2
ATOM      2  C   UNL     1      23.809   1.928  14.969  1.00  0.00     0.000 C 
BRANCH   2   3
ATOM      3  C   UNL     1      24.027   1.751  16.483  1.00  0.00     0.000 C 
BRANCH   3   4
ATOM      4  C   UNL     1      23.491   0.432  17.078  1.00  0.00    -0.000 C 
BRANCH   4   5
ATOM      5  C   UNL     1      22.241   0.566  17.965  1.00  0.00    -0.000 C 
BRANCH   5   6
ATOM      6  C   UNL     1      21.151  -0.465  17.627  1.00  0.00    -0.000 C 
BRANCH   6   7
ATOM      7  C   UNL     1      20.329  -0.084  16.382  1.00  0.00    -0.000 C 
BRANCH   7   8
ATOM      8  C   UNL     1      20.228  -1.172  15.297  1.00  0.00    -0.000 C 
BRANCH   8   9
ATOM      9  C   UNL     1      20.866  -0.750  13.963  1.00  0.00    -0.000 C 
BRANCH   9  10
ATOM     10  C   UNL     1      22.311  -1.258  13.802  1.00  0.00    -0.000 C 
BRANCH  10  11
ATOM     11  C   UNL     1      22.540  -2.719  14.232  1.00  0.00    -0.003 C 
ATOM     12  C   UNL     1      23.536  -2.857  15.383  1.00  0.00     0.004 C 
ENDBRANCH  10  11
ENDBRANCH   9  10
ENDBRANCH   8   9
ENDBRANCH   7   8
ENDBRANCH   6   7
ENDBRANCH   5   6
ENDBRANCH   4   5
ENDBRANCH   3   4
ENDBRANCH   2   3
ENDBRANCH   1   2
BRANCH   1  13
ATOM     13  C   UNL     1      22.209   2.670  13.115  1.00  0.00     0.000 C 
BRANCH  13  14
ATOM     14  C   UNL     1      22.214   4.146  12.678  1.00  0.00     0.000 C 
BRANCH  14  15
ATOM     15  C   UNL     1      23.640   4.665  12.398  1.00  0.00     0.000 C 
BRANCH  15  16
ATOM     16  C   UNL     1      24.028   5.885  13.251  1.00  0.00     0.000 C 
BRANCH  16  17
ATOM     17  C   UNL     1      24.931   5.517  14.440  1.00  0.00     0.000 C 
BRANCH  17  18
ATOM     18  C   UNL     1      24.210   5.640  15.792  1.00  0.00     0.000 C 
BRANCH  18  19
ATOM     19  C   UNL     1      22.864   6.376  15.678  1.00  0.00     0.000 C 
BRANCH  19  20
ATOM     20  C   UNL     1      21.698   5.582  16.294  1.00  0.00     0.006 C 
BRANCH  20  21
ATOM     21  C   UNL     1      20.374   5.694  15.520  1.00  0.00     0.053 C 
BRANCH  21  22
ATOM     22  C   UNL     1      19.197   5.808  16.439  1.00  0.00     0.041 C 
ATOM     23  O   UNL     1      19.234   5.286  17.585  1.00  0.00    -0.550 OA
ATOM     24  O   UNL     1      18.069   6.514  16.040  1.00  0.00    -0.550 OA
ENDBRANCH  21  22
ENDBRANCH  20  21
ENDBRANCH  19  20
ENDBRANCH  18  19
ENDBRANCH  17  18
ENDBRANCH  16  17
ENDBRANCH  15  16
ENDBRANCH  14  15
ENDBRANCH  13  14
ENDBRANCH   1  13
TORSDOF 20
ENDMDL
MODEL 9
REMARK VINA RESULT:    -3.701      2.285      3.973
REMARK INTER + INTRA:         -11.752
REMARK INTER:                  -8.112
REMARK INTRA:                  -3.640
REMARK UNBOUND:                -3.724
REMARK SMILES CCCCCCCCCCCCCCCCCCCCCC(=O)[O-]
REMARK SMILES IDX 12 1 11 2 10 3 9 4 8 5 7 6 6 7 5 8 4 9 3 10 2 11 1 12 13 13
REMARK SMILES IDX 14 14 15 15 16 16 17 17 18 18 19 19 20 20 21 21 22 22 23 23
REMARK SMILES IDX 24 24
REMARK H PARENT
REMARK Flexibility Score: inf
ROOT
ATOM      1  C   UNL     1      21.293  -0.831  18.719  1.00  0.00     0.000 C 
ENDROOT
BRANCH   1   2
ATOM      2  C   UNL     1      20.750  -0.033  17.522  1.00  0.00     0.000 C 
BRANCH   2   3
ATOM      3  C   UNL     1      21.765   0.986  16.972  1.00  0.00     0.000 C 
BRANCH   3   4
ATOM      4  C   UNL     1      21.818   1.101  15.433  1.00  0.00    -0.000 C 
BRANCH   4   5
ATOM      5  C   UNL     1      23.214   0.938  14.806  1.00  0.00    -0.000 C 
BRANCH   5   6
ATOM      6  C   UNL     1      24.354   1.227  15.797  1.00  0.00    -0.000 C 
BRANCH   6   7
ATOM      7  C   UNL     1      25.055   2.572  15.532  1.00  0.00    -0.000 C 
BRANCH   7   8
ATOM      8  C   UNL     1      24.374   3.807  16.151  1.00  0.00    -0.000 C 
BRANCH   8   9
ATOM      9  C   UNL     1      23.884   4.814  15.096  1.00  0.00    -0.000 C 
BRANCH   9  10
ATOM     10  C   UNL     1      24.663   4.720  13.771  1.00  0.00    -0.000 C 
BRANCH  10  11
ATOM     11  C   UNL     1      23.790   4.668  12.503  1.00  0.00    -0.003 C 
ATOM     12  C   UNL     1      22.456   3.956  12.721  1.00  0.00     0.004 C 
ENDBRANCH  10  11
ENDBRANCH   9  10
ENDBRANCH   8   9
ENDBRANCH   7   8
ENDBRANCH   6   7
ENDBRANCH   5   6
ENDBRANCH   4   5
ENDBRANCH   3   4
ENDBRANCH   2   3
ENDBRANCH   1   2
BRANCH   1  13
ATOM     13  C   UNL     1      22.594  -0.237  19.284  1.00  0.00     0.000 C 
BRANCH  13  14
ATOM     14  C   UNL     1      23.735  -1.267  19.361  1.00  0.00     0.000 C 
BRANCH  14  15
ATOM     15  C   UNL     1      24.089  -1.847  17.976  1.00  0.00     0.000 C 
BRANCH  15  16
ATOM     16  C   UNL     1      23.909  -3.373  17.884  1.00  0.00     0.000 C 
BRANCH  16  17
ATOM     17  C   UNL     1      23.394  -3.830  16.509  1.00  0.00     0.000 C 
BRANCH  17  18
ATOM     18  C   UNL     1      23.628  -2.782  15.410  1.00  0.00     0.000 C 
BRANCH  18  19
ATOM     19  C   UNL     1      22.482  -2.737  14.385  1.00  0.00     0.000 C 
BRANCH  19  20
ATOM     20  C   UNL     1      21.092  -2.739  15.046  1.00  0.00     0.006 C 
BRANCH  20  21
ATOM     21  C   UNL     1      19.971  -2.158  14.170  1.00  0.00     0.053 C 
BRANCH  21  22
ATOM     22  C   UNL     1      19.504  -3.138  13.137  1.00  0.00     0.041 C 
ATOM     23  O   UNL     1      19.834  -2.992  11.929  1.00  0.00    -0.550 OA
ATOM     24  O   UNL     1      18.728  -4.227  13.511  1.00  0.00    -0.550 OA
ENDBRANCH  21  22
ENDBRANCH  20  21
ENDBRANCH  19  20
ENDBRANCH  18  19
ENDBRANCH  17  18
ENDBRANCH  16  17
ENDBRANCH  15  16
ENDBRANCH  14  15
ENDBRANCH  13  14
ENDBRANCH   1  13
TORSDOF 20
ENDMDL
