MODEL 1
REMARK VINA RESULT:    -3.975      0.000      0.000
REMARK INTER + INTRA:          -5.560
REMARK INTER:                  -5.137
REMARK INTRA:                  -0.423
REMARK UNBOUND:                -0.423
REMARK SMILES CCO[C@@H]1O[C@H](CO)[C@H](O)[C@H](O)[C@H]1O
REMARK SMILES IDX 4 1 13 2 11 3 9 4 6 5 5 6 3 7 2 8 1 9 14 10 12 12 7 14 8 15
REMARK SMILES IDX 10 17
REMARK H PARENT 14 11 12 13 8 16 10 18
REMARK Flexibility Score: inf
ROOT
ATOM      1  C   UNL     1      10.886  42.454  58.884  1.00  0.00     0.281 C 
ATOM      2  C   UNL     1      11.819  41.471  59.613  1.00  0.00     0.202 C 
ATOM      3  C   UNL     1      11.785  41.698  61.132  1.00  0.00     0.179 C 
ATOM      4  C   UNL     1      10.328  41.704  61.622  1.00  0.00     0.177 C 
ATOM      5  C   UNL     1       9.423  42.638  60.770  1.00  0.00     0.178 C 
ATOM      6  O   UNL     1       9.549  42.399  59.371  1.00  0.00    -0.341 OA
ENDROOT
BRANCH   1   7
ATOM      7  O   UNL     1      11.412  43.769  58.949  1.00  0.00    -0.350 OA
BRANCH   7   8
ATOM      8  C   UNL     1      11.189  44.451  57.731  1.00  0.00     0.160 C 
ATOM      9  C   UNL     1      12.346  44.170  56.784  1.00  0.00     0.035 C 
ENDBRANCH   7   8
ENDBRANCH   1   7
BRANCH   2  10
ATOM     10  O   UNL     1      11.424  40.155  59.315  1.00  0.00    -0.385 OA
ATOM     11  H   UNL     1      12.246  39.656  59.070  1.00  0.00     0.211 HD
ENDBRANCH   2  10
BRANCH   3  12
ATOM     12  O   UNL     1      12.435  42.905  61.447  1.00  0.00    -0.387 OA
ATOM     13  H   UNL     1      12.294  43.067  62.415  1.00  0.00     0.211 HD
ENDBRANCH   3  12
BRANCH   5  14
ATOM     14  C   UNL     1       9.512  44.142  61.116  1.00  0.00     0.191 C 
BRANCH  14  15
ATOM     15  O   UNL     1       8.753  44.429  62.263  1.00  0.00    -0.394 OA
ATOM     16  H   UNL     1       8.543  43.565  62.703  1.00  0.00     0.210 HD
ENDBRANCH  14  15
ENDBRANCH   5  14
BRANCH   4  17
ATOM     17  O   UNL     1      10.281  42.041  62.984  1.00  0.00    -0.387 OA
ATOM     18  H   UNL     1      10.171  43.027  63.031  1.00  0.00     0.211 HD
ENDBRANCH   4  17
TORSDOF 7
ENDMDL
MODEL 2
REMARK VINA RESULT:    -3.923      1.904      3.513
REMARK INTER + INTRA:          -5.493
REMARK INTER:                  -5.013
REMARK INTRA:                  -0.480
REMARK UNBOUND:                -0.423
REMARK SMILES CCO[C@@H]1O[C@H](CO)[C@H](O)[C@H](O)[C@H]1O
REMARK SMILES IDX 4 1 13 2 11 3 9 4 6 5 5 6 3 7 2 8 1 9 14 10 12 12 7 14 8 15
REMARK SMILES IDX 10 17
REMARK H PARENT 14 11 12 13 8 16 10 18
REMARK Flexibility Score: inf
ROOT
ATOM      1  C   UNL     1      10.169  42.676  59.030  1.00  0.00     0.281 C 
ATOM      2  C   UNL     1       9.659  43.817  59.929  1.00  0.00     0.202 C 
ATOM      3  C   UNL     1       9.311  43.303  61.333  1.00  0.00     0.179 C 
ATOM      4  C   UNL     1      10.494  42.502  61.899  1.00  0.00     0.177 C 
ATOM      5  C   UNL     1      11.023  41.441  60.894  1.00  0.00     0.178 C 
ATOM      6  O   UNL     1      11.275  41.985  59.602  1.00  0.00    -0.341 OA
ENDROOT
BRANCH   1   7
ATOM      7  O   UNL     1       9.108  41.792  58.713  1.00  0.00    -0.350 OA
BRANCH   7   8
ATOM      8  C   UNL     1       8.356  42.292  57.625  1.00  0.00     0.160 C 
ATOM      9  C   UNL     1       6.876  42.095  57.911  1.00  0.00     0.035 C 
ENDBRANCH   7   8
ENDBRANCH   1   7
BRANCH   2  10
ATOM     10  O   UNL     1      10.649  44.812  60.013  1.00  0.00    -0.385 OA
ATOM     11  H   UNL     1      10.549  45.244  60.901  1.00  0.00     0.211 HD
ENDBRANCH   2  10
BRANCH   3  12
ATOM     12  O   UNL     1       8.145  42.520  61.277  1.00  0.00    -0.387 OA
ATOM     13  H   UNL     1       7.960  42.206  62.199  1.00  0.00     0.211 HD
ENDBRANCH   3  12
BRANCH   5  14
ATOM     14  C   UNL     1      10.209  40.129  60.827  1.00  0.00     0.191 C 
BRANCH  14  15
ATOM     15  O   UNL     1      10.529  39.294  61.911  1.00  0.00    -0.394 OA
ATOM     16  H   UNL     1      10.554  38.362  61.569  1.00  0.00     0.210 HD
ENDBRANCH  14  15
ENDBRANCH   5  14
BRANCH   4  17
ATOM     17  O   UNL     1      10.137  41.919  63.126  1.00  0.00    -0.387 OA
ATOM     18  H   UNL     1      10.483  42.517  63.839  1.00  0.00     0.211 HD
ENDBRANCH   4  17
TORSDOF 7
ENDMDL
MODEL 3
REMARK VINA RESULT:    -3.855      2.083      4.897
REMARK INTER + INTRA:          -5.405
REMARK INTER:                  -5.022
REMARK INTRA:                  -0.383
REMARK UNBOUND:                -0.423
REMARK SMILES CCO[C@@H]1O[C@H](CO)[C@H](O)[C@H](O)[C@H]1O
REMARK SMILES IDX 4 1 13 2 11 3 9 4 6 5 5 6 3 7 2 8 1 9 14 10 12 12 7 14 8 15
REMARK SMILES IDX 10 17
REMARK H PARENT 14 11 12 13 8 16 10 18
REMARK Flexibility Score: inf
ROOT
ATOM      1  C   UNL     1      10.577  42.546  58.827  1.00  0.00     0.281 C 
ATOM      2  C   UNL     1       9.501  43.060  57.855  1.00  0.00     0.202 C 
ATOM      3  C   UNL     1      10.126  43.895  56.728  1.00  0.00     0.179 C 
ATOM      4  C   UNL     1      11.275  43.109  56.077  1.00  0.00     0.177 C 
ATOM      5  C   UNL     1      12.263  42.529  57.127  1.00  0.00     0.178 C 
ATOM      6  O   UNL     1      11.602  41.811  58.165  1.00  0.00    -0.341 OA
ENDROOT
BRANCH   1   7
ATOM      7  O   UNL     1      11.109  43.620  59.583  1.00  0.00    -0.350 OA
BRANCH   7   8
ATOM      8  C   UNL     1      10.849  43.432  60.959  1.00  0.00     0.160 C 
ATOM      9  C   UNL     1       9.566  44.160  61.328  1.00  0.00     0.035 C 
ENDBRANCH   7   8
ENDBRANCH   1   7
BRANCH   2  10
ATOM     10  O   UNL     1       8.809  41.963  57.312  1.00  0.00    -0.385 OA
ATOM     11  H   UNL     1       8.987  41.187  57.906  1.00  0.00     0.211 HD
ENDBRANCH   2  10
BRANCH   3  12
ATOM     12  O   UNL     1      10.576  45.125  57.241  1.00  0.00    -0.387 OA
ATOM     13  H   UNL     1       9.870  45.461  57.852  1.00  0.00     0.211 HD
ENDBRANCH   3  12
BRANCH   5  14
ATOM     14  C   UNL     1      13.304  43.529  57.680  1.00  0.00     0.191 C 
BRANCH  14  15
ATOM     15  O   UNL     1      14.249  43.853  56.692  1.00  0.00    -0.394 OA
ATOM     16  H   UNL     1      14.397  43.038  56.146  1.00  0.00     0.210 HD
ENDBRANCH  14  15
ENDBRANCH   5  14
BRANCH   4  17
ATOM     17  O   UNL     1      11.936  43.915  55.136  1.00  0.00    -0.387 OA
ATOM     18  H   UNL     1      11.312  44.032  54.371  1.00  0.00     0.211 HD
ENDBRANCH   4  17
TORSDOF 7
ENDMDL
MODEL 4
REMARK VINA RESULT:    -3.789      1.586      3.847
REMARK INTER + INTRA:          -5.320
REMARK INTER:                  -4.905
REMARK INTRA:                  -0.415
REMARK UNBOUND:                -0.423
REMARK SMILES CCO[C@@H]1O[C@H](CO)[C@H](O)[C@H](O)[C@H]1O
REMARK SMILES IDX 4 1 13 2 11 3 9 4 6 5 5 6 3 7 2 8 1 9 14 10 12 12 7 14 8 15
REMARK SMILES IDX 10 17
REMARK H PARENT 14 11 12 13 8 16 10 18
REMARK Flexibility Score: inf
ROOT
ATOM      1  C   UNL     1       9.018  42.678  61.023  1.00  0.00     0.281 C 
ATOM      2  C   UNL     1      10.055  41.701  61.603  1.00  0.00     0.202 C 
ATOM      3  C   UNL     1      11.334  41.682  60.754  1.00  0.00     0.179 C 
ATOM      4  C   UNL     1      11.836  43.119  60.542  1.00  0.00     0.177 C 
ATOM      5  C   UNL     1      10.708  44.072  60.058  1.00  0.00     0.178 C 
ATOM      6  O   UNL     1       9.537  43.995  60.867  1.00  0.00    -0.341 OA
ENDROOT
BRANCH   1   7
ATOM      7  O   UNL     1       8.497  42.174  59.805  1.00  0.00    -0.350 OA
BRANCH   7   8
ATOM      8  C   UNL     1       7.591  41.118  60.054  1.00  0.00     0.160 C 
ATOM      9  C   UNL     1       6.255  41.700  60.488  1.00  0.00     0.035 C 
ENDBRANCH   7   8
ENDBRANCH   1   7
BRANCH   2  10
ATOM     10  O   UNL     1      10.359  42.083  62.922  1.00  0.00    -0.385 OA
ATOM     11  H   UNL     1       9.603  41.783  63.491  1.00  0.00     0.211 HD
ENDBRANCH   2  10
BRANCH   3  12
ATOM     12  O   UNL     1      11.081  41.043  59.528  1.00  0.00    -0.387 OA
ATOM     13  H   UNL     1      11.960  40.883  59.096  1.00  0.00     0.211 HD
ENDBRANCH   3  12
BRANCH   5  14
ATOM     14  C   UNL     1      10.380  43.997  58.549  1.00  0.00     0.191 C 
BRANCH  14  15
ATOM     15  O   UNL     1      11.144  44.933  57.832  1.00  0.00    -0.394 OA
ATOM     16  H   UNL     1      10.511  45.558  57.392  1.00  0.00     0.210 HD
ENDBRANCH  14  15
ENDBRANCH   5  14
BRANCH   4  17
ATOM     17  O   UNL     1      12.928  43.121  59.659  1.00  0.00    -0.387 OA
ATOM     18  H   UNL     1      12.749  42.418  58.981  1.00  0.00     0.211 HD
ENDBRANCH   4  17
TORSDOF 7
ENDMDL
MODEL 5
REMARK VINA RESULT:    -3.785     12.125     13.636
REMARK INTER + INTRA:          -5.314
REMARK INTER:                  -4.857
REMARK INTRA:                  -0.457
REMARK UNBOUND:                -0.423
REMARK SMILES CCO[C@@H]1O[C@H](CO)[C@H](O)[C@H](O)[C@H]1O
REMARK SMILES IDX 4 1 13 2 11 3 9 4 6 5 5 6 3 7 2 8 1 9 14 10 12 12 7 14 8 15
REMARK SMILES IDX 10 17
REMARK H PARENT 14 11 12 13 8 16 10 18
REMARK Flexibility Score: inf
ROOT
ATOM      1  C   UNL     1      24.843  42.872  63.653  1.00  0.00     0.281 C 
ATOM      2  C   UNL     1      24.723  44.251  64.325  1.00  0.00     0.202 C 
ATOM      3  C   UNL     1      23.381  44.396  65.057  1.00  0.00     0.179 C 
ATOM      4  C   UNL     1      23.166  43.193  65.988  1.00  0.00     0.177 C 
ATOM      5  C   UNL     1      23.409  41.838  65.267  1.00  0.00     0.178 C 
ATOM      6  O   UNL     1      24.651  41.800  64.571  1.00  0.00    -0.341 OA
ENDROOT
BRANCH   1   7
ATOM      7  O   UNL     1      23.953  42.784  62.554  1.00  0.00    -0.350 OA
BRANCH   7   8
ATOM      8  C   UNL     1      24.511  43.406  61.414  1.00  0.00     0.160 C 
ATOM      9  C   UNL     1      23.486  44.353  60.811  1.00  0.00     0.035 C 
ENDBRANCH   7   8
ENDBRANCH   1   7
BRANCH   2  10
ATOM     10  O   UNL     1      25.785  44.413  65.233  1.00  0.00    -0.385 OA
ATOM     11  H   UNL     1      25.385  44.469  66.139  1.00  0.00     0.211 HD
ENDBRANCH   2  10
BRANCH   3  12
ATOM     12  O   UNL     1      22.339  44.509  64.120  1.00  0.00    -0.387 OA
ATOM     13  H   UNL     1      21.506  44.682  64.629  1.00  0.00     0.211 HD
ENDBRANCH   3  12
BRANCH   5  14
ATOM     14  C   UNL     1      22.236  41.332  64.395  1.00  0.00     0.191 C 
BRANCH  14  15
ATOM     15  O   UNL     1      21.130  41.007  65.199  1.00  0.00    -0.394 OA
ATOM     16  H   UNL     1      21.478  40.762  66.096  1.00  0.00     0.210 HD
ENDBRANCH  14  15
ENDBRANCH   5  14
BRANCH   4  17
ATOM     17  O   UNL     1      21.885  43.251  66.561  1.00  0.00    -0.387 OA
ATOM     18  H   UNL     1      21.422  42.408  66.312  1.00  0.00     0.211 HD
ENDBRANCH   4  17
TORSDOF 7
ENDMDL
MODEL 6
REMARK VINA RESULT:    -3.778      8.565     10.350
REMARK INTER + INTRA:          -5.305
REMARK INTER:                  -4.883
REMARK INTRA:                  -0.423
REMARK UNBOUND:                -0.423
REMARK SMILES CCO[C@@H]1O[C@H](CO)[C@H](O)[C@H](O)[C@H]1O
REMARK SMILES IDX 4 1 13 2 11 3 9 4 6 5 5 6 3 7 2 8 1 9 14 10 12 12 7 14 8 15
REMARK SMILES IDX 10 17
REMARK H PARENT 14 11 12 13 8 16 10 18
REMARK Flexibility Score: inf
ROOT
ATOM      1  C   UNL     1      10.848  34.560  63.189  1.00  0.00     0.281 C 
ATOM      2  C   UNL     1       9.654  33.736  63.702  1.00  0.00     0.202 C 
ATOM      3  C   UNL     1      10.128  32.470  64.431  1.00  0.00     0.179 C 
ATOM      4  C   UNL     1      11.169  32.845  65.496  1.00  0.00     0.177 C 
ATOM      5  C   UNL     1      12.286  33.766  64.931  1.00  0.00     0.178 C 
ATOM      6  O   UNL     1      11.767  34.890  64.226  1.00  0.00    -0.341 OA
ENDROOT
BRANCH   1   7
ATOM      7  O   UNL     1      11.487  33.885  62.120  1.00  0.00    -0.350 OA
BRANCH   7   8
ATOM      8  C   UNL     1      11.975  34.812  61.171  1.00  0.00     0.160 C 
ATOM      9  C   UNL     1      10.905  35.858  60.901  1.00  0.00     0.035 C 
ENDBRANCH   7   8
ENDBRANCH   1   7
BRANCH   2  10
ATOM     10  O   UNL     1       8.885  34.531  64.570  1.00  0.00    -0.385 OA
ATOM     11  H   UNL     1       8.902  35.454  64.206  1.00  0.00     0.211 HD
ENDBRANCH   2  10
BRANCH   3  12
ATOM     12  O   UNL     1      10.653  31.555  63.501  1.00  0.00    -0.387 OA
ATOM     13  H   UNL     1      11.298  30.981  63.990  1.00  0.00     0.211 HD
ENDBRANCH   3  12
BRANCH   5  14
ATOM     14  C   UNL     1      13.402  33.046  64.139  1.00  0.00     0.191 C 
BRANCH  14  15
ATOM     15  O   UNL     1      14.122  32.181  64.980  1.00  0.00    -0.394 OA
ATOM     16  H   UNL     1      14.642  32.746  65.609  1.00  0.00     0.210 HD
ENDBRANCH  14  15
ENDBRANCH   5  14
BRANCH   4  17
ATOM     17  O   UNL     1      11.703  31.683  66.076  1.00  0.00    -0.387 OA
ATOM     18  H   UNL     1      12.113  31.956  66.939  1.00  0.00     0.211 HD
ENDBRANCH   4  17
TORSDOF 7
ENDMDL
MODEL 7
REMARK VINA RESULT:    -3.759      1.854      3.285
REMARK INTER + INTRA:          -5.281
REMARK INTER:                  -4.832
REMARK INTRA:                  -0.449
REMARK UNBOUND:                -0.423
REMARK SMILES CCO[C@@H]1O[C@H](CO)[C@H](O)[C@H](O)[C@H]1O
REMARK SMILES IDX 4 1 13 2 11 3 9 4 6 5 5 6 3 7 2 8 1 9 14 10 12 12 7 14 8 15
REMARK SMILES IDX 10 17
REMARK H PARENT 14 11 12 13 8 16 10 18
REMARK Flexibility Score: inf
ROOT
ATOM      1  C   UNL     1      11.847  43.235  60.119  1.00  0.00     0.281 C 
ATOM      2  C   UNL     1      10.661  43.739  59.279  1.00  0.00     0.202 C 
ATOM      3  C   UNL     1       9.525  42.706  59.249  1.00  0.00     0.179 C 
ATOM      4  C   UNL     1       9.177  42.278  60.684  1.00  0.00     0.177 C 
ATOM      5  C   UNL     1      10.436  41.885  61.505  1.00  0.00     0.178 C 
ATOM      6  O   UNL     1      11.463  42.871  61.441  1.00  0.00    -0.341 OA
ENDROOT
BRANCH   1   7
ATOM      7  O   UNL     1      12.502  42.169  59.453  1.00  0.00    -0.350 OA
BRANCH   7   8
ATOM      8  C   UNL     1      13.382  42.668  58.466  1.00  0.00     0.160 C 
ATOM      9  C   UNL     1      14.702  43.044  59.121  1.00  0.00     0.035 C 
ENDBRANCH   7   8
ENDBRANCH   1   7
BRANCH   2  10
ATOM     10  O   UNL     1      10.195  44.950  59.821  1.00  0.00    -0.385 OA
ATOM     11  H   UNL     1       9.977  44.775  60.774  1.00  0.00     0.211 HD
ENDBRANCH   2  10
BRANCH   3  12
ATOM     12  O   UNL     1       9.906  41.603  58.465  1.00  0.00    -0.387 OA
ATOM     13  H   UNL     1      10.756  41.845  58.015  1.00  0.00     0.211 HD
ENDBRANCH   3  12
BRANCH   5  14
ATOM     14  C   UNL     1      10.979  40.461  61.245  1.00  0.00     0.191 C 
BRANCH  14  15
ATOM     15  O   UNL     1      10.168  39.503  61.876  1.00  0.00    -0.394 OA
ATOM     16  H   UNL     1       9.223  39.770  61.726  1.00  0.00     0.210 HD
ENDBRANCH  14  15
ENDBRANCH   5  14
BRANCH   4  17
ATOM     17  O   UNL     1       8.232  41.239  60.659  1.00  0.00    -0.387 OA
ATOM     18  H   UNL     1       8.499  40.593  61.365  1.00  0.00     0.211 HD
ENDBRANCH   4  17
TORSDOF 7
ENDMDL
MODEL 8
REMARK VINA RESULT:    -3.706      1.757      2.515
REMARK INTER + INTRA:          -5.213
REMARK INTER:                  -4.785
REMARK INTRA:                  -0.428
REMARK UNBOUND:                -0.423
REMARK SMILES CCO[C@@H]1O[C@H](CO)[C@H](O)[C@H](O)[C@H]1O
REMARK SMILES IDX 4 1 13 2 11 3 9 4 6 5 5 6 3 7 2 8 1 9 14 10 12 12 7 14 8 15
REMARK SMILES IDX 10 17
REMARK H PARENT 14 11 12 13 8 16 10 18
REMARK Flexibility Score: inf
ROOT
ATOM      1  C   UNL     1      12.423  41.964  60.075  1.00  0.00     0.281 C 
ATOM      2  C   UNL     1      12.018  40.920  61.130  1.00  0.00     0.202 C 
ATOM      3  C   UNL     1      10.665  41.271  61.766  1.00  0.00     0.179 C 
ATOM      4  C   UNL     1       9.625  41.524  60.664  1.00  0.00     0.177 C 
ATOM      5  C   UNL     1      10.145  42.506  59.577  1.00  0.00     0.178 C 
ATOM      6  O   UNL     1      11.427  42.141  59.073  1.00  0.00    -0.341 OA
ENDROOT
BRANCH   1   7
ATOM      7  O   UNL     1      12.756  43.191  60.702  1.00  0.00    -0.350 OA
BRANCH   7   8
ATOM      8  C   UNL     1      14.124  43.209  61.057  1.00  0.00     0.160 C 
ATOM      9  C   UNL     1      14.966  43.024  59.804  1.00  0.00     0.035 C 
ENDBRANCH   7   8
ENDBRANCH   1   7
BRANCH   2  10
ATOM     10  O   UNL     1      11.950  39.654  60.521  1.00  0.00    -0.385 OA
ATOM     11  H   UNL     1      12.175  39.783  59.563  1.00  0.00     0.211 HD
ENDBRANCH   2  10
BRANCH   3  12
ATOM     12  O   UNL     1      10.809  42.393  62.601  1.00  0.00    -0.387 OA
ATOM     13  H   UNL     1      11.235  42.079  63.440  1.00  0.00     0.211 HD
ENDBRANCH   3  12
BRANCH   5  14
ATOM     14  C   UNL     1      10.070  44.005  59.948  1.00  0.00     0.191 C 
BRANCH  14  15
ATOM     15  O   UNL     1      10.650  44.792  58.939  1.00  0.00    -0.394 OA
ATOM     16  H   UNL     1      10.212  44.544  58.083  1.00  0.00     0.210 HD
ENDBRANCH  14  15
ENDBRANCH   5  14
BRANCH   4  17
ATOM     17  O   UNL     1       8.422  41.972  61.232  1.00  0.00    -0.387 OA
ATOM     18  H   UNL     1       7.775  41.221  61.162  1.00  0.00     0.211 HD
ENDBRANCH   4  17
TORSDOF 7
ENDMDL
