MODEL 1
REMARK VINA RESULT:    -4.635      0.000      0.000
REMARK INTER + INTRA:          -9.913
REMARK INTER:                  -8.158
REMARK INTRA:                  -1.755
REMARK UNBOUND:                -1.755
REMARK SMILES CCCCCCCCCCCCCCC(=O)[O-]
REMARK SMILES IDX 9 1 10 2 11 3 12 4 13 5 14 6 15 7 16 8 17 9 8 10 7 11 6 12
REMARK SMILES IDX 5 13 4 14 3 15 2 16 1 17
REMARK H PARENT
REMARK Flexibility Score: inf
ROOT
ATOM      1  C   UNL     1      42.938  22.730  12.363  1.00  0.00     0.000 C 
ENDROOT
BRANCH   1   2
ATOM      2  C   UNL     1      43.178  21.275  12.803  1.00  0.00     0.000 C 
BRANCH   2   3
ATOM      3  C   UNL     1      42.122  20.764  13.797  1.00  0.00     0.000 C 
BRANCH   3   4
ATOM      4  C   UNL     1      41.362  19.531  13.261  1.00  0.00     0.000 C 
BRANCH   4   5
ATOM      5  C   UNL     1      42.089  18.817  12.105  1.00  0.00     0.006 C 
BRANCH   5   6
ATOM      6  C   UNL     1      42.362  17.329  12.364  1.00  0.00     0.053 C 
BRANCH   6   7
ATOM      7  C   UNL     1      43.821  17.004  12.263  1.00  0.00     0.041 C 
ATOM      8  O   UNL     1      44.673  17.928  12.213  1.00  0.00    -0.550 OA
ATOM      9  O   UNL     1      44.239  15.681  12.204  1.00  0.00    -0.550 OA
ENDBRANCH   6   7
ENDBRANCH   5   6
ENDBRANCH   4   5
ENDBRANCH   3   4
ENDBRANCH   2   3
ENDBRANCH   1   2
BRANCH   1  10
ATOM     10  C   UNL     1      42.646  22.922  10.863  1.00  0.00     0.000 C 
BRANCH  10  11
ATOM     11  C   UNL     1      43.184  21.772   9.996  1.00  0.00    -0.000 C 
BRANCH  11  12
ATOM     12  C   UNL     1      42.164  21.282   8.950  1.00  0.00    -0.000 C 
BRANCH  12  13
ATOM     13  C   UNL     1      40.694  21.287   9.414  1.00  0.00    -0.000 C 
BRANCH  13  14
ATOM     14  C   UNL     1      40.066  19.896   9.620  1.00  0.00    -0.000 C 
BRANCH  14  15
ATOM     15  C   UNL     1      38.743  19.921  10.416  1.00  0.00    -0.000 C 
BRANCH  15  16
ATOM     16  C   UNL     1      38.431  18.573  11.082  1.00  0.00    -0.003 C 
ATOM     17  C   UNL     1      37.042  18.579  11.712  1.00  0.00     0.004 C 
ENDBRANCH  15  16
ENDBRANCH  14  15
ENDBRANCH  13  14
ENDBRANCH  12  13
ENDBRANCH  11  12
ENDBRANCH  10  11
ENDBRANCH   1  10
TORSDOF 13
ENDMDL
MODEL 2
REMARK VINA RESULT:    -4.596      2.340      5.288
REMARK INTER + INTRA:          -9.844
REMARK INTER:                  -8.696
REMARK INTRA:                  -1.148
REMARK UNBOUND:                -1.755
REMARK SMILES CCCCCCCCCCCCCCC(=O)[O-]
REMARK SMILES IDX 9 1 10 2 11 3 12 4 13 5 14 6 15 7 16 8 17 9 8 10 7 11 6 12
REMARK SMILES IDX 5 13 4 14 3 15 2 16 1 17
REMARK H PARENT
REMARK Flexibility Score: inf
ROOT
ATOM      1  C   UNL     1      42.699  20.396  13.106  1.00  0.00     0.000 C 
ENDROOT
BRANCH   1   2
ATOM      2  C   UNL     1      42.705  21.927  13.266  1.00  0.00     0.000 C 
BRANCH   2   3
ATOM      3  C   UNL     1      42.836  22.672  11.927  1.00  0.00     0.000 C 
BRANCH   3   4
ATOM      4  C   UNL     1      42.910  21.706  10.724  1.00  0.00     0.000 C 
BRANCH   4   5
ATOM      5  C   UNL     1      41.969  22.094   9.568  1.00  0.00     0.006 C 
BRANCH   5   6
ATOM      6  C   UNL     1      41.115  20.932   9.042  1.00  0.00     0.053 C 
BRANCH   6   7
ATOM      7  C   UNL     1      41.887  20.048   8.112  1.00  0.00     0.041 C 
ATOM      8  O   UNL     1      42.619  20.552   7.221  1.00  0.00    -0.550 OA
ATOM      9  O   UNL     1      41.784  18.667   8.214  1.00  0.00    -0.550 OA
ENDBRANCH   6   7
ENDBRANCH   5   6
ENDBRANCH   4   5
ENDBRANCH   3   4
ENDBRANCH   2   3
ENDBRANCH   1   2
BRANCH   1  10
ATOM     10  C   UNL     1      41.381  19.701  13.497  1.00  0.00     0.000 C 
BRANCH  10  11
ATOM     11  C   UNL     1      40.532  19.298  12.280  1.00  0.00    -0.000 C 
BRANCH  11  12
ATOM     12  C   UNL     1      40.925  17.923  11.705  1.00  0.00    -0.000 C 
BRANCH  12  13
ATOM     13  C   UNL     1      42.060  17.199  12.454  1.00  0.00    -0.000 C 
BRANCH  13  14
ATOM     14  C   UNL     1      43.396  17.112  11.694  1.00  0.00    -0.000 C 
BRANCH  14  15
ATOM     15  C   UNL     1      44.504  16.362  12.465  1.00  0.00    -0.000 C 
BRANCH  15  16
ATOM     16  C   UNL     1      44.468  14.846  12.220  1.00  0.00    -0.003 C 
ATOM     17  C   UNL     1      45.869  14.246  12.275  1.00  0.00     0.004 C 
ENDBRANCH  15  16
ENDBRANCH  14  15
ENDBRANCH  13  14
ENDBRANCH  12  13
ENDBRANCH  11  12
ENDBRANCH  10  11
ENDBRANCH   1  10
TORSDOF 13
ENDMDL
MODEL 3
REMARK VINA RESULT:    -4.590      1.996      5.161
REMARK INTER + INTRA:          -9.834
REMARK INTER:                  -8.426
REMARK INTRA:                  -1.408
REMARK UNBOUND:                -1.755
REMARK SMILES CCCCCCCCCCCCCCC(=O)[O-]
REMARK SMILES IDX 9 1 10 2 11 3 12 4 13 5 14 6 15 7 16 8 17 9 8 10 7 11 6 12
REMARK SMILES IDX 5 13 4 14 3 15 2 16 1 17
REMARK H PARENT
REMARK Flexibility Score: inf
ROOT
ATOM      1  C   UNL     1      41.418  19.852   8.309  1.00  0.00     0.000 C 
ENDROOT
BRANCH   1   2
ATOM      2  C   UNL     1      40.782  21.197   8.704  1.00  0.00     0.000 C 
BRANCH   2   3
ATOM      3  C   UNL     1      41.814  22.241   9.161  1.00  0.00     0.000 C 
BRANCH   3   4
ATOM      4  C   UNL     1      43.157  21.596   9.571  1.00  0.00     0.000 C 
BRANCH   4   5
ATOM      5  C   UNL     1      43.191  21.134  11.040  1.00  0.00     0.006 C 
BRANCH   5   6
ATOM      6  C   UNL     1      42.856  22.241  12.049  1.00  0.00     0.053 C 
BRANCH   6   7
ATOM      7  C   UNL     1      43.045  21.782  13.463  1.00  0.00     0.041 C 
ATOM      8  O   UNL     1      44.015  21.039  13.763  1.00  0.00    -0.550 OA
ATOM      9  O   UNL     1      42.138  22.157  14.446  1.00  0.00    -0.550 OA
ENDBRANCH   6   7
ENDBRANCH   5   6
ENDBRANCH   4   5
ENDBRANCH   3   4
ENDBRANCH   2   3
ENDBRANCH   1   2
BRANCH   1  10
ATOM     10  C   UNL     1      40.988  18.647   9.166  1.00  0.00     0.000 C 
BRANCH  10  11
ATOM     11  C   UNL     1      39.719  18.920   9.989  1.00  0.00    -0.000 C 
BRANCH  11  12
ATOM     12  C   UNL     1      39.729  18.214  11.359  1.00  0.00    -0.000 C 
BRANCH  12  13
ATOM     13  C   UNL     1      41.002  18.432  12.199  1.00  0.00    -0.000 C 
BRANCH  13  14
ATOM     14  C   UNL     1      41.949  17.220  12.282  1.00  0.00    -0.000 C 
BRANCH  14  15
ATOM     15  C   UNL     1      43.373  17.506  11.759  1.00  0.00    -0.000 C 
BRANCH  15  16
ATOM     16  C   UNL     1      44.456  16.783  12.574  1.00  0.00    -0.003 C 
ATOM     17  C   UNL     1      44.585  15.324  12.147  1.00  0.00     0.004 C 
ENDBRANCH  15  16
ENDBRANCH  14  15
ENDBRANCH  13  14
ENDBRANCH  12  13
ENDBRANCH  11  12
ENDBRANCH  10  11
ENDBRANCH   1  10
TORSDOF 13
ENDMDL
MODEL 4
REMARK VINA RESULT:    -4.576      2.518      5.241
REMARK INTER + INTRA:          -9.809
REMARK INTER:                  -8.260
REMARK INTRA:                  -1.549
REMARK UNBOUND:                -1.755
REMARK SMILES CCCCCCCCCCCCCCC(=O)[O-]
REMARK SMILES IDX 9 1 10 2 11 3 12 4 13 5 14 6 15 7 16 8 17 9 8 10 7 11 6 12
REMARK SMILES IDX 5 13 4 14 3 15 2 16 1 17
REMARK H PARENT
REMARK Flexibility Score: inf
ROOT
ATOM      1  C   UNL     1      43.028  21.663  10.719  1.00  0.00     0.000 C 
ENDROOT
BRANCH   1   2
ATOM      2  C   UNL     1      41.847  22.363  10.023  1.00  0.00     0.000 C 
BRANCH   2   3
ATOM      3  C   UNL     1      41.221  21.517   8.902  1.00  0.00     0.000 C 
BRANCH   3   4
ATOM      4  C   UNL     1      41.674  20.041   8.960  1.00  0.00     0.000 C 
BRANCH   4   5
ATOM      5  C   UNL     1      40.553  19.072   9.380  1.00  0.00     0.006 C 
BRANCH   5   6
ATOM      6  C   UNL     1      39.490  19.705  10.290  1.00  0.00     0.053 C 
BRANCH   6   7
ATOM      7  C   UNL     1      38.672  18.668  10.997  1.00  0.00     0.041 C 
ATOM      8  O   UNL     1      39.205  17.593  11.377  1.00  0.00    -0.550 OA
ATOM      9  O   UNL     1      37.317  18.877  11.218  1.00  0.00    -0.550 OA
ENDBRANCH   6   7
ENDBRANCH   5   6
ENDBRANCH   4   5
ENDBRANCH   3   4
ENDBRANCH   2   3
ENDBRANCH   1   2
BRANCH   1  10
ATOM     10  C   UNL     1      43.128  21.901  12.238  1.00  0.00     0.000 C 
BRANCH  10  11
ATOM     11  C   UNL     1      43.241  20.595  13.042  1.00  0.00    -0.000 C 
BRANCH  11  12
ATOM     12  C   UNL     1      41.994  19.700  12.909  1.00  0.00    -0.000 C 
BRANCH  12  13
ATOM     13  C   UNL     1      42.277  18.233  12.531  1.00  0.00    -0.000 C 
BRANCH  13  14
ATOM     14  C   UNL     1      43.745  17.914  12.190  1.00  0.00    -0.000 C 
BRANCH  14  15
ATOM     15  C   UNL     1      44.282  16.642  12.880  1.00  0.00    -0.000 C 
BRANCH  15  16
ATOM     16  C   UNL     1      44.374  15.446  11.921  1.00  0.00    -0.003 C 
ATOM     17  C   UNL     1      45.492  14.494  12.333  1.00  0.00     0.004 C 
ENDBRANCH  15  16
ENDBRANCH  14  15
ENDBRANCH  13  14
ENDBRANCH  12  13
ENDBRANCH  11  12
ENDBRANCH  10  11
ENDBRANCH   1  10
TORSDOF 13
ENDMDL
MODEL 5
REMARK VINA RESULT:    -4.563      2.234      3.918
REMARK INTER + INTRA:          -9.785
REMARK INTER:                  -8.126
REMARK INTRA:                  -1.660
REMARK UNBOUND:                -1.755
REMARK SMILES CCCCCCCCCCCCCCC(=O)[O-]
REMARK SMILES IDX 9 1 10 2 11 3 12 4 13 5 14 6 15 7 16 8 17 9 8 10 7 11 6 12
REMARK SMILES IDX 5 13 4 14 3 15 2 16 1 17
REMARK H PARENT
REMARK Flexibility Score: inf
ROOT
ATOM      1  C   UNL     1      43.582  21.040  13.277  1.00  0.00     0.000 C 
ENDROOT
BRANCH   1   2
ATOM      2  C   UNL     1      42.548  22.031  12.712  1.00  0.00     0.000 C 
BRANCH   2   3
ATOM      3  C   UNL     1      43.131  22.964  11.639  1.00  0.00     0.000 C 
BRANCH   3   4
ATOM      4  C   UNL     1      42.874  22.443  10.207  1.00  0.00     0.000 C 
BRANCH   4   5
ATOM      5  C   UNL     1      41.861  21.283  10.150  1.00  0.00     0.006 C 
BRANCH   5   6
ATOM      6  C   UNL     1      41.200  21.100   8.777  1.00  0.00     0.053 C 
BRANCH   6   7
ATOM      7  C   UNL     1      41.941  20.112   7.928  1.00  0.00     0.041 C 
ATOM      8  O   UNL     1      42.700  20.514   7.008  1.00  0.00    -0.550 OA
ATOM      9  O   UNL     1      41.778  18.749   8.138  1.00  0.00    -0.550 OA
ENDBRANCH   6   7
ENDBRANCH   5   6
ENDBRANCH   4   5
ENDBRANCH   3   4
ENDBRANCH   2   3
ENDBRANCH   1   2
BRANCH   1  10
ATOM     10  C   UNL     1      43.150  19.562  13.263  1.00  0.00     0.000 C 
BRANCH  10  11
ATOM     11  C   UNL     1      43.863  18.740  12.178  1.00  0.00    -0.000 C 
BRANCH  11  12
ATOM     12  C   UNL     1      42.969  17.639  11.574  1.00  0.00    -0.000 C 
BRANCH  12  13
ATOM     13  C   UNL     1      41.557  17.535  12.182  1.00  0.00    -0.000 C 
BRANCH  13  14
ATOM     14  C   UNL     1      40.403  17.881  11.223  1.00  0.00    -0.000 C 
BRANCH  14  15
ATOM     15  C   UNL     1      39.546  19.079  11.687  1.00  0.00    -0.000 C 
BRANCH  15  16
ATOM     16  C   UNL     1      38.252  19.228  10.873  1.00  0.00    -0.003 C 
ATOM     17  C   UNL     1      37.067  18.604  11.604  1.00  0.00     0.004 C 
ENDBRANCH  15  16
ENDBRANCH  14  15
ENDBRANCH  13  14
ENDBRANCH  12  13
ENDBRANCH  11  12
ENDBRANCH  10  11
ENDBRANCH   1  10
TORSDOF 13
ENDMDL
MODEL 6
REMARK VINA RESULT:    -4.521      2.712      4.452
REMARK INTER + INTRA:          -9.712
REMARK INTER:                  -7.823
REMARK INTRA:                  -1.889
REMARK UNBOUND:                -1.755
REMARK SMILES CCCCCCCCCCCCCCC(=O)[O-]
REMARK SMILES IDX 9 1 10 2 11 3 12 4 13 5 14 6 15 7 16 8 17 9 8 10 7 11 6 12
REMARK SMILES IDX 5 13 4 14 3 15 2 16 1 17
REMARK H PARENT
REMARK Flexibility Score: inf
ROOT
ATOM      1  C   UNL     1      44.188  19.325  12.357  1.00  0.00     0.000 C 
ENDROOT
BRANCH   1   2
ATOM      2  C   UNL     1      43.654  17.927  12.720  1.00  0.00     0.000 C 
BRANCH   2   3
ATOM      3  C   UNL     1      43.083  17.168  11.511  1.00  0.00     0.000 C 
BRANCH   3   4
ATOM      4  C   UNL     1      41.868  17.890  10.887  1.00  0.00     0.000 C 
BRANCH   4   5
ATOM      5  C   UNL     1      40.657  17.983  11.835  1.00  0.00     0.006 C 
BRANCH   5   6
ATOM      6  C   UNL     1      39.756  19.199  11.578  1.00  0.00     0.053 C 
BRANCH   6   7
ATOM      7  C   UNL     1      38.432  18.801  11.002  1.00  0.00     0.041 C 
ATOM      8  O   UNL     1      38.306  18.635   9.761  1.00  0.00    -0.550 OA
ATOM      9  O   UNL     1      37.331  18.633  11.832  1.00  0.00    -0.550 OA
ENDBRANCH   6   7
ENDBRANCH   5   6
ENDBRANCH   4   5
ENDBRANCH   3   4
ENDBRANCH   2   3
ENDBRANCH   1   2
BRANCH   1  10
ATOM     10  C   UNL     1      43.782  20.453  13.323  1.00  0.00     0.000 C 
BRANCH  10  11
ATOM     11  C   UNL     1      42.546  21.234  12.846  1.00  0.00    -0.000 C 
BRANCH  11  12
ATOM     12  C   UNL     1      42.884  22.661  12.375  1.00  0.00    -0.000 C 
BRANCH  12  13
ATOM     13  C   UNL     1      42.632  22.936  10.880  1.00  0.00    -0.000 C 
BRANCH  13  14
ATOM     14  C   UNL     1      42.521  21.682   9.992  1.00  0.00    -0.000 C 
BRANCH  14  15
ATOM     15  C   UNL     1      41.261  21.659   9.100  1.00  0.00    -0.000 C 
BRANCH  15  16
ATOM     16  C   UNL     1      41.141  20.364   8.284  1.00  0.00    -0.003 C 
ATOM     17  C   UNL     1      42.330  20.194   7.343  1.00  0.00     0.004 C 
ENDBRANCH  15  16
ENDBRANCH  14  15
ENDBRANCH  13  14
ENDBRANCH  12  13
ENDBRANCH  11  12
ENDBRANCH  10  11
ENDBRANCH   1  10
TORSDOF 13
ENDMDL
MODEL 7
REMARK VINA RESULT:    -4.503      1.194      3.539
REMARK INTER + INTRA:          -9.680
REMARK INTER:                  -7.706
REMARK INTRA:                  -1.974
REMARK UNBOUND:                -1.755
REMARK SMILES CCCCCCCCCCCCCCC(=O)[O-]
REMARK SMILES IDX 9 1 10 2 11 3 12 4 13 5 14 6 15 7 16 8 17 9 8 10 7 11 6 12
REMARK SMILES IDX 5 13 4 14 3 15 2 16 1 17
REMARK H PARENT
REMARK Flexibility Score: inf
ROOT
ATOM      1  C   UNL     1      40.645  19.245   9.135  1.00  0.00     0.000 C 
ENDROOT
BRANCH   1   2
ATOM      2  C   UNL     1      39.837  19.982  10.217  1.00  0.00     0.000 C 
BRANCH   2   3
ATOM      3  C   UNL     1      39.838  19.254  11.571  1.00  0.00     0.000 C 
BRANCH   3   4
ATOM      4  C   UNL     1      40.431  17.831  11.470  1.00  0.00     0.000 C 
BRANCH   4   5
ATOM      5  C   UNL     1      41.758  17.665  12.235  1.00  0.00     0.006 C 
BRANCH   5   6
ATOM      6  C   UNL     1      42.947  17.280  11.344  1.00  0.00     0.053 C 
BRANCH   6   7
ATOM      7  C   UNL     1      44.226  17.205  12.122  1.00  0.00     0.041 C 
ATOM      8  O   UNL     1      44.972  18.215  12.210  1.00  0.00    -0.550 OA
ATOM      9  O   UNL     1      44.605  16.017  12.731  1.00  0.00    -0.550 OA
ENDBRANCH   6   7
ENDBRANCH   5   6
ENDBRANCH   4   5
ENDBRANCH   3   4
ENDBRANCH   2   3
ENDBRANCH   1   2
BRANCH   1  10
ATOM     10  C   UNL     1      41.478  20.149   8.207  1.00  0.00     0.000 C 
BRANCH  10  11
ATOM     11  C   UNL     1      41.552  21.604   8.699  1.00  0.00    -0.000 C 
BRANCH  11  12
ATOM     12  C   UNL     1      42.997  22.092   8.913  1.00  0.00    -0.000 C 
BRANCH  12  13
ATOM     13  C   UNL     1      43.202  23.024  10.124  1.00  0.00    -0.000 C 
BRANCH  13  14
ATOM     14  C   UNL     1      42.611  22.514  11.452  1.00  0.00    -0.000 C 
BRANCH  14  15
ATOM     15  C   UNL     1      43.124  21.117  11.865  1.00  0.00    -0.000 C 
BRANCH  15  16
ATOM     16  C   UNL     1      43.320  20.988  13.383  1.00  0.00    -0.003 C 
ATOM     17  C   UNL     1      41.984  21.040  14.118  1.00  0.00     0.004 C 
ENDBRANCH  15  16
ENDBRANCH  14  15
ENDBRANCH  13  14
ENDBRANCH  12  13
ENDBRANCH  11  12
ENDBRANCH  10  11
ENDBRANCH   1  10
TORSDOF 13
ENDMDL
MODEL 8
REMARK VINA RESULT:    -4.496      3.072      5.059
REMARK INTER + INTRA:          -9.669
REMARK INTER:                  -7.872
REMARK INTRA:                  -1.797
REMARK UNBOUND:                -1.755
REMARK SMILES CCCCCCCCCCCCCCC(=O)[O-]
REMARK SMILES IDX 9 1 10 2 11 3 12 4 13 5 14 6 15 7 16 8 17 9 8 10 7 11 6 12
REMARK SMILES IDX 5 13 4 14 3 15 2 16 1 17
REMARK H PARENT
REMARK Flexibility Score: inf
ROOT
ATOM      1  C   UNL     1      42.591  21.490  10.173  1.00  0.00     0.000 C 
ENDROOT
BRANCH   1   2
ATOM      2  C   UNL     1      41.253  21.860   9.508  1.00  0.00     0.000 C 
BRANCH   2   3
ATOM      3  C   UNL     1      40.917  20.975   8.297  1.00  0.00     0.000 C 
BRANCH   3   4
ATOM      4  C   UNL     1      42.006  19.914   8.027  1.00  0.00     0.000 C 
BRANCH   4   5
ATOM      5  C   UNL     1      42.764  20.136   6.704  1.00  0.00     0.006 C 
BRANCH   5   6
ATOM      6  C   UNL     1      43.799  21.268   6.760  1.00  0.00     0.053 C 
BRANCH   6   7
ATOM      7  C   UNL     1      44.891  21.075   5.753  1.00  0.00     0.041 C 
ATOM      8  O   UNL     1      44.622  21.060   4.524  1.00  0.00    -0.550 OA
ATOM      9  O   UNL     1      46.203  20.892   6.171  1.00  0.00    -0.550 OA
ENDBRANCH   6   7
ENDBRANCH   5   6
ENDBRANCH   4   5
ENDBRANCH   3   4
ENDBRANCH   2   3
ENDBRANCH   1   2
BRANCH   1  10
ATOM     10  C   UNL     1      42.793  22.047  11.594  1.00  0.00     0.000 C 
BRANCH  10  11
ATOM     11  C   UNL     1      43.232  20.972  12.602  1.00  0.00    -0.000 C 
BRANCH  11  12
ATOM     12  C   UNL     1      42.202  20.748  13.726  1.00  0.00    -0.000 C 
BRANCH  12  13
ATOM     13  C   UNL     1      41.177  19.628  13.463  1.00  0.00    -0.000 C 
BRANCH  13  14
ATOM     14  C   UNL     1      41.663  18.498  12.535  1.00  0.00    -0.000 C 
BRANCH  14  15
ATOM     15  C   UNL     1      40.739  18.247  11.324  1.00  0.00    -0.000 C 
BRANCH  15  16
ATOM     16  C   UNL     1      39.528  19.191  11.301  1.00  0.00    -0.003 C 
ATOM     17  C   UNL     1      38.448  18.678  10.353  1.00  0.00     0.004 C 
ENDBRANCH  15  16
ENDBRANCH  14  15
ENDBRANCH  13  14
ENDBRANCH  12  13
ENDBRANCH  11  12
ENDBRANCH  10  11
ENDBRANCH   1  10
TORSDOF 13
ENDMDL
MODEL 9
REMARK VINA RESULT:    -4.455      2.397      4.927
REMARK INTER + INTRA:          -9.596
REMARK INTER:                  -7.740
REMARK INTRA:                  -1.856
REMARK UNBOUND:                -1.755
REMARK SMILES CCCCCCCCCCCCCCC(=O)[O-]
REMARK SMILES IDX 9 1 10 2 11 3 12 4 13 5 14 6 15 7 16 8 17 9 8 10 7 11 6 12
REMARK SMILES IDX 5 13 4 14 3 15 2 16 1 17
REMARK H PARENT
REMARK Flexibility Score: inf
ROOT
ATOM      1  C   UNL     1      41.604  18.279   9.357  1.00  0.00     0.000 C 
ENDROOT
BRANCH   1   2
ATOM      2  C   UNL     1      40.453  18.303  10.379  1.00  0.00     0.000 C 
BRANCH   2   3
ATOM      3  C   UNL     1      40.903  17.941  11.803  1.00  0.00     0.000 C 
BRANCH   3   4
ATOM      4  C   UNL     1      42.406  17.589  11.870  1.00  0.00     0.000 C 
BRANCH   4   5
ATOM      5  C   UNL     1      43.195  18.456  12.870  1.00  0.00     0.006 C 
BRANCH   5   6
ATOM      6  C   UNL     1      43.589  19.835  12.323  1.00  0.00     0.053 C 
BRANCH   6   7
ATOM      7  C   UNL     1      42.876  20.943  13.036  1.00  0.00     0.041 C 
ATOM      8  O   UNL     1      43.229  22.138  12.861  1.00  0.00    -0.550 OA
ATOM      9  O   UNL     1      41.835  20.656  13.909  1.00  0.00    -0.550 OA
ENDBRANCH   6   7
ENDBRANCH   5   6
ENDBRANCH   4   5
ENDBRANCH   3   4
ENDBRANCH   2   3
ENDBRANCH   1   2
BRANCH   1  10
ATOM     10  C   UNL     1      41.644  19.473   8.386  1.00  0.00     0.000 C 
BRANCH  10  11
ATOM     11  C   UNL     1      40.788  20.659   8.859  1.00  0.00    -0.000 C 
BRANCH  11  12
ATOM     12  C   UNL     1      41.610  21.739   9.589  1.00  0.00    -0.000 C 
BRANCH  12  13
ATOM     13  C   UNL     1      43.111  21.766   9.242  1.00  0.00    -0.000 C 
BRANCH  13  14
ATOM     14  C   UNL     1      43.615  23.078   8.612  1.00  0.00    -0.000 C 
BRANCH  14  15
ATOM     15  C   UNL     1      44.175  22.908   7.183  1.00  0.00    -0.000 C 
BRANCH  15  16
ATOM     16  C   UNL     1      44.697  21.488   6.920  1.00  0.00    -0.003 C 
ATOM     17  C   UNL     1      43.915  20.813   5.798  1.00  0.00     0.004 C 
ENDBRANCH  15  16
ENDBRANCH  14  15
ENDBRANCH  13  14
ENDBRANCH  12  13
ENDBRANCH  11  12
ENDBRANCH  10  11
ENDBRANCH   1  10
TORSDOF 13
ENDMDL
