MODEL 1
REMARK VINA RESULT:    -1.056      0.000      0.000
REMARK INTER + INTRA:          -0.788
REMARK INTER:                  -1.303
REMARK INTRA:                   0.515
REMARK UNBOUND:                 0.515
REMARK SMILES C=C1[C@@H]2CC[C@H]3[C@H]2C(C)(C)CCC[C@@]13C
REMARK SMILES IDX 14 1 6 2 7 3 3 4 2 5 1 6 4 7 5 8 15 9 8 10 9 11 10 12 11 13
REMARK SMILES IDX 13 15 12 16
REMARK H PARENT
REMARK Flexibility Score: 80.00
ROOT
ATOM      1  C   UNL     1       7.325   7.276  11.967  1.00  0.00    -0.008 C 
ATOM      2  C   UNL     1       6.224   6.246  12.178  1.00  0.00     0.003 C 
ATOM      3  C   UNL     1       5.516   6.894  13.383  1.00  0.00     0.006 C 
ATOM      4  C   UNL     1       6.704   6.724  14.315  1.00  0.00     0.019 C 
ATOM      5  C   UNL     1       7.746   7.453  13.434  1.00  0.00    -0.068 C 
ATOM      6  C   UNL     1       8.780   8.168  13.886  1.00  0.00     0.009 C 
ATOM      7  C   UNL     1       7.003   5.232  14.237  1.00  0.00     0.008 C 
ATOM      8  C   UNL     1       6.699   4.899  12.774  1.00  0.00     0.005 C 
ATOM      9  C   UNL     1       8.499   6.746  11.116  1.00  0.00     0.016 C 
ENDROOT
BRANCH   3  10
ATOM     10  C   UNL     1       4.019   7.114  13.077  1.00  0.00    -0.032 C 
ATOM     11  C   UNL     1       3.292   5.768  12.859  1.00  0.00     0.011 C 
ATOM     12  C   UNL     1       3.296   7.847  14.243  1.00  0.00     0.011 C 
BRANCH  10  13
ATOM     13  C   UNL     1       3.976   8.003  11.749  1.00  0.00     0.007 CG0
ATOM     14  G   UNL     1       5.166   9.039  11.542  1.00  0.00     0.000 G0
ENDBRANCH  10  13
ENDBRANCH   3  10
BRANCH   1  15
ATOM     15  C   UNL     1       6.653   8.526  11.235  1.00  0.00     0.011 C 
BRANCH  15  16
ATOM     16  C   UNL     1       5.168   9.032  11.535  1.00  0.00     0.001 CG0
ATOM     17  G   UNL     1       3.977   7.999  11.750  1.00  0.00     0.000 G0
ENDBRANCH  15  16
ENDBRANCH   1  15
TORSDOF 0
ENDMDL
MODEL 2
REMARK VINA RESULT:    -0.524      1.260      3.011
REMARK INTER + INTRA:          -0.132
REMARK INTER:                  -0.644
REMARK INTRA:                   0.513
REMARK UNBOUND:                 0.515
REMARK SMILES C=C1[C@@H]2CC[C@H]3[C@H]2C(C)(C)CCC[C@@]13C
REMARK SMILES IDX 14 1 6 2 7 3 3 4 2 5 1 6 4 7 5 8 15 9 8 10 9 11 10 12 11 13
REMARK SMILES IDX 13 15 12 16
REMARK H PARENT
REMARK Flexibility Score: 80.00
ROOT
ATOM      1  C   UNL     1       6.499   5.703  13.430  1.00  0.00    -0.008 C 
ATOM      2  C   UNL     1       6.168   7.129  13.846  1.00  0.00     0.003 C 
ATOM      3  C   UNL     1       6.014   7.757  12.447  1.00  0.00     0.006 C 
ATOM      4  C   UNL     1       7.470   7.548  12.069  1.00  0.00     0.019 C 
ATOM      5  C   UNL     1       7.520   6.023  12.328  1.00  0.00    -0.068 C 
ATOM      6  C   UNL     1       8.267   5.145  11.653  1.00  0.00     0.009 C 
ATOM      7  C   UNL     1       8.230   8.228  13.200  1.00  0.00     0.008 C 
ATOM      8  C   UNL     1       7.361   7.931  14.424  1.00  0.00     0.005 C 
ATOM      9  C   UNL     1       7.148   4.875  14.561  1.00  0.00     0.016 C 
ENDROOT
BRANCH   3  10
ATOM     10  C   UNL     1       4.631   8.430  12.306  1.00  0.00    -0.032 C 
ATOM     11  C   UNL     1       4.481   9.606  13.296  1.00  0.00     0.011 C 
ATOM     12  C   UNL     1       4.413   9.000  10.875  1.00  0.00     0.011 C 
BRANCH  10  13
ATOM     13  C   UNL     1       3.560   7.285  12.618  1.00  0.00     0.007 CG0
ATOM     14  G   UNL     1       3.968   5.798  12.227  1.00  0.00     0.000 G0
ENDBRANCH  10  13
ENDBRANCH   3  10
BRANCH   1  15
ATOM     15  C   UNL     1       5.123   5.021  12.989  1.00  0.00     0.011 C 
BRANCH  15  16
ATOM     16  C   UNL     1       3.960   5.799  12.218  1.00  0.00     0.001 CG0
ATOM     17  G   UNL     1       3.560   7.286  12.619  1.00  0.00     0.000 G0
ENDBRANCH  15  16
ENDBRANCH   1  15
TORSDOF 0
ENDMDL
MODEL 3
REMARK VINA RESULT:     0.795      0.857      3.725
REMARK INTER + INTRA:           1.496
REMARK INTER:                   1.057
REMARK INTRA:                   0.439
REMARK UNBOUND:                 0.515
REMARK SMILES C=C1[C@@H]2CC[C@H]3[C@H]2C(C)(C)CCC[C@@]13C
REMARK SMILES IDX 14 1 6 2 7 3 3 4 2 5 1 6 4 7 5 8 15 9 8 10 9 11 10 12 11 13
REMARK SMILES IDX 13 15 12 16
REMARK H PARENT
REMARK Flexibility Score: 80.00
ROOT
ATOM      1  C   UNL     1       4.490   7.077  13.155  1.00  0.00    -0.008 C 
ATOM      2  C   UNL     1       5.911   7.192  13.688  1.00  0.00     0.003 C 
ATOM      3  C   UNL     1       6.656   6.482  12.542  1.00  0.00     0.006 C 
ATOM      4  C   UNL     1       6.008   5.133  12.805  1.00  0.00     0.019 C 
ATOM      5  C   UNL     1       4.537   5.606  12.714  1.00  0.00    -0.068 C 
ATOM      6  C   UNL     1       3.514   4.876  12.259  1.00  0.00     0.009 C 
ATOM      7  C   UNL     1       6.314   4.875  14.274  1.00  0.00     0.008 C 
ATOM      8  C   UNL     1       6.230   6.272  14.893  1.00  0.00     0.005 C 
ATOM      9  C   UNL     1       3.413   7.294  14.240  1.00  0.00     0.016 C 
ENDROOT
BRANCH   3  10
ATOM     10  C   UNL     1       7.755   7.398  11.962  1.00  0.00    -0.032 C 
ATOM     11  C   UNL     1       8.730   7.866  13.066  1.00  0.00     0.011 C 
ATOM     12  C   UNL     1       8.600   6.668  10.879  1.00  0.00     0.011 C 
BRANCH  10  13
ATOM     13  C   UNL     1       6.985   8.643  11.321  1.00  0.00     0.007 CG0
ATOM     14  G   UNL     1       5.460   8.417  10.928  1.00  0.00     0.000 G0
ENDBRANCH  10  13
ENDBRANCH   3  10
BRANCH   1  15
ATOM     15  C   UNL     1       4.334   8.185  12.016  1.00  0.00     0.011 C 
BRANCH  15  16
ATOM     16  C   UNL     1       5.448   8.475  10.907  1.00  0.00     0.001 CG0
ATOM     17  G   UNL     1       6.977   8.653  11.307  1.00  0.00     0.000 G0
ENDBRANCH  15  16
ENDBRANCH   1  15
TORSDOF 0
ENDMDL
MODEL 4
REMARK VINA RESULT:     0.862      5.255      6.840
REMARK INTER + INTRA:           1.579
REMARK INTER:                   1.078
REMARK INTRA:                   0.501
REMARK UNBOUND:                 0.515
REMARK SMILES C=C1[C@@H]2CC[C@H]3[C@H]2C(C)(C)CCC[C@@]13C
REMARK SMILES IDX 14 1 6 2 7 3 3 4 2 5 1 6 4 7 5 8 15 9 8 10 9 11 10 12 11 13
REMARK SMILES IDX 13 15 12 16
REMARK H PARENT
REMARK Flexibility Score: 80.00
ROOT
ATOM      1  C   UNL     1       3.078  13.914  11.605  1.00  0.00    -0.008 C 
ATOM      2  C   UNL     1       3.025  12.459  11.162  1.00  0.00     0.003 C 
ATOM      3  C   UNL     1       2.173  11.889  12.313  1.00  0.00     0.006 C 
ATOM      4  C   UNL     1       3.220  12.170  13.378  1.00  0.00     0.019 C 
ATOM      5  C   UNL     1       3.383  13.682  13.093  1.00  0.00    -0.068 C 
ATOM      6  C   UNL     1       3.664  14.618  14.005  1.00  0.00     0.009 C 
ATOM      7  C   UNL     1       4.462  11.469  12.844  1.00  0.00     0.008 C 
ATOM      8  C   UNL     1       4.351  11.678  11.332  1.00  0.00     0.005 C 
ATOM      9  C   UNL     1       4.212  14.714  10.927  1.00  0.00     0.016 C 
ENDROOT
BRANCH   3  10
ATOM     10  C   UNL     1       0.924  11.171  11.758  1.00  0.00    -0.032 C 
ATOM     11  C   UNL     1       1.321   9.966  10.876  1.00  0.00     0.011 C 
ATOM     12  C   UNL     1       0.017  10.630  12.900  1.00  0.00     0.011 C 
BRANCH  10  13
ATOM     13  C   UNL     1       0.142  12.269  10.899  1.00  0.00     0.007 CG0
ATOM     14  G   UNL     1       0.292  13.783  11.364  1.00  0.00     0.000 G0
ENDBRANCH  10  13
ENDBRANCH   3  10
BRANCH   1  15
ATOM     15  C   UNL     1       1.667  14.562  11.231  1.00  0.00     0.011 C 
BRANCH  15  16
ATOM     16  C   UNL     1       0.278  13.781  11.349  1.00  0.00     0.001 CG0
ATOM     17  G   UNL     1       0.150  12.261  10.899  1.00  0.00     0.000 G0
ENDBRANCH  15  16
ENDBRANCH   1  15
TORSDOF 0
ENDMDL
MODEL 5
REMARK VINA RESULT:     1.359      5.348      7.510
REMARK INTER + INTRA:           2.192
REMARK INTER:                   1.698
REMARK INTRA:                   0.493
REMARK UNBOUND:                 0.515
REMARK SMILES C=C1[C@@H]2CC[C@H]3[C@H]2C(C)(C)CCC[C@@]13C
REMARK SMILES IDX 14 1 6 2 7 3 3 4 2 5 1 6 4 7 5 8 15 9 8 10 9 11 10 12 11 13
REMARK SMILES IDX 13 15 12 16
REMARK H PARENT
REMARK Flexibility Score: 80.00
ROOT
ATOM      1  C   UNL     1       2.453  11.656  13.837  1.00  0.00    -0.008 C 
ATOM      2  C   UNL     1       3.301  11.934  12.604  1.00  0.00     0.003 C 
ATOM      3  C   UNL     1       2.547  13.165  12.066  1.00  0.00     0.006 C 
ATOM      4  C   UNL     1       1.270  12.395  11.773  1.00  0.00     0.019 C 
ATOM      5  C   UNL     1       1.067  11.812  13.192  1.00  0.00    -0.068 C 
ATOM      6  C   UNL     1      -0.113  11.566  13.768  1.00  0.00     0.009 C 
ATOM      7  C   UNL     1       1.743  11.258  10.876  1.00  0.00     0.008 C 
ATOM      8  C   UNL     1       3.121  10.920  11.448  1.00  0.00     0.005 C 
ATOM      9  C   UNL     1       2.643  10.230  14.397  1.00  0.00     0.016 C 
ENDROOT
BRANCH   3  10
ATOM     10  C   UNL     1       3.511  14.359  11.898  1.00  0.00    -0.032 C 
ATOM     11  C   UNL     1       4.624  14.036  10.875  1.00  0.00     0.011 C 
ATOM     12  C   UNL     1       2.770  15.628  11.389  1.00  0.00     0.011 C 
BRANCH  10  13
ATOM     13  C   UNL     1       4.132  14.620  13.347  1.00  0.00     0.007 CG0
ATOM     14  G   UNL     1       3.219  14.245  14.595  1.00  0.00     0.000 G0
ENDBRANCH  10  13
ENDBRANCH   3  10
BRANCH   1  15
ATOM     15  C   UNL     1       2.880  12.727  14.941  1.00  0.00     0.011 C 
BRANCH  15  16
ATOM     16  C   UNL     1       3.254  14.243  14.603  1.00  0.00     0.001 CG0
ATOM     17  G   UNL     1       4.117  14.608  13.317  1.00  0.00     0.000 G0
ENDBRANCH  15  16
ENDBRANCH   1  15
TORSDOF 0
ENDMDL
MODEL 6
REMARK VINA RESULT:     1.616      1.874      4.347
REMARK INTER + INTRA:           2.509
REMARK INTER:                   2.008
REMARK INTRA:                   0.501
REMARK UNBOUND:                 0.515
REMARK SMILES C=C1[C@@H]2CC[C@H]3[C@H]2C(C)(C)CCC[C@@]13C
REMARK SMILES IDX 14 1 6 2 7 3 3 4 2 5 1 6 4 7 5 8 15 9 8 10 9 11 10 12 11 13
REMARK SMILES IDX 13 15 12 16
REMARK H PARENT
REMARK Flexibility Score: 80.00
ROOT
ATOM      1  C   UNL     1       4.554   6.022  12.630  1.00  0.00    -0.008 C 
ATOM      2  C   UNL     1       5.585   6.825  11.850  1.00  0.00     0.003 C 
ATOM      3  C   UNL     1       6.112   7.714  12.993  1.00  0.00     0.006 C 
ATOM      4  C   UNL     1       4.790   8.437  13.192  1.00  0.00     0.019 C 
ATOM      5  C   UNL     1       3.914   7.180  13.411  1.00  0.00    -0.068 C 
ATOM      6  C   UNL     1       2.840   7.111  14.202  1.00  0.00     0.009 C 
ATOM      7  C   UNL     1       4.473   8.978  11.804  1.00  0.00     0.008 C 
ATOM      8  C   UNL     1       4.992   7.875  10.879  1.00  0.00     0.005 C 
ATOM      9  C   UNL     1       3.515   5.325  11.726  1.00  0.00     0.016 C 
ENDROOT
BRANCH   3  10
ATOM     10  C   UNL     1       7.643   7.570  13.129  1.00  0.00    -0.032 C 
ATOM     11  C   UNL     1       8.362   8.045  11.846  1.00  0.00     0.011 C 
ATOM     12  C   UNL     1       8.198   8.417  14.310  1.00  0.00     0.011 C 
BRANCH  10  13
ATOM     13  C   UNL     1       7.910   6.016  13.386  1.00  0.00     0.007 CG0
ATOM     14  G   UNL     1       6.770   5.211  14.150  1.00  0.00     0.000 G0
ENDBRANCH  10  13
ENDBRANCH   3  10
BRANCH   1  15
ATOM     15  C   UNL     1       5.361   4.924  13.464  1.00  0.00     0.011 C 
BRANCH  15  16
ATOM     16  C   UNL     1       6.782   5.197  14.140  1.00  0.00     0.001 CG0
ATOM     17  G   UNL     1       7.908   6.024  13.378  1.00  0.00     0.000 G0
ENDBRANCH  15  16
ENDBRANCH   1  15
TORSDOF 0
ENDMDL
