MODEL 1
REMARK VINA RESULT:    -4.642      0.000      0.000
REMARK INTER + INTRA:         -10.898
REMARK INTER:                  -8.442
REMARK INTRA:                  -2.456
REMARK UNBOUND:                -2.456
REMARK SMILES CCCCCCCCCCCCCCCC(=O)[O-]
REMARK SMILES IDX 9 1 10 2 11 3 12 4 13 5 14 6 15 7 16 8 17 9 18 10 8 11 7 12
REMARK SMILES IDX 6 13 5 14 4 15 3 16 2 17 1 18
REMARK H PARENT
REMARK Flexibility Score: inf
ROOT
ATOM      1  C   UNL     1     182.037 181.246 179.256  1.00  0.00     0.000 C 
ENDROOT
BRANCH   1   2
ATOM      2  C   UNL     1     182.020 182.767 179.033  1.00  0.00     0.000 C 
BRANCH   2   3
ATOM      3  C   UNL     1     182.764 183.535 180.137  1.00  0.00     0.000 C 
BRANCH   3   4
ATOM      4  C   UNL     1     181.807 184.255 181.103  1.00  0.00     0.000 C 
BRANCH   4   5
ATOM      5  C   UNL     1     181.701 183.551 182.466  1.00  0.00     0.000 C 
BRANCH   5   6
ATOM      6  C   UNL     1     180.244 183.379 182.934  1.00  0.00     0.006 C 
BRANCH   6   7
ATOM      7  C   UNL     1     179.277 183.197 181.758  1.00  0.00     0.053 C 
BRANCH   7   8
ATOM      8  C   UNL     1     177.958 182.642 182.203  1.00  0.00     0.041 C 
ATOM      9  O   UNL     1     177.236 183.289 183.005  1.00  0.00    -0.550 OA
ATOM     10  O   UNL     1     177.541 181.396 181.751  1.00  0.00    -0.550 OA
ENDBRANCH   7   8
ENDBRANCH   6   7
ENDBRANCH   5   6
ENDBRANCH   4   5
ENDBRANCH   3   4
ENDBRANCH   2   3
ENDBRANCH   1   2
BRANCH   1  11
ATOM     11  C   UNL     1     180.742 180.721 179.903  1.00  0.00     0.000 C 
BRANCH  11  12
ATOM     12  C   UNL     1     180.946 179.808 181.128  1.00  0.00    -0.000 C 
BRANCH  12  13
ATOM     13  C   UNL     1     182.416 179.502 181.479  1.00  0.00    -0.000 C 
BRANCH  13  14
ATOM     14  C   UNL     1     182.938 180.198 182.751  1.00  0.00    -0.000 C 
BRANCH  14  15
ATOM     15  C   UNL     1     184.442 180.537 182.735  1.00  0.00    -0.000 C 
BRANCH  15  16
ATOM     16  C   UNL     1     184.987 181.029 181.379  1.00  0.00    -0.000 C 
BRANCH  16  17
ATOM     17  C   UNL     1     186.213 181.954 181.471  1.00  0.00    -0.003 C 
ATOM     18  C   UNL     1     185.874 183.338 182.022  1.00  0.00     0.004 C 
ENDBRANCH  16  17
ENDBRANCH  15  16
ENDBRANCH  14  15
ENDBRANCH  13  14
ENDBRANCH  12  13
ENDBRANCH  11  12
ENDBRANCH   1  11
TORSDOF 14
ENDMDL
MODEL 2
REMARK VINA RESULT:    -4.559      3.019      5.926
REMARK INTER + INTRA:         -10.747
REMARK INTER:                  -8.622
REMARK INTRA:                  -2.125
REMARK UNBOUND:                -2.456
REMARK SMILES CCCCCCCCCCCCCCCC(=O)[O-]
REMARK SMILES IDX 9 1 10 2 11 3 12 4 13 5 14 6 15 7 16 8 17 9 18 10 8 11 7 12
REMARK SMILES IDX 6 13 5 14 4 15 3 16 2 17 1 18
REMARK H PARENT
REMARK Flexibility Score: inf
ROOT
ATOM      1  C   UNL     1     180.792 180.750 179.786  1.00  0.00     0.000 C 
ENDROOT
BRANCH   1   2
ATOM      2  C   UNL     1     180.990 179.764 180.950  1.00  0.00     0.000 C 
BRANCH   2   3
ATOM      3  C   UNL     1     182.472 179.553 181.298  1.00  0.00     0.000 C 
BRANCH   3   4
ATOM      4  C   UNL     1     182.845 180.143 182.669  1.00  0.00     0.000 C 
BRANCH   4   5
ATOM      5  C   UNL     1     184.349 180.436 182.798  1.00  0.00     0.000 C 
BRANCH   5   6
ATOM      6  C   UNL     1     184.941 181.076 181.528  1.00  0.00     0.006 C 
BRANCH   6   7
ATOM      7  C   UNL     1     186.244 181.832 181.816  1.00  0.00     0.053 C 
BRANCH   7   8
ATOM      8  C   UNL     1     186.010 183.303 181.975  1.00  0.00     0.041 C 
ATOM      9  O   UNL     1     184.846 183.774 181.885  1.00  0.00    -0.550 OA
ATOM     10  O   UNL     1     187.084 184.157 182.196  1.00  0.00    -0.550 OA
ENDBRANCH   7   8
ENDBRANCH   6   7
ENDBRANCH   5   6
ENDBRANCH   4   5
ENDBRANCH   3   4
ENDBRANCH   2   3
ENDBRANCH   1   2
BRANCH   1  11
ATOM     11  C   UNL     1     182.114 181.359 179.285  1.00  0.00     0.000 C 
BRANCH  11  12
ATOM     12  C   UNL     1     182.333 182.840 179.654  1.00  0.00    -0.000 C 
BRANCH  12  13
ATOM     13  C   UNL     1     181.105 183.554 180.252  1.00  0.00    -0.000 C 
BRANCH  13  14
ATOM     14  C   UNL     1     181.231 183.921 181.745  1.00  0.00    -0.000 C 
BRANCH  14  15
ATOM     15  C   UNL     1     180.413 183.032 182.703  1.00  0.00    -0.000 C 
BRANCH  15  16
ATOM     16  C   UNL     1     179.008 183.565 183.049  1.00  0.00    -0.000 C 
BRANCH  16  17
ATOM     17  C   UNL     1     177.881 183.065 182.128  1.00  0.00    -0.003 C 
ATOM     18  C   UNL     1     177.920 181.553 181.908  1.00  0.00     0.004 C 
ENDBRANCH  16  17
ENDBRANCH  15  16
ENDBRANCH  14  15
ENDBRANCH  13  14
ENDBRANCH  12  13
ENDBRANCH  11  12
ENDBRANCH   1  11
TORSDOF 14
ENDMDL
MODEL 3
REMARK VINA RESULT:    -4.519      3.199      5.463
REMARK INTER + INTRA:         -10.674
REMARK INTER:                  -8.410
REMARK INTRA:                  -2.263
REMARK UNBOUND:                -2.456
REMARK SMILES CCCCCCCCCCCCCCCC(=O)[O-]
REMARK SMILES IDX 9 1 10 2 11 3 12 4 13 5 14 6 15 7 16 8 17 9 18 10 8 11 7 12
REMARK SMILES IDX 6 13 5 14 4 15 3 16 2 17 1 18
REMARK H PARENT
REMARK Flexibility Score: inf
ROOT
ATOM      1  C   UNL     1     178.879 180.300 181.892  1.00  0.00     0.000 C 
ENDROOT
BRANCH   1   2
ATOM      2  C   UNL     1     180.069 180.329 180.919  1.00  0.00     0.000 C 
BRANCH   2   3
ATOM      3  C   UNL     1     180.924 179.054 180.994  1.00  0.00     0.000 C 
BRANCH   3   4
ATOM      4  C   UNL     1     182.245 179.274 181.753  1.00  0.00     0.000 C 
BRANCH   4   5
ATOM      5  C   UNL     1     182.227 180.547 182.615  1.00  0.00     0.000 C 
BRANCH   5   6
ATOM      6  C   UNL     1     183.638 181.093 182.897  1.00  0.00     0.006 C 
BRANCH   6   7
ATOM      7  C   UNL     1     184.663 180.606 181.866  1.00  0.00     0.053 C 
BRANCH   7   8
ATOM      8  C   UNL     1     186.009 181.228 182.082  1.00  0.00     0.041 C 
ATOM      9  O   UNL     1     186.375 182.207 181.381  1.00  0.00    -0.550 OA
ATOM     10  O   UNL     1     186.870 180.707 183.040  1.00  0.00    -0.550 OA
ENDBRANCH   7   8
ENDBRANCH   6   7
ENDBRANCH   5   6
ENDBRANCH   4   5
ENDBRANCH   3   4
ENDBRANCH   2   3
ENDBRANCH   1   2
BRANCH   1  11
ATOM     11  C   UNL     1     177.955 181.522 181.745  1.00  0.00     0.000 C 
BRANCH  11  12
ATOM     12  C   UNL     1     178.667 182.841 181.384  1.00  0.00    -0.000 C 
BRANCH  12  13
ATOM     13  C   UNL     1     179.435 183.508 182.544  1.00  0.00    -0.000 C 
BRANCH  13  14
ATOM     14  C   UNL     1     180.907 183.847 182.237  1.00  0.00    -0.000 C 
BRANCH  14  15
ATOM     15  C   UNL     1     181.280 183.828 180.741  1.00  0.00    -0.000 C 
BRANCH  15  16
ATOM     16  C   UNL     1     182.785 183.669 180.445  1.00  0.00    -0.000 C 
BRANCH  16  17
ATOM     17  C   UNL     1     183.123 182.661 179.332  1.00  0.00    -0.003 C 
ATOM     18  C   UNL     1     181.892 182.204 178.550  1.00  0.00     0.004 C 
ENDBRANCH  16  17
ENDBRANCH  15  16
ENDBRANCH  14  15
ENDBRANCH  13  14
ENDBRANCH  12  13
ENDBRANCH  11  12
ENDBRANCH   1  11
TORSDOF 14
ENDMDL
MODEL 4
REMARK VINA RESULT:    -4.508      2.925      4.953
REMARK INTER + INTRA:         -10.654
REMARK INTER:                  -8.383
REMARK INTRA:                  -2.271
REMARK UNBOUND:                -2.456
REMARK SMILES CCCCCCCCCCCCCCCC(=O)[O-]
REMARK SMILES IDX 9 1 10 2 11 3 12 4 13 5 14 6 15 7 16 8 17 9 18 10 8 11 7 12
REMARK SMILES IDX 6 13 5 14 4 15 3 16 2 17 1 18
REMARK H PARENT
REMARK Flexibility Score: inf
ROOT
ATOM      1  C   UNL     1     179.076 183.486 182.847  1.00  0.00     0.000 C 
ENDROOT
BRANCH   1   2
ATOM      2  C   UNL     1     180.604 183.613 182.729  1.00  0.00     0.000 C 
BRANCH   2   3
ATOM      3  C   UNL     1     181.063 183.918 181.295  1.00  0.00     0.000 C 
BRANCH   3   4
ATOM      4  C   UNL     1     182.138 185.017 181.241  1.00  0.00     0.000 C 
BRANCH   4   5
ATOM      5  C   UNL     1     183.505 184.486 180.779  1.00  0.00     0.000 C 
BRANCH   5   6
ATOM      6  C   UNL     1     184.091 183.438 181.743  1.00  0.00     0.006 C 
BRANCH   6   7
ATOM      7  C   UNL     1     184.776 182.286 180.996  1.00  0.00     0.053 C 
BRANCH   7   8
ATOM      8  C   UNL     1     185.238 181.212 181.933  1.00  0.00     0.041 C 
ATOM      9  O   UNL     1     184.412 180.620 182.676  1.00  0.00    -0.550 OA
ATOM     10  O   UNL     1     186.586 180.885 182.005  1.00  0.00    -0.550 OA
ENDBRANCH   7   8
ENDBRANCH   6   7
ENDBRANCH   5   6
ENDBRANCH   4   5
ENDBRANCH   3   4
ENDBRANCH   2   3
ENDBRANCH   1   2
BRANCH   1  11
ATOM     11  C   UNL     1     178.423 182.919 181.573  1.00  0.00     0.000 C 
BRANCH  11  12
ATOM     12  C   UNL     1     177.775 181.529 181.734  1.00  0.00    -0.000 C 
BRANCH  12  13
ATOM     13  C   UNL     1     178.717 180.424 182.253  1.00  0.00    -0.000 C 
BRANCH  13  14
ATOM     14  C   UNL     1     179.677 179.841 181.197  1.00  0.00    -0.000 C 
BRANCH  14  15
ATOM     15  C   UNL     1     181.159 180.219 181.387  1.00  0.00    -0.000 C 
BRANCH  15  16
ATOM     16  C   UNL     1     181.928 180.524 180.086  1.00  0.00    -0.000 C 
BRANCH  16  17
ATOM     17  C   UNL     1     181.124 181.298 179.025  1.00  0.00    -0.003 C 
ATOM     18  C   UNL     1     182.006 182.154 178.118  1.00  0.00     0.004 C 
ENDBRANCH  16  17
ENDBRANCH  15  16
ENDBRANCH  14  15
ENDBRANCH  13  14
ENDBRANCH  12  13
ENDBRANCH  11  12
ENDBRANCH   1  11
TORSDOF 14
ENDMDL
MODEL 5
REMARK VINA RESULT:    -4.502      0.767      3.101
REMARK INTER + INTRA:         -10.642
REMARK INTER:                  -8.642
REMARK INTRA:                  -2.000
REMARK UNBOUND:                -2.456
REMARK SMILES CCCCCCCCCCCCCCCC(=O)[O-]
REMARK SMILES IDX 9 1 10 2 11 3 12 4 13 5 14 6 15 7 16 8 17 9 18 10 8 11 7 12
REMARK SMILES IDX 6 13 5 14 4 15 3 16 2 17 1 18
REMARK H PARENT
REMARK Flexibility Score: inf
ROOT
ATOM      1  C   UNL     1     185.010 183.517 181.854  1.00  0.00     0.000 C 
ENDROOT
BRANCH   1   2
ATOM      2  C   UNL     1     183.822 183.581 180.879  1.00  0.00     0.000 C 
BRANCH   2   3
ATOM      3  C   UNL     1     183.081 184.927 180.939  1.00  0.00     0.000 C 
BRANCH   3   4
ATOM      4  C   UNL     1     181.555 184.755 181.029  1.00  0.00     0.000 C 
BRANCH   4   5
ATOM      5  C   UNL     1     181.100 184.198 182.387  1.00  0.00     0.000 C 
BRANCH   5   6
ATOM      6  C   UNL     1     180.356 182.857 182.261  1.00  0.00     0.006 C 
BRANCH   6   7
ATOM      7  C   UNL     1     179.134 182.958 181.339  1.00  0.00     0.053 C 
BRANCH   7   8
ATOM      8  C   UNL     1     177.888 182.465 182.009  1.00  0.00     0.041 C 
ATOM      9  O   UNL     1     177.331 183.158 182.901  1.00  0.00    -0.550 OA
ATOM     10  O   UNL     1     177.358 181.227 181.668  1.00  0.00    -0.550 OA
ENDBRANCH   7   8
ENDBRANCH   6   7
ENDBRANCH   5   6
ENDBRANCH   4   5
ENDBRANCH   3   4
ENDBRANCH   2   3
ENDBRANCH   1   2
BRANCH   1  11
ATOM     11  C   UNL     1     185.923 182.303 181.606  1.00  0.00     0.000 C 
BRANCH  11  12
ATOM     12  C   UNL     1     185.195 180.948 181.502  1.00  0.00    -0.000 C 
BRANCH  12  13
ATOM     13  C   UNL     1     184.500 180.477 182.795  1.00  0.00    -0.000 C 
BRANCH  13  14
ATOM     14  C   UNL     1     182.962 180.403 182.716  1.00  0.00    -0.000 C 
BRANCH  14  15
ATOM     15  C   UNL     1     182.413 179.329 181.756  1.00  0.00    -0.000 C 
BRANCH  15  16
ATOM     16  C   UNL     1     181.427 179.848 180.690  1.00  0.00    -0.000 C 
BRANCH  16  17
ATOM     17  C   UNL     1     182.037 180.820 179.663  1.00  0.00    -0.003 C 
ATOM     18  C   UNL     1     180.990 181.452 178.748  1.00  0.00     0.004 C 
ENDBRANCH  16  17
ENDBRANCH  15  16
ENDBRANCH  14  15
ENDBRANCH  13  14
ENDBRANCH  12  13
ENDBRANCH  11  12
ENDBRANCH   1  11
TORSDOF 14
ENDMDL
MODEL 6
REMARK VINA RESULT:    -4.498      3.039      5.826
REMARK INTER + INTRA:         -10.636
REMARK INTER:                  -8.024
REMARK INTRA:                  -2.612
REMARK UNBOUND:                -2.456
REMARK SMILES CCCCCCCCCCCCCCCC(=O)[O-]
REMARK SMILES IDX 9 1 10 2 11 3 12 4 13 5 14 6 15 7 16 8 17 9 18 10 8 11 7 12
REMARK SMILES IDX 6 13 5 14 4 15 3 16 2 17 1 18
REMARK H PARENT
REMARK Flexibility Score: inf
ROOT
ATOM      1  C   UNL     1     181.623 182.378 178.569  1.00  0.00     0.000 C 
ENDROOT
BRANCH   1   2
ATOM      2  C   UNL     1     180.839 181.146 179.051  1.00  0.00     0.000 C 
BRANCH   2   3
ATOM      3  C   UNL     1     181.681 180.224 179.948  1.00  0.00     0.000 C 
BRANCH   3   4
ATOM      4  C   UNL     1     181.121 180.120 181.377  1.00  0.00     0.000 C 
BRANCH   4   5
ATOM      5  C   UNL     1     182.143 180.541 182.445  1.00  0.00     0.000 C 
BRANCH   5   6
ATOM      6  C   UNL     1     183.591 180.200 182.049  1.00  0.00     0.006 C 
BRANCH   6   7
ATOM      7  C   UNL     1     184.612 181.087 182.772  1.00  0.00     0.053 C 
BRANCH   7   8
ATOM      8  C   UNL     1     185.635 181.641 181.829  1.00  0.00     0.041 C 
ATOM      9  O   UNL     1     186.112 180.919 180.914  1.00  0.00    -0.550 OA
ATOM     10  O   UNL     1     186.082 182.948 181.978  1.00  0.00    -0.550 OA
ENDBRANCH   7   8
ENDBRANCH   6   7
ENDBRANCH   5   6
ENDBRANCH   4   5
ENDBRANCH   3   4
ENDBRANCH   2   3
ENDBRANCH   1   2
BRANCH   1  11
ATOM     11  C   UNL     1     182.965 182.557 179.300  1.00  0.00     0.000 C 
BRANCH  11  12
ATOM     12  C   UNL     1     183.005 183.713 180.321  1.00  0.00    -0.000 C 
BRANCH  12  13
ATOM     13  C   UNL     1     181.627 184.252 180.752  1.00  0.00    -0.000 C 
BRANCH  13  14
ATOM     14  C   UNL     1     181.323 184.125 182.258  1.00  0.00    -0.000 C 
BRANCH  14  15
ATOM     15  C   UNL     1     179.939 183.535 182.594  1.00  0.00    -0.000 C 
BRANCH  15  16
ATOM     16  C   UNL     1     179.094 183.115 181.375  1.00  0.00    -0.000 C 
BRANCH  16  17
ATOM     17  C   UNL     1     177.681 182.605 181.710  1.00  0.00    -0.003 C 
ATOM     18  C   UNL     1     177.625 181.090 181.902  1.00  0.00     0.004 C 
ENDBRANCH  16  17
ENDBRANCH  15  16
ENDBRANCH  14  15
ENDBRANCH  13  14
ENDBRANCH  12  13
ENDBRANCH  11  12
ENDBRANCH   1  11
TORSDOF 14
ENDMDL
MODEL 7
REMARK VINA RESULT:    -4.475      2.941      5.680
REMARK INTER + INTRA:         -10.594
REMARK INTER:                  -7.906
REMARK INTRA:                  -2.688
REMARK UNBOUND:                -2.456
REMARK SMILES CCCCCCCCCCCCCCCC(=O)[O-]
REMARK SMILES IDX 9 1 10 2 11 3 12 4 13 5 14 6 15 7 16 8 17 9 18 10 8 11 7 12
REMARK SMILES IDX 6 13 5 14 4 15 3 16 2 17 1 18
REMARK H PARENT
REMARK Flexibility Score: inf
ROOT
ATOM      1  C   UNL     1     181.261 184.381 181.728  1.00  0.00     0.000 C 
ENDROOT
BRANCH   1   2
ATOM      2  C   UNL     1     181.155 183.488 182.976  1.00  0.00     0.000 C 
BRANCH   2   3
ATOM      3  C   UNL     1     182.478 182.781 183.310  1.00  0.00     0.000 C 
BRANCH   3   4
ATOM      4  C   UNL     1     182.264 181.459 184.068  1.00  0.00     0.000 C 
BRANCH   4   5
ATOM      5  C   UNL     1     183.473 180.514 183.961  1.00  0.00     0.000 C 
BRANCH   5   6
ATOM      6  C   UNL     1     183.958 180.331 182.512  1.00  0.00     0.006 C 
BRANCH   6   7
ATOM      7  C   UNL     1     185.415 180.776 182.330  1.00  0.00     0.053 C 
BRANCH   7   8
ATOM      8  C   UNL     1     185.530 181.929 181.380  1.00  0.00     0.041 C 
ATOM      9  O   UNL     1     185.471 181.736 180.138  1.00  0.00    -0.550 OA
ATOM     10  O   UNL     1     185.731 183.214 181.868  1.00  0.00    -0.550 OA
ENDBRANCH   7   8
ENDBRANCH   6   7
ENDBRANCH   5   6
ENDBRANCH   4   5
ENDBRANCH   3   4
ENDBRANCH   2   3
ENDBRANCH   1   2
BRANCH   1  11
ATOM     11  C   UNL     1     182.389 183.946 180.775  1.00  0.00     0.000 C 
BRANCH  11  12
ATOM     12  C   UNL     1     181.939 183.089 179.575  1.00  0.00    -0.000 C 
BRANCH  12  13
ATOM     13  C   UNL     1     182.091 181.567 179.766  1.00  0.00    -0.000 C 
BRANCH  13  14
ATOM     14  C   UNL     1     180.763 180.787 179.849  1.00  0.00    -0.000 C 
BRANCH  14  15
ATOM     15  C   UNL     1     180.403 180.268 181.255  1.00  0.00    -0.000 C 
BRANCH  15  16
ATOM     16  C   UNL     1     179.032 180.728 181.790  1.00  0.00    -0.000 C 
BRANCH  16  17
ATOM     17  C   UNL     1     178.426 181.941 181.061  1.00  0.00    -0.003 C 
ATOM     18  C   UNL     1     177.710 182.906 182.005  1.00  0.00     0.004 C 
ENDBRANCH  16  17
ENDBRANCH  15  16
ENDBRANCH  14  15
ENDBRANCH  13  14
ENDBRANCH  12  13
ENDBRANCH  11  12
ENDBRANCH   1  11
TORSDOF 14
ENDMDL
MODEL 8
REMARK VINA RESULT:    -4.435      1.191      4.020
REMARK INTER + INTRA:         -10.520
REMARK INTER:                  -8.454
REMARK INTRA:                  -2.066
REMARK UNBOUND:                -2.456
REMARK SMILES CCCCCCCCCCCCCCCC(=O)[O-]
REMARK SMILES IDX 9 1 10 2 11 3 12 4 13 5 14 6 15 7 16 8 17 9 18 10 8 11 7 12
REMARK SMILES IDX 6 13 5 14 4 15 3 16 2 17 1 18
REMARK H PARENT
REMARK Flexibility Score: inf
ROOT
ATOM      1  C   UNL     1     184.271 180.401 182.335  1.00  0.00     0.000 C 
ENDROOT
BRANCH   1   2
ATOM      2  C   UNL     1     182.736 180.469 182.257  1.00  0.00     0.000 C 
BRANCH   2   3
ATOM      3  C   UNL     1     182.141 179.373 181.359  1.00  0.00     0.000 C 
BRANCH   3   4
ATOM      4  C   UNL     1     180.643 179.587 181.081  1.00  0.00     0.000 C 
BRANCH   4   5
ATOM      5  C   UNL     1     180.076 180.817 181.808  1.00  0.00     0.000 C 
BRANCH   5   6
ATOM      6  C   UNL     1     178.537 180.827 181.846  1.00  0.00     0.006 C 
BRANCH   6   7
ATOM      7  C   UNL     1     177.960 182.208 181.510  1.00  0.00     0.053 C 
BRANCH   7   8
ATOM      8  C   UNL     1     178.129 183.173 182.644  1.00  0.00     0.041 C 
ATOM      9  O   UNL     1     177.134 183.531 183.326  1.00  0.00    -0.550 OA
ATOM     10  O   UNL     1     179.384 183.698 182.929  1.00  0.00    -0.550 OA
ENDBRANCH   7   8
ENDBRANCH   6   7
ENDBRANCH   5   6
ENDBRANCH   4   5
ENDBRANCH   3   4
ENDBRANCH   2   3
ENDBRANCH   1   2
BRANCH   1  11
ATOM     11  C   UNL     1     184.961 181.013 181.104  1.00  0.00     0.000 C 
BRANCH  11  12
ATOM     12  C   UNL     1     185.685 182.351 181.357  1.00  0.00    -0.000 C 
BRANCH  12  13
ATOM     13  C   UNL     1     184.806 183.466 181.957  1.00  0.00    -0.000 C 
BRANCH  13  14
ATOM     14  C   UNL     1     183.928 184.221 180.939  1.00  0.00    -0.000 C 
BRANCH  14  15
ATOM     15  C   UNL     1     182.410 184.113 181.184  1.00  0.00    -0.000 C 
BRANCH  15  16
ATOM     16  C   UNL     1     181.632 183.311 180.122  1.00  0.00    -0.000 C 
BRANCH  16  17
ATOM     17  C   UNL     1     182.504 182.664 179.032  1.00  0.00    -0.003 C 
ATOM     18  C   UNL     1     181.750 181.621 178.208  1.00  0.00     0.004 C 
ENDBRANCH  16  17
ENDBRANCH  15  16
ENDBRANCH  14  15
ENDBRANCH  13  14
ENDBRANCH  12  13
ENDBRANCH  11  12
ENDBRANCH   1  11
TORSDOF 14
ENDMDL
MODEL 9
REMARK VINA RESULT:    -4.426      1.223      2.200
REMARK INTER + INTRA:         -10.505
REMARK INTER:                  -8.312
REMARK INTRA:                  -2.192
REMARK UNBOUND:                -2.456
REMARK SMILES CCCCCCCCCCCCCCCC(=O)[O-]
REMARK SMILES IDX 9 1 10 2 11 3 12 4 13 5 14 6 15 7 16 8 17 9 18 10 8 11 7 12
REMARK SMILES IDX 6 13 5 14 4 15 3 16 2 17 1 18
REMARK H PARENT
REMARK Flexibility Score: inf
ROOT
ATOM      1  C   UNL     1     183.194 183.092 179.601  1.00  0.00     0.000 C 
ENDROOT
BRANCH   1   2
ATOM      2  C   UNL     1     182.813 184.172 180.628  1.00  0.00     0.000 C 
BRANCH   2   3
ATOM      3  C   UNL     1     181.318 184.147 180.985  1.00  0.00     0.000 C 
BRANCH   3   4
ATOM      4  C   UNL     1     181.071 183.801 182.464  1.00  0.00     0.000 C 
BRANCH   4   5
ATOM      5  C   UNL     1     179.601 183.457 182.753  1.00  0.00     0.000 C 
BRANCH   5   6
ATOM      6  C   UNL     1     178.894 182.810 181.548  1.00  0.00     0.006 C 
BRANCH   6   7
ATOM      7  C   UNL     1     177.590 182.109 181.952  1.00  0.00     0.053 C 
BRANCH   7   8
ATOM      8  C   UNL     1     177.782 180.632 182.118  1.00  0.00     0.041 C 
ATOM      9  O   UNL     1     178.940 180.150 182.219  1.00  0.00    -0.550 OA
ATOM     10  O   UNL     1     176.680 179.786 182.134  1.00  0.00    -0.550 OA
ENDBRANCH   7   8
ENDBRANCH   6   7
ENDBRANCH   5   6
ENDBRANCH   4   5
ENDBRANCH   3   4
ENDBRANCH   2   3
ENDBRANCH   1   2
BRANCH   1  11
ATOM     11  C   UNL     1     182.037 182.737 178.650  1.00  0.00     0.000 C 
BRANCH  11  12
ATOM     12  C   UNL     1     181.677 181.239 178.588  1.00  0.00    -0.000 C 
BRANCH  12  13
ATOM     13  C   UNL     1     181.298 180.601 179.940  1.00  0.00    -0.000 C 
BRANCH  13  14
ATOM     14  C   UNL     1     182.468 179.946 180.699  1.00  0.00    -0.000 C 
BRANCH  14  15
ATOM     15  C   UNL     1     182.517 180.254 182.209  1.00  0.00    -0.000 C 
BRANCH  15  16
ATOM     16  C   UNL     1     183.788 180.985 182.686  1.00  0.00    -0.000 C 
BRANCH  16  17
ATOM     17  C   UNL     1     185.033 180.756 181.811  1.00  0.00    -0.003 C 
ATOM     18  C   UNL     1     185.923 181.993 181.707  1.00  0.00     0.004 C 
ENDBRANCH  16  17
ENDBRANCH  15  16
ENDBRANCH  14  15
ENDBRANCH  13  14
ENDBRANCH  12  13
ENDBRANCH  11  12
ENDBRANCH   1  11
TORSDOF 14
ENDMDL
