MODEL 1
REMARK VINA RESULT:    -3.271      0.000      0.000
REMARK INTER + INTRA:          -4.399
REMARK INTER:                  -4.227
REMARK INTRA:                  -0.172
REMARK UNBOUND:                -0.172
REMARK SMILES CCCCCCC(=O)[O-]
REMARK SMILES IDX 5 1 6 2 7 3 8 4 9 5 4 6 3 7 2 8 1 9
REMARK H PARENT
REMARK Flexibility Score: inf
ROOT
ATOM      1  C   UNL     1      -4.259  17.194  22.558  1.00  0.00     0.006 C 
ENDROOT
BRANCH   1   2
ATOM      2  C   UNL     1      -2.989  16.353  22.762  1.00  0.00     0.053 C 
BRANCH   2   3
ATOM      3  C   UNL     1      -2.064  16.442  21.589  1.00  0.00     0.041 C 
ATOM      4  O   UNL     1      -1.664  17.564  21.181  1.00  0.00    -0.550 OA
ATOM      5  O   UNL     1      -1.668  15.288  20.923  1.00  0.00    -0.550 OA
ENDBRANCH   2   3
ENDBRANCH   1   2
BRANCH   1   6
ATOM      6  C   UNL     1      -5.567  16.376  22.540  1.00  0.00     0.000 C 
BRANCH   6   7
ATOM      7  C   UNL     1      -5.606  15.225  21.515  1.00  0.00    -0.000 C 
BRANCH   7   8
ATOM      8  C   UNL     1      -6.963  14.508  21.395  1.00  0.00    -0.003 C 
ATOM      9  C   UNL     1      -8.141  15.390  21.805  1.00  0.00     0.004 C 
ENDBRANCH   7   8
ENDBRANCH   6   7
ENDBRANCH   1   6
TORSDOF 5
ENDMDL
MODEL 2
REMARK VINA RESULT:    -3.270      0.577      1.234
REMARK INTER + INTRA:          -4.398
REMARK INTER:                  -4.181
REMARK INTRA:                  -0.217
REMARK UNBOUND:                -0.172
REMARK SMILES CCCCCCC(=O)[O-]
REMARK SMILES IDX 5 1 6 2 7 3 8 4 9 5 4 6 3 7 2 8 1 9
REMARK H PARENT
REMARK Flexibility Score: inf
ROOT
ATOM      1  C   UNL     1      -3.947  16.006  23.125  1.00  0.00     0.006 C 
ENDROOT
BRANCH   1   2
ATOM      2  C   UNL     1      -2.690  16.887  23.051  1.00  0.00     0.053 C 
BRANCH   2   3
ATOM      3  C   UNL     1      -2.010  16.781  21.721  1.00  0.00     0.041 C 
ATOM      4  O   UNL     1      -1.765  15.650  21.224  1.00  0.00    -0.550 OA
ATOM      5  O   UNL     1      -1.615  17.929  21.046  1.00  0.00    -0.550 OA
ENDBRANCH   2   3
ENDBRANCH   1   2
BRANCH   1   6
ATOM      6  C   UNL     1      -5.081  16.433  22.171  1.00  0.00     0.000 C 
BRANCH   6   7
ATOM      7  C   UNL     1      -5.525  15.358  21.158  1.00  0.00    -0.000 C 
BRANCH   7   8
ATOM      8  C   UNL     1      -6.790  14.575  21.555  1.00  0.00    -0.003 C 
ATOM      9  C   UNL     1      -8.014  15.473  21.734  1.00  0.00     0.004 C 
ENDBRANCH   7   8
ENDBRANCH   6   7
ENDBRANCH   1   6
TORSDOF 5
ENDMDL
MODEL 3
REMARK VINA RESULT:    -3.268      0.994      1.359
REMARK INTER + INTRA:          -4.395
REMARK INTER:                  -4.194
REMARK INTRA:                  -0.201
REMARK UNBOUND:                -0.172
REMARK SMILES CCCCCCC(=O)[O-]
REMARK SMILES IDX 5 1 6 2 7 3 8 4 9 5 4 6 3 7 2 8 1 9
REMARK H PARENT
REMARK Flexibility Score: inf
ROOT
ATOM      1  C   UNL     1      -4.699  15.844  22.502  1.00  0.00     0.006 C 
ENDROOT
BRANCH   1   2
ATOM      2  C   UNL     1      -3.697  16.973  22.207  1.00  0.00     0.053 C 
BRANCH   2   3
ATOM      3  C   UNL     1      -2.289  16.469  22.143  1.00  0.00     0.041 C 
ATOM      4  O   UNL     1      -1.458  16.796  23.031  1.00  0.00    -0.550 OA
ATOM      5  O   UNL     1      -1.884  15.664  21.085  1.00  0.00    -0.550 OA
ENDBRANCH   2   3
ENDBRANCH   1   2
BRANCH   1   6
ATOM      6  C   UNL     1      -5.454  15.324  21.262  1.00  0.00     0.000 C 
BRANCH   6   7
ATOM      7  C   UNL     1      -6.715  14.490  21.565  1.00  0.00    -0.000 C 
BRANCH   7   8
ATOM      8  C   UNL     1      -8.031  15.288  21.588  1.00  0.00    -0.003 C 
ATOM      9  C   UNL     1      -7.928  16.627  20.858  1.00  0.00     0.004 C 
ENDBRANCH   7   8
ENDBRANCH   6   7
ENDBRANCH   1   6
TORSDOF 5
ENDMDL
MODEL 4
REMARK VINA RESULT:    -3.226     13.799     15.559
REMARK INTER + INTRA:          -4.341
REMARK INTER:                  -4.250
REMARK INTRA:                  -0.091
REMARK UNBOUND:                -0.172
REMARK SMILES CCCCCCC(=O)[O-]
REMARK SMILES IDX 5 1 6 2 7 3 8 4 9 5 4 6 3 7 2 8 1 9
REMARK H PARENT
REMARK Flexibility Score: inf
ROOT
ATOM      1  C   UNL     1      10.710  13.491  19.345  1.00  0.00     0.006 C 
ENDROOT
BRANCH   1   2
ATOM      2  C   UNL     1      10.917  12.704  18.041  1.00  0.00     0.053 C 
BRANCH   2   3
ATOM      3  C   UNL     1      10.412  11.299  18.149  1.00  0.00     0.041 C 
ATOM      4  O   UNL     1       9.492  10.896  17.389  1.00  0.00    -0.550 OA
ATOM      5  O   UNL     1      10.933  10.443  19.111  1.00  0.00    -0.550 OA
ENDBRANCH   2   3
ENDBRANCH   1   2
BRANCH   1   6
ATOM      6  C   UNL     1      10.971  15.006  19.222  1.00  0.00     0.000 C 
BRANCH   6   7
ATOM      7  C   UNL     1      10.752  15.816  20.516  1.00  0.00    -0.000 C 
BRANCH   7   8
ATOM      8  C   UNL     1      10.048  17.171  20.322  1.00  0.00    -0.003 C 
ATOM      9  C   UNL     1       8.646  17.207  20.930  1.00  0.00     0.004 C 
ENDBRANCH   7   8
ENDBRANCH   6   7
ENDBRANCH   1   6
TORSDOF 5
ENDMDL
MODEL 5
REMARK VINA RESULT:    -3.215     10.399     13.204
REMARK INTER + INTRA:          -4.326
REMARK INTER:                  -4.119
REMARK INTRA:                  -0.207
REMARK UNBOUND:                -0.172
REMARK SMILES CCCCCCC(=O)[O-]
REMARK SMILES IDX 5 1 6 2 7 3 8 4 9 5 4 6 3 7 2 8 1 9
REMARK H PARENT
REMARK Flexibility Score: inf
ROOT
ATOM      1  C   UNL     1       8.378  16.192  22.039  1.00  0.00     0.006 C 
ENDROOT
BRANCH   1   2
ATOM      2  C   UNL     1       7.038  16.192  22.793  1.00  0.00     0.053 C 
BRANCH   2   3
ATOM      3  C   UNL     1       5.926  15.635  21.959  1.00  0.00     0.041 C 
ATOM      4  O   UNL     1       5.932  14.421  21.626  1.00  0.00    -0.550 OA
ATOM      5  O   UNL     1       4.900  16.463  21.521  1.00  0.00    -0.550 OA
ENDBRANCH   2   3
ENDBRANCH   1   2
BRANCH   1   6
ATOM      6  C   UNL     1       8.527  17.327  21.006  1.00  0.00     0.000 C 
BRANCH   6   7
ATOM      7  C   UNL     1       9.790  17.249  20.125  1.00  0.00    -0.000 C 
BRANCH   7   8
ATOM      8  C   UNL     1      10.769  16.120  20.491  1.00  0.00    -0.003 C 
ATOM      9  C   UNL     1      10.873  15.046  19.408  1.00  0.00     0.004 C 
ENDBRANCH   7   8
ENDBRANCH   6   7
ENDBRANCH   1   6
TORSDOF 5
ENDMDL
MODEL 6
REMARK VINA RESULT:    -3.169      9.508     12.451
REMARK INTER + INTRA:          -4.267
REMARK INTER:                  -4.093
REMARK INTRA:                  -0.174
REMARK UNBOUND:                -0.172
REMARK SMILES CCCCCCC(=O)[O-]
REMARK SMILES IDX 5 1 6 2 7 3 8 4 9 5 4 6 3 7 2 8 1 9
REMARK H PARENT
REMARK Flexibility Score: inf
ROOT
ATOM      1  C   UNL     1       7.177  16.347  22.885  1.00  0.00     0.006 C 
ENDROOT
BRANCH   1   2
ATOM      2  C   UNL     1       6.057  15.309  22.711  1.00  0.00     0.053 C 
BRANCH   2   3
ATOM      3  C   UNL     1       4.848  15.895  22.051  1.00  0.00     0.041 C 
ATOM      4  O   UNL     1       3.695  15.585  22.450  1.00  0.00    -0.550 OA
ATOM      5  O   UNL     1       4.992  16.759  20.972  1.00  0.00    -0.550 OA
ENDBRANCH   2   3
ENDBRANCH   1   2
BRANCH   1   6
ATOM      6  C   UNL     1       8.356  16.182  21.905  1.00  0.00     0.000 C 
BRANCH   6   7
ATOM      7  C   UNL     1       8.558  17.352  20.920  1.00  0.00    -0.000 C 
BRANCH   7   8
ATOM      8  C   UNL     1       9.971  17.456  20.316  1.00  0.00    -0.003 C 
ATOM      9  C   UNL     1      10.615  16.092  20.071  1.00  0.00     0.004 C 
ENDBRANCH   7   8
ENDBRANCH   6   7
ENDBRANCH   1   6
TORSDOF 5
ENDMDL
MODEL 7
REMARK VINA RESULT:    -3.126      3.377      5.150
REMARK INTER + INTRA:          -4.212
REMARK INTER:                  -4.036
REMARK INTRA:                  -0.175
REMARK UNBOUND:                -0.172
REMARK SMILES CCCCCCC(=O)[O-]
REMARK SMILES IDX 5 1 6 2 7 3 8 4 9 5 4 6 3 7 2 8 1 9
REMARK H PARENT
REMARK Flexibility Score: inf
ROOT
ATOM      1  C   UNL     1      -5.594  15.277  21.223  1.00  0.00     0.006 C 
ENDROOT
BRANCH   1   2
ATOM      2  C   UNL     1      -6.930  14.571  21.502  1.00  0.00     0.053 C 
BRANCH   2   3
ATOM      3  C   UNL     1      -8.072  15.537  21.561  1.00  0.00     0.041 C 
ATOM      4  O   UNL     1      -8.125  16.505  20.757  1.00  0.00    -0.550 OA
ATOM      5  O   UNL     1      -9.061  15.390  22.526  1.00  0.00    -0.550 OA
ENDBRANCH   2   3
ENDBRANCH   1   2
BRANCH   1   6
ATOM      6  C   UNL     1      -4.952  15.938  22.460  1.00  0.00     0.000 C 
BRANCH   6   7
ATOM      7  C   UNL     1      -3.817  16.936  22.155  1.00  0.00    -0.000 C 
BRANCH   7   8
ATOM      8  C   UNL     1      -2.397  16.412  22.439  1.00  0.00    -0.003 C 
ATOM      9  C   UNL     1      -1.750  15.755  21.220  1.00  0.00     0.004 C 
ENDBRANCH   7   8
ENDBRANCH   6   7
ENDBRANCH   1   6
TORSDOF 5
ENDMDL
MODEL 8
REMARK VINA RESULT:    -3.110      1.758      2.805
REMARK INTER + INTRA:          -4.191
REMARK INTER:                  -3.831
REMARK INTRA:                  -0.360
REMARK UNBOUND:                -0.172
REMARK SMILES CCCCCCC(=O)[O-]
REMARK SMILES IDX 5 1 6 2 7 3 8 4 9 5 4 6 3 7 2 8 1 9
REMARK H PARENT
REMARK Flexibility Score: inf
ROOT
ATOM      1  C   UNL     1      -5.597  15.139  21.291  1.00  0.00     0.006 C 
ENDROOT
BRANCH   1   2
ATOM      2  C   UNL     1      -5.126  15.945  22.512  1.00  0.00     0.053 C 
BRANCH   2   3
ATOM      3  C   UNL     1      -4.633  17.305  22.129  1.00  0.00     0.041 C 
ATOM      4  O   UNL     1      -5.447  18.254  21.974  1.00  0.00    -0.550 OA
ATOM      5  O   UNL     1      -3.278  17.519  21.908  1.00  0.00    -0.550 OA
ENDBRANCH   2   3
ENDBRANCH   1   2
BRANCH   1   6
ATOM      6  C   UNL     1      -7.113  14.857  21.261  1.00  0.00     0.000 C 
BRANCH   6   7
ATOM      7  C   UNL     1      -7.947  15.643  22.292  1.00  0.00    -0.000 C 
BRANCH   7   8
ATOM      8  C   UNL     1      -8.787  16.793  21.707  1.00  0.00    -0.003 C 
ATOM      9  C   UNL     1      -8.331  17.213  20.311  1.00  0.00     0.004 C 
ENDBRANCH   7   8
ENDBRANCH   6   7
ENDBRANCH   1   6
TORSDOF 5
ENDMDL
MODEL 9
REMARK VINA RESULT:    -3.070     12.338     14.519
REMARK INTER + INTRA:          -4.139
REMARK INTER:                  -3.988
REMARK INTRA:                  -0.151
REMARK UNBOUND:                -0.172
REMARK SMILES CCCCCCC(=O)[O-]
REMARK SMILES IDX 5 1 6 2 7 3 8 4 9 5 4 6 3 7 2 8 1 9
REMARK H PARENT
REMARK Flexibility Score: inf
ROOT
ATOM      1  C   UNL     1      10.227  15.167  20.170  1.00  0.00     0.006 C 
ENDROOT
BRANCH   1   2
ATOM      2  C   UNL     1      11.038  14.573  19.008  1.00  0.00     0.053 C 
BRANCH   2   3
ATOM      3  C   UNL     1      10.853  13.092  18.894  1.00  0.00     0.041 C 
ATOM      4  O   UNL     1      10.609  12.567  17.776  1.00  0.00    -0.550 OA
ATOM      5  O   UNL     1      10.915  12.292  20.029  1.00  0.00    -0.550 OA
ENDBRANCH   2   3
ENDBRANCH   1   2
BRANCH   1   6
ATOM      6  C   UNL     1      10.123  16.705  20.153  1.00  0.00     0.000 C 
BRANCH   6   7
ATOM      7  C   UNL     1       8.850  17.284  20.804  1.00  0.00    -0.000 C 
BRANCH   7   8
ATOM      8  C   UNL     1       8.241  16.417  21.921  1.00  0.00    -0.003 C 
ATOM      9  C   UNL     1       6.743  16.178  21.739  1.00  0.00     0.004 C 
ENDBRANCH   7   8
ENDBRANCH   6   7
ENDBRANCH   1   6
TORSDOF 5
ENDMDL
