MODEL 1
REMARK VINA RESULT:    -3.441      0.000      0.000
REMARK INTER + INTRA:          -4.064
REMARK INTER:                  -4.044
REMARK INTRA:                  -0.020
REMARK UNBOUND:                -0.020
REMARK SMILES CCCCC(=O)[O-]
REMARK SMILES IDX 4 1 5 2 6 3 7 4 3 5 2 6 1 7
REMARK H PARENT
REMARK Flexibility Score: inf
ROOT
ATOM      1  C   UNL     1      40.583  50.412  13.398  1.00  0.00     0.053 C 
ENDROOT
BRANCH   1   2
ATOM      2  C   UNL     1      39.843  51.271  14.374  1.00  0.00     0.041 C 
ATOM      3  O   UNL     1      38.816  51.904  14.012  1.00  0.00    -0.550 OA
ATOM      4  O   UNL     1      40.258  51.332  15.699  1.00  0.00    -0.550 OA
ENDBRANCH   1   2
BRANCH   1   5
ATOM      5  C   UNL     1      42.017  50.169  13.876  1.00  0.00     0.006 C 
BRANCH   5   6
ATOM      6  C   UNL     1      42.723  49.135  12.992  1.00  0.00    -0.003 C 
ATOM      7  C   UNL     1      43.733  49.803  12.063  1.00  0.00     0.004 C 
ENDBRANCH   5   6
ENDBRANCH   1   5
TORSDOF 3
ENDMDL
MODEL 2
REMARK VINA RESULT:    -3.368     13.237     13.771
REMARK INTER + INTRA:          -3.979
REMARK INTER:                  -3.943
REMARK INTRA:                  -0.036
REMARK UNBOUND:                -0.020
REMARK SMILES CCCCC(=O)[O-]
REMARK SMILES IDX 4 1 5 2 6 3 7 4 3 5 2 6 1 7
REMARK H PARENT
REMARK Flexibility Score: inf
ROOT
ATOM      1  C   UNL     1      48.956  41.454  19.632  1.00  0.00     0.053 C 
ENDROOT
BRANCH   1   2
ATOM      2  C   UNL     1      49.461  42.024  20.920  1.00  0.00     0.041 C 
ATOM      3  O   UNL     1      49.749  41.263  21.881  1.00  0.00    -0.550 OA
ATOM      4  O   UNL     1      49.662  43.393  21.042  1.00  0.00    -0.550 OA
ENDBRANCH   1   2
BRANCH   1   5
ATOM      5  C   UNL     1      47.590  40.793  19.837  1.00  0.00     0.006 C 
BRANCH   5   6
ATOM      6  C   UNL     1      47.144  40.051  18.571  1.00  0.00    -0.003 C 
ATOM      7  C   UNL     1      48.338  39.700  17.688  1.00  0.00     0.004 C 
ENDBRANCH   5   6
ENDBRANCH   1   5
TORSDOF 3
ENDMDL
MODEL 3
REMARK VINA RESULT:    -3.366      2.935      3.862
REMARK INTER + INTRA:          -3.976
REMARK INTER:                  -3.920
REMARK INTRA:                  -0.056
REMARK UNBOUND:                -0.020
REMARK SMILES CCCCC(=O)[O-]
REMARK SMILES IDX 4 1 5 2 6 3 7 4 3 5 2 6 1 7
REMARK H PARENT
REMARK Flexibility Score: inf
ROOT
ATOM      1  C   UNL     1      40.908  50.153  12.440  1.00  0.00     0.053 C 
ENDROOT
BRANCH   1   2
ATOM      2  C   UNL     1      41.330  48.718  12.463  1.00  0.00     0.041 C 
ATOM      3  O   UNL     1      40.499  47.808  12.208  1.00  0.00    -0.550 OA
ATOM      4  O   UNL     1      42.656  48.388  12.718  1.00  0.00    -0.550 OA
ENDBRANCH   1   2
BRANCH   1   5
ATOM      5  C   UNL     1      39.535  50.320  13.097  1.00  0.00     0.006 C 
BRANCH   5   6
ATOM      6  C   UNL     1      39.537  51.494  14.082  1.00  0.00    -0.003 C 
ATOM      7  C   UNL     1      40.667  51.360  15.099  1.00  0.00     0.004 C 
ENDBRANCH   5   6
ENDBRANCH   1   5
TORSDOF 3
ENDMDL
MODEL 4
REMARK VINA RESULT:    -3.346      2.930      4.081
REMARK INTER + INTRA:          -3.953
REMARK INTER:                  -3.907
REMARK INTRA:                  -0.046
REMARK UNBOUND:                -0.020
REMARK SMILES CCCCC(=O)[O-]
REMARK SMILES IDX 4 1 5 2 6 3 7 4 3 5 2 6 1 7
REMARK H PARENT
REMARK Flexibility Score: inf
ROOT
ATOM      1  C   UNL     1      41.680  49.834  13.191  1.00  0.00     0.053 C 
ENDROOT
BRANCH   1   2
ATOM      2  C   UNL     1      42.952  49.494  12.480  1.00  0.00     0.041 C 
ATOM      3  O   UNL     1      43.877  50.344  12.395  1.00  0.00    -0.550 OA
ATOM      4  O   UNL     1      43.135  48.221  11.955  1.00  0.00    -0.550 OA
ENDBRANCH   1   2
BRANCH   1   5
ATOM      5  C   UNL     1      41.978  50.525  14.525  1.00  0.00     0.006 C 
BRANCH   5   6
ATOM      6  C   UNL     1      40.755  51.300  15.028  1.00  0.00    -0.003 C 
ATOM      7  C   UNL     1      39.640  51.307  13.986  1.00  0.00     0.004 C 
ENDBRANCH   5   6
ENDBRANCH   1   5
TORSDOF 3
ENDMDL
MODEL 5
REMARK VINA RESULT:    -3.332     13.894     14.446
REMARK INTER + INTRA:          -3.936
REMARK INTER:                  -3.831
REMARK INTRA:                  -0.106
REMARK UNBOUND:                -0.020
REMARK SMILES CCCCC(=O)[O-]
REMARK SMILES IDX 4 1 5 2 6 3 7 4 3 5 2 6 1 7
REMARK H PARENT
REMARK Flexibility Score: inf
ROOT
ATOM      1  C   UNL     1      45.565  38.525  19.609  1.00  0.00     0.053 C 
ENDROOT
BRANCH   1   2
ATOM      2  C   UNL     1      45.472  37.143  19.043  1.00  0.00     0.041 C 
ATOM      3  O   UNL     1      46.446  36.648  18.416  1.00  0.00    -0.550 OA
ATOM      4  O   UNL     1      44.329  36.382  19.253  1.00  0.00    -0.550 OA
ENDBRANCH   1   2
BRANCH   1   5
ATOM      5  C   UNL     1      45.933  39.530  18.513  1.00  0.00     0.006 C 
BRANCH   5   6
ATOM      6  C   UNL     1      47.321  40.131  18.763  1.00  0.00    -0.003 C 
ATOM      7  C   UNL     1      48.309  39.707  17.680  1.00  0.00     0.004 C 
ENDBRANCH   5   6
ENDBRANCH   1   5
TORSDOF 3
ENDMDL
MODEL 6
REMARK VINA RESULT:    -3.331     12.974     14.025
REMARK INTER + INTRA:          -3.935
REMARK INTER:                  -3.884
REMARK INTRA:                  -0.052
REMARK UNBOUND:                -0.020
REMARK SMILES CCCCC(=O)[O-]
REMARK SMILES IDX 4 1 5 2 6 3 7 4 3 5 2 6 1 7
REMARK H PARENT
REMARK Flexibility Score: inf
ROOT
ATOM      1  C   UNL     1      46.480  40.245  18.236  1.00  0.00     0.053 C 
ENDROOT
BRANCH   1   2
ATOM      2  C   UNL     1      47.973  40.152  18.230  1.00  0.00     0.041 C 
ATOM      3  O   UNL     1      48.564  39.493  17.334  1.00  0.00    -0.550 OA
ATOM      4  O   UNL     1      48.715  40.836  19.185  1.00  0.00    -0.550 OA
ENDBRANCH   1   2
BRANCH   1   5
ATOM      5  C   UNL     1      45.889  39.329  19.310  1.00  0.00     0.006 C 
BRANCH   5   6
ATOM      6  C   UNL     1      45.803  37.881  18.812  1.00  0.00    -0.003 C 
ATOM      7  C   UNL     1      45.010  37.011  19.782  1.00  0.00     0.004 C 
ENDBRANCH   5   6
ENDBRANCH   1   5
TORSDOF 3
ENDMDL
MODEL 7
REMARK VINA RESULT:    -3.327     12.592     12.936
REMARK INTER + INTRA:          -3.930
REMARK INTER:                  -3.853
REMARK INTRA:                  -0.077
REMARK UNBOUND:                -0.020
REMARK SMILES CCCCC(=O)[O-]
REMARK SMILES IDX 4 1 5 2 6 3 7 4 3 5 2 6 1 7
REMARK H PARENT
REMARK Flexibility Score: inf
ROOT
ATOM      1  C   UNL     1      35.156  41.568  20.375  1.00  0.00     0.053 C 
ENDROOT
BRANCH   1   2
ATOM      2  C   UNL     1      34.186  40.438  20.227  1.00  0.00     0.041 C 
ATOM      3  O   UNL     1      33.028  40.529  20.714  1.00  0.00    -0.550 OA
ATOM      4  O   UNL     1      34.544  39.305  19.508  1.00  0.00    -0.550 OA
ENDBRANCH   1   2
BRANCH   1   5
ATOM      5  C   UNL     1      36.587  41.034  20.495  1.00  0.00     0.006 C 
BRANCH   5   6
ATOM      6  C   UNL     1      37.495  41.651  19.424  1.00  0.00    -0.003 C 
ATOM      7  C   UNL     1      36.821  41.638  18.055  1.00  0.00     0.004 C 
ENDBRANCH   5   6
ENDBRANCH   1   5
TORSDOF 3
ENDMDL
MODEL 8
REMARK VINA RESULT:    -3.311     13.065     13.640
REMARK INTER + INTRA:          -3.912
REMARK INTER:                  -3.873
REMARK INTRA:                  -0.038
REMARK UNBOUND:                -0.020
REMARK SMILES CCCCC(=O)[O-]
REMARK SMILES IDX 4 1 5 2 6 3 7 4 3 5 2 6 1 7
REMARK H PARENT
REMARK Flexibility Score: inf
ROOT
ATOM      1  C   UNL     1      48.711  40.915  19.243  1.00  0.00     0.053 C 
ENDROOT
BRANCH   1   2
ATOM      2  C   UNL     1      47.883  40.201  18.223  1.00  0.00     0.041 C 
ATOM      3  O   UNL     1      48.433  39.458  17.367  1.00  0.00    -0.550 OA
ATOM      4  O   UNL     1      46.499  40.315  18.248  1.00  0.00    -0.550 OA
ENDBRANCH   1   2
BRANCH   1   5
ATOM      5  C   UNL     1      47.947  41.038  20.564  1.00  0.00     0.006 C 
BRANCH   5   6
ATOM      6  C   UNL     1      48.697  41.939  21.552  1.00  0.00    -0.003 C 
ATOM      7  C   UNL     1      49.681  42.853  20.826  1.00  0.00     0.004 C 
ENDBRANCH   5   6
ENDBRANCH   1   5
TORSDOF 3
ENDMDL
MODEL 9
REMARK VINA RESULT:    -3.252     12.810     13.531
REMARK INTER + INTRA:          -3.842
REMARK INTER:                  -3.759
REMARK INTRA:                  -0.083
REMARK UNBOUND:                -0.020
REMARK SMILES CCCCC(=O)[O-]
REMARK SMILES IDX 4 1 5 2 6 3 7 4 3 5 2 6 1 7
REMARK H PARENT
REMARK Flexibility Score: inf
ROOT
ATOM      1  C   UNL     1      46.449  40.243  18.227  1.00  0.00     0.053 C 
ENDROOT
BRANCH   1   2
ATOM      2  C   UNL     1      47.943  40.172  18.223  1.00  0.00     0.041 C 
ATOM      3  O   UNL     1      48.544  39.508  17.339  1.00  0.00    -0.550 OA
ATOM      4  O   UNL     1      48.674  40.882  19.168  1.00  0.00    -0.550 OA
ENDBRANCH   1   2
BRANCH   1   5
ATOM      5  C   UNL     1      45.857  39.058  18.995  1.00  0.00     0.006 C 
BRANCH   5   6
ATOM      6  C   UNL     1      45.302  39.505  20.353  1.00  0.00    -0.003 C 
ATOM      7  C   UNL     1      44.688  40.899  20.265  1.00  0.00     0.004 C 
ENDBRANCH   5   6
ENDBRANCH   1   5
TORSDOF 3
ENDMDL
