MODEL 1
REMARK VINA RESULT:    -3.402      0.000      0.000
REMARK INTER + INTRA:          -5.522
REMARK INTER:                  -5.192
REMARK INTRA:                  -0.331
REMARK UNBOUND:                -0.331
REMARK SMILES CC1=CCC[C@H](C)C(=O)C[C@@H](C(C)C)C(=O)C1
REMARK SMILES IDX 8 1 9 2 6 3 7 4 5 5 4 6 3 7 2 8 1 9 10 11 11 12 15 13 16 14
REMARK SMILES IDX 17 15 12 17 13 18 14 19
REMARK H PARENT
REMARK Flexibility Score: 70.00
ROOT
ATOM      1  C   UNL     1      16.064  28.801  29.999  1.00  0.00     0.136 C 
ATOM      2  O   UNL     1      15.053  29.181  29.430  1.00  0.00    -0.299 OA
ENDROOT
BRANCH   1   3
ATOM      3  C   UNL     1      16.560  27.397  29.698  1.00  0.00     0.053 C 
ATOM      4  C   UNL     1      15.462  26.380  30.037  1.00  0.00     0.016 C 
BRANCH   3   5
ATOM      5  C   UNL     1      17.039  27.218  28.241  1.00  0.00     0.015 C 
BRANCH   5   6
ATOM      6  C   UNL     1      18.325  27.992  27.867  1.00  0.00     0.028 C 
BRANCH   6   7
ATOM      7  C   UNL     1      19.513  27.805  28.786  1.00  0.00    -0.028 C 
ATOM      8  C   UNL     1      20.269  28.795  29.315  1.00  0.00    -0.070 CG0
ATOM      9  C   UNL     1      21.525  28.403  30.053  1.00  0.00     0.039 C 
ATOM     10  G   UNL     1      19.979  30.263  29.086  1.00  0.00     0.000 G0
ENDBRANCH   6   7
ENDBRANCH   5   6
ENDBRANCH   3   5
ENDBRANCH   1   3
BRANCH   1  11
ATOM     11  C   UNL     1      16.872  29.779  30.839  1.00  0.00     0.087 C 
BRANCH  11  12
ATOM     12  C   UNL     1      17.583  30.955  30.097  1.00  0.00     0.066 C 
BRANCH  12  13
ATOM     13  C   UNL     1      19.113  30.897  30.142  1.00  0.00     0.140 C 
ATOM     14  O   UNL     1      19.678  31.457  31.071  1.00  0.00    -0.299 OA
BRANCH  13  15
ATOM     15  C   UNL     1      19.990  30.272  29.079  1.00  0.00     0.106 CG0
ATOM     16  G   UNL     1      20.249  28.798  29.310  1.00  0.00     0.000 G0
ENDBRANCH  13  15
ENDBRANCH  12  13
BRANCH  12  17
ATOM     17  C   UNL     1      17.018  32.385  30.404  1.00  0.00    -0.006 C 
ATOM     18  C   UNL     1      16.609  33.135  29.122  1.00  0.00     0.008 C 
ATOM     19  C   UNL     1      15.798  32.329  31.344  1.00  0.00     0.008 C 
ENDBRANCH  12  17
ENDBRANCH  11  12
ENDBRANCH   1  11
TORSDOF 1
ENDMDL
MODEL 2
REMARK VINA RESULT:    -3.359      2.268      5.530
REMARK INTER + INTRA:          -5.458
REMARK INTER:                  -5.135
REMARK INTRA:                  -0.323
REMARK UNBOUND:                -0.331
REMARK SMILES CC1=CCC[C@H](C)C(=O)C[C@@H](C(C)C)C(=O)C1
REMARK SMILES IDX 8 1 9 2 6 3 7 4 5 5 4 6 3 7 2 8 1 9 10 11 11 12 15 13 16 14
REMARK SMILES IDX 17 15 12 17 13 18 14 19
REMARK H PARENT
REMARK Flexibility Score: 70.00
ROOT
ATOM      1  C   UNL     1      19.068  30.980  29.980  1.00  0.00     0.136 C 
ATOM      2  O   UNL     1      20.019  30.881  29.220  1.00  0.00    -0.299 OA
ENDROOT
BRANCH   1   3
ATOM      3  C   UNL     1      18.600  32.377  30.349  1.00  0.00     0.053 C 
ATOM      4  C   UNL     1      19.801  33.219  30.801  1.00  0.00     0.016 C 
BRANCH   3   5
ATOM      5  C   UNL     1      17.834  33.086  29.210  1.00  0.00     0.015 C 
BRANCH   5   6
ATOM      6  C   UNL     1      16.315  33.257  29.441  1.00  0.00     0.028 C 
BRANCH   6   7
ATOM      7  C   UNL     1      15.757  32.658  30.714  1.00  0.00    -0.028 C 
ATOM      8  C   UNL     1      15.153  31.452  30.824  1.00  0.00    -0.070 CG0
ATOM      9  C   UNL     1      14.493  31.113  32.137  1.00  0.00     0.039 C 
ATOM     10  G   UNL     1      15.001  30.499  29.657  1.00  0.00     0.000 G0
ENDBRANCH   6   7
ENDBRANCH   5   6
ENDBRANCH   3   5
ENDBRANCH   1   3
BRANCH   1  11
ATOM     11  C   UNL     1      18.293  29.736  30.388  1.00  0.00     0.087 C 
BRANCH  11  12
ATOM     12  C   UNL     1      17.302  29.127  29.345  1.00  0.00     0.066 C 
BRANCH  12  13
ATOM     13  C   UNL     1      15.825  29.234  29.739  1.00  0.00     0.140 C 
ATOM     14  O   UNL     1      15.256  28.213  30.099  1.00  0.00    -0.299 OA
BRANCH  13  15
ATOM     15  C   UNL     1      14.989  30.490  29.638  1.00  0.00     0.106 CG0
ATOM     16  G   UNL     1      15.165  31.422  30.818  1.00  0.00     0.000 G0
ENDBRANCH  13  15
ENDBRANCH  12  13
BRANCH  12  17
ATOM     17  C   UNL     1      17.687  27.708  28.800  1.00  0.00    -0.006 C 
ATOM     18  C   UNL     1      18.073  27.744  27.310  1.00  0.00     0.008 C 
ATOM     19  C   UNL     1      18.855  27.088  29.591  1.00  0.00     0.008 C 
ENDBRANCH  12  17
ENDBRANCH  11  12
ENDBRANCH   1  11
TORSDOF 1
ENDMDL
MODEL 3
REMARK VINA RESULT:    -3.317     10.559     13.418
REMARK INTER + INTRA:          -5.393
REMARK INTER:                  -5.157
REMARK INTRA:                  -0.237
REMARK UNBOUND:                -0.331
REMARK SMILES CC1=CCC[C@H](C)C(=O)C[C@@H](C(C)C)C(=O)C1
REMARK SMILES IDX 8 1 9 2 6 3 7 4 5 5 4 6 3 7 2 8 1 9 10 11 11 12 15 13 16 14
REMARK SMILES IDX 17 15 12 17 13 18 14 19
REMARK H PARENT
REMARK Flexibility Score: 70.00
ROOT
ATOM      1  C   UNL     1      30.525  31.297  28.263  1.00  0.00     0.136 C 
ATOM      2  O   UNL     1      29.890  31.902  27.413  1.00  0.00    -0.299 OA
ENDROOT
BRANCH   1   3
ATOM      3  C   UNL     1      32.041  31.334  28.173  1.00  0.00     0.053 C 
ATOM      4  C   UNL     1      32.508  30.456  27.004  1.00  0.00     0.016 C 
BRANCH   3   5
ATOM      5  C   UNL     1      32.610  32.764  28.043  1.00  0.00     0.015 C 
BRANCH   5   6
ATOM      6  C   UNL     1      32.399  33.675  29.274  1.00  0.00     0.028 C 
BRANCH   6   7
ATOM      7  C   UNL     1      33.033  33.214  30.569  1.00  0.00    -0.028 C 
ATOM      8  C   UNL     1      32.390  33.031  31.745  1.00  0.00    -0.070 CG0
ATOM      9  C   UNL     1      33.227  32.752  32.968  1.00  0.00     0.039 C 
ATOM     10  G   UNL     1      30.897  33.224  31.905  1.00  0.00     0.000 G0
ENDBRANCH   6   7
ENDBRANCH   5   6
ENDBRANCH   3   5
ENDBRANCH   1   3
BRANCH   1  11
ATOM     11  C   UNL     1      29.803  30.683  29.454  1.00  0.00     0.087 C 
BRANCH  11  12
ATOM     12  C   UNL     1      29.188  31.659  30.508  1.00  0.00     0.066 C 
BRANCH  12  13
ATOM     13  C   UNL     1      30.094  31.941  31.711  1.00  0.00     0.140 C 
ATOM     14  O   UNL     1      30.126  31.110  32.608  1.00  0.00    -0.299 OA
BRANCH  13  15
ATOM     15  C   UNL     1      30.890  33.210  31.919  1.00  0.00     0.106 CG0
ATOM     16  G   UNL     1      32.380  33.019  31.728  1.00  0.00     0.000 G0
ENDBRANCH  13  15
ENDBRANCH  12  13
BRANCH  12  17
ATOM     17  C   UNL     1      27.705  31.358  30.918  1.00  0.00    -0.006 C 
ATOM     18  C   UNL     1      27.058  32.543  31.661  1.00  0.00     0.008 C 
ATOM     19  C   UNL     1      26.832  31.013  29.697  1.00  0.00     0.008 C 
ENDBRANCH  12  17
ENDBRANCH  11  12
ENDBRANCH   1  11
TORSDOF 1
ENDMDL
MODEL 4
REMARK VINA RESULT:    -3.180      2.006      4.482
REMARK INTER + INTRA:          -5.184
REMARK INTER:                  -4.944
REMARK INTRA:                  -0.240
REMARK UNBOUND:                -0.331
REMARK SMILES CC1=CCC[C@H](C)C(=O)C[C@@H](C(C)C)C(=O)C1
REMARK SMILES IDX 8 1 9 2 6 3 7 4 5 5 4 6 3 7 2 8 1 9 10 11 11 12 15 13 16 14
REMARK SMILES IDX 17 15 12 17 13 18 14 19
REMARK H PARENT
REMARK Flexibility Score: 70.00
ROOT
ATOM      1  C   UNL     1      17.892  31.345  29.253  1.00  0.00     0.136 C 
ATOM      2  O   UNL     1      16.690  31.191  29.406  1.00  0.00    -0.299 OA
ENDROOT
BRANCH   1   3
ATOM      3  C   UNL     1      18.527  32.589  29.850  1.00  0.00     0.053 C 
ATOM      4  C   UNL     1      17.767  33.834  29.375  1.00  0.00     0.016 C 
BRANCH   3   5
ATOM      5  C   UNL     1      18.606  32.554  31.392  1.00  0.00     0.015 C 
BRANCH   5   6
ATOM      6  C   UNL     1      19.529  31.463  31.983  1.00  0.00     0.028 C 
BRANCH   6   7
ATOM      7  C   UNL     1      20.981  31.506  31.555  1.00  0.00    -0.028 C 
ATOM      8  C   UNL     1      21.732  30.440  31.194  1.00  0.00    -0.070 CG0
ATOM      9  C   UNL     1      23.209  30.660  30.985  1.00  0.00     0.039 C 
ATOM     10  G   UNL     1      21.182  29.031  31.124  1.00  0.00     0.000 G0
ENDBRANCH   6   7
ENDBRANCH   5   6
ENDBRANCH   3   5
ENDBRANCH   1   3
BRANCH   1  11
ATOM     11  C   UNL     1      18.725  30.233  28.634  1.00  0.00     0.087 C 
BRANCH  11  12
ATOM     12  C   UNL     1      19.009  28.969  29.508  1.00  0.00     0.066 C 
BRANCH  12  13
ATOM     13  C   UNL     1      20.493  28.719  29.793  1.00  0.00     0.140 C 
ATOM     14  O   UNL     1      21.158  28.178  28.921  1.00  0.00    -0.299 OA
BRANCH  13  15
ATOM     15  C   UNL     1      21.186  29.013  31.105  1.00  0.00     0.106 CG0
ATOM     16  G   UNL     1      21.736  30.421  31.189  1.00  0.00     0.000 G0
ENDBRANCH  13  15
ENDBRANCH  12  13
BRANCH  12  17
ATOM     17  C   UNL     1      18.243  27.670  29.082  1.00  0.00    -0.006 C 
ATOM     18  C   UNL     1      16.889  27.532  29.804  1.00  0.00     0.008 C 
ATOM     19  C   UNL     1      17.990  27.626  27.562  1.00  0.00     0.008 C 
ENDBRANCH  12  17
ENDBRANCH  11  12
ENDBRANCH   1  11
TORSDOF 1
ENDMDL
MODEL 5
REMARK VINA RESULT:    -3.175      1.509      1.947
REMARK INTER + INTRA:          -5.176
REMARK INTER:                  -5.006
REMARK INTRA:                  -0.170
REMARK UNBOUND:                -0.331
REMARK SMILES CC1=CCC[C@H](C)C(=O)C[C@@H](C(C)C)C(=O)C1
REMARK SMILES IDX 8 1 9 2 6 3 7 4 5 5 4 6 3 7 2 8 1 9 10 11 11 12 15 13 16 14
REMARK SMILES IDX 17 15 12 17 13 18 14 19
REMARK H PARENT
REMARK Flexibility Score: 70.00
ROOT
ATOM      1  C   UNL     1      17.050  29.403  29.946  1.00  0.00     0.136 C 
ATOM      2  O   UNL     1      15.971  29.336  29.380  1.00  0.00    -0.299 OA
ENDROOT
BRANCH   1   3
ATOM      3  C   UNL     1      18.120  28.400  29.549  1.00  0.00     0.053 C 
ATOM      4  C   UNL     1      17.459  27.076  29.145  1.00  0.00     0.016 C 
BRANCH   3   5
ATOM      5  C   UNL     1      19.049  28.911  28.426  1.00  0.00     0.015 C 
BRANCH   5   6
ATOM      6  C   UNL     1      20.559  28.898  28.759  1.00  0.00     0.028 C 
BRANCH   6   7
ATOM      7  C   UNL     1      20.923  28.833  30.227  1.00  0.00    -0.028 C 
ATOM      8  C   UNL     1      21.085  29.895  31.050  1.00  0.00    -0.070 CG0
ATOM      9  C   UNL     1      21.634  29.636  32.431  1.00  0.00     0.039 C 
ATOM     10  G   UNL     1      20.865  31.324  30.602  1.00  0.00     0.000 G0
ENDBRANCH   6   7
ENDBRANCH   5   6
ENDBRANCH   3   5
ENDBRANCH   1   3
BRANCH   1  11
ATOM     11  C   UNL     1      17.343  30.564  30.885  1.00  0.00     0.087 C 
BRANCH  11  12
ATOM     12  C   UNL     1      18.220  31.735  30.335  1.00  0.00     0.066 C 
BRANCH  12  13
ATOM     13  C   UNL     1      19.555  31.918  31.062  1.00  0.00     0.140 C 
ATOM     14  O   UNL     1      19.575  32.650  32.042  1.00  0.00    -0.299 OA
BRANCH  13  15
ATOM     15  C   UNL     1      20.876  31.332  30.614  1.00  0.00     0.106 CG0
ATOM     16  G   UNL     1      21.075  29.899  31.060  1.00  0.00     0.000 G0
ENDBRANCH  13  15
ENDBRANCH  12  13
BRANCH  12  17
ATOM     17  C   UNL     1      17.464  33.087  30.097  1.00  0.00    -0.006 C 
ATOM     18  C   UNL     1      18.387  34.172  29.511  1.00  0.00     0.008 C 
ATOM     19  C   UNL     1      16.259  32.912  29.153  1.00  0.00     0.008 C 
ENDBRANCH  12  17
ENDBRANCH  11  12
ENDBRANCH   1  11
TORSDOF 1
ENDMDL
MODEL 6
REMARK VINA RESULT:    -3.160      1.755      4.024
REMARK INTER + INTRA:          -5.154
REMARK INTER:                  -5.017
REMARK INTRA:                  -0.137
REMARK UNBOUND:                -0.331
REMARK SMILES CC1=CCC[C@H](C)C(=O)C[C@@H](C(C)C)C(=O)C1
REMARK SMILES IDX 8 1 9 2 6 3 7 4 5 5 4 6 3 7 2 8 1 9 10 11 11 12 15 13 16 14
REMARK SMILES IDX 17 15 12 17 13 18 14 19
REMARK H PARENT
REMARK Flexibility Score: 70.00
ROOT
ATOM      1  C   UNL     1      18.930  30.586  29.391  1.00  0.00     0.136 C 
ATOM      2  O   UNL     1      19.446  31.254  30.274  1.00  0.00    -0.299 OA
ENDROOT
BRANCH   1   3
ATOM      3  C   UNL     1      19.739  29.441  28.807  1.00  0.00     0.053 C 
ATOM      4  C   UNL     1      20.534  28.750  29.923  1.00  0.00     0.016 C 
BRANCH   3   5
ATOM      5  C   UNL     1      18.879  28.415  28.036  1.00  0.00     0.015 C 
BRANCH   5   6
ATOM      6  C   UNL     1      18.330  27.243  28.882  1.00  0.00     0.028 C 
BRANCH   6   7
ATOM      7  C   UNL     1      16.885  26.859  28.643  1.00  0.00    -0.028 C 
ATOM      8  C   UNL     1      15.827  27.255  29.387  1.00  0.00    -0.070 CG0
ATOM      9  C   UNL     1      14.491  26.615  29.105  1.00  0.00     0.039 C 
ATOM     10  G   UNL     1      15.955  28.203  30.560  1.00  0.00     0.000 G0
ENDBRANCH   6   7
ENDBRANCH   5   6
ENDBRANCH   3   5
ENDBRANCH   1   3
BRANCH   1  11
ATOM     11  C   UNL     1      17.468  30.805  29.032  1.00  0.00     0.087 C 
BRANCH  11  12
ATOM     12  C   UNL     1      16.433  30.840  30.201  1.00  0.00     0.066 C 
BRANCH  12  13
ATOM     13  C   UNL     1      15.505  29.623  30.260  1.00  0.00     0.140 C 
ATOM     14  O   UNL     1      14.306  29.812  30.109  1.00  0.00    -0.299 OA
BRANCH  13  15
ATOM     15  C   UNL     1      15.945  28.210  30.574  1.00  0.00     0.106 CG0
ATOM     16  G   UNL     1      15.829  27.271  29.392  1.00  0.00     0.000 G0
ENDBRANCH  13  15
ENDBRANCH  12  13
BRANCH  12  17
ATOM     17  C   UNL     1      15.670  32.198  30.385  1.00  0.00    -0.006 C 
ATOM     18  C   UNL     1      15.841  32.771  31.805  1.00  0.00     0.008 C 
ATOM     19  C   UNL     1      16.139  33.260  29.372  1.00  0.00     0.008 C 
ENDBRANCH  12  17
ENDBRANCH  11  12
ENDBRANCH   1  11
TORSDOF 1
ENDMDL
MODEL 7
REMARK VINA RESULT:    -3.136      2.186      4.506
REMARK INTER + INTRA:          -5.117
REMARK INTER:                  -4.849
REMARK INTRA:                  -0.268
REMARK UNBOUND:                -0.331
REMARK SMILES CC1=CCC[C@H](C)C(=O)C[C@@H](C(C)C)C(=O)C1
REMARK SMILES IDX 8 1 9 2 6 3 7 4 5 5 4 6 3 7 2 8 1 9 10 11 11 12 15 13 16 14
REMARK SMILES IDX 17 15 12 17 13 18 14 19
REMARK H PARENT
REMARK Flexibility Score: 70.00
ROOT
ATOM      1  C   UNL     1      19.823  28.602  29.173  1.00  0.00     0.136 C 
ATOM      2  O   UNL     1      20.109  27.566  29.753  1.00  0.00    -0.299 OA
ENDROOT
BRANCH   1   3
ATOM      3  C   UNL     1      18.410  28.742  28.632  1.00  0.00     0.053 C 
ATOM      4  C   UNL     1      18.152  27.656  27.579  1.00  0.00     0.016 C 
BRANCH   3   5
ATOM      5  C   UNL     1      17.327  28.702  29.734  1.00  0.00     0.015 C 
BRANCH   5   6
ATOM      6  C   UNL     1      17.181  29.997  30.565  1.00  0.00     0.028 C 
BRANCH   6   7
ATOM      7  C   UNL     1      17.008  31.282  29.783  1.00  0.00    -0.028 C 
ATOM      8  C   UNL     1      17.764  32.396  29.913  1.00  0.00    -0.070 CG0
ATOM      9  C   UNL     1      17.317  33.638  29.184  1.00  0.00     0.039 C 
ATOM     10  G   UNL     1      18.949  32.482  30.853  1.00  0.00     0.000 G0
ENDBRANCH   6   7
ENDBRANCH   5   6
ENDBRANCH   3   5
ENDBRANCH   1   3
BRANCH   1  11
ATOM     11  C   UNL     1      20.809  29.760  29.159  1.00  0.00     0.087 C 
BRANCH  11  12
ATOM     12  C   UNL     1      20.874  30.670  30.427  1.00  0.00     0.066 C 
BRANCH  12  13
ATOM     13  C   UNL     1      20.243  32.054  30.245  1.00  0.00     0.140 C 
ATOM     14  O   UNL     1      20.870  32.888  29.607  1.00  0.00    -0.299 OA
BRANCH  13  15
ATOM     15  C   UNL     1      18.937  32.500  30.864  1.00  0.00     0.106 CG0
ATOM     16  G   UNL     1      17.761  32.404  29.916  1.00  0.00     0.000 G0
ENDBRANCH  13  15
ENDBRANCH  12  13
BRANCH  12  17
ATOM     17  C   UNL     1      22.267  30.726  31.145  1.00  0.00    -0.006 C 
ATOM     18  C   UNL     1      22.143  30.531  32.668  1.00  0.00     0.008 C 
ATOM     19  C   UNL     1      23.237  29.662  30.596  1.00  0.00     0.008 C 
ENDBRANCH  12  17
ENDBRANCH  11  12
ENDBRANCH   1  11
TORSDOF 1
ENDMDL
MODEL 8
REMARK VINA RESULT:    -3.097      1.958      3.538
REMARK INTER + INTRA:          -5.057
REMARK INTER:                  -5.153
REMARK INTRA:                   0.096
REMARK UNBOUND:                -0.331
REMARK SMILES CC1=CCC[C@H](C)C(=O)C[C@@H](C(C)C)C(=O)C1
REMARK SMILES IDX 8 1 9 2 6 3 7 4 5 5 4 6 3 7 2 8 1 9 10 11 11 12 15 13 16 14
REMARK SMILES IDX 17 15 12 17 13 18 14 19
REMARK H PARENT
REMARK Flexibility Score: 70.00
ROOT
ATOM      1  C   UNL     1      19.899  30.033  29.087  1.00  0.00     0.136 C 
ATOM      2  O   UNL     1      20.956  30.418  29.563  1.00  0.00    -0.299 OA
ENDROOT
BRANCH   1   3
ATOM      3  C   UNL     1      19.832  28.603  28.578  1.00  0.00     0.053 C 
ATOM      4  C   UNL     1      20.279  27.641  29.686  1.00  0.00     0.016 C 
BRANCH   3   5
ATOM      5  C   UNL     1      18.437  28.210  28.044  1.00  0.00     0.015 C 
BRANCH   5   6
ATOM      6  C   UNL     1      17.520  27.488  29.059  1.00  0.00     0.028 C 
BRANCH   6   7
ATOM      7  C   UNL     1      16.346  28.284  29.589  1.00  0.00    -0.028 C 
ATOM      8  C   UNL     1      16.354  29.069  30.690  1.00  0.00    -0.070 CG0
ATOM      9  C   UNL     1      15.036  29.629  31.164  1.00  0.00     0.039 C 
ATOM     10  G   UNL     1      17.594  29.297  31.530  1.00  0.00     0.000 G0
ENDBRANCH   6   7
ENDBRANCH   5   6
ENDBRANCH   3   5
ENDBRANCH   1   3
BRANCH   1  11
ATOM     11  C   UNL     1      18.664  30.917  29.173  1.00  0.00     0.087 C 
BRANCH  11  12
ATOM     12  C   UNL     1      18.394  31.655  30.523  1.00  0.00     0.066 C 
BRANCH  12  13
ATOM     13  C   UNL     1      18.000  30.731  31.680  1.00  0.00     0.140 C 
ATOM     14  O   UNL     1      18.083  31.174  32.817  1.00  0.00    -0.299 OA
BRANCH  13  15
ATOM     15  C   UNL     1      17.595  29.281  31.534  1.00  0.00     0.106 CG0
ATOM     16  G   UNL     1      16.353  29.089  30.689  1.00  0.00     0.000 G0
ENDBRANCH  13  15
ENDBRANCH  12  13
BRANCH  12  17
ATOM     17  C   UNL     1      17.487  32.929  30.424  1.00  0.00    -0.006 C 
ATOM     18  C   UNL     1      18.195  34.091  29.701  1.00  0.00     0.008 C 
ATOM     19  C   UNL     1      16.163  32.634  29.693  1.00  0.00     0.008 C 
ENDBRANCH  12  17
ENDBRANCH  11  12
ENDBRANCH   1  11
TORSDOF 1
ENDMDL
MODEL 9
REMARK VINA RESULT:    -3.029      1.923      4.130
REMARK INTER + INTRA:          -4.953
REMARK INTER:                  -4.685
REMARK INTRA:                  -0.267
REMARK UNBOUND:                -0.331
REMARK SMILES CC1=CCC[C@H](C)C(=O)C[C@@H](C(C)C)C(=O)C1
REMARK SMILES IDX 8 1 9 2 6 3 7 4 5 5 4 6 3 7 2 8 1 9 10 11 11 12 15 13 16 14
REMARK SMILES IDX 17 15 12 17 13 18 14 19
REMARK H PARENT
REMARK Flexibility Score: 70.00
ROOT
ATOM      1  C   UNL     1      16.221  32.289  29.861  1.00  0.00     0.136 C 
ATOM      2  O   UNL     1      16.341  33.051  28.915  1.00  0.00    -0.299 OA
ENDROOT
BRANCH   1   3
ATOM      3  C   UNL     1      16.001  32.898  31.235  1.00  0.00     0.053 C 
ATOM      4  C   UNL     1      14.875  32.145  31.957  1.00  0.00     0.016 C 
BRANCH   3   5
ATOM      5  C   UNL     1      17.279  32.929  32.102  1.00  0.00     0.015 C 
BRANCH   5   6
ATOM      6  C   UNL     1      18.598  33.165  31.328  1.00  0.00     0.028 C 
BRANCH   6   7
ATOM      7  C   UNL     1      19.728  32.201  31.618  1.00  0.00    -0.028 C 
ATOM      8  C   UNL     1      20.167  31.224  30.791  1.00  0.00    -0.070 CG0
ATOM      9  C   UNL     1      21.177  30.244  31.334  1.00  0.00     0.039 C 
ATOM     10  G   UNL     1      19.596  30.998  29.407  1.00  0.00     0.000 G0
ENDBRANCH   6   7
ENDBRANCH   5   6
ENDBRANCH   3   5
ENDBRANCH   1   3
BRANCH   1  11
ATOM     11  C   UNL     1      16.127  30.790  29.619  1.00  0.00     0.087 C 
BRANCH  11  12
ATOM     12  C   UNL     1      17.271  29.892  30.189  1.00  0.00     0.066 C 
BRANCH  12  13
ATOM     13  C   UNL     1      18.557  29.904  29.356  1.00  0.00     0.140 C 
ATOM     14  O   UNL     1      18.791  28.930  28.653  1.00  0.00    -0.299 OA
BRANCH  13  15
ATOM     15  C   UNL     1      19.608  30.991  29.397  1.00  0.00     0.106 CG0
ATOM     16  G   UNL     1      20.170  31.228  30.783  1.00  0.00     0.000 G0
ENDBRANCH  13  15
ENDBRANCH  12  13
BRANCH  12  17
ATOM     17  C   UNL     1      16.841  28.449  30.625  1.00  0.00    -0.006 C 
ATOM     18  C   UNL     1      16.471  28.381  32.118  1.00  0.00     0.008 C 
ATOM     19  C   UNL     1      15.643  27.936  29.803  1.00  0.00     0.008 C 
ENDBRANCH  12  17
ENDBRANCH  11  12
ENDBRANCH   1  11
TORSDOF 1
ENDMDL
