MODEL 1
REMARK VINA RESULT:    -3.629      0.000      0.000
REMARK INTER + INTRA:          -5.614
REMARK INTER:                  -5.326
REMARK INTRA:                  -0.289
REMARK UNBOUND:                -0.289
REMARK SMILES O=C([O-])CCCCCCCC(=O)[O-]
REMARK SMILES IDX 7 1 6 2 5 3 4 4 2 5 1 6 3 7 8 8 9 9 10 10 11 11 12 12 13 13
REMARK H PARENT
REMARK Flexibility Score: inf
ROOT
ATOM      1  C   UNL     1      57.608  28.097  50.191  1.00  0.00     0.000 C 
ENDROOT
BRANCH   1   2
ATOM      2  C   UNL     1      56.170  28.400  50.659  1.00  0.00     0.000 C 
BRANCH   2   3
ATOM      3  C   UNL     1      55.061  27.736  49.826  1.00  0.00     0.006 C 
BRANCH   3   4
ATOM      4  C   UNL     1      55.456  26.348  49.305  1.00  0.00     0.053 C 
BRANCH   4   5
ATOM      5  C   UNL     1      54.237  25.516  49.059  1.00  0.00     0.041 C 
ATOM      6  O   UNL     1      53.404  25.857  48.179  1.00  0.00    -0.550 OA
ATOM      7  O   UNL     1      53.997  24.390  49.836  1.00  0.00    -0.550 OA
ENDBRANCH   4   5
ENDBRANCH   3   4
ENDBRANCH   2   3
ENDBRANCH   1   2
BRANCH   1   8
ATOM      8  C   UNL     1      58.536  29.322  50.081  1.00  0.00     0.000 C 
BRANCH   8   9
ATOM      9  C   UNL     1      59.635  29.221  49.005  1.00  0.00     0.006 C 
BRANCH   9  10
ATOM     10  C   UNL     1      60.414  27.894  49.033  1.00  0.00     0.053 C 
BRANCH  10  11
ATOM     11  C   UNL     1      61.758  28.032  49.681  1.00  0.00     0.041 C 
ATOM     12  O   UNL     1      61.846  28.301  50.908  1.00  0.00    -0.550 OA
ATOM     13  O   UNL     1      62.915  27.828  48.939  1.00  0.00    -0.550 OA
ENDBRANCH  10  11
ENDBRANCH   9  10
ENDBRANCH   8   9
ENDBRANCH   1   8
TORSDOF 8
ENDMDL
MODEL 2
REMARK VINA RESULT:    -3.622     12.772     13.993
REMARK INTER + INTRA:          -5.605
REMARK INTER:                  -5.217
REMARK INTRA:                  -0.388
REMARK UNBOUND:                -0.289
REMARK SMILES O=C([O-])CCCCCCCC(=O)[O-]
REMARK SMILES IDX 7 1 6 2 5 3 4 4 2 5 1 6 3 7 8 8 9 9 10 10 11 11 12 12 13 13
REMARK H PARENT
REMARK Flexibility Score: inf
ROOT
ATOM      1  C   UNL     1      62.241  32.400  60.090  1.00  0.00     0.000 C 
ENDROOT
BRANCH   1   2
ATOM      2  C   UNL     1      61.333  31.425  60.867  1.00  0.00     0.000 C 
BRANCH   2   3
ATOM      3  C   UNL     1      62.040  30.171  61.411  1.00  0.00     0.006 C 
BRANCH   3   4
ATOM      4  C   UNL     1      63.551  30.178  61.149  1.00  0.00     0.053 C 
BRANCH   4   5
ATOM      5  C   UNL     1      64.023  28.808  60.776  1.00  0.00     0.041 C 
ATOM      6  O   UNL     1      63.213  27.844  60.749  1.00  0.00    -0.550 OA
ATOM      7  O   UNL     1      65.367  28.585  60.507  1.00  0.00    -0.550 OA
ENDBRANCH   4   5
ENDBRANCH   3   4
ENDBRANCH   2   3
ENDBRANCH   1   2
BRANCH   1   8
ATOM      8  C   UNL     1      61.657  33.809  59.870  1.00  0.00     0.000 C 
BRANCH   8   9
ATOM      9  C   UNL     1      62.586  34.974  60.262  1.00  0.00     0.006 C 
BRANCH   9  10
ATOM     10  C   UNL     1      63.963  34.526  60.786  1.00  0.00     0.053 C 
BRANCH  10  11
ATOM     11  C   UNL     1      64.850  35.683  61.131  1.00  0.00     0.041 C 
ATOM     12  O   UNL     1      64.378  36.691  61.720  1.00  0.00    -0.550 OA
ATOM     13  O   UNL     1      66.206  35.635  60.835  1.00  0.00    -0.550 OA
ENDBRANCH  10  11
ENDBRANCH   9  10
ENDBRANCH   8   9
ENDBRANCH   1   8
TORSDOF 8
ENDMDL
MODEL 3
REMARK VINA RESULT:    -3.597      1.264      6.238
REMARK INTER + INTRA:          -5.567
REMARK INTER:                  -5.124
REMARK INTRA:                  -0.443
REMARK UNBOUND:                -0.289
REMARK SMILES O=C([O-])CCCCCCCC(=O)[O-]
REMARK SMILES IDX 7 1 6 2 5 3 4 4 2 5 1 6 3 7 8 8 9 9 10 10 11 11 12 12 13 13
REMARK H PARENT
REMARK Flexibility Score: inf
ROOT
ATOM      1  C   UNL     1      57.562  28.459  50.582  1.00  0.00     0.000 C 
ENDROOT
BRANCH   1   2
ATOM      2  C   UNL     1      58.696  29.267  49.918  1.00  0.00     0.000 C 
BRANCH   2   3
ATOM      3  C   UNL     1      59.740  28.425  49.165  1.00  0.00     0.006 C 
BRANCH   3   4
ATOM      4  C   UNL     1      59.607  26.922  49.442  1.00  0.00     0.053 C 
BRANCH   4   5
ATOM      5  C   UNL     1      60.957  26.282  49.513  1.00  0.00     0.041 C 
ATOM      6  O   UNL     1      61.062  25.047  49.734  1.00  0.00    -0.550 OA
ATOM      7  O   UNL     1      62.102  27.058  49.384  1.00  0.00    -0.550 OA
ENDBRANCH   4   5
ENDBRANCH   3   4
ENDBRANCH   2   3
ENDBRANCH   1   2
BRANCH   1   8
ATOM      8  C   UNL     1      56.146  29.037  50.392  1.00  0.00     0.000 C 
BRANCH   8   9
ATOM      9  C   UNL     1      55.062  28.008  50.013  1.00  0.00     0.006 C 
BRANCH   9  10
ATOM     10  C   UNL     1      55.617  26.614  49.670  1.00  0.00     0.053 C 
BRANCH  10  11
ATOM     11  C   UNL     1      54.535  25.634  49.334  1.00  0.00     0.041 C 
ATOM     12  O   UNL     1      53.969  25.673  48.210  1.00  0.00    -0.550 OA
ATOM     13  O   UNL     1      54.176  24.651  50.248  1.00  0.00    -0.550 OA
ENDBRANCH  10  11
ENDBRANCH   9  10
ENDBRANCH   8   9
ENDBRANCH   1   8
TORSDOF 8
ENDMDL
MODEL 4
REMARK VINA RESULT:    -3.531     12.409     14.364
REMARK INTER + INTRA:          -5.471
REMARK INTER:                  -5.077
REMARK INTRA:                  -0.394
REMARK UNBOUND:                -0.289
REMARK SMILES O=C([O-])CCCCCCCC(=O)[O-]
REMARK SMILES IDX 7 1 6 2 5 3 4 4 2 5 1 6 3 7 8 8 9 9 10 10 11 11 12 12 13 13
REMARK H PARENT
REMARK Flexibility Score: inf
ROOT
ATOM      1  C   UNL     1      61.421  31.736  59.774  1.00  0.00     0.000 C 
ENDROOT
BRANCH   1   2
ATOM      2  C   UNL     1      61.569  33.268  59.867  1.00  0.00     0.000 C 
BRANCH   2   3
ATOM      3  C   UNL     1      62.979  33.765  60.230  1.00  0.00     0.006 C 
BRANCH   3   4
ATOM      4  C   UNL     1      63.006  35.247  60.624  1.00  0.00     0.053 C 
BRANCH   4   5
ATOM      5  C   UNL     1      64.415  35.713  60.809  1.00  0.00     0.041 C 
ATOM      6  O   UNL     1      65.100  35.294  61.779  1.00  0.00    -0.550 OA
ATOM      7  O   UNL     1      64.958  36.650  59.937  1.00  0.00    -0.550 OA
ENDBRANCH   4   5
ENDBRANCH   3   4
ENDBRANCH   2   3
ENDBRANCH   1   2
BRANCH   1   8
ATOM      8  C   UNL     1      61.246  31.009  61.121  1.00  0.00     0.000 C 
BRANCH   8   9
ATOM      9  C   UNL     1      62.269  29.890  61.402  1.00  0.00     0.006 C 
BRANCH   9  10
ATOM     10  C   UNL     1      63.733  30.316  61.194  1.00  0.00     0.053 C 
BRANCH  10  11
ATOM     11  C   UNL     1      64.583  29.206  60.656  1.00  0.00     0.041 C 
ATOM     12  O   UNL     1      64.149  28.023  60.644  1.00  0.00    -0.550 OA
ATOM     13  O   UNL     1      65.841  29.479  60.135  1.00  0.00    -0.550 OA
ENDBRANCH  10  11
ENDBRANCH   9  10
ENDBRANCH   8   9
ENDBRANCH   1   8
TORSDOF 8
ENDMDL
MODEL 5
REMARK VINA RESULT:    -3.462     12.400     14.032
REMARK INTER + INTRA:          -5.369
REMARK INTER:                  -4.749
REMARK INTRA:                  -0.620
REMARK UNBOUND:                -0.289
REMARK SMILES O=C([O-])CCCCCCCC(=O)[O-]
REMARK SMILES IDX 7 1 6 2 5 3 4 4 2 5 1 6 3 7 8 8 9 9 10 10 11 11 12 12 13 13
REMARK H PARENT
REMARK Flexibility Score: inf
ROOT
ATOM      1  C   UNL     1      61.134  31.316  59.497  1.00  0.00     0.000 C 
ENDROOT
BRANCH   1   2
ATOM      2  C   UNL     1      61.743  32.657  59.038  1.00  0.00     0.000 C 
BRANCH   2   3
ATOM      3  C   UNL     1      62.260  33.559  60.171  1.00  0.00     0.006 C 
BRANCH   3   4
ATOM      4  C   UNL     1      63.622  34.191  59.856  1.00  0.00     0.053 C 
BRANCH   4   5
ATOM      5  C   UNL     1      63.977  35.210  60.892  1.00  0.00     0.041 C 
ATOM      6  O   UNL     1      65.015  35.067  61.590  1.00  0.00    -0.550 OA
ATOM      7  O   UNL     1      63.137  36.292  61.121  1.00  0.00    -0.550 OA
ENDBRANCH   4   5
ENDBRANCH   3   4
ENDBRANCH   2   3
ENDBRANCH   1   2
BRANCH   1   8
ATOM      8  C   UNL     1      61.150  31.074  61.018  1.00  0.00     0.000 C 
BRANCH   8   9
ATOM      9  C   UNL     1      62.138  29.994  61.502  1.00  0.00     0.006 C 
BRANCH   9  10
ATOM     10  C   UNL     1      63.051  29.442  60.392  1.00  0.00     0.053 C 
BRANCH  10  11
ATOM     11  C   UNL     1      64.482  29.846  60.573  1.00  0.00     0.041 C 
ATOM     12  O   UNL     1      64.797  31.064  60.617  1.00  0.00    -0.550 OA
ATOM     13  O   UNL     1      65.466  28.878  60.731  1.00  0.00    -0.550 OA
ENDBRANCH  10  11
ENDBRANCH   9  10
ENDBRANCH   8   9
ENDBRANCH   1   8
TORSDOF 8
ENDMDL
MODEL 6
REMARK VINA RESULT:    -3.433     12.288     14.402
REMARK INTER + INTRA:          -5.328
REMARK INTER:                  -4.606
REMARK INTRA:                  -0.721
REMARK UNBOUND:                -0.289
REMARK SMILES O=C([O-])CCCCCCCC(=O)[O-]
REMARK SMILES IDX 7 1 6 2 5 3 4 4 2 5 1 6 3 7 8 8 9 9 10 10 11 11 12 12 13 13
REMARK H PARENT
REMARK Flexibility Score: inf
ROOT
ATOM      1  C   UNL     1      63.093  32.500  58.914  1.00  0.00     0.000 C 
ENDROOT
BRANCH   1   2
ATOM      2  C   UNL     1      64.458  32.966  59.461  1.00  0.00     0.000 C 
BRANCH   2   3
ATOM      3  C   UNL     1      64.426  33.541  60.888  1.00  0.00     0.006 C 
BRANCH   3   4
ATOM      4  C   UNL     1      64.983  34.968  60.967  1.00  0.00     0.053 C 
BRANCH   4   5
ATOM      5  C   UNL     1      63.965  35.954  60.490  1.00  0.00     0.041 C 
ATOM      6  O   UNL     1      62.808  35.961  60.985  1.00  0.00    -0.550 OA
ATOM      7  O   UNL     1      64.279  36.835  59.462  1.00  0.00    -0.550 OA
ENDBRANCH   4   5
ENDBRANCH   3   4
ENDBRANCH   2   3
ENDBRANCH   1   2
BRANCH   1   8
ATOM      8  C   UNL     1      61.901  32.693  59.871  1.00  0.00     0.000 C 
BRANCH   8   9
ATOM      9  C   UNL     1      61.084  31.420  60.170  1.00  0.00     0.006 C 
BRANCH   9  10
ATOM     10  C   UNL     1      61.471  30.726  61.489  1.00  0.00     0.053 C 
BRANCH  10  11
ATOM     11  C   UNL     1      62.517  29.671  61.295  1.00  0.00     0.041 C 
ATOM     12  O   UNL     1      63.738  29.979  61.294  1.00  0.00    -0.550 OA
ATOM     13  O   UNL     1      62.146  28.340  61.153  1.00  0.00    -0.550 OA
ENDBRANCH  10  11
ENDBRANCH   9  10
ENDBRANCH   8   9
ENDBRANCH   1   8
TORSDOF 8
ENDMDL
MODEL 7
REMARK VINA RESULT:    -3.399      1.790      2.084
REMARK INTER + INTRA:          -5.278
REMARK INTER:                  -4.786
REMARK INTRA:                  -0.492
REMARK UNBOUND:                -0.289
REMARK SMILES O=C([O-])CCCCCCCC(=O)[O-]
REMARK SMILES IDX 7 1 6 2 5 3 4 4 2 5 1 6 3 7 8 8 9 9 10 10 11 11 12 12 13 13
REMARK H PARENT
REMARK Flexibility Score: inf
ROOT
ATOM      1  C   UNL     1      58.513  29.188  50.658  1.00  0.00     0.000 C 
ENDROOT
BRANCH   1   2
ATOM      2  C   UNL     1      56.998  28.926  50.542  1.00  0.00     0.000 C 
BRANCH   2   3
ATOM      3  C   UNL     1      56.615  27.509  50.080  1.00  0.00     0.006 C 
BRANCH   3   4
ATOM      4  C   UNL     1      55.124  27.371  49.751  1.00  0.00     0.053 C 
BRANCH   4   5
ATOM      5  C   UNL     1      54.659  25.973  50.007  1.00  0.00     0.041 C 
ATOM      6  O   UNL     1      54.560  25.543  51.186  1.00  0.00    -0.550 OA
ATOM      7  O   UNL     1      54.381  25.127  48.940  1.00  0.00    -0.550 OA
ENDBRANCH   4   5
ENDBRANCH   3   4
ENDBRANCH   2   3
ENDBRANCH   1   2
BRANCH   1   8
ATOM      8  C   UNL     1      59.262  29.319  49.318  1.00  0.00     0.000 C 
BRANCH   8   9
ATOM      9  C   UNL     1      60.186  28.137  48.963  1.00  0.00     0.006 C 
BRANCH   9  10
ATOM     10  C   UNL     1      60.689  27.349  50.186  1.00  0.00     0.053 C 
BRANCH  10  11
ATOM     11  C   UNL     1      60.518  25.869  50.023  1.00  0.00     0.041 C 
ATOM     12  O   UNL     1      59.372  25.351  50.097  1.00  0.00    -0.550 OA
ATOM     13  O   UNL     1      61.617  25.065  49.754  1.00  0.00    -0.550 OA
ENDBRANCH  10  11
ENDBRANCH   9  10
ENDBRANCH   8   9
ENDBRANCH   1   8
TORSDOF 8
ENDMDL
MODEL 8
REMARK VINA RESULT:    -3.331     12.102     13.614
REMARK INTER + INTRA:          -5.177
REMARK INTER:                  -4.669
REMARK INTRA:                  -0.508
REMARK UNBOUND:                -0.289
REMARK SMILES O=C([O-])CCCCCCCC(=O)[O-]
REMARK SMILES IDX 7 1 6 2 5 3 4 4 2 5 1 6 3 7 8 8 9 9 10 10 11 11 12 12 13 13
REMARK H PARENT
REMARK Flexibility Score: inf
ROOT
ATOM      1  C   UNL     1      60.836  31.132  59.710  1.00  0.00     0.000 C 
ENDROOT
BRANCH   1   2
ATOM      2  C   UNL     1      61.200  30.910  61.193  1.00  0.00     0.000 C 
BRANCH   2   3
ATOM      3  C   UNL     1      62.294  29.858  61.444  1.00  0.00     0.006 C 
BRANCH   3   4
ATOM      4  C   UNL     1      63.705  30.388  61.161  1.00  0.00     0.053 C 
BRANCH   4   5
ATOM      5  C   UNL     1      64.595  29.279  60.694  1.00  0.00     0.041 C 
ATOM      6  O   UNL     1      64.170  28.094  60.667  1.00  0.00    -0.550 OA
ATOM      7  O   UNL     1      65.910  29.548  60.335  1.00  0.00    -0.550 OA
ENDBRANCH   4   5
ENDBRANCH   3   4
ENDBRANCH   2   3
ENDBRANCH   1   2
BRANCH   1   8
ATOM      8  C   UNL     1      61.505  32.350  59.045  1.00  0.00     0.000 C 
BRANCH   8   9
ATOM      9  C   UNL     1      61.585  33.617  59.920  1.00  0.00     0.006 C 
BRANCH   9  10
ATOM     10  C   UNL     1      63.023  34.055  60.253  1.00  0.00     0.053 C 
BRANCH  10  11
ATOM     11  C   UNL     1      63.226  35.529  60.083  1.00  0.00     0.041 C 
ATOM     12  O   UNL     1      63.622  35.993  58.981  1.00  0.00    -0.550 OA
ATOM     13  O   UNL     1      62.945  36.398  61.130  1.00  0.00    -0.550 OA
ENDBRANCH  10  11
ENDBRANCH   9  10
ENDBRANCH   8   9
ENDBRANCH   1   8
TORSDOF 8
ENDMDL
MODEL 9
REMARK VINA RESULT:    -3.277      2.231      6.123
REMARK INTER + INTRA:          -5.098
REMARK INTER:                  -4.355
REMARK INTRA:                  -0.743
REMARK UNBOUND:                -0.289
REMARK SMILES O=C([O-])CCCCCCCC(=O)[O-]
REMARK SMILES IDX 7 1 6 2 5 3 4 4 2 5 1 6 3 7 8 8 9 9 10 10 11 11 12 12 13 13
REMARK H PARENT
REMARK Flexibility Score: inf
ROOT
ATOM      1  C   UNL     1      59.871  24.942  50.984  1.00  0.00     0.000 C 
ENDROOT
BRANCH   1   2
ATOM      2  C   UNL     1      60.684  25.533  49.814  1.00  0.00     0.000 C 
BRANCH   2   3
ATOM      3  C   UNL     1      61.353  26.888  50.104  1.00  0.00     0.006 C 
BRANCH   3   4
ATOM      4  C   UNL     1      60.971  27.971  49.087  1.00  0.00     0.053 C 
BRANCH   4   5
ATOM      5  C   UNL     1      59.990  28.928  49.686  1.00  0.00     0.041 C 
ATOM      6  O   UNL     1      59.803  28.948  50.931  1.00  0.00    -0.550 OA
ATOM      7  O   UNL     1      59.245  29.764  48.864  1.00  0.00    -0.550 OA
ENDBRANCH   4   5
ENDBRANCH   3   4
ENDBRANCH   2   3
ENDBRANCH   1   2
BRANCH   1   8
ATOM      8  C   UNL     1      58.507  25.611  51.240  1.00  0.00     0.000 C 
BRANCH   8   9
ATOM      9  C   UNL     1      57.717  26.001  49.974  1.00  0.00     0.006 C 
BRANCH   9  10
ATOM     10  C   UNL     1      56.751  27.181  50.181  1.00  0.00     0.053 C 
BRANCH  10  11
ATOM     11  C   UNL     1      55.389  26.913  49.616  1.00  0.00     0.041 C 
ATOM     12  O   UNL     1      54.492  27.794  49.675  1.00  0.00    -0.550 OA
ATOM     13  O   UNL     1      55.119  25.701  48.992  1.00  0.00    -0.550 OA
ENDBRANCH  10  11
ENDBRANCH   9  10
ENDBRANCH   8   9
ENDBRANCH   1   8
TORSDOF 8
ENDMDL
