MODEL 1
REMARK VINA RESULT:    -4.396      0.000      0.000
REMARK INTER + INTRA:         -11.320
REMARK INTER:                  -9.535
REMARK INTRA:                  -1.784
REMARK UNBOUND:                -1.784
REMARK SMILES C[C@@H]1O[C@@H](OC[C@@H]2O[C@H](Oc3c(-c4ccc(OCCO)c(OCCO)c4)oc4cc(OCCO)cc(O)c4c3=O)[C@H](O)[C@@H](O)[C@H]2O)[C@@H](O)[C@@H](O)[C@H]1O
REMARK SMILES IDX 11 1 12 2 27 3 28 4 29 5 30 6 35 7 36 8 38 9 39 10 40 11
REMARK SMILES IDX 10 12 9 13 7 14 45 15 8 16 43 17 41 18 6 19 5 20 4 21 1 22
REMARK SMILES IDX 2 23 51 24 3 25 49 26 47 27 52 28 50 30 48 32 46 34 44 36
REMARK SMILES IDX 42 38 13 40 26 41 14 42 21 43 15 44 16 45 22 46 23 47 24 48
REMARK SMILES IDX 25 49 17 51 18 52 19 53 20 54 37 56 31 58 32 59 33 60 34 61
REMARK H PARENT 52 29 50 31 48 33 46 35 44 37 42 39 25 50 20 55 37 57 34 62
REMARK Flexibility Score: inf
ROOT
ATOM      1  C   UNL     1      25.836  12.061   7.881  1.00  0.00     0.214 A 
ATOM      2  C   UNL     1      26.604  11.721   9.004  1.00  0.00     0.180 A 
ATOM      3  O   UNL     1      27.130  10.508   9.105  1.00  0.00    -0.452 OA
ATOM      4  C   UNL     1      26.966   9.562   8.188  1.00  0.00     0.146 A 
ATOM      5  C   UNL     1      27.570   8.322   8.398  1.00  0.00     0.094 A 
ATOM      6  C   UNL     1      27.412   7.283   7.485  1.00  0.00     0.126 A 
ATOM      7  C   UNL     1      26.643   7.501   6.331  1.00  0.00     0.093 A 
ATOM      8  C   UNL     1      26.068   8.751   6.065  1.00  0.00     0.134 A 
ATOM      9  C   UNL     1      26.196   9.803   7.021  1.00  0.00     0.111 A 
ATOM     10  C   UNL     1      25.590  11.079   6.906  1.00  0.00     0.239 A 
ATOM     11  O   UNL     1      24.797  11.342   5.969  1.00  0.00    -0.285 OA
ENDROOT
BRANCH   1  12
ATOM     12  O   UNL     1      25.367  13.375   7.746  1.00  0.00    -0.454 OA
BRANCH  12  13
ATOM     13  C   UNL     1      25.670  14.194   6.617  1.00  0.00     0.339 C 
ATOM     14  C   UNL     1      24.752  15.645   5.045  1.00  0.00     0.180 C 
ATOM     15  C   UNL     1      25.897  16.682   5.201  1.00  0.00     0.177 C 
ATOM     16  O   UNL     1      24.533  14.969   6.276  1.00  0.00    -0.332 OA
ATOM     17  C   UNL     1      27.177  16.010   5.747  1.00  0.00     0.180 C 
ATOM     18  C   UNL     1      26.847  15.126   6.962  1.00  0.00     0.214 C 
BRANCH  14  19
ATOM     19  C   UNL     1      23.438  16.320   4.589  1.00  0.00     0.198 C 
BRANCH  19  20
ATOM     20  O   UNL     1      22.661  16.684   5.717  1.00  0.00    -0.347 OA
BRANCH  20  21
ATOM     21  C   UNL     1      21.665  17.634   5.368  1.00  0.00     0.281 C 
ATOM     22  C   UNL     1      20.721  18.841   8.713  1.00  0.00     0.041 C 
ATOM     23  C   UNL     1      20.881  17.830   7.579  1.00  0.00     0.150 C 
ATOM     24  C   UNL     1      19.532  17.135   7.259  1.00  0.00     0.174 C 
ATOM     25  O   UNL     1      21.371  18.523   6.439  1.00  0.00    -0.344 OA
ATOM     26  C   UNL     1      19.699  16.166   6.067  1.00  0.00     0.179 C 
ATOM     27  C   UNL     1      20.373  16.917   4.901  1.00  0.00     0.202 C 
BRANCH  24  28
ATOM     28  O   UNL     1      19.002  16.466   8.382  1.00  0.00    -0.388 OA
ATOM     29  H   UNL     1      18.304  17.046   8.783  1.00  0.00     0.211 HD
ENDBRANCH  24  28
BRANCH  26  30
ATOM     30  O   UNL     1      20.482  15.055   6.439  1.00  0.00    -0.387 OA
ATOM     31  H   UNL     1      21.426  15.363   6.477  1.00  0.00     0.211 HD
ENDBRANCH  26  30
BRANCH  27  32
ATOM     32  O   UNL     1      20.613  16.065   3.804  1.00  0.00    -0.385 OA
ATOM     33  H   UNL     1      19.741  15.728   3.474  1.00  0.00     0.211 HD
ENDBRANCH  27  32
ENDBRANCH  20  21
ENDBRANCH  19  20
ENDBRANCH  14  19
BRANCH  15  34
ATOM     34  O   UNL     1      26.182  17.297   3.970  1.00  0.00    -0.387 OA
ATOM     35  H   UNL     1      27.073  16.982   3.686  1.00  0.00     0.211 HD
ENDBRANCH  15  34
BRANCH  17  36
ATOM     36  O   UNL     1      27.782  15.218   4.753  1.00  0.00    -0.387 OA
ATOM     37  H   UNL     1      27.206  14.418   4.630  1.00  0.00     0.211 HD
ENDBRANCH  17  36
BRANCH  18  38
ATOM     38  O   UNL     1      26.508  15.946   8.056  1.00  0.00    -0.384 OA
ATOM     39  H   UNL     1      27.274  15.918   8.687  1.00  0.00     0.211 HD
ENDBRANCH  18  38
ENDBRANCH  12  13
ENDBRANCH   1  12
BRANCH   2  40
ATOM     40  C   UNL     1      26.886  12.703  10.072  1.00  0.00     0.025 A 
ATOM     41  C   UNL     1      26.137  12.673  11.255  1.00  0.00     0.062 A 
ATOM     42  C   UNL     1      27.869  13.686   9.903  1.00  0.00     0.016 A 
ATOM     43  C   UNL     1      26.391  13.593  12.290  1.00  0.00     0.162 A 
ATOM     44  C   UNL     1      28.108  14.623  10.908  1.00  0.00     0.051 A 
ATOM     45  C   UNL     1      27.378  14.578  12.111  1.00  0.00     0.161 A 
BRANCH  43  46
ATOM     46  O   UNL     1      25.686  13.576  13.509  1.00  0.00    -0.487 OA
BRANCH  46  47
ATOM     47  C   UNL     1      24.391  14.130  13.747  1.00  0.00     0.258 C 
BRANCH  47  48
ATOM     48  C   UNL     1      24.263  15.522  13.130  1.00  0.00     0.197 C 
BRANCH  48  49
ATOM     49  O   UNL     1      24.112  16.503  14.120  1.00  0.00    -0.393 OA
ATOM     50  H   UNL     1      24.642  17.291  13.822  1.00  0.00     0.210 HD
ENDBRANCH  48  49
ENDBRANCH  47  48
ENDBRANCH  46  47
ENDBRANCH  43  46
BRANCH  45  51
ATOM     51  O   UNL     1      27.603  15.487  13.159  1.00  0.00    -0.487 OA
BRANCH  51  52
ATOM     52  C   UNL     1      28.125  16.809  13.018  1.00  0.00     0.258 C 
BRANCH  52  53
ATOM     53  C   UNL     1      27.013  17.800  12.663  1.00  0.00     0.197 C 
BRANCH  53  54
ATOM     54  O   UNL     1      26.824  17.849  11.278  1.00  0.00    -0.393 OA
ATOM     55  H   UNL     1      27.727  17.920  10.867  1.00  0.00     0.210 HD
ENDBRANCH  53  54
ENDBRANCH  52  53
ENDBRANCH  51  52
ENDBRANCH  45  51
ENDBRANCH   2  40
BRANCH   8  56
ATOM     56  O   UNL     1      25.420   8.890   4.835  1.00  0.00    -0.507 OA
ATOM     57  H   UNL     1      25.890   8.949   3.938  1.00  0.00     0.293 HD
ENDBRANCH   8  56
BRANCH   6  58
ATOM     58  O   UNL     1      28.040   6.057   7.760  1.00  0.00    -0.491 OA
BRANCH  58  59
ATOM     59  C   UNL     1      27.377   4.797   7.808  1.00  0.00     0.257 C 
BRANCH  59  60
ATOM     60  C   UNL     1      27.970   3.869   6.754  1.00  0.00     0.197 C 
BRANCH  60  61
ATOM     61  O   UNL     1      27.398   2.596   6.865  1.00  0.00    -0.393 OA
ATOM     62  H   UNL     1      26.596   2.710   7.438  1.00  0.00     0.210 HD
ENDBRANCH  60  61
ENDBRANCH  59  60
ENDBRANCH  58  59
ENDBRANCH   6  58
TORSDOF 25
ENDMDL
MODEL 2
REMARK VINA RESULT:    -3.604      1.964      7.406
REMARK INTER + INTRA:          -9.602
REMARK INTER:                  -9.236
REMARK INTRA:                  -0.366
REMARK UNBOUND:                -1.784
REMARK SMILES C[C@@H]1O[C@@H](OC[C@@H]2O[C@H](Oc3c(-c4ccc(OCCO)c(OCCO)c4)oc4cc(OCCO)cc(O)c4c3=O)[C@H](O)[C@@H](O)[C@H]2O)[C@@H](O)[C@@H](O)[C@H]1O
REMARK SMILES IDX 11 1 12 2 27 3 28 4 29 5 30 6 35 7 36 8 38 9 39 10 40 11
REMARK SMILES IDX 10 12 9 13 7 14 45 15 8 16 43 17 41 18 6 19 5 20 4 21 1 22
REMARK SMILES IDX 2 23 51 24 3 25 49 26 47 27 52 28 50 30 48 32 46 34 44 36
REMARK SMILES IDX 42 38 13 40 26 41 14 42 21 43 15 44 16 45 22 46 23 47 24 48
REMARK SMILES IDX 25 49 17 51 18 52 19 53 20 54 37 56 31 58 32 59 33 60 34 61
REMARK H PARENT 52 29 50 31 48 33 46 35 44 37 42 39 25 50 20 55 37 57 34 62
REMARK Flexibility Score: inf
ROOT
ATOM      1  C   UNL     1      25.806  14.766   6.173  1.00  0.00     0.214 A 
ATOM      2  C   UNL     1      24.631  14.388   5.509  1.00  0.00     0.180 A 
ATOM      3  O   UNL     1      24.284  13.109   5.450  1.00  0.00    -0.452 OA
ATOM      4  C   UNL     1      25.004  12.132   5.990  1.00  0.00     0.146 A 
ATOM      5  C   UNL     1      24.539  10.822   5.869  1.00  0.00     0.094 A 
ATOM      6  C   UNL     1      25.263   9.753   6.391  1.00  0.00     0.126 A 
ATOM      7  C   UNL     1      26.470  10.009   7.060  1.00  0.00     0.093 A 
ATOM      8  C   UNL     1      26.936  11.318   7.244  1.00  0.00     0.134 A 
ATOM      9  C   UNL     1      26.215  12.410   6.673  1.00  0.00     0.111 A 
ATOM     10  C   UNL     1      26.629  13.764   6.718  1.00  0.00     0.239 A 
ATOM     11  O   UNL     1      27.743  14.091   7.196  1.00  0.00    -0.285 OA
ENDROOT
BRANCH   1  12
ATOM     12  O   UNL     1      26.108  16.128   6.307  1.00  0.00    -0.454 OA
BRANCH  12  13
ATOM     13  C   UNL     1      25.952  16.840   7.534  1.00  0.00     0.339 C 
ATOM     14  C   UNL     1      26.709  16.993   9.730  1.00  0.00     0.180 C 
ATOM     15  C   UNL     1      26.824  18.541   9.677  1.00  0.00     0.177 C 
ATOM     16  O   UNL     1      26.961  16.440   8.445  1.00  0.00    -0.332 OA
ATOM     17  C   UNL     1      25.898  19.124   8.586  1.00  0.00     0.180 C 
ATOM     18  C   UNL     1      26.067  18.353   7.265  1.00  0.00     0.214 C 
BRANCH  14  19
ATOM     19  C   UNL     1      27.699  16.388  10.752  1.00  0.00     0.198 C 
BRANCH  19  20
ATOM     20  O   UNL     1      27.099  15.289  11.418  1.00  0.00    -0.347 OA
BRANCH  20  21
ATOM     21  C   UNL     1      27.430  15.285  12.799  1.00  0.00     0.281 C 
ATOM     22  C   UNL     1      24.680  13.227  14.119  1.00  0.00     0.041 C 
ATOM     23  C   UNL     1      25.333  14.431  13.441  1.00  0.00     0.150 C 
ATOM     24  C   UNL     1      24.901  15.755  14.124  1.00  0.00     0.174 C 
ATOM     25  O   UNL     1      26.743  14.265  13.514  1.00  0.00    -0.344 OA
ATOM     26  C   UNL     1      25.622  16.954  13.470  1.00  0.00     0.179 C 
ATOM     27  C   UNL     1      27.138  16.669  13.430  1.00  0.00     0.202 C 
BRANCH  24  28
ATOM     28  O   UNL     1      23.503  15.932  14.100  1.00  0.00    -0.388 OA
ATOM     29  H   UNL     1      23.281  16.706  14.680  1.00  0.00     0.211 HD
ENDBRANCH  24  28
BRANCH  26  30
ATOM     30  O   UNL     1      25.140  17.168  12.163  1.00  0.00    -0.387 OA
ATOM     31  H   UNL     1      25.771  16.716  11.542  1.00  0.00     0.211 HD
ENDBRANCH  26  30
BRANCH  27  32
ATOM     32  O   UNL     1      27.844  17.702  12.783  1.00  0.00    -0.385 OA
ATOM     33  H   UNL     1      28.709  17.830  13.250  1.00  0.00     0.211 HD
ENDBRANCH  27  32
ENDBRANCH  20  21
ENDBRANCH  19  20
ENDBRANCH  14  19
BRANCH  15  34
ATOM     34  O   UNL     1      26.493  19.105  10.920  1.00  0.00    -0.387 OA
ATOM     35  H   UNL     1      25.719  18.604  11.272  1.00  0.00     0.211 HD
ENDBRANCH  15  34
BRANCH  17  36
ATOM     36  O   UNL     1      24.552  19.054   8.991  1.00  0.00    -0.387 OA
ATOM     37  H   UNL     1      24.430  19.731   9.707  1.00  0.00     0.211 HD
ENDBRANCH  17  36
BRANCH  18  38
ATOM     38  O   UNL     1      27.327  18.649   6.710  1.00  0.00    -0.384 OA
ATOM     39  H   UNL     1      27.453  18.040   5.937  1.00  0.00     0.211 HD
ENDBRANCH  18  38
ENDBRANCH  12  13
ENDBRANCH   1  12
BRANCH   2  40
ATOM     40  C   UNL     1      23.731  15.391   4.902  1.00  0.00     0.025 A 
ATOM     41  C   UNL     1      22.460  15.602   5.450  1.00  0.00     0.062 A 
ATOM     42  C   UNL     1      24.119  16.108   3.764  1.00  0.00     0.016 A 
ATOM     43  C   UNL     1      21.587  16.557   4.893  1.00  0.00     0.162 A 
ATOM     44  C   UNL     1      23.252  17.034   3.184  1.00  0.00     0.051 A 
ATOM     45  C   UNL     1      21.984  17.271   3.749  1.00  0.00     0.161 A 
BRANCH  43  46
ATOM     46  O   UNL     1      20.315  16.827   5.434  1.00  0.00    -0.487 OA
BRANCH  46  47
ATOM     47  C   UNL     1      19.936  16.713   6.807  1.00  0.00     0.258 C 
BRANCH  47  48
ATOM     48  C   UNL     1      19.254  15.373   7.083  1.00  0.00     0.197 C 
BRANCH  48  49
ATOM     49  O   UNL     1      20.135  14.475   7.700  1.00  0.00    -0.393 OA
ATOM     50  H   UNL     1      20.607  13.992   6.969  1.00  0.00     0.210 HD
ENDBRANCH  48  49
ENDBRANCH  47  48
ENDBRANCH  46  47
ENDBRANCH  43  46
BRANCH  45  51
ATOM     51  O   UNL     1      21.088  18.212   3.213  1.00  0.00    -0.487 OA
BRANCH  51  52
ATOM     52  C   UNL     1      20.495  18.153   1.915  1.00  0.00     0.258 C 
BRANCH  52  53
ATOM     53  C   UNL     1      19.361  17.126   1.879  1.00  0.00     0.197 C 
BRANCH  53  54
ATOM     54  O   UNL     1      19.501  16.277   0.776  1.00  0.00    -0.393 OA
ATOM     55  H   UNL     1      18.614  16.239   0.328  1.00  0.00     0.210 HD
ENDBRANCH  53  54
ENDBRANCH  52  53
ENDBRANCH  51  52
ENDBRANCH  45  51
ENDBRANCH   2  40
BRANCH   8  56
ATOM     56  O   UNL     1      28.088  11.466   8.021  1.00  0.00    -0.507 OA
ATOM     57  H   UNL     1      28.944  10.940   7.889  1.00  0.00     0.293 HD
ENDBRANCH   8  56
BRANCH   6  58
ATOM     58  O   UNL     1      24.743   8.459   6.228  1.00  0.00    -0.491 OA
BRANCH  58  59
ATOM     59  C   UNL     1      25.466   7.256   6.476  1.00  0.00     0.257 C 
BRANCH  59  60
ATOM     60  C   UNL     1      26.396   6.970   5.302  1.00  0.00     0.197 C 
BRANCH  60  61
ATOM     61  O   UNL     1      26.471   5.589   5.081  1.00  0.00    -0.393 OA
ATOM     62  H   UNL     1      25.554   5.306   4.829  1.00  0.00     0.210 HD
ENDBRANCH  60  61
ENDBRANCH  59  60
ENDBRANCH  58  59
ENDBRANCH   6  58
TORSDOF 25
ENDMDL
MODEL 3
REMARK VINA RESULT:    -3.601     15.620     19.771
REMARK INTER + INTRA:          -9.595
REMARK INTER:                  -6.860
REMARK INTRA:                  -2.736
REMARK UNBOUND:                -1.784
REMARK SMILES C[C@@H]1O[C@@H](OC[C@@H]2O[C@H](Oc3c(-c4ccc(OCCO)c(OCCO)c4)oc4cc(OCCO)cc(O)c4c3=O)[C@H](O)[C@@H](O)[C@H]2O)[C@@H](O)[C@@H](O)[C@H]1O
REMARK SMILES IDX 11 1 12 2 27 3 28 4 29 5 30 6 35 7 36 8 38 9 39 10 40 11
REMARK SMILES IDX 10 12 9 13 7 14 45 15 8 16 43 17 41 18 6 19 5 20 4 21 1 22
REMARK SMILES IDX 2 23 51 24 3 25 49 26 47 27 52 28 50 30 48 32 46 34 44 36
REMARK SMILES IDX 42 38 13 40 26 41 14 42 21 43 15 44 16 45 22 46 23 47 24 48
REMARK SMILES IDX 25 49 17 51 18 52 19 53 20 54 37 56 31 58 32 59 33 60 34 61
REMARK H PARENT 52 29 50 31 48 33 46 35 44 37 42 39 25 50 20 55 37 57 34 62
REMARK Flexibility Score: inf
ROOT
ATOM      1  C   UNL     1      11.300   1.931   2.301  1.00  0.00     0.214 A 
ATOM      2  C   UNL     1      11.760   3.255   2.327  1.00  0.00     0.180 A 
ATOM      3  O   UNL     1      12.994   3.520   2.734  1.00  0.00    -0.452 OA
ATOM      4  C   UNL     1      13.847   2.585   3.137  1.00  0.00     0.146 A 
ATOM      5  C   UNL     1      15.123   2.981   3.540  1.00  0.00     0.094 A 
ATOM      6  C   UNL     1      16.051   2.050   3.998  1.00  0.00     0.126 A 
ATOM      7  C   UNL     1      15.694   0.693   4.036  1.00  0.00     0.093 A 
ATOM      8  C   UNL     1      14.439   0.259   3.588  1.00  0.00     0.134 A 
ATOM      9  C   UNL     1      13.473   1.218   3.159  1.00  0.00     0.111 A 
ATOM     10  C   UNL     1      12.147   0.910   2.765  1.00  0.00     0.239 A 
ATOM     11  O   UNL     1      11.691  -0.256   2.864  1.00  0.00    -0.285 OA
ENDROOT
BRANCH   1  12
ATOM     12  O   UNL     1      10.027   1.660   1.779  1.00  0.00    -0.454 OA
BRANCH  12  13
ATOM     13  C   UNL     1       9.822   1.137   0.467  1.00  0.00     0.339 C 
ATOM     14  C   UNL     1      10.886   0.607  -1.534  1.00  0.00     0.180 C 
ATOM     15  C   UNL     1      10.176  -0.769  -1.652  1.00  0.00     0.177 C 
ATOM     16  O   UNL     1      11.076   0.944  -0.167  1.00  0.00    -0.332 OA
ATOM     17  C   UNL     1       8.855  -0.775  -0.849  1.00  0.00     0.180 C 
ATOM     18  C   UNL     1       9.079  -0.209   0.564  1.00  0.00     0.214 C 
BRANCH  14  19
ATOM     19  C   UNL     1      12.255   0.599  -2.255  1.00  0.00     0.198 C 
BRANCH  19  20
ATOM     20  O   UNL     1      12.857   1.879  -2.169  1.00  0.00    -0.347 OA
BRANCH  20  21
ATOM     21  C   UNL     1      14.142   1.881  -2.774  1.00  0.00     0.281 C 
ATOM     22  C   UNL     1      16.047  -0.015  -0.262  1.00  0.00     0.041 C 
ATOM     23  C   UNL     1      15.219   1.144  -0.816  1.00  0.00     0.150 C 
ATOM     24  C   UNL     1      15.940   2.499  -0.593  1.00  0.00     0.174 C 
ATOM     25  O   UNL     1      15.008   0.909  -2.202  1.00  0.00    -0.344 OA
ATOM     26  C   UNL     1      15.121   3.649  -1.218  1.00  0.00     0.179 C 
ATOM     27  C   UNL     1      14.783   3.289  -2.679  1.00  0.00     0.202 C 
BRANCH  24  28
ATOM     28  O   UNL     1      16.195   2.745   0.772  1.00  0.00    -0.388 OA
ATOM     29  H   UNL     1      15.601   3.482   1.067  1.00  0.00     0.211 HD
ENDBRANCH  24  28
BRANCH  26  30
ATOM     30  O   UNL     1      13.934   3.865  -0.490  1.00  0.00    -0.387 OA
ATOM     31  H   UNL     1      13.475   4.643  -0.904  1.00  0.00     0.211 HD
ENDBRANCH  26  30
BRANCH  27  32
ATOM     32  O   UNL     1      13.978   4.275  -3.285  1.00  0.00    -0.385 OA
ATOM     33  H   UNL     1      14.564   4.877  -3.810  1.00  0.00     0.211 HD
ENDBRANCH  27  32
ENDBRANCH  20  21
ENDBRANCH  19  20
ENDBRANCH  14  19
BRANCH  15  34
ATOM     34  O   UNL     1       9.906  -1.074  -2.996  1.00  0.00    -0.387 OA
ATOM     35  H   UNL     1       8.971  -1.387  -3.042  1.00  0.00     0.211 HD
ENDBRANCH  15  34
BRANCH  17  36
ATOM     36  O   UNL     1       7.875  -0.006  -1.504  1.00  0.00    -0.387 OA
ATOM     37  H   UNL     1       6.996  -0.284  -1.136  1.00  0.00     0.211 HD
ENDBRANCH  17  36
BRANCH  18  38
ATOM     38  O   UNL     1       9.836  -1.125   1.319  1.00  0.00    -0.384 OA
ATOM     39  H   UNL     1      10.705  -1.236   0.852  1.00  0.00     0.211 HD
ENDBRANCH  18  38
ENDBRANCH  12  13
ENDBRANCH   1  12
BRANCH   2  40
ATOM     40  C   UNL     1      10.914   4.376   1.867  1.00  0.00     0.025 A 
ATOM     41  C   UNL     1      10.197   4.256   0.670  1.00  0.00     0.062 A 
ATOM     42  C   UNL     1      10.845   5.570   2.595  1.00  0.00     0.016 A 
ATOM     43  C   UNL     1       9.378   5.307   0.214  1.00  0.00     0.162 A 
ATOM     44  C   UNL     1      10.063   6.630   2.137  1.00  0.00     0.051 A 
ATOM     45  C   UNL     1       9.317   6.503   0.950  1.00  0.00     0.161 A 
BRANCH  43  46
ATOM     46  O   UNL     1       8.613   5.215  -0.965  1.00  0.00    -0.487 OA
BRANCH  46  47
ATOM     47  C   UNL     1       9.115   4.999  -2.286  1.00  0.00     0.258 C 
BRANCH  47  48
ATOM     48  C   UNL     1      10.452   5.710  -2.492  1.00  0.00     0.197 C 
BRANCH  48  49
ATOM     49  O   UNL     1      11.525   4.817  -2.365  1.00  0.00    -0.393 OA
ATOM     50  H   UNL     1      12.307   5.248  -2.804  1.00  0.00     0.210 HD
ENDBRANCH  48  49
ENDBRANCH  47  48
ENDBRANCH  46  47
ENDBRANCH  43  46
BRANCH  45  51
ATOM     51  O   UNL     1       8.497   7.537   0.465  1.00  0.00    -0.487 OA
BRANCH  51  52
ATOM     52  C   UNL     1       8.924   8.625  -0.355  1.00  0.00     0.258 C 
BRANCH  52  53
ATOM     53  C   UNL     1       8.299   8.535  -1.749  1.00  0.00     0.197 C 
BRANCH  53  54
ATOM     54  O   UNL     1       8.866   9.487  -2.603  1.00  0.00    -0.393 OA
ATOM     55  H   UNL     1       9.022   9.033  -3.475  1.00  0.00     0.210 HD
ENDBRANCH  53  54
ENDBRANCH  52  53
ENDBRANCH  51  52
ENDBRANCH  45  51
ENDBRANCH   2  40
BRANCH   8  56
ATOM     56  O   UNL     1      14.230  -1.123   3.565  1.00  0.00    -0.507 OA
ATOM     57  H   UNL     1      14.275  -1.699   2.732  1.00  0.00     0.293 HD
ENDBRANCH   8  56
BRANCH   6  58
ATOM     58  O   UNL     1      17.315   2.515   4.396  1.00  0.00    -0.491 OA
BRANCH  58  59
ATOM     59  C   UNL     1      17.813   2.473   5.730  1.00  0.00     0.257 C 
BRANCH  59  60
ATOM     60  C   UNL     1      18.688   1.238   5.910  1.00  0.00     0.197 C 
BRANCH  60  61
ATOM     61  O   UNL     1      20.007   1.531   5.541  1.00  0.00    -0.393 OA
ATOM     62  H   UNL     1      20.183   2.448   5.877  1.00  0.00     0.210 HD
ENDBRANCH  60  61
ENDBRANCH  59  60
ENDBRANCH  58  59
ENDBRANCH   6  58
TORSDOF 25
ENDMDL
MODEL 4
REMARK VINA RESULT:    -2.902      2.600      5.037
REMARK INTER + INTRA:          -8.079
REMARK INTER:                  -7.597
REMARK INTRA:                  -0.482
REMARK UNBOUND:                -1.784
REMARK SMILES C[C@@H]1O[C@@H](OC[C@@H]2O[C@H](Oc3c(-c4ccc(OCCO)c(OCCO)c4)oc4cc(OCCO)cc(O)c4c3=O)[C@H](O)[C@@H](O)[C@H]2O)[C@@H](O)[C@@H](O)[C@H]1O
REMARK SMILES IDX 11 1 12 2 27 3 28 4 29 5 30 6 35 7 36 8 38 9 39 10 40 11
REMARK SMILES IDX 10 12 9 13 7 14 45 15 8 16 43 17 41 18 6 19 5 20 4 21 1 22
REMARK SMILES IDX 2 23 51 24 3 25 49 26 47 27 52 28 50 30 48 32 46 34 44 36
REMARK SMILES IDX 42 38 13 40 26 41 14 42 21 43 15 44 16 45 22 46 23 47 24 48
REMARK SMILES IDX 25 49 17 51 18 52 19 53 20 54 37 56 31 58 32 59 33 60 34 61
REMARK H PARENT 52 29 50 31 48 33 46 35 44 37 42 39 25 50 20 55 37 57 34 62
REMARK Flexibility Score: inf
ROOT
ATOM      1  C   UNL     1      24.629  12.723   5.838  1.00  0.00     0.214 A 
ATOM      2  C   UNL     1      25.621  12.939   6.805  1.00  0.00     0.180 A 
ATOM      3  O   UNL     1      26.237  11.907   7.366  1.00  0.00    -0.452 OA
ATOM      4  C   UNL     1      25.963  10.643   7.065  1.00  0.00     0.146 A 
ATOM      5  C   UNL     1      26.679   9.637   7.715  1.00  0.00     0.094 A 
ATOM      6  C   UNL     1      26.418   8.293   7.463  1.00  0.00     0.126 A 
ATOM      7  C   UNL     1      25.429   7.954   6.527  1.00  0.00     0.093 A 
ATOM      8  C   UNL     1      24.730   8.942   5.819  1.00  0.00     0.134 A 
ATOM      9  C   UNL     1      24.968  10.319   6.108  1.00  0.00     0.111 A 
ATOM     10  C   UNL     1      24.267  11.402   5.522  1.00  0.00     0.239 A 
ATOM     11  O   UNL     1      23.292  11.209   4.755  1.00  0.00    -0.285 OA
ENDROOT
BRANCH   1  12
ATOM     12  O   UNL     1      24.055  13.825   5.189  1.00  0.00    -0.454 OA
BRANCH  12  13
ATOM     13  C   UNL     1      22.888  14.489   5.673  1.00  0.00     0.339 C 
ATOM     14  C   UNL     1      21.407  16.235   5.255  1.00  0.00     0.180 C 
ATOM     15  C   UNL     1      20.155  15.361   5.540  1.00  0.00     0.177 C 
ATOM     16  O   UNL     1      22.449  15.435   4.713  1.00  0.00    -0.332 OA
ATOM     17  C   UNL     1      20.517  14.162   6.446  1.00  0.00     0.180 C 
ATOM     18  C   UNL     1      21.777  13.451   5.923  1.00  0.00     0.214 C 
BRANCH  14  19
ATOM     19  C   UNL     1      21.080  17.385   4.273  1.00  0.00     0.198 C 
BRANCH  19  20
ATOM     20  O   UNL     1      20.403  16.877   3.137  1.00  0.00    -0.347 OA
BRANCH  20  21
ATOM     21  C   UNL     1      20.493  17.777   2.042  1.00  0.00     0.281 C 
ATOM     22  C   UNL     1      16.927  18.507   1.507  1.00  0.00     0.041 C 
ATOM     23  C   UNL     1      18.191  17.651   1.569  1.00  0.00     0.150 C 
ATOM     24  C   UNL     1      18.413  16.890   0.236  1.00  0.00     0.174 C 
ATOM     25  O   UNL     1      19.289  18.509   1.847  1.00  0.00    -0.344 OA
ATOM     26  C   UNL     1      19.730  16.083   0.295  1.00  0.00     0.179 C 
ATOM     27  C   UNL     1      20.872  17.017   0.746  1.00  0.00     0.202 C 
BRANCH  24  28
ATOM     28  O   UNL     1      17.324  16.055  -0.086  1.00  0.00    -0.388 OA
ATOM     29  H   UNL     1      16.684  16.582  -0.630  1.00  0.00     0.211 HD
ENDBRANCH  24  28
BRANCH  26  30
ATOM     30  O   UNL     1      19.609  15.004   1.192  1.00  0.00    -0.387 OA
ATOM     31  H   UNL     1      20.513  14.602   1.288  1.00  0.00     0.211 HD
ENDBRANCH  26  30
BRANCH  27  32
ATOM     32  O   UNL     1      22.089  16.320   0.881  1.00  0.00    -0.385 OA
ATOM     33  H   UNL     1      22.175  16.021   1.822  1.00  0.00     0.211 HD
ENDBRANCH  27  32
ENDBRANCH  20  21
ENDBRANCH  19  20
ENDBRANCH  14  19
BRANCH  15  34
ATOM     34  O   UNL     1      19.148  16.123   6.155  1.00  0.00    -0.387 OA
ATOM     35  H   UNL     1      18.475  16.330   5.463  1.00  0.00     0.211 HD
ENDBRANCH  15  34
BRANCH  17  36
ATOM     36  O   UNL     1      20.745  14.592   7.766  1.00  0.00    -0.387 OA
ATOM     37  H   UNL     1      21.727  14.572   7.912  1.00  0.00     0.211 HD
ENDBRANCH  17  36
BRANCH  18  38
ATOM     38  O   UNL     1      21.469  12.777   4.726  1.00  0.00    -0.384 OA
ATOM     39  H   UNL     1      20.486  12.841   4.602  1.00  0.00     0.211 HD
ENDBRANCH  18  38
ENDBRANCH  12  13
ENDBRANCH   1  12
BRANCH   2  40
ATOM     40  C   UNL     1      26.036  14.303   7.193  1.00  0.00     0.025 A 
ATOM     41  C   UNL     1      25.594  15.401   6.443  1.00  0.00     0.062 A 
ATOM     42  C   UNL     1      26.893  14.511   8.280  1.00  0.00     0.016 A 
ATOM     43  C   UNL     1      25.971  16.711   6.797  1.00  0.00     0.162 A 
ATOM     44  C   UNL     1      27.300  15.801   8.621  1.00  0.00     0.051 A 
ATOM     45  C   UNL     1      26.834  16.910   7.889  1.00  0.00     0.161 A 
BRANCH  43  46
ATOM     46  O   UNL     1      25.522  17.845   6.093  1.00  0.00    -0.487 OA
BRANCH  46  47
ATOM     47  C   UNL     1      24.582  17.856   5.016  1.00  0.00     0.258 C 
BRANCH  47  48
ATOM     48  C   UNL     1      25.231  17.394   3.711  1.00  0.00     0.197 C 
BRANCH  48  49
ATOM     49  O   UNL     1      24.273  16.900   2.816  1.00  0.00    -0.393 OA
ATOM     50  H   UNL     1      23.730  17.681   2.522  1.00  0.00     0.210 HD
ENDBRANCH  48  49
ENDBRANCH  47  48
ENDBRANCH  46  47
ENDBRANCH  43  46
BRANCH  45  51
ATOM     51  O   UNL     1      27.198  18.229   8.213  1.00  0.00    -0.487 OA
BRANCH  51  52
ATOM     52  C   UNL     1      26.443  19.125   9.028  1.00  0.00     0.258 C 
BRANCH  52  53
ATOM     53  C   UNL     1      26.373  18.622  10.472  1.00  0.00     0.197 C 
BRANCH  53  54
ATOM     54  O   UNL     1      25.088  18.158  10.769  1.00  0.00    -0.393 OA
ATOM     55  H   UNL     1      24.740  18.728  11.507  1.00  0.00     0.210 HD
ENDBRANCH  53  54
ENDBRANCH  52  53
ENDBRANCH  51  52
ENDBRANCH  45  51
ENDBRANCH   2  40
BRANCH   8  56
ATOM     56  O   UNL     1      23.849   8.494   4.831  1.00  0.00    -0.507 OA
ATOM     57  H   UNL     1      24.119   7.949   4.020  1.00  0.00     0.293 HD
ENDBRANCH   8  56
BRANCH   6  58
ATOM     58  O   UNL     1      27.169   7.330   8.157  1.00  0.00    -0.491 OA
BRANCH  58  59
ATOM     59  C   UNL     1      27.289   5.963   7.775  1.00  0.00     0.257 C 
BRANCH  59  60
ATOM     60  C   UNL     1      28.125   5.859   6.504  1.00  0.00     0.197 C 
BRANCH  60  61
ATOM     61  O   UNL     1      27.375   5.252   5.490  1.00  0.00    -0.393 OA
ATOM     62  H   UNL     1      27.095   5.987   4.885  1.00  0.00     0.210 HD
ENDBRANCH  60  61
ENDBRANCH  59  60
ENDBRANCH  58  59
ENDBRANCH   6  58
TORSDOF 25
ENDMDL
MODEL 5
REMARK VINA RESULT:    -2.638     16.641     19.951
REMARK INTER + INTRA:          -7.506
REMARK INTER:                  -6.016
REMARK INTRA:                  -1.491
REMARK UNBOUND:                -1.784
REMARK SMILES C[C@@H]1O[C@@H](OC[C@@H]2O[C@H](Oc3c(-c4ccc(OCCO)c(OCCO)c4)oc4cc(OCCO)cc(O)c4c3=O)[C@H](O)[C@@H](O)[C@H]2O)[C@@H](O)[C@@H](O)[C@H]1O
REMARK SMILES IDX 11 1 12 2 27 3 28 4 29 5 30 6 35 7 36 8 38 9 39 10 40 11
REMARK SMILES IDX 10 12 9 13 7 14 45 15 8 16 43 17 41 18 6 19 5 20 4 21 1 22
REMARK SMILES IDX 2 23 51 24 3 25 49 26 47 27 52 28 50 30 48 32 46 34 44 36
REMARK SMILES IDX 42 38 13 40 26 41 14 42 21 43 15 44 16 45 22 46 23 47 24 48
REMARK SMILES IDX 25 49 17 51 18 52 19 53 20 54 37 56 31 58 32 59 33 60 34 61
REMARK H PARENT 52 29 50 31 48 33 46 35 44 37 42 39 25 50 20 55 37 57 34 62
REMARK Flexibility Score: inf
ROOT
ATOM      1  C   UNL     1      14.083  -0.757   2.400  1.00  0.00     0.214 A 
ATOM      2  C   UNL     1      12.768  -0.906   2.863  1.00  0.00     0.180 A 
ATOM      3  O   UNL     1      12.528  -0.987   4.165  1.00  0.00    -0.452 OA
ATOM      4  C   UNL     1      13.482  -0.941   5.087  1.00  0.00     0.146 A 
ATOM      5  C   UNL     1      13.112  -1.030   6.429  1.00  0.00     0.094 A 
ATOM      6  C   UNL     1      14.069  -1.015   7.440  1.00  0.00     0.126 A 
ATOM      7  C   UNL     1      15.424  -0.891   7.094  1.00  0.00     0.093 A 
ATOM      8  C   UNL     1      15.823  -0.745   5.759  1.00  0.00     0.134 A 
ATOM      9  C   UNL     1      14.845  -0.803   4.721  1.00  0.00     0.111 A 
ATOM     10  C   UNL     1      15.134  -0.754   3.334  1.00  0.00     0.239 A 
ATOM     11  O   UNL     1      16.317  -0.752   2.913  1.00  0.00    -0.285 OA
ENDROOT
BRANCH   1  12
ATOM     12  O   UNL     1      14.309  -0.579   1.028  1.00  0.00    -0.454 OA
BRANCH  12  13
ATOM     13  C   UNL     1      14.417   0.708   0.421  1.00  0.00     0.339 C 
ATOM     14  C   UNL     1      14.023   2.979   0.743  1.00  0.00     0.180 C 
ATOM     15  C   UNL     1      15.413   3.391   0.185  1.00  0.00     0.177 C 
ATOM     16  O   UNL     1      14.107   1.709   1.375  1.00  0.00    -0.332 OA
ATOM     17  C   UNL     1      15.975   2.296  -0.751  1.00  0.00     0.180 C 
ATOM     18  C   UNL     1      15.855   0.910  -0.094  1.00  0.00     0.214 C 
BRANCH  14  19
ATOM     19  C   UNL     1      13.490   4.021   1.754  1.00  0.00     0.198 C 
BRANCH  19  20
ATOM     20  O   UNL     1      12.326   4.646   1.240  1.00  0.00    -0.347 OA
BRANCH  20  21
ATOM     21  C   UNL     1      11.405   3.685   0.746  1.00  0.00     0.281 C 
ATOM     22  C   UNL     1      10.316   5.361  -2.343  1.00  0.00     0.041 C 
ATOM     23  C   UNL     1      10.495   5.169  -0.838  1.00  0.00     0.150 C 
ATOM     24  C   UNL     1       9.134   5.266  -0.100  1.00  0.00     0.174 C 
ATOM     25  O   UNL     1      11.091   3.897  -0.626  1.00  0.00    -0.344 OA
ATOM     26  C   UNL     1       9.325   5.004   1.410  1.00  0.00     0.179 C 
ATOM     27  C   UNL     1      10.110   3.689   1.596  1.00  0.00     0.202 C 
BRANCH  24  28
ATOM     28  O   UNL     1       8.499   6.506  -0.320  1.00  0.00    -0.388 OA
ATOM     29  H   UNL     1       8.027   6.459  -1.191  1.00  0.00     0.211 HD
ENDBRANCH  24  28
BRANCH  26  30
ATOM     30  O   UNL     1      10.024   6.068   2.013  1.00  0.00    -0.387 OA
ATOM     31  H   UNL     1      10.230   5.791   2.945  1.00  0.00     0.211 HD
ENDBRANCH  26  30
BRANCH  27  32
ATOM     32  O   UNL     1      10.373   3.428   2.956  1.00  0.00    -0.385 OA
ATOM     33  H   UNL     1      11.297   3.726   3.157  1.00  0.00     0.211 HD
ENDBRANCH  27  32
ENDBRANCH  20  21
ENDBRANCH  19  20
ENDBRANCH  14  19
BRANCH  15  34
ATOM     34  O   UNL     1      15.325   4.605  -0.517  1.00  0.00    -0.387 OA
ATOM     35  H   UNL     1      16.242   4.851  -0.789  1.00  0.00     0.211 HD
ENDBRANCH  15  34
BRANCH  17  36
ATOM     36  O   UNL     1      15.281   2.288  -1.975  1.00  0.00    -0.387 OA
ATOM     37  H   UNL     1      15.931   2.548  -2.678  1.00  0.00     0.211 HD
ENDBRANCH  17  36
BRANCH  18  38
ATOM     38  O   UNL     1      16.767   0.820   0.975  1.00  0.00    -0.384 OA
ATOM     39  H   UNL     1      16.618  -0.060   1.409  1.00  0.00     0.211 HD
ENDBRANCH  18  38
ENDBRANCH  12  13
ENDBRANCH   1  12
BRANCH   2  40
ATOM     40  C   UNL     1      11.621  -0.933   1.932  1.00  0.00     0.025 A 
ATOM     41  C   UNL     1      11.836  -0.737   0.561  1.00  0.00     0.062 A 
ATOM     42  C   UNL     1      10.316  -1.118   2.404  1.00  0.00     0.016 A 
ATOM     43  C   UNL     1      10.760  -0.765  -0.347  1.00  0.00     0.162 A 
ATOM     44  C   UNL     1       9.238  -1.115   1.519  1.00  0.00     0.051 A 
ATOM     45  C   UNL     1       9.453  -0.949   0.138  1.00  0.00     0.161 A 
BRANCH  43  46
ATOM     46  O   UNL     1      10.936  -0.608  -1.735  1.00  0.00    -0.487 OA
BRANCH  46  47
ATOM     47  C   UNL     1      12.182  -0.578  -2.433  1.00  0.00     0.258 C 
BRANCH  47  48
ATOM     48  C   UNL     1      12.419   0.785  -3.084  1.00  0.00     0.197 C 
BRANCH  48  49
ATOM     49  O   UNL     1      12.146   1.828  -2.188  1.00  0.00    -0.393 OA
ATOM     50  H   UNL     1      11.607   2.499  -2.688  1.00  0.00     0.210 HD
ENDBRANCH  48  49
ENDBRANCH  47  48
ENDBRANCH  46  47
ENDBRANCH  43  46
BRANCH  45  51
ATOM     51  O   UNL     1       8.399  -0.964  -0.793  1.00  0.00    -0.487 OA
BRANCH  51  52
ATOM     52  C   UNL     1       7.875   0.173  -1.478  1.00  0.00     0.258 C 
BRANCH  52  53
ATOM     53  C   UNL     1       7.890   1.409  -0.575  1.00  0.00     0.197 C 
BRANCH  53  54
ATOM     54  O   UNL     1       8.682   2.417  -1.135  1.00  0.00    -0.393 OA
ATOM     55  H   UNL     1       9.062   2.938  -0.378  1.00  0.00     0.210 HD
ENDBRANCH  53  54
ENDBRANCH  52  53
ENDBRANCH  51  52
ENDBRANCH  45  51
ENDBRANCH   2  40
BRANCH   8  56
ATOM     56  O   UNL     1      17.183  -0.516   5.537  1.00  0.00    -0.507 OA
ATOM     57  H   UNL     1      17.558   0.055   4.787  1.00  0.00     0.293 HD
ENDBRANCH   8  56
BRANCH   6  58
ATOM     58  O   UNL     1      13.630  -1.117   8.770  1.00  0.00    -0.491 OA
BRANCH  58  59
ATOM     59  C   UNL     1      12.447  -0.514   9.284  1.00  0.00     0.257 C 
BRANCH  59  60
ATOM     60  C   UNL     1      11.226  -1.125   8.604  1.00  0.00     0.197 C 
BRANCH  60  61
ATOM     61  O   UNL     1      10.056  -0.596   9.163  1.00  0.00    -0.393 OA
ATOM     62  H   UNL     1      10.117   0.386   9.035  1.00  0.00     0.210 HD
ENDBRANCH  60  61
ENDBRANCH  59  60
ENDBRANCH  58  59
ENDBRANCH   6  58
TORSDOF 25
ENDMDL
MODEL 6
REMARK VINA RESULT:    -2.017     15.851     20.058
REMARK INTER + INTRA:          -6.160
REMARK INTER:                  -6.074
REMARK INTRA:                  -0.086
REMARK UNBOUND:                -1.784
REMARK SMILES C[C@@H]1O[C@@H](OC[C@@H]2O[C@H](Oc3c(-c4ccc(OCCO)c(OCCO)c4)oc4cc(OCCO)cc(O)c4c3=O)[C@H](O)[C@@H](O)[C@H]2O)[C@@H](O)[C@@H](O)[C@H]1O
REMARK SMILES IDX 11 1 12 2 27 3 28 4 29 5 30 6 35 7 36 8 38 9 39 10 40 11
REMARK SMILES IDX 10 12 9 13 7 14 45 15 8 16 43 17 41 18 6 19 5 20 4 21 1 22
REMARK SMILES IDX 2 23 51 24 3 25 49 26 47 27 52 28 50 30 48 32 46 34 44 36
REMARK SMILES IDX 42 38 13 40 26 41 14 42 21 43 15 44 16 45 22 46 23 47 24 48
REMARK SMILES IDX 25 49 17 51 18 52 19 53 20 54 37 56 31 58 32 59 33 60 34 61
REMARK H PARENT 52 29 50 31 48 33 46 35 44 37 42 39 25 50 20 55 37 57 34 62
REMARK Flexibility Score: inf
ROOT
ATOM      1  C   UNL     1      11.344   1.753   2.504  1.00  0.00     0.214 A 
ATOM      2  C   UNL     1      11.756   3.092   2.448  1.00  0.00     0.180 A 
ATOM      3  O   UNL     1      12.990   3.422   2.808  1.00  0.00    -0.452 OA
ATOM      4  C   UNL     1      13.885   2.540   3.236  1.00  0.00     0.146 A 
ATOM      5  C   UNL     1      15.156   3.000   3.584  1.00  0.00     0.094 A 
ATOM      6  C   UNL     1      16.128   2.128   4.065  1.00  0.00     0.126 A 
ATOM      7  C   UNL     1      15.821   0.763   4.185  1.00  0.00     0.093 A 
ATOM      8  C   UNL     1      14.572   0.263   3.794  1.00  0.00     0.134 A 
ATOM      9  C   UNL     1      13.562   1.163   3.340  1.00  0.00     0.111 A 
ATOM     10  C   UNL     1      12.238   0.789   2.998  1.00  0.00     0.239 A 
ATOM     11  O   UNL     1      11.827  -0.386   3.171  1.00  0.00    -0.285 OA
ENDROOT
BRANCH   1  12
ATOM     12  O   UNL     1      10.069   1.411   2.031  1.00  0.00    -0.454 OA
BRANCH  12  13
ATOM     13  C   UNL     1       9.819   1.036   0.677  1.00  0.00     0.339 C 
ATOM     14  C   UNL     1      10.688  -0.122  -1.146  1.00  0.00     0.180 C 
ATOM     15  C   UNL     1       9.340  -0.829  -1.454  1.00  0.00     0.177 C 
ATOM     16  O   UNL     1      10.808   0.114   0.251  1.00  0.00    -0.332 OA
ATOM     17  C   UNL     1       8.153  -0.021  -0.883  1.00  0.00     0.180 C 
ATOM     18  C   UNL     1       8.427   0.384   0.576  1.00  0.00     0.214 C 
BRANCH  14  19
ATOM     19  C   UNL     1      11.891  -0.966  -1.628  1.00  0.00     0.198 C 
BRANCH  19  20
ATOM     20  O   UNL     1      13.027  -0.138  -1.803  1.00  0.00    -0.347 OA
BRANCH  20  21
ATOM     21  C   UNL     1      13.210   0.723  -0.688  1.00  0.00     0.281 C 
ATOM     22  C   UNL     1      14.494   3.723  -2.388  1.00  0.00     0.041 C 
ATOM     23  C   UNL     1      14.491   2.269  -1.916  1.00  0.00     0.150 C 
ATOM     24  C   UNL     1      15.798   1.930  -1.155  1.00  0.00     0.174 C 
ATOM     25  O   UNL     1      13.358   2.083  -1.077  1.00  0.00    -0.344 OA
ATOM     26  C   UNL     1      15.748   0.478  -0.628  1.00  0.00     0.179 C 
ATOM     27  C   UNL     1      14.432   0.271   0.150  1.00  0.00     0.202 C 
BRANCH  24  28
ATOM     28  O   UNL     1      16.944   2.138  -1.950  1.00  0.00    -0.388 OA
ATOM     29  H   UNL     1      17.700   2.360  -1.347  1.00  0.00     0.211 HD
ENDBRANCH  24  28
BRANCH  26  30
ATOM     30  O   UNL     1      15.824  -0.438  -1.695  1.00  0.00    -0.387 OA
ATOM     31  H   UNL     1      15.155  -1.151  -1.515  1.00  0.00     0.211 HD
ENDBRANCH  26  30
BRANCH  27  32
ATOM     32  O   UNL     1      14.299  -1.057   0.601  1.00  0.00    -0.385 OA
ATOM     33  H   UNL     1      13.491  -1.114   1.172  1.00  0.00     0.211 HD
ENDBRANCH  27  32
ENDBRANCH  20  21
ENDBRANCH  19  20
ENDBRANCH  14  19
BRANCH  15  34
ATOM     34  O   UNL     1       9.170  -0.992  -2.839  1.00  0.00    -0.387 OA
ATOM     35  H   UNL     1       9.361  -1.938  -3.047  1.00  0.00     0.211 HD
ENDBRANCH  15  34
BRANCH  17  36
ATOM     36  O   UNL     1       7.931   1.139  -1.649  1.00  0.00    -0.387 OA
ATOM     37  H   UNL     1       6.950   1.217  -1.778  1.00  0.00     0.211 HD
ENDBRANCH  17  36
BRANCH  18  38
ATOM     38  O   UNL     1       8.369  -0.760   1.396  1.00  0.00    -0.384 OA
ATOM     39  H   UNL     1       9.277  -1.160   1.399  1.00  0.00     0.211 HD
ENDBRANCH  18  38
ENDBRANCH  12  13
ENDBRANCH   1  12
BRANCH   2  40
ATOM     40  C   UNL     1      10.859   4.156   1.952  1.00  0.00     0.025 A 
ATOM     41  C   UNL     1      10.150   3.965   0.759  1.00  0.00     0.062 A 
ATOM     42  C   UNL     1      10.732   5.368   2.641  1.00  0.00     0.016 A 
ATOM     43  C   UNL     1       9.284   4.961   0.270  1.00  0.00     0.162 A 
ATOM     44  C   UNL     1       9.902   6.376   2.150  1.00  0.00     0.051 A 
ATOM     45  C   UNL     1       9.165   6.176   0.967  1.00  0.00     0.161 A 
BRANCH  43  46
ATOM     46  O   UNL     1       8.526   4.796  -0.906  1.00  0.00    -0.487 OA
BRANCH  46  47
ATOM     47  C   UNL     1       9.038   4.522  -2.212  1.00  0.00     0.258 C 
BRANCH  47  48
ATOM     48  C   UNL     1      10.491   4.978  -2.344  1.00  0.00     0.197 C 
BRANCH  48  49
ATOM     49  O   UNL     1      11.353   4.135  -1.632  1.00  0.00    -0.393 OA
ATOM     50  H   UNL     1      10.861   3.847  -0.816  1.00  0.00     0.210 HD
ENDBRANCH  48  49
ENDBRANCH  47  48
ENDBRANCH  46  47
ENDBRANCH  43  46
BRANCH  45  51
ATOM     51  O   UNL     1       8.298   7.154   0.450  1.00  0.00    -0.487 OA
BRANCH  51  52
ATOM     52  C   UNL     1       8.189   7.529  -0.923  1.00  0.00     0.258 C 
BRANCH  52  53
ATOM     53  C   UNL     1       9.280   8.534  -1.303  1.00  0.00     0.197 C 
BRANCH  53  54
ATOM     54  O   UNL     1       8.820   9.845  -1.134  1.00  0.00    -0.393 OA
ATOM     55  H   UNL     1       8.889  10.050  -0.163  1.00  0.00     0.210 HD
ENDBRANCH  53  54
ENDBRANCH  52  53
ENDBRANCH  51  52
ENDBRANCH  45  51
ENDBRANCH   2  40
BRANCH   8  56
ATOM     56  O   UNL     1      14.412  -1.125   3.848  1.00  0.00    -0.507 OA
ATOM     57  H   UNL     1      13.612  -1.598   4.252  1.00  0.00     0.293 HD
ENDBRANCH   8  56
BRANCH   6  58
ATOM     58  O   UNL     1      17.384   2.657   4.405  1.00  0.00    -0.491 OA
BRANCH  58  59
ATOM     59  C   UNL     1      18.075   2.393   5.622  1.00  0.00     0.257 C 
BRANCH  59  60
ATOM     60  C   UNL     1      18.971   1.172   5.445  1.00  0.00     0.197 C 
BRANCH  60  61
ATOM     61  O   UNL     1      19.967   1.167   6.429  1.00  0.00    -0.393 OA
ATOM     62  H   UNL     1      20.829   1.210   5.940  1.00  0.00     0.210 HD
ENDBRANCH  60  61
ENDBRANCH  59  60
ENDBRANCH  58  59
ENDBRANCH   6  58
TORSDOF 25
ENDMDL
MODEL 7
REMARK VINA RESULT:    -1.597     15.635     19.192
REMARK INTER + INTRA:          -5.249
REMARK INTER:                  -6.297
REMARK INTRA:                   1.048
REMARK UNBOUND:                -1.784
REMARK SMILES C[C@@H]1O[C@@H](OC[C@@H]2O[C@H](Oc3c(-c4ccc(OCCO)c(OCCO)c4)oc4cc(OCCO)cc(O)c4c3=O)[C@H](O)[C@@H](O)[C@H]2O)[C@@H](O)[C@@H](O)[C@H]1O
REMARK SMILES IDX 11 1 12 2 27 3 28 4 29 5 30 6 35 7 36 8 38 9 39 10 40 11
REMARK SMILES IDX 10 12 9 13 7 14 45 15 8 16 43 17 41 18 6 19 5 20 4 21 1 22
REMARK SMILES IDX 2 23 51 24 3 25 49 26 47 27 52 28 50 30 48 32 46 34 44 36
REMARK SMILES IDX 42 38 13 40 26 41 14 42 21 43 15 44 16 45 22 46 23 47 24 48
REMARK SMILES IDX 25 49 17 51 18 52 19 53 20 54 37 56 31 58 32 59 33 60 34 61
REMARK H PARENT 52 29 50 31 48 33 46 35 44 37 42 39 25 50 20 55 37 57 34 62
REMARK Flexibility Score: inf
ROOT
ATOM      1  C   UNL     1      13.014  -0.653   1.030  1.00  0.00     0.214 A 
ATOM      2  C   UNL     1      14.139  -0.336   1.804  1.00  0.00     0.180 A 
ATOM      3  O   UNL     1      15.211   0.193   1.229  1.00  0.00    -0.452 OA
ATOM      4  C   UNL     1      15.293   0.445  -0.072  1.00  0.00     0.146 A 
ATOM      5  C   UNL     1      16.470   1.008  -0.565  1.00  0.00     0.094 A 
ATOM      6  C   UNL     1      16.626   1.269  -1.924  1.00  0.00     0.126 A 
ATOM      7  C   UNL     1      15.570   0.973  -2.800  1.00  0.00     0.093 A 
ATOM      8  C   UNL     1      14.356   0.456  -2.328  1.00  0.00     0.134 A 
ATOM      9  C   UNL     1      14.213   0.150  -0.942  1.00  0.00     0.111 A 
ATOM     10  C   UNL     1      13.069  -0.453  -0.361  1.00  0.00     0.239 A 
ATOM     11  O   UNL     1      12.113  -0.856  -1.068  1.00  0.00    -0.285 OA
ENDROOT
BRANCH   1  12
ATOM     12  O   UNL     1      11.857  -1.124   1.667  1.00  0.00    -0.454 OA
BRANCH  12  13
ATOM     13  C   UNL     1      11.150  -0.367   2.648  1.00  0.00     0.339 C 
ATOM     14  C   UNL     1      10.471   1.780   3.239  1.00  0.00     0.180 C 
ATOM     15  C   UNL     1       9.028   1.325   3.589  1.00  0.00     0.177 C 
ATOM     16  O   UNL     1      11.001   0.970   2.199  1.00  0.00    -0.332 OA
ATOM     17  C   UNL     1       8.996  -0.181   3.933  1.00  0.00     0.180 C 
ATOM     18  C   UNL     1       9.761  -0.994   2.874  1.00  0.00     0.214 C 
BRANCH  14  19
ATOM     19  C   UNL     1      10.504   3.263   2.801  1.00  0.00     0.198 C 
BRANCH  19  20
ATOM     20  O   UNL     1      10.508   3.352   1.386  1.00  0.00    -0.347 OA
BRANCH  20  21
ATOM     21  C   UNL     1      11.325   4.426   0.943  1.00  0.00     0.281 C 
ATOM     22  C   UNL     1       8.745   6.942   0.201  1.00  0.00     0.041 C 
ATOM     23  C   UNL     1       9.506   5.625   0.052  1.00  0.00     0.150 C 
ATOM     24  C   UNL     1       9.965   5.411  -1.413  1.00  0.00     0.174 C 
ATOM     25  O   UNL     1      10.625   5.664   0.928  1.00  0.00    -0.344 OA
ATOM     26  C   UNL     1      10.790   4.110  -1.531  1.00  0.00     0.179 C 
ATOM     27  C   UNL     1      11.902   4.122  -0.462  1.00  0.00     0.202 C 
BRANCH  24  28
ATOM     28  O   UNL     1       8.879   5.403  -2.313  1.00  0.00    -0.388 OA
ATOM     29  H   UNL     1       9.059   6.079  -3.016  1.00  0.00     0.211 HD
ENDBRANCH  24  28
BRANCH  26  30
ATOM     30  O   UNL     1       9.964   2.983  -1.351  1.00  0.00    -0.387 OA
ATOM     31  H   UNL     1      10.422   2.387  -0.701  1.00  0.00     0.211 HD
ENDBRANCH  26  30
BRANCH  27  32
ATOM     32  O   UNL     1      12.650   2.928  -0.477  1.00  0.00    -0.385 OA
ATOM     33  H   UNL     1      13.500   3.097  -0.956  1.00  0.00     0.211 HD
ENDBRANCH  27  32
ENDBRANCH  20  21
ENDBRANCH  19  20
ENDBRANCH  14  19
BRANCH  15  34
ATOM     34  O   UNL     1       8.525   2.063   4.673  1.00  0.00    -0.387 OA
ATOM     35  H   UNL     1       7.551   2.150   4.539  1.00  0.00     0.211 HD
ENDBRANCH  15  34
BRANCH  17  36
ATOM     36  O   UNL     1       9.572  -0.412   5.196  1.00  0.00    -0.387 OA
ATOM     37  H   UNL     1       9.948   0.454   5.505  1.00  0.00     0.211 HD
ENDBRANCH  17  36
BRANCH  18  38
ATOM     38  O   UNL     1       9.030  -0.996   1.670  1.00  0.00    -0.384 OA
ATOM     39  H   UNL     1       8.986  -0.055   1.358  1.00  0.00     0.211 HD
ENDBRANCH  18  38
ENDBRANCH  12  13
ENDBRANCH   1  12
BRANCH   2  40
ATOM     40  C   UNL     1      14.151  -0.538   3.268  1.00  0.00     0.025 A 
ATOM     41  C   UNL     1      15.349  -0.389   3.978  1.00  0.00     0.062 A 
ATOM     42  C   UNL     1      12.987  -0.909   3.951  1.00  0.00     0.016 A 
ATOM     43  C   UNL     1      15.384  -0.569   5.374  1.00  0.00     0.162 A 
ATOM     44  C   UNL     1      13.015  -1.122   5.329  1.00  0.00     0.051 A 
ATOM     45  C   UNL     1      14.211  -0.944   6.051  1.00  0.00     0.161 A 
BRANCH  43  46
ATOM     46  O   UNL     1      16.559  -0.396   6.131  1.00  0.00    -0.487 OA
BRANCH  46  47
ATOM     47  C   UNL     1      17.625   0.512   5.844  1.00  0.00     0.258 C 
BRANCH  47  48
ATOM     48  C   UNL     1      17.114   1.752   5.112  1.00  0.00     0.197 C 
BRANCH  48  49
ATOM     49  O   UNL     1      17.268   2.903   5.896  1.00  0.00    -0.393 OA
ATOM     50  H   UNL     1      16.874   3.656   5.378  1.00  0.00     0.210 HD
ENDBRANCH  48  49
ENDBRANCH  47  48
ENDBRANCH  46  47
ENDBRANCH  43  46
BRANCH  45  51
ATOM     51  O   UNL     1      14.279  -1.124   7.444  1.00  0.00    -0.487 OA
BRANCH  51  52
ATOM     52  C   UNL     1      13.510  -0.413   8.414  1.00  0.00     0.258 C 
BRANCH  52  53
ATOM     53  C   UNL     1      12.111  -1.017   8.552  1.00  0.00     0.197 C 
BRANCH  53  54
ATOM     54  O   UNL     1      11.485  -0.547   9.711  1.00  0.00    -0.393 OA
ATOM     55  H   UNL     1      12.075   0.158  10.090  1.00  0.00     0.210 HD
ENDBRANCH  53  54
ENDBRANCH  52  53
ENDBRANCH  51  52
ENDBRANCH  45  51
ENDBRANCH   2  40
BRANCH   8  56
ATOM     56  O   UNL     1      13.335   0.304  -3.270  1.00  0.00    -0.507 OA
ATOM     57  H   UNL     1      12.489  -0.233  -3.122  1.00  0.00     0.293 HD
ENDBRANCH   8  56
BRANCH   6  58
ATOM     58  O   UNL     1      17.839   1.830  -2.357  1.00  0.00    -0.491 OA
BRANCH  58  59
ATOM     59  C   UNL     1      19.074   1.735  -1.655  1.00  0.00     0.257 C 
BRANCH  59  60
ATOM     60  C   UNL     1      19.840   0.507  -2.133  1.00  0.00     0.197 C 
BRANCH  60  61
ATOM     61  O   UNL     1      19.173  -0.077  -3.217  1.00  0.00    -0.393 OA
ATOM     62  H   UNL     1      19.783  -0.780  -3.562  1.00  0.00     0.210 HD
ENDBRANCH  60  61
ENDBRANCH  59  60
ENDBRANCH  58  59
ENDBRANCH   6  58
TORSDOF 25
ENDMDL
