MODEL 1
REMARK VINA RESULT:    -4.713      0.000      0.000
REMARK INTER + INTRA:          -4.713
REMARK INTER:                  -4.713
REMARK INTRA:                   0.000
REMARK UNBOUND:                 0.000
REMARK SMILES CC1(C)O[C@]2(C)CC[C@H]1CC2
REMARK SMILES IDX 1 1 2 2 9 3 10 4 11 5 5 6 4 7 7 8 8 9 6 10 3 11
REMARK H PARENT
REMARK Flexibility Score: inf
ROOT
ATOM      1  C   UNL     1     -17.450  11.914  37.749  1.00  0.00     0.042 C 
ATOM      2  C   UNL     1     -18.985  11.744  37.794  1.00  0.00     0.066 C 
ATOM      3  C   UNL     1     -19.602  11.862  36.347  1.00  0.00     0.021 C 
ATOM      4  C   UNL     1     -19.050  10.703  35.484  1.00  0.00     0.009 C 
ATOM      5  C   UNL     1     -19.268   9.364  36.229  1.00  0.00     0.035 C 
ATOM      6  C   UNL     1     -20.048   9.620  37.552  1.00  0.00     0.066 C 
ATOM      7  O   UNL     1     -19.275  10.474  38.395  1.00  0.00    -0.369 OA
ATOM      8  C   UNL     1     -21.398  10.318  37.215  1.00  0.00     0.035 C 
ATOM      9  C   UNL     1     -21.129  11.634  36.446  1.00  0.00     0.009 C 
ATOM     10  C   UNL     1     -20.301   8.298  38.284  1.00  0.00     0.042 C 
ATOM     11  C   UNL     1     -19.541  12.850  38.717  1.00  0.00     0.042 C 
ENDROOT
TORSDOF 0
ENDMDL
MODEL 2
REMARK VINA RESULT:    -4.582      1.221      3.066
REMARK INTER + INTRA:          -4.582
REMARK INTER:                  -4.582
REMARK INTRA:                   0.000
REMARK UNBOUND:                 0.000
REMARK SMILES CC1(C)O[C@]2(C)CC[C@H]1CC2
REMARK SMILES IDX 1 1 2 2 9 3 10 4 11 5 5 6 4 7 7 8 8 9 6 10 3 11
REMARK H PARENT
REMARK Flexibility Score: inf
ROOT
ATOM      1  C   UNL     1     -20.115   8.749  38.698  1.00  0.00     0.042 C 
ATOM      2  C   UNL     1     -20.350   9.556  37.403  1.00  0.00     0.066 C 
ATOM      3  C   UNL     1     -20.330  11.105  37.700  1.00  0.00     0.021 C 
ATOM      4  C   UNL     1     -18.921  11.487  38.213  1.00  0.00     0.009 C 
ATOM      5  C   UNL     1     -17.857  10.951  37.225  1.00  0.00     0.035 C 
ATOM      6  C   UNL     1     -18.559  10.289  36.004  1.00  0.00     0.066 C 
ATOM      7  O   UNL     1     -19.340   9.182  36.454  1.00  0.00    -0.369 OA
ATOM      8  C   UNL     1     -19.494  11.336  35.331  1.00  0.00     0.035 C 
ATOM      9  C   UNL     1     -20.519  11.863  36.364  1.00  0.00     0.009 C 
ATOM     10  C   UNL     1     -17.517   9.784  35.001  1.00  0.00     0.042 C 
ATOM     11  C   UNL     1     -21.722   9.126  36.838  1.00  0.00     0.042 C 
ENDROOT
TORSDOF 0
ENDMDL
MODEL 3
REMARK VINA RESULT:    -4.530      1.152      3.355
REMARK INTER + INTRA:          -4.530
REMARK INTER:                  -4.530
REMARK INTRA:                   0.000
REMARK UNBOUND:                 0.000
REMARK SMILES CC1(C)O[C@]2(C)CC[C@H]1CC2
REMARK SMILES IDX 1 1 2 2 9 3 10 4 11 5 5 6 4 7 7 8 8 9 6 10 3 11
REMARK H PARENT
REMARK Flexibility Score: inf
ROOT
ATOM      1  C   UNL     1     -21.347  10.430  37.234  1.00  0.00     0.042 C 
ATOM      2  C   UNL     1     -19.901   9.917  37.056  1.00  0.00     0.066 C 
ATOM      3  C   UNL     1     -19.454  10.018  35.547  1.00  0.00     0.021 C 
ATOM      4  C   UNL     1     -19.453  11.509  35.135  1.00  0.00     0.009 C 
ATOM      5  C   UNL     1     -18.627  12.320  36.163  1.00  0.00     0.035 C 
ATOM      6  C   UNL     1     -18.001  11.356  37.213  1.00  0.00     0.066 C 
ATOM      7  O   UNL     1     -19.047  10.685  37.917  1.00  0.00    -0.369 OA
ATOM      8  C   UNL     1     -17.126  10.303  36.472  1.00  0.00     0.035 C 
ATOM      9  C   UNL     1     -17.987   9.541  35.437  1.00  0.00     0.009 C 
ATOM     10  C   UNL     1     -17.153  12.142  38.217  1.00  0.00     0.042 C 
ATOM     11  C   UNL     1     -19.872   8.450  37.538  1.00  0.00     0.042 C 
ENDROOT
TORSDOF 0
ENDMDL
MODEL 4
REMARK VINA RESULT:    -4.497      1.472      3.332
REMARK INTER + INTRA:          -4.497
REMARK INTER:                  -4.497
REMARK INTRA:                   0.000
REMARK UNBOUND:                 0.000
REMARK SMILES CC1(C)O[C@]2(C)CC[C@H]1CC2
REMARK SMILES IDX 1 1 2 2 9 3 10 4 11 5 5 6 4 7 7 8 8 9 6 10 3 11
REMARK H PARENT
REMARK Flexibility Score: inf
ROOT
ATOM      1  C   UNL     1     -18.974   9.091  36.697  1.00  0.00     0.042 C 
ATOM      2  C   UNL     1     -20.100  10.117  36.949  1.00  0.00     0.066 C 
ATOM      3  C   UNL     1     -19.838  10.917  38.283  1.00  0.00     0.021 C 
ATOM      4  C   UNL     1     -18.528  11.723  38.122  1.00  0.00     0.009 C 
ATOM      5  C   UNL     1     -18.598  12.550  36.814  1.00  0.00     0.035 C 
ATOM      6  C   UNL     1     -19.992  12.365  36.148  1.00  0.00     0.066 C 
ATOM      7  O   UNL     1     -20.172  10.989  35.811  1.00  0.00    -0.369 OA
ATOM      8  C   UNL     1     -21.095  12.792  37.160  1.00  0.00     0.035 C 
ATOM      9  C   UNL     1     -20.967  11.961  38.458  1.00  0.00     0.009 C 
ATOM     10  C   UNL     1     -20.087  13.204  34.870  1.00  0.00     0.042 C 
ATOM     11  C   UNL     1     -21.426   9.330  37.035  1.00  0.00     0.042 C 
ENDROOT
TORSDOF 0
ENDMDL
MODEL 5
REMARK VINA RESULT:    -4.491      8.310     10.314
REMARK INTER + INTRA:          -4.491
REMARK INTER:                  -4.491
REMARK INTRA:                   0.000
REMARK UNBOUND:                 0.000
REMARK SMILES CC1(C)O[C@]2(C)CC[C@H]1CC2
REMARK SMILES IDX 1 1 2 2 9 3 10 4 11 5 5 6 4 7 7 8 8 9 6 10 3 11
REMARK H PARENT
REMARK Flexibility Score: inf
ROOT
ATOM      1  C   UNL     1     -13.926  14.318  33.242  1.00  0.00     0.042 C 
ATOM      2  C   UNL     1     -13.274  15.718  33.231  1.00  0.00     0.066 C 
ATOM      3  C   UNL     1     -13.175  16.299  34.694  1.00  0.00     0.021 C 
ATOM      4  C   UNL     1     -12.245  15.382  35.523  1.00  0.00     0.009 C 
ATOM      5  C   UNL     1     -10.914  15.182  34.758  1.00  0.00     0.035 C 
ATOM      6  C   UNL     1     -10.919  16.040  33.460  1.00  0.00     0.066 C 
ATOM      7  O   UNL     1     -11.984  15.605  32.614  1.00  0.00    -0.369 OA
ATOM      8  C   UNL     1     -11.146  17.532  33.842  1.00  0.00     0.035 C 
ATOM      9  C   UNL     1     -12.471  17.676  34.628  1.00  0.00     0.009 C 
ATOM     10  C   UNL     1      -9.593  15.878  32.710  1.00  0.00     0.042 C 
ATOM     11  C   UNL     1     -14.153  16.625  32.342  1.00  0.00     0.042 C 
ENDROOT
TORSDOF 0
ENDMDL
MODEL 6
REMARK VINA RESULT:    -4.440      1.376      2.968
REMARK INTER + INTRA:          -4.440
REMARK INTER:                  -4.440
REMARK INTRA:                   0.000
REMARK UNBOUND:                 0.000
REMARK SMILES CC1(C)O[C@]2(C)CC[C@H]1CC2
REMARK SMILES IDX 1 1 2 2 9 3 10 4 11 5 5 6 4 7 7 8 8 9 6 10 3 11
REMARK H PARENT
REMARK Flexibility Score: inf
ROOT
ATOM      1  C   UNL     1     -22.125  11.741  36.885  1.00  0.00     0.042 C 
ATOM      2  C   UNL     1     -20.592  11.926  36.853  1.00  0.00     0.066 C 
ATOM      3  C   UNL     1     -19.946  11.469  38.217  1.00  0.00     0.021 C 
ATOM      4  C   UNL     1     -20.208   9.956  38.401  1.00  0.00     0.009 C 
ATOM      5  C   UNL     1     -19.755   9.203  37.127  1.00  0.00     0.035 C 
ATOM      6  C   UNL     1     -19.106  10.203  36.127  1.00  0.00     0.066 C 
ATOM      7  O   UNL     1     -20.075  11.178  35.742  1.00  0.00    -0.369 OA
ATOM      8  C   UNL     1     -17.914  10.917  36.829  1.00  0.00     0.035 C 
ATOM      9  C   UNL     1     -18.410  11.628  38.110  1.00  0.00     0.009 C 
ATOM     10  C   UNL     1     -18.622   9.465  34.875  1.00  0.00     0.042 C 
ATOM     11  C   UNL     1     -20.317  13.423  36.591  1.00  0.00     0.042 C 
ENDROOT
TORSDOF 0
ENDMDL
MODEL 7
REMARK VINA RESULT:    -4.406      1.490      2.767
REMARK INTER + INTRA:          -4.406
REMARK INTER:                  -4.406
REMARK INTRA:                   0.000
REMARK UNBOUND:                 0.000
REMARK SMILES CC1(C)O[C@]2(C)CC[C@H]1CC2
REMARK SMILES IDX 1 1 2 2 9 3 10 4 11 5 5 6 4 7 7 8 8 9 6 10 3 11
REMARK H PARENT
REMARK Flexibility Score: inf
ROOT
ATOM      1  C   UNL     1     -19.890  12.551  34.468  1.00  0.00     0.042 C 
ATOM      2  C   UNL     1     -19.410  11.904  35.786  1.00  0.00     0.066 C 
ATOM      3  C   UNL     1     -19.735  12.836  37.016  1.00  0.00     0.021 C 
ATOM      4  C   UNL     1     -21.271  12.985  37.125  1.00  0.00     0.009 C 
ATOM      5  C   UNL     1     -21.920  11.579  37.123  1.00  0.00     0.035 C 
ATOM      6  C   UNL     1     -20.811  10.488  37.104  1.00  0.00     0.066 C 
ATOM      7  O   UNL     1     -20.042  10.621  35.908  1.00  0.00    -0.369 OA
ATOM      8  C   UNL     1     -19.881  10.692  38.335  1.00  0.00     0.035 C 
ATOM      9  C   UNL     1     -19.281  12.118  38.309  1.00  0.00     0.009 C 
ATOM     10  C   UNL     1     -21.438   9.091  37.136  1.00  0.00     0.042 C 
ATOM     11  C   UNL     1     -17.888  11.678  35.658  1.00  0.00     0.042 C 
ENDROOT
TORSDOF 0
ENDMDL
MODEL 8
REMARK VINA RESULT:    -4.374      8.030      9.528
REMARK INTER + INTRA:          -4.374
REMARK INTER:                  -4.374
REMARK INTRA:                   0.000
REMARK UNBOUND:                 0.000
REMARK SMILES CC1(C)O[C@]2(C)CC[C@H]1CC2
REMARK SMILES IDX 1 1 2 2 9 3 10 4 11 5 5 6 4 7 7 8 8 9 6 10 3 11
REMARK H PARENT
REMARK Flexibility Score: inf
ROOT
ATOM      1  C   UNL     1     -11.255  17.361  33.866  1.00  0.00     0.042 C 
ATOM      2  C   UNL     1     -11.229  15.817  33.903  1.00  0.00     0.066 C 
ATOM      3  C   UNL     1     -11.397  15.291  35.380  1.00  0.00     0.021 C 
ATOM      4  C   UNL     1     -12.788  15.726  35.899  1.00  0.00     0.009 C 
ATOM      5  C   UNL     1     -13.869  15.297  34.876  1.00  0.00     0.035 C 
ATOM      6  C   UNL     1     -13.209  14.496  33.717  1.00  0.00     0.066 C 
ATOM      7  O   UNL     1     -12.270  15.334  33.042  1.00  0.00    -0.369 OA
ATOM      8  C   UNL     1     -12.462  13.268  34.314  1.00  0.00     0.035 C 
ATOM      9  C   UNL     1     -11.415  13.744  35.350  1.00  0.00     0.009 C 
ATOM     10  C   UNL     1     -14.272  14.036  32.715  1.00  0.00     0.042 C 
ATOM     11  C   UNL     1      -9.873  15.368  33.314  1.00  0.00     0.042 C 
ENDROOT
TORSDOF 0
ENDMDL
MODEL 9
REMARK VINA RESULT:    -4.348      1.484      2.702
REMARK INTER + INTRA:          -4.348
REMARK INTER:                  -4.348
REMARK INTRA:                   0.000
REMARK UNBOUND:                 0.000
REMARK SMILES CC1(C)O[C@]2(C)CC[C@H]1CC2
REMARK SMILES IDX 1 1 2 2 9 3 10 4 11 5 5 6 4 7 7 8 8 9 6 10 3 11
REMARK H PARENT
REMARK Flexibility Score: inf
ROOT
ATOM      1  C   UNL     1     -20.147  13.665  36.563  1.00  0.00     0.042 C 
ATOM      2  C   UNL     1     -19.820  12.354  35.814  1.00  0.00     0.066 C 
ATOM      3  C   UNL     1     -18.368  11.854  36.174  1.00  0.00     0.021 C 
ATOM      4  C   UNL     1     -18.323  11.528  37.685  1.00  0.00     0.009 C 
ATOM      5  C   UNL     1     -19.495  10.580  38.036  1.00  0.00     0.035 C 
ATOM      6  C   UNL     1     -20.270  10.200  36.741  1.00  0.00     0.066 C 
ATOM      7  O   UNL     1     -20.819  11.383  36.158  1.00  0.00    -0.369 OA
ATOM      8  C   UNL     1     -19.281   9.545  35.734  1.00  0.00     0.035 C 
ATOM      9  C   UNL     1     -18.114  10.517  35.438  1.00  0.00     0.009 C 
ATOM     10  C   UNL     1     -21.414   9.235  37.070  1.00  0.00     0.042 C 
ATOM     11  C   UNL     1     -19.938  12.648  34.303  1.00  0.00     0.042 C 
ENDROOT
TORSDOF 0
ENDMDL
