MODEL 1
REMARK VINA RESULT:    -4.629      0.000      0.000
REMARK INTER + INTRA:          -4.883
REMARK INTER:                  -5.035
REMARK INTRA:                   0.152
REMARK UNBOUND:                 0.152
REMARK SMILES C[C@@H]1[C@@H](C)CC[C@]2(C(=O)[O-])CC[C@@]3(C)C(=CC[C@@H]4[C@]5(C)CC[C@H](O)C(C)(C)[C@@H]5CC[C@]43C)[C@@H]12
REMARK SMILES IDX 7 1 6 2 11 3 33 4 5 5 12 6 15 7 2 8 3 9 13 10 16 11 1 12
REMARK SMILES IDX 4 13 14 14 31 15 17 16 18 17 30 18 32 19 19 20 29 21 28 22
REMARK SMILES IDX 21 23 20 24 25 25 22 26 23 27 26 28 27 29 8 30 9 31 10 32
REMARK SMILES IDX 24 33
REMARK H PARENT 24 34
REMARK Flexibility Score: inf
ROOT
ATOM      1  C   UNL     1      -8.843   9.581  -1.049  1.00  0.00     0.017 C 
ATOM      2  C   UNL     1     -10.134   9.500  -0.199  1.00  0.00     0.014 C 
ATOM      3  C   UNL     1      -8.711  11.042  -1.632  1.00  0.00     0.014 C 
ATOM      4  C   UNL     1      -8.942   8.552  -2.227  1.00  0.00     0.030 C 
ATOM      5  C   UNL     1     -10.367   8.092   0.348  1.00  0.00     0.004 C 
ATOM      6  C   UNL     1      -8.391  11.125  -3.150  1.00  0.00     0.013 C 
ATOM      7  C   UNL     1      -7.688   8.701  -3.112  1.00  0.00    -0.063 C 
ATOM      8  C   UNL     1      -9.350   7.096  -1.799  1.00  0.00    -0.003 C 
ATOM      9  C   UNL     1     -10.551   7.091  -0.799  1.00  0.00    -0.011 C 
ATOM     10  C   UNL     1      -7.310  10.105  -3.640  1.00  0.00    -0.006 C 
ATOM     11  C   UNL     1      -6.938   7.647  -3.528  1.00  0.00    -0.027 C 
ATOM     12  C   UNL     1      -9.734   6.236  -3.039  1.00  0.00     0.008 C 
ATOM     13  C   UNL     1     -10.792   5.689  -0.215  1.00  0.00     0.008 C 
ATOM     14  C   UNL     1      -5.987  10.494  -2.890  1.00  0.00     0.017 C 
ATOM     15  C   UNL     1      -7.118  10.090  -5.278  1.00  0.00    -0.020 C 
ATOM     16  C   UNL     1      -6.207   7.751  -4.844  1.00  0.00     0.032 C 
ATOM     17  C   UNL     1      -7.107   8.593  -5.792  1.00  0.00     0.006 C 
ATOM     18  C   UNL     1      -8.292  10.758  -6.039  1.00  0.00     0.008 C 
ATOM     19  C   UNL     1      -5.819  10.879  -5.666  1.00  0.00     0.012 C 
ATOM     20  C   UNL     1      -7.015   8.291  -7.346  1.00  0.00    -0.025 C 
ATOM     21  C   UNL     1      -8.135  10.710  -7.566  1.00  0.00     0.005 C 
ATOM     22  C   UNL     1      -7.967   9.282  -8.174  1.00  0.00     0.003 C 
ATOM     23  C   UNL     1      -5.527   8.318  -7.822  1.00  0.00     0.010 C 
ATOM     24  C   UNL     1      -7.547   6.820  -7.551  1.00  0.00     0.012 C 
ATOM     25  C   UNL     1      -7.679   9.329  -9.745  1.00  0.00    -0.006 C 
ATOM     26  C   UNL     1      -5.350   8.301  -9.344  1.00  0.00     0.033 C 
ATOM     27  C   UNL     1      -6.148   9.417 -10.034  1.00  0.00     0.120 C 
ATOM     28  C   UNL     1      -8.285   8.083 -10.455  1.00  0.00     0.014 C 
ATOM     29  C   UNL     1      -8.378  10.538 -10.437  1.00  0.00     0.014 C 
ENDROOT
BRANCH   1  30
ATOM     30  C   UNL     1      -7.657   9.293  -0.125  1.00  0.00     0.048 C 
ATOM     31  O   UNL     1      -7.173  10.222   0.577  1.00  0.00    -0.550 OA
ATOM     32  O   UNL     1      -7.106   8.021  -0.019  1.00  0.00    -0.550 OA
ENDBRANCH   1  30
BRANCH  27  33
ATOM     33  O   UNL     1      -5.644  10.669  -9.640  1.00  0.00    -0.393 OA
ATOM     34  H   UNL     1      -6.112  11.357 -10.184  1.00  0.00     0.210 HD
ENDBRANCH  27  33
TORSDOF 2
ENDMDL
MODEL 2
REMARK VINA RESULT:    -3.517      4.495     10.432
REMARK INTER + INTRA:          -3.673
REMARK INTER:                  -3.821
REMARK INTRA:                   0.148
REMARK UNBOUND:                 0.152
REMARK SMILES C[C@@H]1[C@@H](C)CC[C@]2(C(=O)[O-])CC[C@@]3(C)C(=CC[C@@H]4[C@]5(C)CC[C@H](O)C(C)(C)[C@@H]5CC[C@]43C)[C@@H]12
REMARK SMILES IDX 7 1 6 2 11 3 33 4 5 5 12 6 15 7 2 8 3 9 13 10 16 11 1 12
REMARK SMILES IDX 4 13 14 14 31 15 17 16 18 17 30 18 32 19 19 20 29 21 28 22
REMARK SMILES IDX 21 23 20 24 25 25 22 26 23 27 26 28 27 29 8 30 9 31 10 32
REMARK SMILES IDX 24 33
REMARK H PARENT 24 34
REMARK Flexibility Score: inf
ROOT
ATOM      1  C   UNL     1      -9.015   7.396  -1.735  1.00  0.00     0.017 C 
ATOM      2  C   UNL     1      -9.535   8.573  -2.595  1.00  0.00     0.014 C 
ATOM      3  C   UNL     1     -10.252   6.562  -1.217  1.00  0.00     0.014 C 
ATOM      4  C   UNL     1      -8.219   7.969  -0.513  1.00  0.00     0.030 C 
ATOM      5  C   UNL     1      -8.396   9.468  -3.080  1.00  0.00     0.004 C 
ATOM      6  C   UNL     1     -10.237   6.224   0.299  1.00  0.00     0.013 C 
ATOM      7  C   UNL     1      -7.778   6.790   0.379  1.00  0.00    -0.063 C 
ATOM      8  C   UNL     1      -7.128   9.039  -0.879  1.00  0.00    -0.003 C 
ATOM      9  C   UNL     1      -7.664  10.102  -1.892  1.00  0.00    -0.011 C 
ATOM     10  C   UNL     1      -8.843   5.770   0.847  1.00  0.00    -0.006 C 
ATOM     11  C   UNL     1      -6.512   6.644   0.851  1.00  0.00    -0.027 C 
ATOM     12  C   UNL     1      -6.621   9.778   0.393  1.00  0.00     0.008 C 
ATOM     13  C   UNL     1      -6.532  11.003  -2.414  1.00  0.00     0.008 C 
ATOM     14  C   UNL     1      -8.504   4.435   0.095  1.00  0.00     0.017 C 
ATOM     15  C   UNL     1      -8.810   5.590   2.486  1.00  0.00    -0.020 C 
ATOM     16  C   UNL     1      -6.306   5.939   2.168  1.00  0.00     0.032 C 
ATOM     17  C   UNL     1      -7.522   6.303   3.067  1.00  0.00     0.006 C 
ATOM     18  C   UNL     1      -9.998   6.281   3.203  1.00  0.00     0.008 C 
ATOM     19  C   UNL     1      -8.883   4.067   2.853  1.00  0.00     0.012 C 
ATOM     20  C   UNL     1      -7.283   6.351   4.634  1.00  0.00    -0.025 C 
ATOM     21  C   UNL     1      -9.948   6.149   4.732  1.00  0.00     0.005 C 
ATOM     22  C   UNL     1      -8.648   6.690   5.406  1.00  0.00     0.003 C 
ATOM     23  C   UNL     1      -6.604   5.033   5.125  1.00  0.00     0.010 C 
ATOM     24  C   UNL     1      -6.269   7.530   4.899  1.00  0.00     0.012 C 
ATOM     25  C   UNL     1      -8.619   6.397   6.976  1.00  0.00    -0.006 C 
ATOM     26  C   UNL     1      -6.571   4.868   6.649  1.00  0.00     0.033 C 
ATOM     27  C   UNL     1      -7.964   5.013   7.279  1.00  0.00     0.120 C 
ATOM     28  C   UNL     1      -7.860   7.524   7.735  1.00  0.00     0.014 C 
ATOM     29  C   UNL     1     -10.046   6.410   7.604  1.00  0.00     0.014 C 
ENDROOT
BRANCH   1  30
ATOM     30  C   UNL     1      -8.145   6.511  -2.631  1.00  0.00     0.048 C 
ATOM     31  O   UNL     1      -8.686   5.623  -3.345  1.00  0.00    -0.550 OA
ATOM     32  O   UNL     1      -6.766   6.673  -2.699  1.00  0.00    -0.550 OA
ENDBRANCH   1  30
BRANCH  27  33
ATOM     33  O   UNL     1      -8.793   3.969   6.834  1.00  0.00    -0.393 OA
ATOM     34  H   UNL     1      -8.211   3.177   6.686  1.00  0.00     0.210 HD
ENDBRANCH  27  33
TORSDOF 2
ENDMDL
MODEL 3
REMARK VINA RESULT:    -3.442      2.232      3.612
REMARK INTER + INTRA:          -3.591
REMARK INTER:                  -3.770
REMARK INTRA:                   0.178
REMARK UNBOUND:                 0.152
REMARK SMILES C[C@@H]1[C@@H](C)CC[C@]2(C(=O)[O-])CC[C@@]3(C)C(=CC[C@@H]4[C@]5(C)CC[C@H](O)C(C)(C)[C@@H]5CC[C@]43C)[C@@H]12
REMARK SMILES IDX 7 1 6 2 11 3 33 4 5 5 12 6 15 7 2 8 3 9 13 10 16 11 1 12
REMARK SMILES IDX 4 13 14 14 31 15 17 16 18 17 30 18 32 19 19 20 29 21 28 22
REMARK SMILES IDX 21 23 20 24 25 25 22 26 23 27 26 28 27 29 8 30 9 31 10 32
REMARK SMILES IDX 24 33
REMARK H PARENT 24 34
REMARK Flexibility Score: inf
ROOT
ATOM      1  C   UNL     1      -8.804   6.483   1.296  1.00  0.00     0.017 C 
ATOM      2  C   UNL     1      -9.755   6.995   2.406  1.00  0.00     0.014 C 
ATOM      3  C   UNL     1      -7.526   7.409   1.257  1.00  0.00     0.014 C 
ATOM      4  C   UNL     1      -9.546   6.552  -0.082  1.00  0.00     0.030 C 
ATOM      5  C   UNL     1     -11.050   6.186   2.462  1.00  0.00     0.004 C 
ATOM      6  C   UNL     1      -7.108   7.905  -0.155  1.00  0.00     0.013 C 
ATOM      7  C   UNL     1      -8.562   6.118  -1.189  1.00  0.00    -0.063 C 
ATOM      8  C   UNL     1     -10.974   5.899  -0.097  1.00  0.00    -0.003 C 
ATOM      9  C   UNL     1     -11.825   6.317   1.145  1.00  0.00    -0.011 C 
ATOM     10  C   UNL     1      -7.181   6.811  -1.272  1.00  0.00    -0.006 C 
ATOM     11  C   UNL     1      -8.874   5.215  -2.153  1.00  0.00    -0.027 C 
ATOM     12  C   UNL     1     -11.755   6.290  -1.386  1.00  0.00     0.008 C 
ATOM     13  C   UNL     1     -13.125   5.501   1.239  1.00  0.00     0.008 C 
ATOM     14  C   UNL     1      -6.135   5.715  -0.863  1.00  0.00     0.017 C 
ATOM     15  C   UNL     1      -6.906   7.403  -2.787  1.00  0.00    -0.020 C 
ATOM     16  C   UNL     1      -8.205   5.330  -3.501  1.00  0.00     0.032 C 
ATOM     17  C   UNL     1      -8.011   6.850  -3.775  1.00  0.00     0.006 C 
ATOM     18  C   UNL     1      -7.037   8.945  -2.876  1.00  0.00     0.008 C 
ATOM     19  C   UNL     1      -5.448   7.045  -3.239  1.00  0.00     0.012 C 
ATOM     20  C   UNL     1      -8.030   7.326  -5.288  1.00  0.00    -0.025 C 
ATOM     21  C   UNL     1      -6.821   9.494  -4.294  1.00  0.00     0.005 C 
ATOM     22  C   UNL     1      -7.765   8.905  -5.388  1.00  0.00     0.003 C 
ATOM     23  C   UNL     1      -7.038   6.475  -6.143  1.00  0.00     0.010 C 
ATOM     24  C   UNL     1      -9.484   7.041  -5.831  1.00  0.00     0.012 C 
ATOM     25  C   UNL     1      -7.390   9.429  -6.850  1.00  0.00    -0.006 C 
ATOM     26  C   UNL     1      -6.786   7.024  -7.552  1.00  0.00     0.033 C 
ATOM     27  C   UNL     1      -6.342   8.494  -7.531  1.00  0.00     0.120 C 
ATOM     28  C   UNL     1      -8.662   9.542  -7.740  1.00  0.00     0.014 C 
ATOM     29  C   UNL     1      -6.812  10.876  -6.827  1.00  0.00     0.014 C 
ENDROOT
BRANCH   1  30
ATOM     30  C   UNL     1      -8.387   5.056   1.660  1.00  0.00     0.048 C 
ATOM     31  O   UNL     1      -7.556   4.867   2.590  1.00  0.00    -0.550 OA
ATOM     32  O   UNL     1      -8.918   3.951   1.006  1.00  0.00    -0.550 OA
ENDBRANCH   1  30
BRANCH  27  33
ATOM     33  O   UNL     1      -5.097   8.601  -6.889  1.00  0.00    -0.393 OA
ATOM     34  H   UNL     1      -4.798   7.677  -6.676  1.00  0.00     0.210 HD
ENDBRANCH  27  33
TORSDOF 2
ENDMDL
MODEL 4
REMARK VINA RESULT:    -3.236      4.911      8.028
REMARK INTER + INTRA:          -3.367
REMARK INTER:                  -3.725
REMARK INTRA:                   0.358
REMARK UNBOUND:                 0.152
REMARK SMILES C[C@@H]1[C@@H](C)CC[C@]2(C(=O)[O-])CC[C@@]3(C)C(=CC[C@@H]4[C@]5(C)CC[C@H](O)C(C)(C)[C@@H]5CC[C@]43C)[C@@H]12
REMARK SMILES IDX 7 1 6 2 11 3 33 4 5 5 12 6 15 7 2 8 3 9 13 10 16 11 1 12
REMARK SMILES IDX 4 13 14 14 31 15 17 16 18 17 30 18 32 19 19 20 29 21 28 22
REMARK SMILES IDX 21 23 20 24 25 25 22 26 23 27 26 28 27 29 8 30 9 31 10 32
REMARK SMILES IDX 24 33
REMARK H PARENT 24 34
REMARK Flexibility Score: inf
ROOT
ATOM      1  C   UNL     1      -7.666   6.745   6.416  1.00  0.00     0.017 C 
ATOM      2  C   UNL     1      -8.097   7.676   7.576  1.00  0.00     0.014 C 
ATOM      3  C   UNL     1      -6.272   7.239   5.862  1.00  0.00     0.014 C 
ATOM      4  C   UNL     1      -8.740   6.818   5.278  1.00  0.00     0.030 C 
ATOM      5  C   UNL     1      -9.473   7.300   8.124  1.00  0.00     0.004 C 
ATOM      6  C   UNL     1      -6.182   7.369   4.316  1.00  0.00     0.013 C 
ATOM      7  C   UNL     1      -8.258   5.951   4.096  1.00  0.00    -0.063 C 
ATOM      8  C   UNL     1     -10.223   6.618   5.756  1.00  0.00    -0.003 C 
ATOM      9  C   UNL     1     -10.545   7.451   7.039  1.00  0.00    -0.011 C 
ATOM     10  C   UNL     1      -6.839   6.188   3.528  1.00  0.00    -0.006 C 
ATOM     11  C   UNL     1      -9.048   5.043   3.466  1.00  0.00    -0.027 C 
ATOM     12  C   UNL     1     -11.230   7.018   4.639  1.00  0.00     0.008 C 
ATOM     13  C   UNL     1     -11.916   7.075   7.625  1.00  0.00     0.008 C 
ATOM     14  C   UNL     1      -6.014   4.909   3.911  1.00  0.00     0.017 C 
ATOM     15  C   UNL     1      -6.888   6.435   1.898  1.00  0.00    -0.020 C 
ATOM     16  C   UNL     1      -8.797   4.751   2.008  1.00  0.00     0.032 C 
ATOM     17  C   UNL     1      -8.333   6.086   1.357  1.00  0.00     0.006 C 
ATOM     18  C   UNL     1      -6.665   7.916   1.495  1.00  0.00     0.008 C 
ATOM     19  C   UNL     1      -5.757   5.601   1.202  1.00  0.00     0.012 C 
ATOM     20  C   UNL     1      -8.681   6.311  -0.174  1.00  0.00    -0.025 C 
ATOM     21  C   UNL     1      -6.750   8.155  -0.019  1.00  0.00     0.005 C 
ATOM     22  C   UNL     1      -8.086   7.708  -0.691  1.00  0.00     0.003 C 
ATOM     23  C   UNL     1      -8.218   5.087  -1.027  1.00  0.00     0.010 C 
ATOM     24  C   UNL     1     -10.254   6.385  -0.273  1.00  0.00     0.012 C 
ATOM     25  C   UNL     1      -8.043   7.870  -2.280  1.00  0.00    -0.006 C 
ATOM     26  C   UNL     1      -8.267   5.316  -2.541  1.00  0.00     0.033 C 
ATOM     27  C   UNL     1      -7.498   6.577  -2.963  1.00  0.00     0.120 C 
ATOM     28  C   UNL     1      -9.454   8.214  -2.839  1.00  0.00     0.014 C 
ATOM     29  C   UNL     1      -7.154   9.070  -2.726  1.00  0.00     0.014 C 
ENDROOT
BRANCH   1  30
ATOM     30  C   UNL     1      -7.515   5.332   6.984  1.00  0.00     0.048 C 
ATOM     31  O   UNL     1      -6.718   5.124   7.939  1.00  0.00    -0.550 OA
ATOM     32  O   UNL     1      -8.253   4.263   6.488  1.00  0.00    -0.550 OA
ENDBRANCH   1  30
BRANCH  27  33
ATOM     33  O   UNL     1      -6.131   6.411  -2.680  1.00  0.00    -0.393 OA
ATOM     34  H   UNL     1      -6.029   6.455  -1.693  1.00  0.00     0.210 HD
ENDBRANCH  27  33
TORSDOF 2
ENDMDL
MODEL 5
REMARK VINA RESULT:    -2.487      1.249      7.873
REMARK INTER + INTRA:          -2.552
REMARK INTER:                  -2.711
REMARK INTRA:                   0.158
REMARK UNBOUND:                 0.152
REMARK SMILES C[C@@H]1[C@@H](C)CC[C@]2(C(=O)[O-])CC[C@@]3(C)C(=CC[C@@H]4[C@]5(C)CC[C@H](O)C(C)(C)[C@@H]5CC[C@]43C)[C@@H]12
REMARK SMILES IDX 7 1 6 2 11 3 33 4 5 5 12 6 15 7 2 8 3 9 13 10 16 11 1 12
REMARK SMILES IDX 4 13 14 14 31 15 17 16 18 17 30 18 32 19 19 20 29 21 28 22
REMARK SMILES IDX 21 23 20 24 25 25 22 26 23 27 26 28 27 29 8 30 9 31 10 32
REMARK SMILES IDX 24 33
REMARK H PARENT 24 34
REMARK Flexibility Score: inf
ROOT
ATOM      1  C   UNL     1      -7.679   7.755  -9.259  1.00  0.00     0.017 C 
ATOM      2  C   UNL     1      -8.609   7.526 -10.475  1.00  0.00     0.014 C 
ATOM      3  C   UNL     1      -7.508   6.389  -8.488  1.00  0.00     0.014 C 
ATOM      4  C   UNL     1      -8.332   8.817  -8.310  1.00  0.00     0.030 C 
ATOM      5  C   UNL     1      -8.876   8.822 -11.238  1.00  0.00     0.004 C 
ATOM      6  C   UNL     1      -7.702   6.467  -6.948  1.00  0.00     0.013 C 
ATOM      7  C   UNL     1      -7.437   8.975  -7.064  1.00  0.00    -0.063 C 
ATOM      8  C   UNL     1      -8.810  10.134  -9.022  1.00  0.00    -0.003 C 
ATOM      9  C   UNL     1      -9.594   9.838 -10.341  1.00  0.00    -0.011 C 
ATOM     10  C   UNL     1      -7.029   7.709  -6.274  1.00  0.00    -0.006 C 
ATOM     11  C   UNL     1      -7.053  10.180  -6.568  1.00  0.00    -0.027 C 
ATOM     12  C   UNL     1      -9.720  10.978  -8.084  1.00  0.00     0.008 C 
ATOM     13  C   UNL     1      -9.856  11.125 -11.142  1.00  0.00     0.008 C 
ATOM     14  C   UNL     1      -5.487   7.541  -6.515  1.00  0.00     0.017 C 
ATOM     15  C   UNL     1      -7.397   7.866  -4.674  1.00  0.00    -0.020 C 
ATOM     16  C   UNL     1      -6.793  10.306  -5.088  1.00  0.00     0.032 C 
ATOM     17  C   UNL     1      -7.805   9.365  -4.373  1.00  0.00     0.006 C 
ATOM     18  C   UNL     1      -8.630   7.030  -4.243  1.00  0.00     0.008 C 
ATOM     19  C   UNL     1      -6.189   7.375  -3.802  1.00  0.00     0.012 C 
ATOM     20  C   UNL     1      -8.285   9.778  -2.919  1.00  0.00    -0.025 C 
ATOM     21  C   UNL     1      -8.998   7.205  -2.763  1.00  0.00     0.005 C 
ATOM     22  C   UNL     1      -9.280   8.674  -2.315  1.00  0.00     0.003 C 
ATOM     23  C   UNL     1      -7.057  10.075  -2.000  1.00  0.00     0.010 C 
ATOM     24  C   UNL     1      -9.091  11.125  -3.077  1.00  0.00     0.012 C 
ATOM     25  C   UNL     1      -9.527   8.785  -0.741  1.00  0.00    -0.006 C 
ATOM     26  C   UNL     1      -7.401  10.224  -0.514  1.00  0.00     0.033 C 
ATOM     27  C   UNL     1      -8.187   9.018   0.023  1.00  0.00     0.120 C 
ATOM     28  C   UNL     1     -10.532   9.929  -0.419  1.00  0.00     0.014 C 
ATOM     29  C   UNL     1     -10.206   7.508  -0.159  1.00  0.00     0.014 C 
ENDROOT
BRANCH   1  30
ATOM     30  C   UNL     1      -6.318   8.212  -9.792  1.00  0.00     0.048 C 
ATOM     31  O   UNL     1      -5.525   7.364 -10.286  1.00  0.00    -0.550 OA
ATOM     32  O   UNL     1      -5.935   9.548  -9.767  1.00  0.00    -0.550 OA
ENDBRANCH   1  30
BRANCH  27  33
ATOM     33  O   UNL     1      -7.381   7.868  -0.034  1.00  0.00    -0.393 OA
ATOM     34  H   UNL     1      -6.473   8.132   0.273  1.00  0.00     0.210 HD
ENDBRANCH  27  33
TORSDOF 2
ENDMDL
MODEL 6
REMARK VINA RESULT:    -2.423      1.940      4.069
REMARK INTER + INTRA:          -2.483
REMARK INTER:                  -2.633
REMARK INTRA:                   0.150
REMARK UNBOUND:                 0.152
REMARK SMILES C[C@@H]1[C@@H](C)CC[C@]2(C(=O)[O-])CC[C@@]3(C)C(=CC[C@@H]4[C@]5(C)CC[C@H](O)C(C)(C)[C@@H]5CC[C@]43C)[C@@H]12
REMARK SMILES IDX 7 1 6 2 11 3 33 4 5 5 12 6 15 7 2 8 3 9 13 10 16 11 1 12
REMARK SMILES IDX 4 13 14 14 31 15 17 16 18 17 30 18 32 19 19 20 29 21 28 22
REMARK SMILES IDX 21 23 20 24 25 25 22 26 23 27 26 28 27 29 8 30 9 31 10 32
REMARK SMILES IDX 24 33
REMARK H PARENT 24 34
REMARK Flexibility Score: inf
ROOT
ATOM      1  C   UNL     1      -8.007   7.437  -2.234  1.00  0.00     0.017 C 
ATOM      2  C   UNL     1      -7.494   7.361  -0.776  1.00  0.00     0.014 C 
ATOM      3  C   UNL     1      -7.669   6.077  -2.962  1.00  0.00     0.014 C 
ATOM      4  C   UNL     1      -7.286   8.619  -2.968  1.00  0.00     0.030 C 
ATOM      5  C   UNL     1      -7.726   8.670  -0.023  1.00  0.00     0.004 C 
ATOM      6  C   UNL     1      -7.006   6.219  -4.360  1.00  0.00     0.013 C 
ATOM      7  C   UNL     1      -7.744   8.632  -4.441  1.00  0.00    -0.063 C 
ATOM      8  C   UNL     1      -7.310   9.988  -2.197  1.00  0.00    -0.003 C 
ATOM      9  C   UNL     1      -6.954   9.817  -0.685  1.00  0.00    -0.011 C 
ATOM     10  C   UNL     1      -7.639   7.327  -5.266  1.00  0.00    -0.006 C 
ATOM     11  C   UNL     1      -8.159   9.754  -5.084  1.00  0.00    -0.027 C 
ATOM     12  C   UNL     1      -6.315  11.004  -2.829  1.00  0.00     0.008 C 
ATOM     13  C   UNL     1      -7.202  11.116   0.102  1.00  0.00     0.008 C 
ATOM     14  C   UNL     1      -9.118   6.873  -5.524  1.00  0.00     0.017 C 
ATOM     15  C   UNL     1      -6.809   7.579  -6.669  1.00  0.00    -0.020 C 
ATOM     16  C   UNL     1      -7.945   9.858  -6.574  1.00  0.00     0.032 C 
ATOM     17  C   UNL     1      -6.604   9.133  -6.886  1.00  0.00     0.006 C 
ATOM     18  C   UNL     1      -5.373   6.994  -6.646  1.00  0.00     0.008 C 
ATOM     19  C   UNL     1      -7.560   6.890  -7.860  1.00  0.00     0.012 C 
ATOM     20  C   UNL     1      -5.764   9.655  -8.125  1.00  0.00    -0.025 C 
ATOM     21  C   UNL     1      -4.585   7.262  -7.935  1.00  0.00     0.005 C 
ATOM     22  C   UNL     1      -4.444   8.766  -8.331  1.00  0.00     0.003 C 
ATOM     23  C   UNL     1      -6.662   9.737  -9.401  1.00  0.00     0.010 C 
ATOM     24  C   UNL     1      -5.310  11.125  -7.775  1.00  0.00     0.012 C 
ATOM     25  C   UNL     1      -3.727   8.950  -9.746  1.00  0.00    -0.006 C 
ATOM     26  C   UNL     1      -5.890   9.975 -10.704  1.00  0.00     0.033 C 
ATOM     27  C   UNL     1      -4.768   8.946 -10.909  1.00  0.00     0.120 C 
ATOM     28  C   UNL     1      -2.897  10.266  -9.778  1.00  0.00     0.014 C 
ATOM     29  C   UNL     1      -2.678   7.832 -10.025  1.00  0.00     0.014 C 
ENDROOT
BRANCH   1  30
ATOM     30  C   UNL     1      -9.525   7.624  -2.186  1.00  0.00     0.048 C 
ATOM     31  O   UNL     1     -10.271   6.625  -1.995  1.00  0.00    -0.550 OA
ATOM     32  O   UNL     1     -10.112   8.876  -2.326  1.00  0.00    -0.550 OA
ENDBRANCH   1  30
BRANCH  27  33
ATOM     33  O   UNL     1      -5.326   7.665 -11.065  1.00  0.00    -0.393 OA
ATOM     34  H   UNL     1      -4.904   7.258 -11.867  1.00  0.00     0.210 HD
ENDBRANCH  27  33
TORSDOF 2
ENDMDL
