MODEL 1
REMARK VINA RESULT:    -7.544      0.000      0.000
REMARK INTER + INTRA:          -9.175
REMARK INTER:                  -8.867
REMARK INTRA:                  -0.308
REMARK UNBOUND:                -0.308
REMARK SMILES O=c1cc(-c2ccc(O)c(O)c2)oc2cc(O)cc(O)c12
REMARK SMILES IDX 4 1 3 2 2 3 1 4 21 5 19 6 18 7 16 8 15 9 14 10 13 11 5 12
REMARK SMILES IDX 6 13 7 14 8 15 12 16 10 17 9 18 11 20 20 22 17 24
REMARK H PARENT 9 19 11 21 20 23 17 25
REMARK Flexibility Score: inf
ROOT
ATOM      1  C   UNL     1       8.367  40.113  22.664  1.00  0.00     0.138 A 
ATOM      2  C   UNL     1       9.620  39.605  22.293  1.00  0.00     0.100 A 
ATOM      3  C   UNL     1      10.469  40.377  21.498  1.00  0.00     0.197 A 
ATOM      4  O   UNL     1      11.612  39.921  21.233  1.00  0.00    -0.289 OA
ATOM      5  C   UNL     1      10.046  41.650  21.046  1.00  0.00     0.107 A 
ATOM      6  C   UNL     1      10.810  42.506  20.198  1.00  0.00     0.134 A 
ATOM      7  C   UNL     1      10.337  43.792  19.911  1.00  0.00     0.093 A 
ATOM      8  C   UNL     1       9.105  44.231  20.390  1.00  0.00     0.123 A 
ATOM      9  C   UNL     1       8.324  43.382  21.177  1.00  0.00     0.094 A 
ATOM     10  C   UNL     1       8.783  42.106  21.509  1.00  0.00     0.146 A 
ATOM     11  O   UNL     1       8.017  41.334  22.272  1.00  0.00    -0.456 OA
ENDROOT
BRANCH   1  12
ATOM     12  C   UNL     1       7.424  39.335  23.508  1.00  0.00     0.021 A 
ATOM     13  C   UNL     1       7.410  37.926  23.494  1.00  0.00     0.016 A 
ATOM     14  C   UNL     1       6.505  37.220  24.292  1.00  0.00     0.051 A 
ATOM     15  C   UNL     1       5.597  37.906  25.107  1.00  0.00     0.157 A 
ATOM     16  C   UNL     1       6.500  40.015  24.320  1.00  0.00     0.062 A 
ATOM     17  C   UNL     1       5.593  39.305  25.121  1.00  0.00     0.158 A 
BRANCH  15  18
ATOM     18  O   UNL     1       4.694  37.204  25.904  1.00  0.00    -0.504 OA
ATOM     19  H   UNL     1       4.633  37.365  26.904  1.00  0.00     0.293 HD
ENDBRANCH  15  18
BRANCH  17  20
ATOM     20  O   UNL     1       4.684  39.985  25.931  1.00  0.00    -0.504 OA
ATOM     21  H   UNL     1       3.927  40.531  25.536  1.00  0.00     0.293 HD
ENDBRANCH  17  20
ENDBRANCH   1  12
BRANCH   6  22
ATOM     22  O   UNL     1      12.016  42.135  19.596  1.00  0.00    -0.507 OA
ATOM     23  H   UNL     1      12.923  42.205  20.031  1.00  0.00     0.293 HD
ENDBRANCH   6  22
BRANCH   8  24
ATOM     24  O   UNL     1       8.659  45.513  20.072  1.00  0.00    -0.508 OA
ATOM     25  H   UNL     1       7.704  45.685  19.782  1.00  0.00     0.293 HD
ENDBRANCH   8  24
TORSDOF 5
ENDMDL
MODEL 2
REMARK VINA RESULT:    -7.175      5.007     11.137
REMARK INTER + INTRA:          -8.741
REMARK INTER:                  -8.440
REMARK INTRA:                  -0.301
REMARK UNBOUND:                -0.308
REMARK SMILES O=c1cc(-c2ccc(O)c(O)c2)oc2cc(O)cc(O)c12
REMARK SMILES IDX 4 1 3 2 2 3 1 4 21 5 19 6 18 7 16 8 15 9 14 10 13 11 5 12
REMARK SMILES IDX 6 13 7 14 8 15 12 16 10 17 9 18 11 20 20 22 17 24
REMARK H PARENT 9 19 11 21 20 23 17 25
REMARK Flexibility Score: inf
ROOT
ATOM      1  C   UNL     1       4.012  36.806  28.021  1.00  0.00     0.138 A 
ATOM      2  C   UNL     1       3.995  37.201  29.366  1.00  0.00     0.100 A 
ATOM      3  C   UNL     1       3.363  36.395  30.314  1.00  0.00     0.197 A 
ATOM      4  O   UNL     1       3.419  36.744  31.522  1.00  0.00    -0.289 OA
ATOM      5  C   UNL     1       2.718  35.203  29.906  1.00  0.00     0.107 A 
ATOM      6  C   UNL     1       2.008  34.325  30.778  1.00  0.00     0.134 A 
ATOM      7  C   UNL     1       1.509  33.115  30.282  1.00  0.00     0.093 A 
ATOM      8  C   UNL     1       1.641  32.779  28.936  1.00  0.00     0.123 A 
ATOM      9  C   UNL     1       2.286  33.655  28.062  1.00  0.00     0.094 A 
ATOM     10  C   UNL     1       2.825  34.854  28.534  1.00  0.00     0.146 A 
ATOM     11  O   UNL     1       3.445  35.654  27.673  1.00  0.00    -0.456 OA
ENDROOT
BRANCH   1  12
ATOM     12  C   UNL     1       4.668  37.625  26.970  1.00  0.00     0.021 A 
ATOM     13  C   UNL     1       4.618  39.033  26.992  1.00  0.00     0.016 A 
ATOM     14  C   UNL     1       5.237  39.779  25.985  1.00  0.00     0.051 A 
ATOM     15  C   UNL     1       5.907  39.134  24.938  1.00  0.00     0.157 A 
ATOM     16  C   UNL     1       5.332  36.986  25.908  1.00  0.00     0.062 A 
ATOM     17  C   UNL     1       5.954  37.736  24.898  1.00  0.00     0.158 A 
BRANCH  15  18
ATOM     18  O   UNL     1       6.526  39.875  23.933  1.00  0.00    -0.504 OA
ATOM     19  H   UNL     1       7.395  40.371  24.099  1.00  0.00     0.293 HD
ENDBRANCH  15  18
BRANCH  17  20
ATOM     20  O   UNL     1       6.618  37.097  23.853  1.00  0.00    -0.504 OA
ATOM     21  H   UNL     1       6.777  36.095  23.859  1.00  0.00     0.293 HD
ENDBRANCH  17  20
ENDBRANCH   1  12
BRANCH   6  22
ATOM     22  O   UNL     1       1.745  34.603  32.123  1.00  0.00    -0.507 OA
ATOM     23  H   UNL     1       1.683  35.529  32.520  1.00  0.00     0.293 HD
ENDBRANCH   6  22
BRANCH   8  24
ATOM     24  O   UNL     1       1.118  31.572  28.473  1.00  0.00    -0.508 OA
ATOM     25  H   UNL     1       1.710  30.768  28.304  1.00  0.00     0.293 HD
ENDBRANCH   8  24
TORSDOF 5
ENDMDL
MODEL 3
REMARK VINA RESULT:    -7.019      5.939      9.345
REMARK INTER + INTRA:          -8.558
REMARK INTER:                  -8.273
REMARK INTRA:                  -0.285
REMARK UNBOUND:                -0.308
REMARK SMILES O=c1cc(-c2ccc(O)c(O)c2)oc2cc(O)cc(O)c12
REMARK SMILES IDX 4 1 3 2 2 3 1 4 21 5 19 6 18 7 16 8 15 9 14 10 13 11 5 12
REMARK SMILES IDX 6 13 7 14 8 15 12 16 10 17 9 18 11 20 20 22 17 24
REMARK H PARENT 9 19 11 21 20 23 17 25
REMARK Flexibility Score: inf
ROOT
ATOM      1  C   UNL     1       3.830  35.484  29.151  1.00  0.00     0.138 A 
ATOM      2  C   UNL     1       4.669  35.929  30.182  1.00  0.00     0.100 A 
ATOM      3  C   UNL     1       5.600  36.937  29.927  1.00  0.00     0.197 A 
ATOM      4  O   UNL     1       6.296  37.359  30.888  1.00  0.00    -0.289 OA
ATOM      5  C   UNL     1       5.713  37.478  28.624  1.00  0.00     0.107 A 
ATOM      6  C   UNL     1       6.654  38.479  28.239  1.00  0.00     0.134 A 
ATOM      7  C   UNL     1       6.594  39.022  26.950  1.00  0.00     0.093 A 
ATOM      8  C   UNL     1       5.671  38.559  26.015  1.00  0.00     0.123 A 
ATOM      9  C   UNL     1       4.781  37.541  26.364  1.00  0.00     0.094 A 
ATOM     10  C   UNL     1       4.792  37.004  27.653  1.00  0.00     0.146 A 
ATOM     11  O   UNL     1       3.919  36.048  27.950  1.00  0.00    -0.456 OA
ENDROOT
BRANCH   1  12
ATOM     12  C   UNL     1       2.823  34.414  29.366  1.00  0.00     0.021 A 
ATOM     13  C   UNL     1       2.415  33.562  28.321  1.00  0.00     0.016 A 
ATOM     14  C   UNL     1       1.457  32.570  28.550  1.00  0.00     0.051 A 
ATOM     15  C   UNL     1       0.887  32.418  29.819  1.00  0.00     0.157 A 
ATOM     16  C   UNL     1       2.235  34.262  30.634  1.00  0.00     0.062 A 
ATOM     17  C   UNL     1       1.274  33.266  30.863  1.00  0.00     0.158 A 
BRANCH  15  18
ATOM     18  O   UNL     1      -0.068  31.429  30.051  1.00  0.00    -0.504 OA
ATOM     19  H   UNL     1      -0.289  30.732  29.349  1.00  0.00     0.293 HD
ENDBRANCH  15  18
BRANCH  17  20
ATOM     20  O   UNL     1       0.702  33.114  32.125  1.00  0.00    -0.504 OA
ATOM     21  H   UNL     1       0.228  33.882  32.588  1.00  0.00     0.293 HD
ENDBRANCH  17  20
ENDBRANCH   1  12
BRANCH   6  22
ATOM     22  O   UNL     1       7.674  38.954  29.070  1.00  0.00    -0.507 OA
ATOM     23  H   UNL     1       8.043  39.893  29.051  1.00  0.00     0.293 HD
ENDBRANCH   6  22
BRANCH   8  24
ATOM     24  O   UNL     1       5.650  39.112  24.736  1.00  0.00    -0.508 OA
ATOM     25  H   UNL     1       6.391  38.932  24.068  1.00  0.00     0.293 HD
ENDBRANCH   8  24
TORSDOF 5
ENDMDL
MODEL 4
REMARK VINA RESULT:    -6.907      3.395      9.051
REMARK INTER + INTRA:          -8.426
REMARK INTER:                  -8.163
REMARK INTRA:                  -0.263
REMARK UNBOUND:                -0.308
REMARK SMILES O=c1cc(-c2ccc(O)c(O)c2)oc2cc(O)cc(O)c12
REMARK SMILES IDX 4 1 3 2 2 3 1 4 21 5 19 6 18 7 16 8 15 9 14 10 13 11 5 12
REMARK SMILES IDX 6 13 7 14 8 15 12 16 10 17 9 18 11 20 20 22 17 24
REMARK H PARENT 9 19 11 21 20 23 17 25
REMARK Flexibility Score: inf
ROOT
ATOM      1  C   UNL     1       6.196  38.059  26.254  1.00  0.00     0.138 A 
ATOM      2  C   UNL     1       6.451  38.738  27.454  1.00  0.00     0.100 A 
ATOM      3  C   UNL     1       5.710  38.423  28.594  1.00  0.00     0.197 A 
ATOM      4  O   UNL     1       6.004  39.005  29.672  1.00  0.00    -0.289 OA
ATOM      5  C   UNL     1       4.689  37.446  28.524  1.00  0.00     0.107 A 
ATOM      6  C   UNL     1       3.844  37.074  29.611  1.00  0.00     0.134 A 
ATOM      7  C   UNL     1       2.946  36.011  29.454  1.00  0.00     0.093 A 
ATOM      8  C   UNL     1       2.818  35.349  28.235  1.00  0.00     0.123 A 
ATOM      9  C   UNL     1       3.601  35.741  27.147  1.00  0.00     0.094 A 
ATOM     10  C   UNL     1       4.531  36.774  27.283  1.00  0.00     0.146 A 
ATOM     11  O   UNL     1       5.268  37.107  26.228  1.00  0.00    -0.456 OA
ENDROOT
BRANCH   1  12
ATOM     12  C   UNL     1       6.952  38.354  25.010  1.00  0.00     0.021 A 
ATOM     13  C   UNL     1       6.518  39.334  24.096  1.00  0.00     0.016 A 
ATOM     14  C   UNL     1       7.245  39.584  22.928  1.00  0.00     0.051 A 
ATOM     15  C   UNL     1       8.409  38.857  22.651  1.00  0.00     0.157 A 
ATOM     16  C   UNL     1       8.116  37.621  24.717  1.00  0.00     0.062 A 
ATOM     17  C   UNL     1       8.845  37.873  23.545  1.00  0.00     0.158 A 
BRANCH  15  18
ATOM     18  O   UNL     1       9.136  39.104  21.488  1.00  0.00    -0.504 OA
ATOM     19  H   UNL     1       8.676  39.351  20.618  1.00  0.00     0.293 HD
ENDBRANCH  15  18
BRANCH  17  20
ATOM     20  O   UNL     1      10.002  37.148  23.265  1.00  0.00    -0.504 OA
ATOM     21  H   UNL     1      10.472  37.226  22.369  1.00  0.00     0.293 HD
ENDBRANCH  17  20
ENDBRANCH   1  12
BRANCH   6  22
ATOM     22  O   UNL     1       3.830  37.725  30.849  1.00  0.00    -0.507 OA
ATOM     23  H   UNL     1       4.451  37.519  31.616  1.00  0.00     0.293 HD
ENDBRANCH   6  22
BRANCH   8  24
ATOM     24  O   UNL     1       1.902  34.306  28.110  1.00  0.00    -0.508 OA
ATOM     25  H   UNL     1       2.201  33.360  27.906  1.00  0.00     0.293 HD
ENDBRANCH   8  24
TORSDOF 5
ENDMDL
MODEL 5
REMARK VINA RESULT:    -6.898      5.877      8.937
REMARK INTER + INTRA:          -8.415
REMARK INTER:                  -8.124
REMARK INTRA:                  -0.292
REMARK UNBOUND:                -0.308
REMARK SMILES O=c1cc(-c2ccc(O)c(O)c2)oc2cc(O)cc(O)c12
REMARK SMILES IDX 4 1 3 2 2 3 1 4 21 5 19 6 18 7 16 8 15 9 14 10 13 11 5 12
REMARK SMILES IDX 6 13 7 14 8 15 12 16 10 17 9 18 11 20 20 22 17 24
REMARK H PARENT 9 19 11 21 20 23 17 25
REMARK Flexibility Score: inf
ROOT
ATOM      1  C   UNL     1       3.832  35.750  28.382  1.00  0.00     0.138 A 
ATOM      2  C   UNL     1       3.750  35.809  26.983  1.00  0.00     0.100 A 
ATOM      3  C   UNL     1       4.559  36.705  26.283  1.00  0.00     0.197 A 
ATOM      4  O   UNL     1       4.509  36.692  25.025  1.00  0.00    -0.289 OA
ATOM      5  C   UNL     1       5.430  37.568  26.990  1.00  0.00     0.107 A 
ATOM      6  C   UNL     1       6.270  38.549  26.383  1.00  0.00     0.134 A 
ATOM      7  C   UNL     1       7.176  39.266  27.175  1.00  0.00     0.093 A 
ATOM      8  C   UNL     1       7.231  39.080  28.555  1.00  0.00     0.123 A 
ATOM      9  C   UNL     1       6.375  38.162  29.166  1.00  0.00     0.094 A 
ATOM     10  C   UNL     1       5.485  37.407  28.399  1.00  0.00     0.146 A 
ATOM     11  O   UNL     1       4.698  36.532  29.017  1.00  0.00    -0.456 OA
ENDROOT
BRANCH   1  12
ATOM     12  C   UNL     1       2.994  34.816  29.177  1.00  0.00     0.021 A 
ATOM     13  C   UNL     1       2.848  34.958  30.571  1.00  0.00     0.016 A 
ATOM     14  C   UNL     1       2.061  34.059  31.296  1.00  0.00     0.051 A 
ATOM     15  C   UNL     1       1.416  33.001  30.644  1.00  0.00     0.157 A 
ATOM     16  C   UNL     1       2.353  33.743  28.534  1.00  0.00     0.062 A 
ATOM     17  C   UNL     1       1.563  32.841  29.262  1.00  0.00     0.158 A 
BRANCH  15  18
ATOM     18  O   UNL     1       0.630  32.102  31.364  1.00  0.00    -0.504 OA
ATOM     19  H   UNL     1       0.967  31.670  32.218  1.00  0.00     0.293 HD
ENDBRANCH  15  18
BRANCH  17  20
ATOM     20  O   UNL     1       0.922  31.784  28.617  1.00  0.00    -0.504 OA
ATOM     21  H   UNL     1      -0.065  31.823  28.388  1.00  0.00     0.293 HD
ENDBRANCH  17  20
ENDBRANCH   1  12
BRANCH   6  22
ATOM     22  O   UNL     1       6.237  38.874  25.024  1.00  0.00    -0.507 OA
ATOM     23  H   UNL     1       6.911  39.459  24.554  1.00  0.00     0.293 HD
ENDBRANCH   6  22
BRANCH   8  24
ATOM     24  O   UNL     1       8.134  39.822  29.314  1.00  0.00    -0.508 OA
ATOM     25  H   UNL     1       8.988  40.191  28.911  1.00  0.00     0.293 HD
ENDBRANCH   8  24
TORSDOF 5
ENDMDL
MODEL 6
REMARK VINA RESULT:    -6.838      2.558      3.979
REMARK INTER + INTRA:          -8.345
REMARK INTER:                  -8.077
REMARK INTRA:                  -0.268
REMARK UNBOUND:                -0.308
REMARK SMILES O=c1cc(-c2ccc(O)c(O)c2)oc2cc(O)cc(O)c12
REMARK SMILES IDX 4 1 3 2 2 3 1 4 21 5 19 6 18 7 16 8 15 9 14 10 13 11 5 12
REMARK SMILES IDX 6 13 7 14 8 15 12 16 10 17 9 18 11 20 20 22 17 24
REMARK H PARENT 9 19 11 21 20 23 17 25
REMARK Flexibility Score: inf
ROOT
ATOM      1  C   UNL     1       6.620  38.384  25.571  1.00  0.00     0.138 A 
ATOM      2  C   UNL     1       7.739  37.572  25.340  1.00  0.00     0.100 A 
ATOM      3  C   UNL     1       8.622  37.892  24.308  1.00  0.00     0.197 A 
ATOM      4  O   UNL     1       9.651  37.180  24.165  1.00  0.00    -0.289 OA
ATOM      5  C   UNL     1       8.365  39.013  23.483  1.00  0.00     0.107 A 
ATOM      6  C   UNL     1       9.173  39.410  22.376  1.00  0.00     0.134 A 
ATOM      7  C   UNL     1       8.885  40.604  21.705  1.00  0.00     0.093 A 
ATOM      8  C   UNL     1       7.785  41.383  22.059  1.00  0.00     0.123 A 
ATOM      9  C   UNL     1       6.955  40.976  23.105  1.00  0.00     0.094 A 
ATOM     10  C   UNL     1       7.237  39.807  23.817  1.00  0.00     0.146 A 
ATOM     11  O   UNL     1       6.431  39.463  24.816  1.00  0.00    -0.456 OA
ENDROOT
BRANCH   1  12
ATOM     12  C   UNL     1       5.647  38.091  26.654  1.00  0.00     0.021 A 
ATOM     13  C   UNL     1       4.595  37.172  26.474  1.00  0.00     0.016 A 
ATOM     14  C   UNL     1       3.688  36.922  27.508  1.00  0.00     0.051 A 
ATOM     15  C   UNL     1       3.812  37.589  28.733  1.00  0.00     0.157 A 
ATOM     16  C   UNL     1       5.756  38.765  27.883  1.00  0.00     0.062 A 
ATOM     17  C   UNL     1       4.846  38.513  28.920  1.00  0.00     0.158 A 
BRANCH  15  18
ATOM     18  O   UNL     1       2.910  37.342  29.766  1.00  0.00    -0.504 OA
ATOM     19  H   UNL     1       1.946  37.652  29.712  1.00  0.00     0.293 HD
ENDBRANCH  15  18
BRANCH  17  20
ATOM     20  O   UNL     1       4.964  39.179  30.140  1.00  0.00    -0.504 OA
ATOM     21  H   UNL     1       4.176  39.273  30.771  1.00  0.00     0.293 HD
ENDBRANCH  17  20
ENDBRANCH   1  12
BRANCH   6  22
ATOM     22  O   UNL     1      10.247  38.661  21.884  1.00  0.00    -0.507 OA
ATOM     23  H   UNL     1      10.663  37.871  22.354  1.00  0.00     0.293 HD
ENDBRANCH   6  22
BRANCH   8  24
ATOM     24  O   UNL     1       7.519  42.557  21.358  1.00  0.00    -0.508 OA
ATOM     25  H   UNL     1       6.966  42.555  20.509  1.00  0.00     0.293 HD
ENDBRANCH   8  24
TORSDOF 5
ENDMDL
MODEL 7
REMARK VINA RESULT:    -6.834      2.087      6.878
REMARK INTER + INTRA:          -8.341
REMARK INTER:                  -8.041
REMARK INTRA:                  -0.299
REMARK UNBOUND:                -0.308
REMARK SMILES O=c1cc(-c2ccc(O)c(O)c2)oc2cc(O)cc(O)c12
REMARK SMILES IDX 4 1 3 2 2 3 1 4 21 5 19 6 18 7 16 8 15 9 14 10 13 11 5 12
REMARK SMILES IDX 6 13 7 14 8 15 12 16 10 17 9 18 11 20 20 22 17 24
REMARK H PARENT 9 19 11 21 20 23 17 25
REMARK Flexibility Score: inf
ROOT
ATOM      1  C   UNL     1      10.064  41.431  22.079  1.00  0.00     0.138 A 
ATOM      2  C   UNL     1      11.085  41.045  22.959  1.00  0.00     0.100 A 
ATOM      3  C   UNL     1      10.780  40.247  24.062  1.00  0.00     0.197 A 
ATOM      4  O   UNL     1      11.727  39.866  24.799  1.00  0.00    -0.289 OA
ATOM      5  C   UNL     1       9.440  39.861  24.303  1.00  0.00     0.107 A 
ATOM      6  C   UNL     1       9.006  39.084  25.417  1.00  0.00     0.134 A 
ATOM      7  C   UNL     1       7.672  38.664  25.488  1.00  0.00     0.093 A 
ATOM      8  C   UNL     1       6.745  39.043  24.519  1.00  0.00     0.123 A 
ATOM      9  C   UNL     1       7.146  39.849  23.453  1.00  0.00     0.094 A 
ATOM     10  C   UNL     1       8.478  40.255  23.336  1.00  0.00     0.146 A 
ATOM     11  O   UNL     1       8.823  41.009  22.297  1.00  0.00    -0.456 OA
ENDROOT
BRANCH   1  12
ATOM     12  C   UNL     1      10.332  42.280  20.890  1.00  0.00     0.021 A 
ATOM     13  C   UNL     1      11.518  42.152  20.142  1.00  0.00     0.016 A 
ATOM     14  C   UNL     1      11.749  42.971  19.033  1.00  0.00     0.051 A 
ATOM     15  C   UNL     1      10.805  43.935  18.659  1.00  0.00     0.157 A 
ATOM     16  C   UNL     1       9.396  43.260  20.514  1.00  0.00     0.062 A 
ATOM     17  C   UNL     1       9.627  44.081  19.401  1.00  0.00     0.158 A 
BRANCH  15  18
ATOM     18  O   UNL     1      11.031  44.753  17.554  1.00  0.00    -0.504 OA
ATOM     19  H   UNL     1      10.414  44.738  16.748  1.00  0.00     0.293 HD
ENDBRANCH  15  18
BRANCH  17  20
ATOM     20  O   UNL     1       8.691  45.045  19.028  1.00  0.00    -0.504 OA
ATOM     21  H   UNL     1       7.731  45.005  19.352  1.00  0.00     0.293 HD
ENDBRANCH  17  20
ENDBRANCH   1  12
BRANCH   6  22
ATOM     22  O   UNL     1       9.832  38.720  26.486  1.00  0.00    -0.507 OA
ATOM     23  H   UNL     1       9.591  38.818  27.460  1.00  0.00     0.293 HD
ENDBRANCH   6  22
BRANCH   8  24
ATOM     24  O   UNL     1       5.422  38.619  24.630  1.00  0.00    -0.508 OA
ATOM     25  H   UNL     1       4.947  38.155  23.865  1.00  0.00     0.293 HD
ENDBRANCH   8  24
TORSDOF 5
ENDMDL
MODEL 8
REMARK VINA RESULT:    -6.832      2.646      7.089
REMARK INTER + INTRA:          -8.338
REMARK INTER:                  -8.072
REMARK INTRA:                  -0.267
REMARK UNBOUND:                -0.308
REMARK SMILES O=c1cc(-c2ccc(O)c(O)c2)oc2cc(O)cc(O)c12
REMARK SMILES IDX 4 1 3 2 2 3 1 4 21 5 19 6 18 7 16 8 15 9 14 10 13 11 5 12
REMARK SMILES IDX 6 13 7 14 8 15 12 16 10 17 9 18 11 20 20 22 17 24
REMARK H PARENT 9 19 11 21 20 23 17 25
REMARK Flexibility Score: inf
ROOT
ATOM      1  C   UNL     1       9.777  41.386  22.074  1.00  0.00     0.138 A 
ATOM      2  C   UNL     1       8.587  40.644  22.089  1.00  0.00     0.100 A 
ATOM      3  C   UNL     1       8.275  39.864  23.204  1.00  0.00     0.197 A 
ATOM      4  O   UNL     1       7.171  39.259  23.215  1.00  0.00    -0.289 OA
ATOM      5  C   UNL     1       9.175  39.803  24.295  1.00  0.00     0.107 A 
ATOM      6  C   UNL     1       8.980  39.010  25.465  1.00  0.00     0.134 A 
ATOM      7  C   UNL     1       9.883  39.120  26.530  1.00  0.00     0.093 A 
ATOM      8  C   UNL     1      11.002  39.946  26.445  1.00  0.00     0.123 A 
ATOM      9  C   UNL     1      11.232  40.685  25.283  1.00  0.00     0.094 A 
ATOM     10  C   UNL     1      10.331  40.623  24.217  1.00  0.00     0.146 A 
ATOM     11  O   UNL     1      10.578  41.354  23.134  1.00  0.00    -0.456 OA
ENDROOT
BRANCH   1  12
ATOM     12  C   UNL     1      10.159  42.231  20.914  1.00  0.00     0.021 A 
ATOM     13  C   UNL     1      11.393  42.068  20.255  1.00  0.00     0.016 A 
ATOM     14  C   UNL     1      11.730  42.884  19.172  1.00  0.00     0.051 A 
ATOM     15  C   UNL     1      10.848  43.879  18.735  1.00  0.00     0.157 A 
ATOM     16  C   UNL     1       9.284  43.241  20.476  1.00  0.00     0.062 A 
ATOM     17  C   UNL     1       9.624  44.060  19.389  1.00  0.00     0.158 A 
BRANCH  15  18
ATOM     18  O   UNL     1      11.181  44.694  17.655  1.00  0.00    -0.504 OA
ATOM     19  H   UNL     1      10.576  45.452  17.357  1.00  0.00     0.293 HD
ENDBRANCH  15  18
BRANCH  17  20
ATOM     20  O   UNL     1       8.749  45.054  18.954  1.00  0.00    -0.504 OA
ATOM     21  H   UNL     1       8.917  46.034  19.155  1.00  0.00     0.293 HD
ENDBRANCH  17  20
ENDBRANCH   1  12
BRANCH   6  22
ATOM     22  O   UNL     1       7.940  38.089  25.621  1.00  0.00    -0.507 OA
ATOM     23  H   UNL     1       7.475  37.887  26.493  1.00  0.00     0.293 HD
ENDBRANCH   6  22
BRANCH   8  24
ATOM     24  O   UNL     1      11.887  40.019  27.518  1.00  0.00    -0.508 OA
ATOM     25  H   UNL     1      12.675  40.657  27.514  1.00  0.00     0.293 HD
ENDBRANCH   8  24
TORSDOF 5
ENDMDL
MODEL 9
REMARK VINA RESULT:    -6.794      2.026      7.564
REMARK INTER + INTRA:          -8.293
REMARK INTER:                  -8.007
REMARK INTRA:                  -0.286
REMARK UNBOUND:                -0.308
REMARK SMILES O=c1cc(-c2ccc(O)c(O)c2)oc2cc(O)cc(O)c12
REMARK SMILES IDX 4 1 3 2 2 3 1 4 21 5 19 6 18 7 16 8 15 9 14 10 13 11 5 12
REMARK SMILES IDX 6 13 7 14 8 15 12 16 10 17 9 18 11 20 20 22 17 24
REMARK H PARENT 9 19 11 21 20 23 17 25
REMARK Flexibility Score: inf
ROOT
ATOM      1  C   UNL     1       8.762  39.889  23.168  1.00  0.00     0.138 A 
ATOM      2  C   UNL     1       7.401  40.188  23.321  1.00  0.00     0.100 A 
ATOM      3  C   UNL     1       6.649  39.509  24.282  1.00  0.00     0.197 A 
ATOM      4  O   UNL     1       5.446  39.843  24.439  1.00  0.00    -0.289 OA
ATOM      5  C   UNL     1       7.258  38.504  25.071  1.00  0.00     0.107 A 
ATOM      6  C   UNL     1       6.581  37.720  26.052  1.00  0.00     0.134 A 
ATOM      7  C   UNL     1       7.313  36.835  26.853  1.00  0.00     0.093 A 
ATOM      8  C   UNL     1       8.683  36.663  26.670  1.00  0.00     0.123 A 
ATOM      9  C   UNL     1       9.347  37.385  25.676  1.00  0.00     0.094 A 
ATOM     10  C   UNL     1       8.651  38.301  24.884  1.00  0.00     0.146 A 
ATOM     11  O   UNL     1       9.322  38.980  23.960  1.00  0.00    -0.456 OA
ENDROOT
BRANCH   1  12
ATOM     12  C   UNL     1       9.608  40.580  22.162  1.00  0.00     0.021 A 
ATOM     13  C   UNL     1       9.645  41.984  22.066  1.00  0.00     0.016 A 
ATOM     14  C   UNL     1      10.444  42.607  21.102  1.00  0.00     0.051 A 
ATOM     15  C   UNL     1      11.209  41.840  20.216  1.00  0.00     0.157 A 
ATOM     16  C   UNL     1      10.370  39.817  21.259  1.00  0.00     0.062 A 
ATOM     17  C   UNL     1      11.171  40.443  20.292  1.00  0.00     0.158 A 
BRANCH  15  18
ATOM     18  O   UNL     1      12.006  42.458  19.254  1.00  0.00    -0.504 OA
ATOM     19  H   UNL     1      13.004  42.580  19.391  1.00  0.00     0.293 HD
ENDBRANCH  15  18
BRANCH  17  20
ATOM     20  O   UNL     1      11.931  39.682  19.405  1.00  0.00    -0.504 OA
ATOM     21  H   UNL     1      12.810  39.262  19.686  1.00  0.00     0.293 HD
ENDBRANCH  17  20
ENDBRANCH   1  12
BRANCH   6  22
ATOM     22  O   UNL     1       5.198  37.753  26.260  1.00  0.00    -0.507 OA
ATOM     23  H   UNL     1       4.740  38.248  27.010  1.00  0.00     0.293 HD
ENDBRANCH   6  22
BRANCH   8  24
ATOM     24  O   UNL     1       9.377  35.762  27.475  1.00  0.00    -0.508 OA
ATOM     25  H   UNL     1       9.095  35.578  28.431  1.00  0.00     0.293 HD
ENDBRANCH   8  24
TORSDOF 5
ENDMDL
