MODEL 1
REMARK VINA RESULT:    -4.218      0.000      0.000
REMARK INTER + INTRA:          -4.619
REMARK INTER:                  -4.588
REMARK INTRA:                  -0.031
REMARK UNBOUND:                -0.031
REMARK SMILES O=C([O-])c1ccc(O)cc1
REMARK SMILES IDX 4 1 5 2 10 3 6 4 9 5 7 6 2 7 1 8 3 9 8 10
REMARK H PARENT 8 11
REMARK Flexibility Score: inf
ROOT
ATOM      1  C   UNL     1       0.587  27.670  30.602  1.00  0.00    -0.003 A 
ATOM      2  C   UNL     1      -0.125  26.742  31.382  1.00  0.00     0.014 A 
ATOM      3  C   UNL     1       1.533  28.503  31.228  1.00  0.00     0.014 A 
ATOM      4  C   UNL     1       0.104  26.649  32.758  1.00  0.00     0.047 A 
ATOM      5  C   UNL     1       1.760  28.407  32.605  1.00  0.00     0.047 A 
ATOM      6  C   UNL     1       1.046  27.480  33.373  1.00  0.00     0.115 A 
ENDROOT
BRANCH   1   7
ATOM      7  C   UNL     1       0.342  27.767  29.147  1.00  0.00     0.071 C 
ATOM      8  O   UNL     1       0.223  26.727  28.446  1.00  0.00    -0.545 OA
ATOM      9  O   UNL     1       0.239  29.010  28.530  1.00  0.00    -0.545 OA
ENDBRANCH   1   7
BRANCH   6  10
ATOM     10  O   UNL     1       1.264  27.374  34.745  1.00  0.00    -0.508 OA
ATOM     11  H   UNL     1       1.904  26.688  35.128  1.00  0.00     0.293 HD
ENDBRANCH   6  10
TORSDOF 2
ENDMDL
MODEL 2
REMARK VINA RESULT:    -3.679      1.482      4.480
REMARK INTER + INTRA:          -4.033
REMARK INTER:                  -3.997
REMARK INTRA:                  -0.035
REMARK UNBOUND:                -0.031
REMARK SMILES O=C([O-])c1ccc(O)cc1
REMARK SMILES IDX 4 1 5 2 10 3 6 4 9 5 7 6 2 7 1 8 3 9 8 10
REMARK H PARENT 8 11
REMARK Flexibility Score: inf
ROOT
ATOM      1  C   UNL     1       0.244  28.035  31.231  1.00  0.00    -0.003 A 
ATOM      2  C   UNL     1      -0.006  29.000  30.240  1.00  0.00     0.014 A 
ATOM      3  C   UNL     1       0.373  26.686  30.852  1.00  0.00     0.014 A 
ATOM      4  C   UNL     1      -0.125  28.624  28.899  1.00  0.00     0.047 A 
ATOM      5  C   UNL     1       0.253  26.313  29.510  1.00  0.00     0.047 A 
ATOM      6  C   UNL     1       0.004  27.282  28.529  1.00  0.00     0.115 A 
ENDROOT
BRANCH   1   7
ATOM      7  C   UNL     1       0.369  28.436  32.650  1.00  0.00     0.071 C 
ATOM      8  O   UNL     1      -0.026  29.569  33.033  1.00  0.00    -0.545 OA
ATOM      9  O   UNL     1       0.925  27.566  33.582  1.00  0.00    -0.545 OA
ENDBRANCH   1   7
BRANCH   6  10
ATOM     10  O   UNL     1      -0.117  26.922  27.189  1.00  0.00    -0.508 OA
ATOM     11  H   UNL     1       0.690  26.646  26.641  1.00  0.00     0.293 HD
ENDBRANCH   6  10
TORSDOF 2
ENDMDL
MODEL 3
REMARK VINA RESULT:    -2.501      1.845      4.269
REMARK INTER + INTRA:          -2.752
REMARK INTER:                  -2.716
REMARK INTRA:                  -0.036
REMARK UNBOUND:                -0.031
REMARK SMILES O=C([O-])c1ccc(O)cc1
REMARK SMILES IDX 4 1 5 2 10 3 6 4 9 5 7 6 2 7 1 8 3 9 8 10
REMARK H PARENT 8 11
REMARK Flexibility Score: inf
ROOT
ATOM      1  C   UNL     1       0.127  28.619  32.590  1.00  0.00    -0.003 A 
ATOM      2  C   UNL     1       0.402  28.995  31.264  1.00  0.00     0.014 A 
ATOM      3  C   UNL     1      -0.125  27.264  32.876  1.00  0.00     0.014 A 
ATOM      4  C   UNL     1       0.424  28.037  30.246  1.00  0.00     0.047 A 
ATOM      5  C   UNL     1      -0.102  26.309  31.856  1.00  0.00     0.047 A 
ATOM      6  C   UNL     1       0.173  26.693  30.537  1.00  0.00     0.115 A 
ENDROOT
BRANCH   1   7
ATOM      7  C   UNL     1       0.104  29.635  33.666  1.00  0.00     0.071 C 
ATOM      8  O   UNL     1       0.290  30.852  33.402  1.00  0.00    -0.545 OA
ATOM      9  O   UNL     1      -0.124  29.259  34.985  1.00  0.00    -0.545 OA
ENDBRANCH   1   7
BRANCH   6  10
ATOM     10  O   UNL     1       0.199  25.750  29.512  1.00  0.00    -0.508 OA
ATOM     11  H   UNL     1       0.065  24.763  29.698  1.00  0.00     0.293 HD
ENDBRANCH   6  10
TORSDOF 2
ENDMDL
MODEL 4
REMARK VINA RESULT:    -1.869     18.497     18.927
REMARK INTER + INTRA:          -2.064
REMARK INTER:                  -2.036
REMARK INTRA:                  -0.028
REMARK UNBOUND:                -0.031
REMARK SMILES O=C([O-])c1ccc(O)cc1
REMARK SMILES IDX 4 1 5 2 10 3 6 4 9 5 7 6 2 7 1 8 3 9 8 10
REMARK H PARENT 8 11
REMARK Flexibility Score: inf
ROOT
ATOM      1  C   UNL     1      18.379  23.722  27.914  1.00  0.00    -0.003 A 
ATOM      2  C   UNL     1      17.590  22.595  27.625  1.00  0.00     0.014 A 
ATOM      3  C   UNL     1      19.653  23.535  28.481  1.00  0.00     0.014 A 
ATOM      4  C   UNL     1      18.065  21.309  27.898  1.00  0.00     0.047 A 
ATOM      5  C   UNL     1      20.125  22.247  28.753  1.00  0.00     0.047 A 
ATOM      6  C   UNL     1      19.331  21.130  28.462  1.00  0.00     0.115 A 
ENDROOT
BRANCH   1   7
ATOM      7  C   UNL     1      17.874  25.082  27.625  1.00  0.00     0.071 C 
ATOM      8  O   UNL     1      18.454  25.815  26.779  1.00  0.00    -0.545 OA
ATOM      9  O   UNL     1      16.751  25.572  28.282  1.00  0.00    -0.545 OA
ENDBRANCH   1   7
BRANCH   6  10
ATOM     10  O   UNL     1      19.791  19.842  28.728  1.00  0.00    -0.508 OA
ATOM     11  H   UNL     1      19.200  19.030  28.587  1.00  0.00     0.293 HD
ENDBRANCH   6  10
TORSDOF 2
ENDMDL
