MODEL 1
REMARK VINA RESULT:    -2.241      0.000      0.000
REMARK INTER + INTRA:          -2.730
REMARK INTER:                  -3.159
REMARK INTRA:                   0.429
REMARK UNBOUND:                 0.429
REMARK SMILES CC1=CCC(=C(C)C)C(=O)CC(C)=CCC1
REMARK SMILES IDX 12 1 14 2 13 3 15 4 16 5 2 6 1 7 3 8 11 10 9 11 10 12 5 13
REMARK SMILES IDX 6 14 7 15 8 16 4 17
REMARK H PARENT
REMARK Flexibility Score: 60.00
ROOT
ATOM      1  C   UNL     1      51.284   0.216  20.686  1.00  0.00    -0.070 C 
ATOM      2  C   UNL     1      50.405   1.129  21.156  1.00  0.00    -0.027 C 
ATOM      3  C   UNL     1      50.778  -1.179  20.421  1.00  0.00     0.039 C 
ENDROOT
BRANCH   2   4
ATOM      4  C   UNL     1      50.739   2.544  21.572  1.00  0.00     0.032 C 
BRANCH   4   5
ATOM      5  C   UNL     1      50.556   2.839  23.076  1.00  0.00     0.034 C 
BRANCH   5   6
ATOM      6  C   UNL     1      51.118   1.749  23.970  1.00  0.00    -0.077 C 
ATOM      7  C   UNL     1      50.146   0.963  24.815  1.00  0.00     0.039 C 
ATOM      8  C   UNL     1      52.439   1.481  24.111  1.00  0.00    -0.023 CG0
ATOM      9  G   UNL     1      53.587   2.123  23.359  1.00  0.00     0.000 G0
ENDBRANCH   5   6
ENDBRANCH   4   5
ENDBRANCH   2   4
BRANCH   1  10
ATOM     10  C   UNL     1      52.761   0.502  20.503  1.00  0.00     0.111 C 
BRANCH  10  11
ATOM     11  C   UNL     1      53.557   0.115  21.721  1.00  0.00     0.163 C 
ATOM     12  O   UNL     1      53.495  -1.081  22.114  1.00  0.00    -0.294 OA
BRANCH  11  13
ATOM     13  C   UNL     1      54.355   1.103  22.505  1.00  0.00    -0.002 C 
ATOM     14  C   UNL     1      55.721   1.042  22.522  1.00  0.00    -0.069 C 
ATOM     15  C   UNL     1      56.474   0.079  21.630  1.00  0.00     0.039 C 
ATOM     16  C   UNL     1      56.550   1.926  23.427  1.00  0.00     0.039 C 
BRANCH  13  17
ATOM     17  C   UNL     1      53.586   2.108  23.348  1.00  0.00     0.066 CG0
ATOM     18  G   UNL     1      52.445   1.466  24.113  1.00  0.00     0.000 G0
ENDBRANCH  13  17
ENDBRANCH  11  13
ENDBRANCH  10  11
ENDBRANCH   1  10
TORSDOF 0
ENDMDL
MODEL 2
REMARK VINA RESULT:    -2.115      1.716      3.491
REMARK INTER + INTRA:          -2.551
REMARK INTER:                  -2.986
REMARK INTRA:                   0.435
REMARK UNBOUND:                 0.429
REMARK SMILES CC1=CCC(=C(C)C)C(=O)CC(C)=CCC1
REMARK SMILES IDX 12 1 14 2 13 3 15 4 16 5 2 6 1 7 3 8 11 10 9 11 10 12 5 13
REMARK SMILES IDX 6 14 7 15 8 16 4 17
REMARK H PARENT
REMARK Flexibility Score: 60.00
ROOT
ATOM      1  C   UNL     1      50.897   1.228  24.024  1.00  0.00    -0.070 C 
ATOM      2  C   UNL     1      50.210   0.225  23.434  1.00  0.00    -0.027 C 
ATOM      3  C   UNL     1      50.169   2.521  24.289  1.00  0.00     0.039 C 
ENDROOT
BRANCH   2   4
ATOM      4  C   UNL     1      50.786  -1.105  23.001  1.00  0.00     0.032 C 
BRANCH   4   5
ATOM      5  C   UNL     1      50.725  -1.376  21.483  1.00  0.00     0.034 C 
BRANCH   5   6
ATOM      6  C   UNL     1      51.276  -0.233  20.650  1.00  0.00    -0.077 C 
ATOM      7  C   UNL     1      50.350   0.422  19.656  1.00  0.00     0.039 C 
ATOM      8  C   UNL     1      52.563   0.191  20.692  1.00  0.00    -0.023 CG0
ATOM      9  G   UNL     1      53.659  -0.302  21.616  1.00  0.00     0.000 G0
ENDBRANCH   5   6
ENDBRANCH   4   5
ENDBRANCH   2   4
BRANCH   1  10
ATOM     10  C   UNL     1      52.376   1.145  24.346  1.00  0.00     0.111 C 
BRANCH  10  11
ATOM     11  C   UNL     1      53.219   1.677  23.217  1.00  0.00     0.163 C 
ATOM     12  O   UNL     1      53.030   2.867  22.844  1.00  0.00    -0.294 OA
BRANCH  11  13
ATOM     13  C   UNL     1      54.215   0.833  22.493  1.00  0.00    -0.002 C 
ATOM     14  C   UNL     1      55.550   1.122  22.552  1.00  0.00    -0.069 C 
ATOM     15  C   UNL     1      56.080   2.202  23.470  1.00  0.00     0.039 C 
ATOM     16  C   UNL     1      56.566   0.385  21.707  1.00  0.00     0.039 C 
BRANCH  13  17
ATOM     17  C   UNL     1      53.674  -0.290  21.623  1.00  0.00     0.066 CG0
ATOM     18  G   UNL     1      52.575   0.180  20.692  1.00  0.00     0.000 G0
ENDBRANCH  13  17
ENDBRANCH  11  13
ENDBRANCH  10  11
ENDBRANCH   1  10
TORSDOF 0
ENDMDL
MODEL 3
REMARK VINA RESULT:    -1.955      1.659      3.995
REMARK INTER + INTRA:          -2.326
REMARK INTER:                  -2.824
REMARK INTRA:                   0.498
REMARK UNBOUND:                 0.429
REMARK SMILES CC1=CCC(=C(C)C)C(=O)CC(C)=CCC1
REMARK SMILES IDX 12 1 14 2 13 3 15 4 16 5 2 6 1 7 3 8 11 10 9 11 10 12 5 13
REMARK SMILES IDX 6 14 7 15 8 16 4 17
REMARK H PARENT
REMARK Flexibility Score: 60.00
ROOT
ATOM      1  C   UNL     1      53.431  -0.265  21.696  1.00  0.00    -0.070 C 
ATOM      2  C   UNL     1      54.699  -0.260  22.166  1.00  0.00    -0.027 C 
ATOM      3  C   UNL     1      52.523  -1.389  22.127  1.00  0.00     0.039 C 
ENDROOT
BRANCH   2   4
ATOM      4  C   UNL     1      55.781   0.722  21.776  1.00  0.00     0.032 C 
BRANCH   4   5
ATOM      5  C   UNL     1      55.951   1.916  22.738  1.00  0.00     0.034 C 
BRANCH   5   6
ATOM      6  C   UNL     1      55.333   1.675  24.103  1.00  0.00    -0.077 C 
ATOM      7  C   UNL     1      56.100   0.821  25.081  1.00  0.00     0.039 C 
ATOM      8  C   UNL     1      54.108   2.119  24.477  1.00  0.00    -0.023 CG0
ATOM      9  G   UNL     1      53.171   3.002  23.676  1.00  0.00     0.000 G0
ENDBRANCH   5   6
ENDBRANCH   4   5
ENDBRANCH   2   4
BRANCH   1  10
ATOM     10  C   UNL     1      52.913   0.747  20.694  1.00  0.00     0.111 C 
BRANCH  10  11
ATOM     11  C   UNL     1      52.664   2.087  21.335  1.00  0.00     0.163 C 
ATOM     12  O   UNL     1      52.887   3.122  20.651  1.00  0.00    -0.294 OA
BRANCH  11  13
ATOM     13  C   UNL     1      52.230   2.228  22.756  1.00  0.00    -0.002 C 
ATOM     14  C   UNL     1      51.021   1.740  23.169  1.00  0.00    -0.069 C 
ATOM     15  C   UNL     1      50.155   0.908  22.248  1.00  0.00     0.039 C 
ATOM     16  C   UNL     1      50.484   2.005  24.558  1.00  0.00     0.039 C 
BRANCH  13  17
ATOM     17  C   UNL     1      53.139   3.012  23.688  1.00  0.00     0.066 CG0
ATOM     18  G   UNL     1      54.091   2.116  24.455  1.00  0.00     0.000 G0
ENDBRANCH  13  17
ENDBRANCH  11  13
ENDBRANCH  10  11
ENDBRANCH   1  10
TORSDOF 0
ENDMDL
MODEL 4
REMARK VINA RESULT:    -1.597      1.647      4.644
REMARK INTER + INTRA:          -1.821
REMARK INTER:                  -2.477
REMARK INTRA:                   0.656
REMARK UNBOUND:                 0.429
REMARK SMILES CC1=CCC(=C(C)C)C(=O)CC(C)=CCC1
REMARK SMILES IDX 12 1 14 2 13 3 15 4 16 5 2 6 1 7 3 8 11 10 9 11 10 12 5 13
REMARK SMILES IDX 6 14 7 15 8 16 4 17
REMARK H PARENT
REMARK Flexibility Score: 60.00
ROOT
ATOM      1  C   UNL     1      51.798   2.163  24.145  1.00  0.00    -0.070 C 
ATOM      2  C   UNL     1      52.955   1.803  24.742  1.00  0.00    -0.027 C 
ATOM      3  C   UNL     1      50.511   1.626  24.718  1.00  0.00     0.039 C 
ENDROOT
BRANCH   2   4
ATOM      4  C   UNL     1      54.345   2.158  24.261  1.00  0.00     0.032 C 
BRANCH   4   5
ATOM      5  C   UNL     1      55.284   0.952  24.047  1.00  0.00     0.034 C 
BRANCH   5   6
ATOM      6  C   UNL     1      55.549   0.655  22.582  1.00  0.00    -0.077 C 
ATOM      7  C   UNL     1      56.932   0.932  22.048  1.00  0.00     0.039 C 
ATOM      8  C   UNL     1      54.607   0.222  21.709  1.00  0.00    -0.023 CG0
ATOM      9  G   UNL     1      53.168  -0.138  22.019  1.00  0.00     0.000 G0
ENDBRANCH   5   6
ENDBRANCH   4   5
ENDBRANCH   2   4
BRANCH   1  10
ATOM     10  C   UNL     1      51.739   2.999  22.883  1.00  0.00     0.111 C 
BRANCH  10  11
ATOM     11  C   UNL     1      52.383   2.293  21.718  1.00  0.00     0.163 C 
ATOM     12  O   UNL     1      53.096   2.974  20.932  1.00  0.00    -0.294 OA
BRANCH  11  13
ATOM     13  C   UNL     1      52.158   0.846  21.434  1.00  0.00    -0.002 C 
ATOM     14  C   UNL     1      51.048   0.432  20.750  1.00  0.00    -0.069 C 
ATOM     15  C   UNL     1      50.097   1.428  20.123  1.00  0.00     0.039 C 
ATOM     16  C   UNL     1      50.711  -1.033  20.583  1.00  0.00     0.039 C 
BRANCH  13  17
ATOM     17  C   UNL     1      53.157  -0.142  22.015  1.00  0.00     0.066 CG0
ATOM     18  G   UNL     1      54.590   0.229  21.692  1.00  0.00     0.000 G0
ENDBRANCH  13  17
ENDBRANCH  11  13
ENDBRANCH  10  11
ENDBRANCH   1  10
TORSDOF 0
ENDMDL
MODEL 5
REMARK VINA RESULT:    -1.381      1.792      4.955
REMARK INTER + INTRA:          -1.517
REMARK INTER:                  -2.218
REMARK INTRA:                   0.701
REMARK UNBOUND:                 0.429
REMARK SMILES CC1=CCC(=C(C)C)C(=O)CC(C)=CCC1
REMARK SMILES IDX 12 1 14 2 13 3 15 4 16 5 2 6 1 7 3 8 11 10 9 11 10 12 5 13
REMARK SMILES IDX 6 14 7 15 8 16 4 17
REMARK H PARENT
REMARK Flexibility Score: 60.00
ROOT
ATOM      1  C   UNL     1      53.244   1.985  24.447  1.00  0.00    -0.070 C 
ATOM      2  C   UNL     1      54.342   1.343  24.904  1.00  0.00    -0.027 C 
ATOM      3  C   UNL     1      51.923   1.686  25.111  1.00  0.00     0.039 C 
ENDROOT
BRANCH   2   4
ATOM      4  C   UNL     1      55.730   1.435  24.309  1.00  0.00     0.032 C 
BRANCH   4   5
ATOM      5  C   UNL     1      56.226   0.147  23.618  1.00  0.00     0.034 C 
BRANCH   5   6
ATOM      6  C   UNL     1      56.025   0.161  22.114  1.00  0.00    -0.077 C 
ATOM      7  C   UNL     1      57.223   0.461  21.248  1.00  0.00     0.039 C 
ATOM      8  C   UNL     1      54.828  -0.010  21.502  1.00  0.00    -0.023 CG0
ATOM      9  G   UNL     1      53.502  -0.337  22.159  1.00  0.00     0.000 G0
ENDBRANCH   5   6
ENDBRANCH   4   5
ENDBRANCH   2   4
BRANCH   1  10
ATOM     10  C   UNL     1      53.262   2.913  23.249  1.00  0.00     0.111 C 
BRANCH  10  11
ATOM     11  C   UNL     1      52.973   2.173  21.969  1.00  0.00     0.163 C 
ATOM     12  O   UNL     1      53.113   2.794  20.881  1.00  0.00    -0.294 OA
BRANCH  11  13
ATOM     13  C   UNL     1      52.473   0.768  21.951  1.00  0.00    -0.002 C 
ATOM     14  C   UNL     1      51.135   0.503  21.856  1.00  0.00    -0.069 C 
ATOM     15  C   UNL     1      50.132   1.609  21.609  1.00  0.00     0.039 C 
ATOM     16  C   UNL     1      50.585  -0.900  21.993  1.00  0.00     0.039 C 
BRANCH  13  17
ATOM     17  C   UNL     1      53.499  -0.339  22.135  1.00  0.00     0.066 CG0
ATOM     18  G   UNL     1      54.826  -0.012  21.479  1.00  0.00     0.000 G0
ENDBRANCH  13  17
ENDBRANCH  11  13
ENDBRANCH  10  11
ENDBRANCH   1  10
TORSDOF 0
ENDMDL
MODEL 6
REMARK VINA RESULT:    -1.121      1.739      4.622
REMARK INTER + INTRA:          -1.151
REMARK INTER:                  -1.660
REMARK INTRA:                   0.510
REMARK UNBOUND:                 0.429
REMARK SMILES CC1=CCC(=C(C)C)C(=O)CC(C)=CCC1
REMARK SMILES IDX 12 1 14 2 13 3 15 4 16 5 2 6 1 7 3 8 11 10 9 11 10 12 5 13
REMARK SMILES IDX 6 14 7 15 8 16 4 17
REMARK H PARENT
REMARK Flexibility Score: 60.00
ROOT
ATOM      1  C   UNL     1      52.741   1.986  24.522  1.00  0.00    -0.070 C 
ATOM      2  C   UNL     1      54.021   2.313  24.806  1.00  0.00    -0.027 C 
ATOM      3  C   UNL     1      51.695   3.066  24.633  1.00  0.00     0.039 C 
ENDROOT
BRANCH   2   4
ATOM      4  C   UNL     1      55.190   1.353  24.845  1.00  0.00     0.032 C 
BRANCH   4   5
ATOM      5  C   UNL     1      56.073   1.355  23.579  1.00  0.00     0.034 C 
BRANCH   5   6
ATOM      6  C   UNL     1      55.674   0.291  22.572  1.00  0.00    -0.077 C 
ATOM      7  C   UNL     1      56.398  -1.031  22.624  1.00  0.00     0.039 C 
ATOM      8  C   UNL     1      54.762   0.475  21.587  1.00  0.00    -0.023 CG0
ATOM      9  G   UNL     1      53.905   1.703  21.352  1.00  0.00     0.000 G0
ENDBRANCH   5   6
ENDBRANCH   4   5
ENDBRANCH   2   4
BRANCH   1  10
ATOM     10  C   UNL     1      52.298   0.575  24.188  1.00  0.00     0.111 C 
BRANCH  10  11
ATOM     11  C   UNL     1      52.140   0.379  22.703  1.00  0.00     0.163 C 
ATOM     12  O   UNL     1      51.795  -0.760  22.289  1.00  0.00    -0.294 OA
BRANCH  11  13
ATOM     13  C   UNL     1      52.438   1.458  21.716  1.00  0.00    -0.002 C 
ATOM     14  C   UNL     1      51.426   2.139  21.098  1.00  0.00    -0.069 C 
ATOM     15  C   UNL     1      49.982   1.936  21.504  1.00  0.00     0.039 C 
ATOM     16  C   UNL     1      51.689   3.124  19.981  1.00  0.00     0.039 C 
BRANCH  13  17
ATOM     17  C   UNL     1      53.897   1.696  21.364  1.00  0.00     0.066 CG0
ATOM     18  G   UNL     1      54.752   0.464  21.580  1.00  0.00     0.000 G0
ENDBRANCH  13  17
ENDBRANCH  11  13
ENDBRANCH  10  11
ENDBRANCH   1  10
TORSDOF 0
ENDMDL
MODEL 7
REMARK VINA RESULT:    -0.998      1.584      4.679
REMARK INTER + INTRA:          -0.977
REMARK INTER:                  -1.978
REMARK INTRA:                   1.001
REMARK UNBOUND:                 0.429
REMARK SMILES CC1=CCC(=C(C)C)C(=O)CC(C)=CCC1
REMARK SMILES IDX 12 1 14 2 13 3 15 4 16 5 2 6 1 7 3 8 11 10 9 11 10 12 5 13
REMARK SMILES IDX 6 14 7 15 8 16 4 17
REMARK H PARENT
REMARK Flexibility Score: 60.00
ROOT
ATOM      1  C   UNL     1      56.286  -0.781  22.482  1.00  0.00    -0.070 C 
ATOM      2  C   UNL     1      56.883  -0.262  23.578  1.00  0.00    -0.027 C 
ATOM      3  C   UNL     1      57.139  -1.026  21.263  1.00  0.00     0.039 C 
ENDROOT
BRANCH   2   4
ATOM      4  C   UNL     1      56.183   0.142  24.857  1.00  0.00     0.032 C 
BRANCH   4   5
ATOM      5  C   UNL     1      56.078   1.665  25.085  1.00  0.00     0.034 C 
BRANCH   5   6
ATOM      6  C   UNL     1      55.863   2.447  23.802  1.00  0.00    -0.077 C 
ATOM      7  C   UNL     1      57.061   3.120  23.180  1.00  0.00     0.039 C 
ATOM      8  C   UNL     1      54.655   2.638  23.217  1.00  0.00    -0.023 CG0
ATOM      9  G   UNL     1      53.326   2.050  23.649  1.00  0.00     0.000 G0
ENDBRANCH   5   6
ENDBRANCH   4   5
ENDBRANCH   2   4
BRANCH   1  10
ATOM     10  C   UNL     1      54.795  -1.040  22.392  1.00  0.00     0.111 C 
BRANCH  10  11
ATOM     11  C   UNL     1      54.040   0.201  21.995  1.00  0.00     0.163 C 
ATOM     12  O   UNL     1      54.369   0.780  20.925  1.00  0.00    -0.294 OA
BRANCH  11  13
ATOM     13  C   UNL     1      52.970   0.796  22.849  1.00  0.00    -0.002 C 
ATOM     14  C   UNL     1      51.703   0.281  22.843  1.00  0.00    -0.069 C 
ATOM     15  C   UNL     1      51.379  -0.996  22.098  1.00  0.00     0.039 C 
ATOM     16  C   UNL     1      50.562   0.954  23.573  1.00  0.00     0.039 C 
BRANCH  13  17
ATOM     17  C   UNL     1      53.325   2.042  23.643  1.00  0.00     0.066 CG0
ATOM     18  G   UNL     1      54.643   2.650  23.205  1.00  0.00     0.000 G0
ENDBRANCH  13  17
ENDBRANCH  11  13
ENDBRANCH  10  11
ENDBRANCH   1  10
TORSDOF 0
ENDMDL
MODEL 8
REMARK VINA RESULT:    -0.914      1.529      2.067
REMARK INTER + INTRA:          -0.858
REMARK INTER:                  -1.815
REMARK INTRA:                   0.957
REMARK UNBOUND:                 0.429
REMARK SMILES CC1=CCC(=C(C)C)C(=O)CC(C)=CCC1
REMARK SMILES IDX 12 1 14 2 13 3 15 4 16 5 2 6 1 7 3 8 11 10 9 11 10 12 5 13
REMARK SMILES IDX 6 14 7 15 8 16 4 17
REMARK H PARENT
REMARK Flexibility Score: 60.00
ROOT
ATOM      1  C   UNL     1      52.784  -0.362  21.520  1.00  0.00    -0.070 C 
ATOM      2  C   UNL     1      51.503  -0.001  21.283  1.00  0.00    -0.027 C 
ATOM      3  C   UNL     1      53.045  -1.354  22.625  1.00  0.00     0.039 C 
ENDROOT
BRANCH   2   4
ATOM      4  C   UNL     1      51.050   1.045  20.289  1.00  0.00     0.032 C 
BRANCH   4   5
ATOM      5  C   UNL     1      51.276   2.505  20.736  1.00  0.00     0.034 C 
BRANCH   5   6
ATOM      6  C   UNL     1      51.383   2.658  22.243  1.00  0.00    -0.077 C 
ATOM      7  C   UNL     1      50.106   2.614  23.045  1.00  0.00     0.039 C 
ATOM      8  C   UNL     1      52.540   2.899  22.906  1.00  0.00    -0.023 CG0
ATOM      9  G   UNL     1      53.935   2.967  22.317  1.00  0.00     0.000 G0
ENDBRANCH   5   6
ENDBRANCH   4   5
ENDBRANCH   2   4
BRANCH   1  10
ATOM     10  C   UNL     1      53.967   0.249  20.796  1.00  0.00     0.111 C 
BRANCH  10  11
ATOM     11  C   UNL     1      55.034   0.701  21.759  1.00  0.00     0.163 C 
ATOM     12  O   UNL     1      56.142   0.099  21.742  1.00  0.00    -0.294 OA
BRANCH  11  13
ATOM     13  C   UNL     1      54.803   1.781  22.762  1.00  0.00    -0.002 C 
ATOM     14  C   UNL     1      55.279   1.663  24.039  1.00  0.00    -0.069 C 
ATOM     15  C   UNL     1      56.184   0.517  24.436  1.00  0.00     0.039 C 
ATOM     16  C   UNL     1      54.929   2.663  25.119  1.00  0.00     0.039 C 
BRANCH  13  17
ATOM     17  C   UNL     1      53.945   2.960  22.332  1.00  0.00     0.066 CG0
ATOM     18  G   UNL     1      52.548   2.901  22.916  1.00  0.00     0.000 G0
ENDBRANCH  13  17
ENDBRANCH  11  13
ENDBRANCH  10  11
ENDBRANCH   1  10
TORSDOF 0
ENDMDL
MODEL 9
REMARK VINA RESULT:    -0.882      1.576      3.955
REMARK INTER + INTRA:          -0.813
REMARK INTER:                  -1.752
REMARK INTRA:                   0.939
REMARK UNBOUND:                 0.429
REMARK SMILES CC1=CCC(=C(C)C)C(=O)CC(C)=CCC1
REMARK SMILES IDX 12 1 14 2 13 3 15 4 16 5 2 6 1 7 3 8 11 10 9 11 10 12 5 13
REMARK SMILES IDX 6 14 7 15 8 16 4 17
REMARK H PARENT
REMARK Flexibility Score: 60.00
ROOT
ATOM      1  C   UNL     1      52.960   2.402  21.129  1.00  0.00    -0.070 C 
ATOM      2  C   UNL     1      53.943   3.125  21.710  1.00  0.00    -0.027 C 
ATOM      3  C   UNL     1      51.647   3.090  20.853  1.00  0.00     0.039 C 
ENDROOT
BRANCH   2   4
ATOM      4  C   UNL     1      55.288   2.592  22.152  1.00  0.00     0.032 C 
BRANCH   4   5
ATOM      5  C   UNL     1      55.603   2.789  23.650  1.00  0.00     0.034 C 
BRANCH   5   6
ATOM      6  C   UNL     1      55.334   1.551  24.485  1.00  0.00    -0.077 C 
ATOM      7  C   UNL     1      56.519   0.846  25.097  1.00  0.00     0.039 C 
ATOM      8  C   UNL     1      54.109   0.998  24.659  1.00  0.00    -0.023 CG0
ATOM      9  G   UNL     1      52.783   1.536  24.157  1.00  0.00     0.000 G0
ENDBRANCH   5   6
ENDBRANCH   4   5
ENDBRANCH   2   4
BRANCH   1  10
ATOM     10  C   UNL     1      53.083   0.921  20.830  1.00  0.00     0.111 C 
BRANCH  10  11
ATOM     11  C   UNL     1      52.834   0.084  22.058  1.00  0.00     0.163 C 
ATOM     12  O   UNL     1      53.253  -1.105  22.060  1.00  0.00    -0.294 OA
BRANCH  11  13
ATOM     13  C   UNL     1      52.061   0.590  23.230  1.00  0.00    -0.002 C 
ATOM     14  C   UNL     1      50.740   0.274  23.386  1.00  0.00    -0.069 C 
ATOM     15  C   UNL     1      50.058  -0.720  22.472  1.00  0.00     0.039 C 
ATOM     16  C   UNL     1      49.891   0.896  24.473  1.00  0.00     0.039 C 
BRANCH  13  17
ATOM     17  C   UNL     1      52.777   1.539  24.178  1.00  0.00     0.066 CG0
ATOM     18  G   UNL     1      54.099   0.980  24.665  1.00  0.00     0.000 G0
ENDBRANCH  13  17
ENDBRANCH  11  13
ENDBRANCH  10  11
ENDBRANCH   1  10
TORSDOF 0
ENDMDL
