MODEL 1
REMARK VINA RESULT:    -3.202      0.000      0.000
REMARK INTER + INTRA:          -4.148
REMARK INTER:                  -4.512
REMARK INTRA:                   0.364
REMARK UNBOUND:                 0.364
REMARK SMILES CC1=CCC(=C(C)C)C(=O)CC(C)=CCC1
REMARK SMILES IDX 12 1 14 2 13 3 15 4 16 5 2 6 1 7 3 8 11 10 9 11 10 12 5 13
REMARK SMILES IDX 6 14 7 15 8 16 4 17
REMARK H PARENT
REMARK Flexibility Score: 60.00
ROOT
ATOM      1  C   UNL     1       0.773   7.769  -8.480  1.00  0.00    -0.070 C 
ATOM      2  C   UNL     1      -0.294   7.082  -8.952  1.00  0.00    -0.027 C 
ATOM      3  C   UNL     1       1.876   6.974  -7.822  1.00  0.00     0.039 C 
ENDROOT
BRANCH   2   4
ATOM      4  C   UNL     1      -1.548   7.677  -9.545  1.00  0.00     0.032 C 
BRANCH   4   5
ATOM      5  C   UNL     1      -1.319   8.254 -10.956  1.00  0.00     0.034 C 
BRANCH   5   6
ATOM      6  C   UNL     1      -1.771   9.698 -11.064  1.00  0.00    -0.077 C 
ATOM      7  C   UNL     1      -3.205  10.025 -10.731  1.00  0.00     0.039 C 
ATOM      8  C   UNL     1      -0.954  10.715 -11.416  1.00  0.00    -0.023 CG0
ATOM      9  G   UNL     1       0.514  10.593 -11.750  1.00  0.00     0.000 G0
ENDBRANCH   5   6
ENDBRANCH   4   5
ENDBRANCH   2   4
BRANCH   1  10
ATOM     10  C   UNL     1       0.886   9.284  -8.515  1.00  0.00     0.111 C 
BRANCH  10  11
ATOM     11  C   UNL     1       1.760   9.748  -9.654  1.00  0.00     0.163 C 
ATOM     12  O   UNL     1       2.821   9.108  -9.888  1.00  0.00    -0.294 OA
BRANCH  11  13
ATOM     13  C   UNL     1       1.375  10.900 -10.529  1.00  0.00    -0.002 C 
ATOM     14  C   UNL     1       1.710  12.187 -10.211  1.00  0.00    -0.069 C 
ATOM     15  C   UNL     1       1.350  13.342 -11.120  1.00  0.00     0.039 C 
ATOM     16  C   UNL     1       2.425  12.525  -8.922  1.00  0.00     0.039 C 
BRANCH  13  17
ATOM     17  C   UNL     1       0.529  10.586 -11.749  1.00  0.00     0.066 CG0
ATOM     18  G   UNL     1      -0.936  10.719 -11.405  1.00  0.00     0.000 G0
ENDBRANCH  13  17
ENDBRANCH  11  13
ENDBRANCH  10  11
ENDBRANCH   1  10
TORSDOF 0
ENDMDL
MODEL 2
REMARK VINA RESULT:    -3.059      8.769     10.867
REMARK INTER + INTRA:          -3.948
REMARK INTER:                  -4.439
REMARK INTRA:                   0.491
REMARK UNBOUND:                 0.364
REMARK SMILES CC1=CCC(=C(C)C)C(=O)CC(C)=CCC1
REMARK SMILES IDX 12 1 14 2 13 3 15 4 16 5 2 6 1 7 3 8 11 10 9 11 10 12 5 13
REMARK SMILES IDX 6 14 7 15 8 16 4 17
REMARK H PARENT
REMARK Flexibility Score: 60.00
ROOT
ATOM      1  C   UNL     1      11.520   9.428  -5.523  1.00  0.00    -0.070 C 
ATOM      2  C   UNL     1      12.503   9.337  -6.451  1.00  0.00    -0.027 C 
ATOM      3  C   UNL     1      11.182   8.180  -4.745  1.00  0.00     0.039 C 
ENDROOT
BRANCH   2   4
ATOM      4  C   UNL     1      12.929  10.422  -7.410  1.00  0.00     0.032 C 
BRANCH   4   5
ATOM      5  C   UNL     1      12.043  10.480  -8.669  1.00  0.00     0.034 C 
BRANCH   5   6
ATOM      6  C   UNL     1      11.447  11.858  -8.887  1.00  0.00    -0.077 C 
ATOM      7  C   UNL     1      12.351  12.957  -9.388  1.00  0.00     0.039 C 
ATOM      8  C   UNL     1      10.144  12.153  -8.682  1.00  0.00    -0.023 CG0
ATOM      9  G   UNL     1       9.082  11.184  -8.219  1.00  0.00     0.000 G0
ENDBRANCH   5   6
ENDBRANCH   4   5
ENDBRANCH   2   4
BRANCH   1  10
ATOM     10  C   UNL     1      10.705  10.686  -5.276  1.00  0.00     0.111 C 
BRANCH  10  11
ATOM     11  C   UNL     1       9.284  10.530  -5.757  1.00  0.00     0.163 C 
ATOM     12  O   UNL     1       8.577   9.625  -5.237  1.00  0.00    -0.294 OA
BRANCH  11  13
ATOM     13  C   UNL     1       8.691  11.444  -6.783  1.00  0.00    -0.002 C 
ATOM     14  C   UNL     1       7.801  12.425  -6.442  1.00  0.00    -0.069 C 
ATOM     15  C   UNL     1       7.235  13.371  -7.479  1.00  0.00     0.039 C 
ATOM     16  C   UNL     1       7.310  12.592  -5.021  1.00  0.00     0.039 C 
BRANCH  13  17
ATOM     17  C   UNL     1       9.063  11.189  -8.232  1.00  0.00     0.066 CG0
ATOM     18  G   UNL     1      10.142  12.155  -8.661  1.00  0.00     0.000 G0
ENDBRANCH  13  17
ENDBRANCH  11  13
ENDBRANCH  10  11
ENDBRANCH   1  10
TORSDOF 0
ENDMDL
MODEL 3
REMARK VINA RESULT:    -3.000      9.221     10.961
REMARK INTER + INTRA:          -3.864
REMARK INTER:                  -4.200
REMARK INTRA:                   0.336
REMARK UNBOUND:                 0.364
REMARK SMILES CC1=CCC(=C(C)C)C(=O)CC(C)=CCC1
REMARK SMILES IDX 12 1 14 2 13 3 15 4 16 5 2 6 1 7 3 8 11 10 9 11 10 12 5 13
REMARK SMILES IDX 6 14 7 15 8 16 4 17
REMARK H PARENT
REMARK Flexibility Score: 60.00
ROOT
ATOM      1  C   UNL     1      12.092   8.661  -8.885  1.00  0.00    -0.070 C 
ATOM      2  C   UNL     1      11.284   8.966  -9.928  1.00  0.00    -0.027 C 
ATOM      3  C   UNL     1      12.673   7.269  -8.840  1.00  0.00     0.039 C 
ENDROOT
BRANCH   2   4
ATOM      4  C   UNL     1      10.517  10.252 -10.117  1.00  0.00     0.032 C 
BRANCH   4   5
ATOM      5  C   UNL     1       9.136  10.223  -9.432  1.00  0.00     0.034 C 
BRANCH   5   6
ATOM      6  C   UNL     1       8.865  11.487  -8.639  1.00  0.00    -0.077 C 
ATOM      7  C   UNL     1       8.517  12.745  -9.394  1.00  0.00     0.039 C 
ATOM      8  C   UNL     1       8.890  11.545  -7.288  1.00  0.00    -0.023 CG0
ATOM      9  G   UNL     1       9.179  10.389  -6.361  1.00  0.00     0.000 G0
ENDBRANCH   5   6
ENDBRANCH   4   5
ENDBRANCH   2   4
BRANCH   1  10
ATOM     10  C   UNL     1      12.387   9.613  -7.737  1.00  0.00     0.111 C 
BRANCH  10  11
ATOM     11  C   UNL     1      11.505   9.333  -6.545  1.00  0.00     0.163 C 
ATOM     12  O   UNL     1      11.543   8.181  -6.036  1.00  0.00    -0.294 OA
BRANCH  11  13
ATOM     13  C   UNL     1      10.642  10.392  -5.934  1.00  0.00    -0.002 C 
ATOM     14  C   UNL     1      11.131  11.270  -5.006  1.00  0.00    -0.069 C 
ATOM     15  C   UNL     1      10.262  12.363  -4.420  1.00  0.00     0.039 C 
ATOM     16  C   UNL     1      12.549  11.172  -4.491  1.00  0.00     0.039 C 
BRANCH  13  17
ATOM     17  C   UNL     1       9.178  10.405  -6.333  1.00  0.00     0.066 CG0
ATOM     18  G   UNL     1       8.917  11.549  -7.284  1.00  0.00     0.000 G0
ENDBRANCH  13  17
ENDBRANCH  11  13
ENDBRANCH  10  11
ENDBRANCH   1  10
TORSDOF 0
ENDMDL
MODEL 4
REMARK VINA RESULT:    -2.957      1.160      3.904
REMARK INTER + INTRA:          -3.803
REMARK INTER:                  -4.175
REMARK INTRA:                   0.372
REMARK UNBOUND:                 0.364
REMARK SMILES CC1=CCC(=C(C)C)C(=O)CC(C)=CCC1
REMARK SMILES IDX 12 1 14 2 13 3 15 4 16 5 2 6 1 7 3 8 11 10 9 11 10 12 5 13
REMARK SMILES IDX 6 14 7 15 8 16 4 17
REMARK H PARENT
REMARK Flexibility Score: 60.00
ROOT
ATOM      1  C   UNL     1       2.454  12.326  -9.900  1.00  0.00    -0.070 C 
ATOM      2  C   UNL     1       1.716  13.122 -10.710  1.00  0.00    -0.027 C 
ATOM      3  C   UNL     1       3.946  12.557  -9.871  1.00  0.00     0.039 C 
ENDROOT
BRANCH   2   4
ATOM      4  C   UNL     1       0.234  12.999 -10.973  1.00  0.00     0.032 C 
BRANCH   4   5
ATOM      5  C   UNL     1      -0.092  11.922 -12.026  1.00  0.00     0.034 C 
BRANCH   5   6
ATOM      6  C   UNL     1      -1.174  10.970 -11.555  1.00  0.00    -0.077 C 
ATOM      7  C   UNL     1      -2.581  11.495 -11.421  1.00  0.00     0.039 C 
ATOM      8  C   UNL     1      -0.954   9.666 -11.271  1.00  0.00    -0.023 CG0
ATOM      9  G   UNL     1       0.372   8.951 -11.379  1.00  0.00     0.000 G0
ENDBRANCH   5   6
ENDBRANCH   4   5
ENDBRANCH   2   4
BRANCH   1  10
ATOM     10  C   UNL     1       1.876  11.185  -9.080  1.00  0.00     0.111 C 
BRANCH  10  11
ATOM     11  C   UNL     1       2.127   9.849  -9.736  1.00  0.00     0.163 C 
ATOM     12  O   UNL     1       3.315   9.543 -10.025  1.00  0.00    -0.294 OA
BRANCH  11  13
ATOM     13  C   UNL     1       1.020   8.876  -9.998  1.00  0.00    -0.002 C 
ATOM     14  C   UNL     1       0.662   7.930  -9.077  1.00  0.00    -0.069 C 
ATOM     15  C   UNL     1      -0.483   6.975  -9.333  1.00  0.00     0.039 C 
ATOM     16  C   UNL     1       1.413   7.767  -7.775  1.00  0.00     0.039 C 
BRANCH  13  17
ATOM     17  C   UNL     1       0.359   8.935 -11.362  1.00  0.00     0.066 CG0
ATOM     18  G   UNL     1      -0.956   9.672 -11.263  1.00  0.00     0.000 G0
ENDBRANCH  13  17
ENDBRANCH  11  13
ENDBRANCH  10  11
ENDBRANCH   1  10
TORSDOF 0
ENDMDL
MODEL 5
REMARK VINA RESULT:    -2.865      1.606      3.897
REMARK INTER + INTRA:          -3.674
REMARK INTER:                  -4.834
REMARK INTRA:                   1.160
REMARK UNBOUND:                 0.364
REMARK SMILES CC1=CCC(=C(C)C)C(=O)CC(C)=CCC1
REMARK SMILES IDX 12 1 14 2 13 3 15 4 16 5 2 6 1 7 3 8 11 10 9 11 10 12 5 13
REMARK SMILES IDX 6 14 7 15 8 16 4 17
REMARK H PARENT
REMARK Flexibility Score: 60.00
ROOT
ATOM      1  C   UNL     1       1.497   7.803  -9.452  1.00  0.00    -0.070 C 
ATOM      2  C   UNL     1       2.623   8.422  -9.882  1.00  0.00    -0.027 C 
ATOM      3  C   UNL     1       1.451   7.368  -8.008  1.00  0.00     0.039 C 
ENDROOT
BRANCH   2   4
ATOM      4  C   UNL     1       2.925   8.842 -11.300  1.00  0.00     0.032 C 
BRANCH   4   5
ATOM      5  C   UNL     1       2.983  10.373 -11.463  1.00  0.00     0.034 C 
BRANCH   5   6
ATOM      6  C   UNL     1       2.036  11.086 -10.517  1.00  0.00    -0.077 C 
ATOM      7  C   UNL     1       2.625  11.951  -9.432  1.00  0.00     0.039 C 
ATOM      8  C   UNL     1       0.689  11.011 -10.606  1.00  0.00    -0.023 CG0
ATOM      9  G   UNL     1      -0.084  10.229 -11.642  1.00  0.00     0.000 G0
ENDBRANCH   5   6
ENDBRANCH   4   5
ENDBRANCH   2   4
BRANCH   1  10
ATOM     10  C   UNL     1       0.320   7.469 -10.354  1.00  0.00     0.111 C 
BRANCH  10  11
ATOM     11  C   UNL     1      -0.866   8.356 -10.069  1.00  0.00     0.163 C 
ATOM     12  O   UNL     1      -1.522   8.150  -9.012  1.00  0.00    -0.294 OA
BRANCH  11  13
ATOM     13  C   UNL     1      -1.242   9.488 -10.973  1.00  0.00    -0.002 C 
ATOM     14  C   UNL     1      -2.549   9.791 -11.239  1.00  0.00    -0.069 C 
ATOM     15  C   UNL     1      -2.922  10.962 -12.124  1.00  0.00     0.039 C 
ATOM     16  C   UNL     1      -3.684   8.953 -10.696  1.00  0.00     0.039 C 
BRANCH  13  17
ATOM     17  C   UNL     1      -0.108  10.243 -11.641  1.00  0.00     0.066 CG0
ATOM     18  G   UNL     1       0.683  11.003 -10.604  1.00  0.00     0.000 G0
ENDBRANCH  13  17
ENDBRANCH  11  13
ENDBRANCH  10  11
ENDBRANCH   1  10
TORSDOF 0
ENDMDL
MODEL 6
REMARK VINA RESULT:    -2.832      8.741     10.540
REMARK INTER + INTRA:          -3.627
REMARK INTER:                  -3.988
REMARK INTRA:                   0.361
REMARK UNBOUND:                 0.364
REMARK SMILES CC1=CCC(=C(C)C)C(=O)CC(C)=CCC1
REMARK SMILES IDX 12 1 14 2 13 3 15 4 16 5 2 6 1 7 3 8 11 10 9 11 10 12 5 13
REMARK SMILES IDX 6 14 7 15 8 16 4 17
REMARK H PARENT
REMARK Flexibility Score: 60.00
ROOT
ATOM      1  C   UNL     1       7.829  12.571  -5.590  1.00  0.00    -0.070 C 
ATOM      2  C   UNL     1       7.313  13.214  -6.664  1.00  0.00    -0.027 C 
ATOM      3  C   UNL     1       7.782  13.288  -4.262  1.00  0.00     0.039 C 
ENDROOT
BRANCH   2   4
ATOM      4  C   UNL     1       7.350  12.734  -8.095  1.00  0.00     0.032 C 
BRANCH   4   5
ATOM      5  C   UNL     1       8.760  12.820  -8.712  1.00  0.00     0.034 C 
BRANCH   5   6
ATOM      6  C   UNL     1       9.144  11.547  -9.441  1.00  0.00    -0.077 C 
ATOM      7  C   UNL     1       8.287  11.098 -10.598  1.00  0.00     0.039 C 
ATOM      8  C   UNL     1      10.229  10.803  -9.130  1.00  0.00    -0.023 CG0
ATOM      9  G   UNL     1      11.223  11.107  -8.034  1.00  0.00     0.000 G0
ENDBRANCH   5   6
ENDBRANCH   4   5
ENDBRANCH   2   4
BRANCH   1  10
ATOM     10  C   UNL     1       8.506  11.212  -5.663  1.00  0.00     0.111 C 
BRANCH  10  11
ATOM     11  C   UNL     1      10.004  11.345  -5.783  1.00  0.00     0.163 C 
ATOM     12  O   UNL     1      10.588  12.182  -5.042  1.00  0.00    -0.294 OA
BRANCH  11  13
ATOM     13  C   UNL     1      10.803  10.482  -6.708  1.00  0.00    -0.002 C 
ATOM     14  C   UNL     1      11.182   9.215  -6.361  1.00  0.00    -0.069 C 
ATOM     15  C   UNL     1      11.957   8.334  -7.318  1.00  0.00     0.039 C 
ATOM     16  C   UNL     1      10.880   8.643  -4.995  1.00  0.00     0.039 C 
BRANCH  13  17
ATOM     17  C   UNL     1      11.239  11.101  -8.024  1.00  0.00     0.066 CG0
ATOM     18  G   UNL     1      10.222  10.792  -9.097  1.00  0.00     0.000 G0
ENDBRANCH  13  17
ENDBRANCH  11  13
ENDBRANCH  10  11
ENDBRANCH   1  10
TORSDOF 0
ENDMDL
MODEL 7
REMARK VINA RESULT:    -2.826      2.113      3.838
REMARK INTER + INTRA:          -3.620
REMARK INTER:                  -4.589
REMARK INTRA:                   0.970
REMARK UNBOUND:                 0.364
REMARK SMILES CC1=CCC(=C(C)C)C(=O)CC(C)=CCC1
REMARK SMILES IDX 12 1 14 2 13 3 15 4 16 5 2 6 1 7 3 8 11 10 9 11 10 12 5 13
REMARK SMILES IDX 6 14 7 15 8 16 4 17
REMARK H PARENT
REMARK Flexibility Score: 60.00
ROOT
ATOM      1  C   UNL     1      -2.966   7.764 -10.814  1.00  0.00    -0.070 C 
ATOM      2  C   UNL     1      -2.300   6.704 -10.296  1.00  0.00    -0.027 C 
ATOM      3  C   UNL     1      -3.780   7.529 -12.064  1.00  0.00     0.039 C 
ENDROOT
BRANCH   2   4
ATOM      4  C   UNL     1      -1.349   6.734  -9.124  1.00  0.00     0.032 C 
BRANCH   4   5
ATOM      5  C   UNL     1       0.127   6.805  -9.561  1.00  0.00     0.034 C 
BRANCH   5   6
ATOM      6  C   UNL     1       0.766   8.133  -9.203  1.00  0.00    -0.077 C 
ATOM      7  C   UNL     1       1.510   8.240  -7.895  1.00  0.00     0.039 C 
ATOM      8  C   UNL     1       0.730   9.223 -10.002  1.00  0.00    -0.023 CG0
ATOM      9  G   UNL     1       0.069   9.301 -11.358  1.00  0.00     0.000 G0
ENDBRANCH   5   6
ENDBRANCH   4   5
ENDBRANCH   2   4
BRANCH   1  10
ATOM     10  C   UNL     1      -2.883   9.172 -10.250  1.00  0.00     0.111 C 
BRANCH  10  11
ATOM     11  C   UNL     1      -2.361  10.150 -11.274  1.00  0.00     0.163 C 
ATOM     12  O   UNL     1      -3.195  10.733 -12.018  1.00  0.00    -0.294 OA
BRANCH  11  13
ATOM     13  C   UNL     1      -0.904  10.474 -11.387  1.00  0.00    -0.002 C 
ATOM     14  C   UNL     1      -0.466  11.754 -11.581  1.00  0.00    -0.069 C 
ATOM     15  C   UNL     1       1.010  12.080 -11.656  1.00  0.00     0.039 C 
ATOM     16  C   UNL     1      -1.432  12.904 -11.767  1.00  0.00     0.039 C 
BRANCH  13  17
ATOM     17  C   UNL     1       0.066   9.308 -11.352  1.00  0.00     0.066 CG0
ATOM     18  G   UNL     1       0.729   9.234  -9.997  1.00  0.00     0.000 G0
ENDBRANCH  13  17
ENDBRANCH  11  13
ENDBRANCH  10  11
ENDBRANCH   1  10
TORSDOF 0
ENDMDL
MODEL 8
REMARK VINA RESULT:    -2.792      9.794     11.576
REMARK INTER + INTRA:          -3.571
REMARK INTER:                  -4.393
REMARK INTRA:                   0.823
REMARK UNBOUND:                 0.364
REMARK SMILES CC1=CCC(=C(C)C)C(=O)CC(C)=CCC1
REMARK SMILES IDX 12 1 14 2 13 3 15 4 16 5 2 6 1 7 3 8 11 10 9 11 10 12 5 13
REMARK SMILES IDX 6 14 7 15 8 16 4 17
REMARK H PARENT
REMARK Flexibility Score: 60.00
ROOT
ATOM      1  C   UNL     1       9.630  11.791  -6.614  1.00  0.00    -0.070 C 
ATOM      2  C   UNL     1      10.713  11.714  -5.805  1.00  0.00    -0.027 C 
ATOM      3  C   UNL     1       8.273  11.854  -5.955  1.00  0.00     0.039 C 
ENDROOT
BRANCH   2   4
ATOM      4  C   UNL     1      12.146  11.535  -6.246  1.00  0.00     0.032 C 
BRANCH   4   5
ATOM      5  C   UNL     1      12.733  10.178  -5.812  1.00  0.00     0.034 C 
BRANCH   5   6
ATOM      6  C   UNL     1      11.774   9.031  -6.071  1.00  0.00    -0.077 C 
ATOM      7  C   UNL     1      11.113   8.371  -4.888  1.00  0.00     0.039 C 
ATOM      8  C   UNL     1      11.457   8.583  -7.306  1.00  0.00    -0.023 CG0
ATOM      9  G   UNL     1      11.984   9.136  -8.608  1.00  0.00     0.000 G0
ENDBRANCH   5   6
ENDBRANCH   4   5
ENDBRANCH   2   4
BRANCH   1  10
ATOM     10  C   UNL     1       9.703  11.748  -8.131  1.00  0.00     0.111 C 
BRANCH  10  11
ATOM     11  C   UNL     1       9.709  10.330  -8.647  1.00  0.00     0.163 C 
ATOM     12  O   UNL     1       8.685   9.622  -8.449  1.00  0.00    -0.294 OA
BRANCH  11  13
ATOM     13  C   UNL     1      10.864   9.773  -9.419  1.00  0.00    -0.002 C 
ATOM     14  C   UNL     1      10.883   9.779 -10.786  1.00  0.00    -0.069 C 
ATOM     15  C   UNL     1      12.072   9.250 -11.560  1.00  0.00     0.039 C 
ATOM     16  C   UNL     1       9.707  10.280 -11.594  1.00  0.00     0.039 C 
BRANCH  13  17
ATOM     17  C   UNL     1      11.983   9.133  -8.620  1.00  0.00     0.066 CG0
ATOM     18  G   UNL     1      11.441   8.597  -7.316  1.00  0.00     0.000 G0
ENDBRANCH  13  17
ENDBRANCH  11  13
ENDBRANCH  10  11
ENDBRANCH   1  10
TORSDOF 0
ENDMDL
MODEL 9
REMARK VINA RESULT:    -2.578     15.540     17.116
REMARK INTER + INTRA:          -3.269
REMARK INTER:                  -3.971
REMARK INTRA:                   0.702
REMARK UNBOUND:                 0.364
REMARK SMILES CC1=CCC(=C(C)C)C(=O)CC(C)=CCC1
REMARK SMILES IDX 12 1 14 2 13 3 15 4 16 5 2 6 1 7 3 8 11 10 9 11 10 12 5 13
REMARK SMILES IDX 6 14 7 15 8 16 4 17
REMARK H PARENT
REMARK Flexibility Score: 60.00
ROOT
ATOM      1  C   UNL     1      -5.007  12.699   4.871  1.00  0.00    -0.070 C 
ATOM      2  C   UNL     1      -3.923  13.206   5.504  1.00  0.00    -0.027 C 
ATOM      3  C   UNL     1      -5.423  13.350   3.574  1.00  0.00     0.039 C 
ENDROOT
BRANCH   2   4
ATOM      4  C   UNL     1      -3.399  12.783   6.855  1.00  0.00     0.032 C 
BRANCH   4   5
ATOM      5  C   UNL     1      -1.948  12.266   6.791  1.00  0.00     0.034 C 
BRANCH   5   6
ATOM      6  C   UNL     1      -1.750  11.253   5.680  1.00  0.00    -0.077 C 
ATOM      7  C   UNL     1      -0.690  11.526   4.643  1.00  0.00     0.039 C 
ATOM      8  C   UNL     1      -2.453  10.102   5.580  1.00  0.00    -0.023 CG0
ATOM      9  G   UNL     1      -3.525   9.637   6.537  1.00  0.00     0.000 G0
ENDBRANCH   5   6
ENDBRANCH   4   5
ENDBRANCH   2   4
BRANCH   1  10
ATOM     10  C   UNL     1      -5.857  11.566   5.425  1.00  0.00     0.111 C 
BRANCH  10  11
ATOM     11  C   UNL     1      -5.400  10.225   4.905  1.00  0.00     0.163 C 
ATOM     12  O   UNL     1      -5.524   9.993   3.672  1.00  0.00    -0.294 OA
BRANCH  11  13
ATOM     13  C   UNL     1      -4.766   9.205   5.798  1.00  0.00    -0.002 C 
ATOM     14  C   UNL     1      -5.320   7.969   5.982  1.00  0.00    -0.069 C 
ATOM     15  C   UNL     1      -4.653   6.928   6.856  1.00  0.00     0.039 C 
ATOM     16  C   UNL     1      -6.641   7.589   5.352  1.00  0.00     0.039 C 
BRANCH  13  17
ATOM     17  C   UNL     1      -3.518   9.628   6.551  1.00  0.00     0.066 CG0
ATOM     18  G   UNL     1      -2.463  10.091   5.575  1.00  0.00     0.000 G0
ENDBRANCH  13  17
ENDBRANCH  11  13
ENDBRANCH  10  11
ENDBRANCH   1  10
TORSDOF 0
ENDMDL
