MODEL 1
REMARK VINA RESULT:    -3.431      0.000      0.000
REMARK INTER + INTRA:         -11.786
REMARK INTER:                  -7.845
REMARK INTRA:                  -3.941
REMARK UNBOUND:                -3.941
REMARK SMILES CCCCCCCCCCCCCCCCCCCCCCCC(=O)[O-]
REMARK SMILES IDX 13 1 14 2 15 3 16 4 17 5 18 6 19 7 20 8 21 9 22 10 23 11
REMARK SMILES IDX 24 12 25 13 26 14 12 15 11 16 10 17 9 18 8 19 7 20 6 21 5 22
REMARK SMILES IDX 4 23 3 24 2 25 1 26
REMARK H PARENT
REMARK Flexibility Score: inf
ROOT
ATOM      1  C   UNL     1      32.682  -0.128 -37.763  1.00  0.00     0.000 C 
ENDROOT
BRANCH   1   2
ATOM      2  C   UNL     1      31.313   0.572 -37.664  1.00  0.00     0.000 C 
BRANCH   2   3
ATOM      3  C   UNL     1      30.761   1.116 -38.996  1.00  0.00     0.000 C 
BRANCH   3   4
ATOM      4  C   UNL     1      29.312   0.683 -39.262  1.00  0.00     0.000 C 
BRANCH   4   5
ATOM      5  C   UNL     1      29.008  -0.659 -38.578  1.00  0.00     0.000 C 
BRANCH   5   6
ATOM      6  C   UNL     1      29.179  -1.865 -39.520  1.00  0.00     0.000 C 
BRANCH   6   7
ATOM      7  C   UNL     1      28.758  -3.221 -38.924  1.00  0.00     0.000 C 
BRANCH   7   8
ATOM      8  C   UNL     1      27.725  -3.141 -37.782  1.00  0.00     0.000 C 
BRANCH   8   9
ATOM      9  C   UNL     1      27.533  -4.469 -37.020  1.00  0.00     0.000 C 
BRANCH   9  10
ATOM     10  C   UNL     1      26.323  -4.436 -36.074  1.00  0.00     0.006 C 
BRANCH  10  11
ATOM     11  C   UNL     1      25.685  -3.044 -36.046  1.00  0.00     0.053 C 
BRANCH  11  12
ATOM     12  C   UNL     1      24.222  -3.144 -35.750  1.00  0.00     0.041 C 
ATOM     13  O   UNL     1      23.811  -3.106 -34.558  1.00  0.00    -0.550 OA
ATOM     14  O   UNL     1      23.305  -3.233 -36.791  1.00  0.00    -0.550 OA
ENDBRANCH  11  12
ENDBRANCH  10  11
ENDBRANCH   9  10
ENDBRANCH   8   9
ENDBRANCH   7   8
ENDBRANCH   6   7
ENDBRANCH   5   6
ENDBRANCH   4   5
ENDBRANCH   3   4
ENDBRANCH   2   3
ENDBRANCH   1   2
BRANCH   1  15
ATOM     15  C   UNL     1      32.749  -1.309 -38.752  1.00  0.00     0.000 C 
BRANCH  15  16
ATOM     16  C   UNL     1      32.504  -2.694 -38.125  1.00  0.00     0.000 C 
BRANCH  16  17
ATOM     17  C   UNL     1      32.273  -2.627 -36.605  1.00  0.00     0.000 C 
BRANCH  17  18
ATOM     18  C   UNL     1      31.116  -3.538 -36.141  1.00  0.00    -0.000 C 
BRANCH  18  19
ATOM     19  C   UNL     1      30.504  -3.131 -34.788  1.00  0.00    -0.000 C 
BRANCH  19  20
ATOM     20  C   UNL     1      29.381  -2.079 -34.863  1.00  0.00    -0.000 C 
BRANCH  20  21
ATOM     21  C   UNL     1      29.823  -0.628 -34.601  1.00  0.00    -0.000 C 
BRANCH  21  22
ATOM     22  C   UNL     1      30.935  -0.522 -33.545  1.00  0.00    -0.000 C 
BRANCH  22  23
ATOM     23  C   UNL     1      32.232   0.093 -34.100  1.00  0.00    -0.000 C 
BRANCH  23  24
ATOM     24  C   UNL     1      32.269   1.632 -34.127  1.00  0.00    -0.000 C 
BRANCH  24  25
ATOM     25  C   UNL     1      33.473   2.217 -33.373  1.00  0.00    -0.003 C 
ATOM     26  C   UNL     1      33.336   3.728 -33.210  1.00  0.00     0.004 C 
ENDBRANCH  24  25
ENDBRANCH  23  24
ENDBRANCH  22  23
ENDBRANCH  21  22
ENDBRANCH  20  21
ENDBRANCH  19  20
ENDBRANCH  18  19
ENDBRANCH  17  18
ENDBRANCH  16  17
ENDBRANCH  15  16
ENDBRANCH   1  15
TORSDOF 22
ENDMDL
MODEL 2
REMARK VINA RESULT:    -3.419      4.396      8.076
REMARK INTER + INTRA:         -11.758
REMARK INTER:                  -7.956
REMARK INTRA:                  -3.802
REMARK UNBOUND:                -3.941
REMARK SMILES CCCCCCCCCCCCCCCCCCCCCCCC(=O)[O-]
REMARK SMILES IDX 13 1 14 2 15 3 16 4 17 5 18 6 19 7 20 8 21 9 22 10 23 11
REMARK SMILES IDX 24 12 25 13 26 14 12 15 11 16 10 17 9 18 8 19 7 20 6 21 5 22
REMARK SMILES IDX 4 23 3 24 2 25 1 26
REMARK H PARENT
REMARK Flexibility Score: inf
ROOT
ATOM      1  C   UNL     1      33.426  -0.307 -36.917  1.00  0.00     0.000 C 
ENDROOT
BRANCH   1   2
ATOM      2  C   UNL     1      33.453  -1.667 -36.194  1.00  0.00     0.000 C 
BRANCH   2   3
ATOM      3  C   UNL     1      32.694  -1.710 -34.854  1.00  0.00     0.000 C 
BRANCH   3   4
ATOM      4  C   UNL     1      31.173  -1.575 -35.027  1.00  0.00     0.000 C 
BRANCH   4   5
ATOM      5  C   UNL     1      30.618  -0.459 -34.129  1.00  0.00     0.000 C 
BRANCH   5   6
ATOM      6  C   UNL     1      29.987   0.696 -34.928  1.00  0.00     0.000 C 
BRANCH   6   7
ATOM      7  C   UNL     1      30.816   1.995 -34.957  1.00  0.00     0.000 C 
BRANCH   7   8
ATOM      8  C   UNL     1      32.080   1.983 -34.075  1.00  0.00     0.000 C 
BRANCH   8   9
ATOM      9  C   UNL     1      32.405   3.347 -33.431  1.00  0.00     0.000 C 
BRANCH   9  10
ATOM     10  C   UNL     1      33.906   3.529 -33.160  1.00  0.00     0.006 C 
BRANCH  10  11
ATOM     11  C   UNL     1      34.287   5.013 -33.150  1.00  0.00     0.053 C 
BRANCH  11  12
ATOM     12  C   UNL     1      35.051   5.349 -31.909  1.00  0.00     0.041 C 
ATOM     13  O   UNL     1      35.916   6.266 -31.924  1.00  0.00    -0.550 OA
ATOM     14  O   UNL     1      34.776   4.682 -30.720  1.00  0.00    -0.550 OA
ENDBRANCH  11  12
ENDBRANCH  10  11
ENDBRANCH   9  10
ENDBRANCH   8   9
ENDBRANCH   7   8
ENDBRANCH   6   7
ENDBRANCH   5   6
ENDBRANCH   4   5
ENDBRANCH   3   4
ENDBRANCH   2   3
ENDBRANCH   1   2
BRANCH   1  15
ATOM     15  C   UNL     1      32.674  -0.291 -38.262  1.00  0.00     0.000 C 
BRANCH  15  16
ATOM     16  C   UNL     1      31.534   0.741 -38.354  1.00  0.00     0.000 C 
BRANCH  16  17
ATOM     17  C   UNL     1      30.236   0.146 -38.930  1.00  0.00     0.000 C 
BRANCH  17  18
ATOM     18  C   UNL     1      30.080  -1.357 -38.608  1.00  0.00    -0.000 C 
BRANCH  18  19
ATOM     19  C   UNL     1      28.750  -1.713 -37.918  1.00  0.00    -0.000 C 
BRANCH  19  20
ATOM     20  C   UNL     1      28.781  -2.981 -37.045  1.00  0.00    -0.000 C 
BRANCH  20  21
ATOM     21  C   UNL     1      28.507  -4.299 -37.792  1.00  0.00    -0.000 C 
BRANCH  21  22
ATOM     22  C   UNL     1      29.777  -5.139 -38.008  1.00  0.00    -0.000 C 
BRANCH  22  23
ATOM     23  C   UNL     1      30.948  -4.696 -37.114  1.00  0.00    -0.000 C 
BRANCH  23  24
ATOM     24  C   UNL     1      32.340  -4.780 -37.767  1.00  0.00    -0.000 C 
BRANCH  24  25
ATOM     25  C   UNL     1      32.387  -4.148 -39.166  1.00  0.00    -0.003 C 
ATOM     26  C   UNL     1      33.216  -4.999 -40.125  1.00  0.00     0.004 C 
ENDBRANCH  24  25
ENDBRANCH  23  24
ENDBRANCH  22  23
ENDBRANCH  21  22
ENDBRANCH  20  21
ENDBRANCH  19  20
ENDBRANCH  18  19
ENDBRANCH  17  18
ENDBRANCH  16  17
ENDBRANCH  15  16
ENDBRANCH   1  15
TORSDOF 22
ENDMDL
MODEL 3
REMARK VINA RESULT:    -3.417      2.320      4.304
REMARK INTER + INTRA:         -11.753
REMARK INTER:                  -7.625
REMARK INTRA:                  -4.128
REMARK UNBOUND:                -3.941
REMARK SMILES CCCCCCCCCCCCCCCCCCCCCCCC(=O)[O-]
REMARK SMILES IDX 13 1 14 2 15 3 16 4 17 5 18 6 19 7 20 8 21 9 22 10 23 11
REMARK SMILES IDX 24 12 25 13 26 14 12 15 11 16 10 17 9 18 8 19 7 20 6 21 5 22
REMARK SMILES IDX 4 23 3 24 2 25 1 26
REMARK H PARENT
REMARK Flexibility Score: inf
ROOT
ATOM      1  C   UNL     1      31.610  -2.542 -38.757  1.00  0.00     0.000 C 
ENDROOT
BRANCH   1   2
ATOM      2  C   UNL     1      30.430  -2.465 -39.745  1.00  0.00     0.000 C 
BRANCH   2   3
ATOM      3  C   UNL     1      29.159  -3.214 -39.302  1.00  0.00     0.000 C 
BRANCH   3   4
ATOM      4  C   UNL     1      29.459  -4.398 -38.371  1.00  0.00     0.000 C 
BRANCH   4   5
ATOM      5  C   UNL     1      28.237  -4.736 -37.504  1.00  0.00     0.000 C 
BRANCH   5   6
ATOM      6  C   UNL     1      27.436  -3.489 -37.084  1.00  0.00     0.000 C 
BRANCH   6   7
ATOM      7  C   UNL     1      26.004  -3.771 -36.591  1.00  0.00     0.000 C 
BRANCH   7   8
ATOM      8  C   UNL     1      25.636  -3.117 -35.245  1.00  0.00     0.000 C 
BRANCH   8   9
ATOM      9  C   UNL     1      26.669  -3.369 -34.125  1.00  0.00     0.000 C 
BRANCH   9  10
ATOM     10  C   UNL     1      26.481  -4.734 -33.447  1.00  0.00     0.006 C 
BRANCH  10  11
ATOM     11  C   UNL     1      24.996  -5.043 -33.235  1.00  0.00     0.053 C 
BRANCH  11  12
ATOM     12  C   UNL     1      24.594  -4.745 -31.825  1.00  0.00     0.041 C 
ATOM     13  O   UNL     1      24.916  -5.530 -30.893  1.00  0.00    -0.550 OA
ATOM     14  O   UNL     1      23.905  -3.574 -31.530  1.00  0.00    -0.550 OA
ENDBRANCH  11  12
ENDBRANCH  10  11
ENDBRANCH   9  10
ENDBRANCH   8   9
ENDBRANCH   7   8
ENDBRANCH   6   7
ENDBRANCH   5   6
ENDBRANCH   4   5
ENDBRANCH   3   4
ENDBRANCH   2   3
ENDBRANCH   1   2
BRANCH   1  15
ATOM     15  C   UNL     1      32.707  -1.477 -38.957  1.00  0.00     0.000 C 
BRANCH  15  16
ATOM     16  C   UNL     1      32.691  -0.331 -37.929  1.00  0.00     0.000 C 
BRANCH  16  17
ATOM     17  C   UNL     1      31.470   0.593 -38.085  1.00  0.00     0.000 C 
BRANCH  17  18
ATOM     18  C   UNL     1      30.632   0.690 -36.792  1.00  0.00    -0.000 C 
BRANCH  18  19
ATOM     19  C   UNL     1      29.543  -0.392 -36.671  1.00  0.00    -0.000 C 
BRANCH  19  20
ATOM     20  C   UNL     1      29.646  -1.293 -35.425  1.00  0.00    -0.000 C 
BRANCH  20  21
ATOM     21  C   UNL     1      30.984  -2.039 -35.264  1.00  0.00    -0.000 C 
BRANCH  21  22
ATOM     22  C   UNL     1      30.808  -3.560 -35.125  1.00  0.00    -0.000 C 
BRANCH  22  23
ATOM     23  C   UNL     1      32.111  -4.339 -35.380  1.00  0.00    -0.000 C 
BRANCH  23  24
ATOM     24  C   UNL     1      33.383  -3.478 -35.469  1.00  0.00    -0.000 C 
BRANCH  24  25
ATOM     25  C   UNL     1      34.305  -3.886 -36.628  1.00  0.00    -0.003 C 
ATOM     26  C   UNL     1      33.771  -5.123 -37.344  1.00  0.00     0.004 C 
ENDBRANCH  24  25
ENDBRANCH  23  24
ENDBRANCH  22  23
ENDBRANCH  21  22
ENDBRANCH  20  21
ENDBRANCH  19  20
ENDBRANCH  18  19
ENDBRANCH  17  18
ENDBRANCH  16  17
ENDBRANCH  15  16
ENDBRANCH   1  15
TORSDOF 22
ENDMDL
MODEL 4
REMARK VINA RESULT:    -3.345      3.576      7.156
REMARK INTER + INTRA:         -11.590
REMARK INTER:                  -7.239
REMARK INTRA:                  -4.350
REMARK UNBOUND:                -3.941
REMARK SMILES CCCCCCCCCCCCCCCCCCCCCCCC(=O)[O-]
REMARK SMILES IDX 13 1 14 2 15 3 16 4 17 5 18 6 19 7 20 8 21 9 22 10 23 11
REMARK SMILES IDX 24 12 25 13 26 14 12 15 11 16 10 17 9 18 8 19 7 20 6 21 5 22
REMARK SMILES IDX 4 23 3 24 2 25 1 26
REMARK H PARENT
REMARK Flexibility Score: inf
ROOT
ATOM      1  C   UNL     1      33.003  -1.220 -35.712  1.00  0.00     0.000 C 
ENDROOT
BRANCH   1   2
ATOM      2  C   UNL     1      33.294  -2.715 -35.946  1.00  0.00     0.000 C 
BRANCH   2   3
ATOM      3  C   UNL     1      32.155  -3.672 -35.544  1.00  0.00     0.000 C 
BRANCH   3   4
ATOM      4  C   UNL     1      30.785  -3.220 -36.070  1.00  0.00     0.000 C 
BRANCH   4   5
ATOM      5  C   UNL     1      29.747  -3.193 -34.938  1.00  0.00     0.000 C 
BRANCH   5   6
ATOM      6  C   UNL     1      29.476  -1.773 -34.406  1.00  0.00     0.000 C 
BRANCH   6   7
ATOM      7  C   UNL     1      29.705  -0.642 -35.426  1.00  0.00     0.000 C 
BRANCH   7   8
ATOM      8  C   UNL     1      29.556   0.786 -34.863  1.00  0.00     0.000 C 
BRANCH   8   9
ATOM      9  C   UNL     1      30.821   1.655 -35.024  1.00  0.00     0.000 C 
BRANCH   9  10
ATOM     10  C   UNL     1      31.306   2.243 -33.691  1.00  0.00     0.006 C 
BRANCH  10  11
ATOM     11  C   UNL     1      32.819   2.485 -33.714  1.00  0.00     0.053 C 
BRANCH  11  12
ATOM     12  C   UNL     1      33.141   3.839 -33.166  1.00  0.00     0.041 C 
ATOM     13  O   UNL     1      32.222   4.679 -32.967  1.00  0.00    -0.550 OA
ATOM     14  O   UNL     1      34.452   4.160 -32.830  1.00  0.00    -0.550 OA
ENDBRANCH  11  12
ENDBRANCH  10  11
ENDBRANCH   9  10
ENDBRANCH   8   9
ENDBRANCH   7   8
ENDBRANCH   6   7
ENDBRANCH   5   6
ENDBRANCH   4   5
ENDBRANCH   3   4
ENDBRANCH   2   3
ENDBRANCH   1   2
BRANCH   1  15
ATOM     15  C   UNL     1      33.528  -0.268 -36.806  1.00  0.00     0.000 C 
BRANCH  15  16
ATOM     16  C   UNL     1      33.174  -0.679 -38.247  1.00  0.00     0.000 C 
BRANCH  16  17
ATOM     17  C   UNL     1      31.661  -0.635 -38.524  1.00  0.00     0.000 C 
BRANCH  17  18
ATOM     18  C   UNL     1      31.116   0.807 -38.609  1.00  0.00    -0.000 C 
BRANCH  18  19
ATOM     19  C   UNL     1      29.820   0.939 -39.430  1.00  0.00    -0.000 C 
BRANCH  19  20
ATOM     20  C   UNL     1      28.577   1.377 -38.632  1.00  0.00    -0.000 C 
BRANCH  20  21
ATOM     21  C   UNL     1      27.637   0.236 -38.203  1.00  0.00    -0.000 C 
BRANCH  21  22
ATOM     22  C   UNL     1      28.011  -1.117 -38.831  1.00  0.00    -0.000 C 
BRANCH  22  23
ATOM     23  C   UNL     1      27.590  -2.317 -37.965  1.00  0.00    -0.000 C 
BRANCH  23  24
ATOM     24  C   UNL     1      26.555  -2.004 -36.870  1.00  0.00    -0.000 C 
BRANCH  24  25
ATOM     25  C   UNL     1      26.145  -3.243 -36.059  1.00  0.00    -0.003 C 
ATOM     26  C   UNL     1      26.782  -4.507 -36.628  1.00  0.00     0.004 C 
ENDBRANCH  24  25
ENDBRANCH  23  24
ENDBRANCH  22  23
ENDBRANCH  21  22
ENDBRANCH  20  21
ENDBRANCH  19  20
ENDBRANCH  18  19
ENDBRANCH  17  18
ENDBRANCH  16  17
ENDBRANCH  15  16
ENDBRANCH   1  15
TORSDOF 22
ENDMDL
MODEL 5
REMARK VINA RESULT:    -3.331      2.299      3.528
REMARK INTER + INTRA:         -11.556
REMARK INTER:                  -7.401
REMARK INTRA:                  -4.155
REMARK UNBOUND:                -3.941
REMARK SMILES CCCCCCCCCCCCCCCCCCCCCCCC(=O)[O-]
REMARK SMILES IDX 13 1 14 2 15 3 16 4 17 5 18 6 19 7 20 8 21 9 22 10 23 11
REMARK SMILES IDX 24 12 25 13 26 14 12 15 11 16 10 17 9 18 8 19 7 20 6 21 5 22
REMARK SMILES IDX 4 23 3 24 2 25 1 26
REMARK H PARENT
REMARK Flexibility Score: inf
ROOT
ATOM      1  C   UNL     1      32.337  -0.045 -37.994  1.00  0.00     0.000 C 
ENDROOT
BRANCH   1   2
ATOM      2  C   UNL     1      31.142   0.771 -38.523  1.00  0.00     0.000 C 
BRANCH   2   3
ATOM      3  C   UNL     1      30.103   1.171 -37.459  1.00  0.00     0.000 C 
BRANCH   3   4
ATOM      4  C   UNL     1      29.040   0.086 -37.226  1.00  0.00     0.000 C 
BRANCH   4   5
ATOM      5  C   UNL     1      28.221  -0.159 -38.502  1.00  0.00     0.000 C 
BRANCH   5   6
ATOM      6  C   UNL     1      27.548  -1.544 -38.525  1.00  0.00     0.000 C 
BRANCH   6   7
ATOM      7  C   UNL     1      27.773  -2.399 -37.264  1.00  0.00     0.000 C 
BRANCH   7   8
ATOM      8  C   UNL     1      27.500  -3.906 -37.437  1.00  0.00     0.000 C 
BRANCH   8   9
ATOM      9  C   UNL     1      26.523  -4.487 -36.394  1.00  0.00     0.000 C 
BRANCH   9  10
ATOM     10  C   UNL     1      26.793  -3.962 -34.976  1.00  0.00     0.006 C 
BRANCH  10  11
ATOM     11  C   UNL     1      26.442  -5.017 -33.922  1.00  0.00     0.053 C 
BRANCH  11  12
ATOM     12  C   UNL     1      25.074  -4.771 -33.370  1.00  0.00     0.041 C 
ATOM     13  O   UNL     1      24.537  -5.616 -32.603  1.00  0.00    -0.550 OA
ATOM     14  O   UNL     1      24.407  -3.587 -33.664  1.00  0.00    -0.550 OA
ENDBRANCH  11  12
ENDBRANCH  10  11
ENDBRANCH   9  10
ENDBRANCH   8   9
ENDBRANCH   7   8
ENDBRANCH   6   7
ENDBRANCH   5   6
ENDBRANCH   4   5
ENDBRANCH   3   4
ENDBRANCH   2   3
ENDBRANCH   1   2
BRANCH   1  15
ATOM     15  C   UNL     1      32.554  -1.412 -38.673  1.00  0.00     0.000 C 
BRANCH  15  16
ATOM     16  C   UNL     1      31.279  -2.060 -39.244  1.00  0.00     0.000 C 
BRANCH  16  17
ATOM     17  C   UNL     1      31.044  -3.484 -38.710  1.00  0.00     0.000 C 
BRANCH  17  18
ATOM     18  C   UNL     1      32.231  -4.428 -38.999  1.00  0.00    -0.000 C 
BRANCH  18  19
ATOM     19  C   UNL     1      32.755  -5.171 -37.755  1.00  0.00    -0.000 C 
BRANCH  19  20
ATOM     20  C   UNL     1      34.247  -4.954 -37.440  1.00  0.00    -0.000 C 
BRANCH  20  21
ATOM     21  C   UNL     1      34.550  -3.814 -36.451  1.00  0.00    -0.000 C 
BRANCH  21  22
ATOM     22  C   UNL     1      34.318  -4.216 -34.985  1.00  0.00    -0.000 C 
BRANCH  22  23
ATOM     23  C   UNL     1      33.287  -3.321 -34.274  1.00  0.00    -0.000 C 
BRANCH  23  24
ATOM     24  C   UNL     1      32.626  -2.251 -35.161  1.00  0.00    -0.000 C 
BRANCH  24  25
ATOM     25  C   UNL     1      31.096  -2.219 -35.025  1.00  0.00    -0.003 C 
ATOM     26  C   UNL     1      30.509  -3.626 -35.102  1.00  0.00     0.004 C 
ENDBRANCH  24  25
ENDBRANCH  23  24
ENDBRANCH  22  23
ENDBRANCH  21  22
ENDBRANCH  20  21
ENDBRANCH  19  20
ENDBRANCH  18  19
ENDBRANCH  17  18
ENDBRANCH  16  17
ENDBRANCH  15  16
ENDBRANCH   1  15
TORSDOF 22
ENDMDL
MODEL 6
REMARK VINA RESULT:    -3.297      1.496      2.921
REMARK INTER + INTRA:         -11.478
REMARK INTER:                  -7.067
REMARK INTRA:                  -4.411
REMARK UNBOUND:                -3.941
REMARK SMILES CCCCCCCCCCCCCCCCCCCCCCCC(=O)[O-]
REMARK SMILES IDX 13 1 14 2 15 3 16 4 17 5 18 6 19 7 20 8 21 9 22 10 23 11
REMARK SMILES IDX 24 12 25 13 26 14 12 15 11 16 10 17 9 18 8 19 7 20 6 21 5 22
REMARK SMILES IDX 4 23 3 24 2 25 1 26
REMARK H PARENT
REMARK Flexibility Score: inf
ROOT
ATOM      1  C   UNL     1      33.124  -0.826 -37.697  1.00  0.00     0.000 C 
ENDROOT
BRANCH   1   2
ATOM      2  C   UNL     1      32.660  -2.157 -38.320  1.00  0.00     0.000 C 
BRANCH   2   3
ATOM      3  C   UNL     1      32.464  -3.312 -37.319  1.00  0.00     0.000 C 
BRANCH   3   4
ATOM      4  C   UNL     1      31.278  -4.218 -37.681  1.00  0.00     0.000 C 
BRANCH   4   5
ATOM      5  C   UNL     1      30.599  -3.741 -38.973  1.00  0.00     0.000 C 
BRANCH   5   6
ATOM      6  C   UNL     1      29.071  -3.610 -38.835  1.00  0.00     0.000 C 
BRANCH   6   7
ATOM      7  C   UNL     1      28.425  -4.565 -37.813  1.00  0.00     0.000 C 
BRANCH   7   8
ATOM      8  C   UNL     1      27.374  -3.920 -36.888  1.00  0.00     0.000 C 
BRANCH   8   9
ATOM      9  C   UNL     1      26.610  -4.932 -36.009  1.00  0.00     0.000 C 
BRANCH   9  10
ATOM     10  C   UNL     1      26.629  -4.554 -34.521  1.00  0.00     0.006 C 
BRANCH  10  11
ATOM     11  C   UNL     1      25.456  -3.631 -34.174  1.00  0.00     0.053 C 
BRANCH  11  12
ATOM     12  C   UNL     1      24.419  -4.374 -33.392  1.00  0.00     0.041 C 
ATOM     13  O   UNL     1      23.207  -4.032 -33.459  1.00  0.00    -0.550 OA
ATOM     14  O   UNL     1      24.782  -5.475 -32.624  1.00  0.00    -0.550 OA
ENDBRANCH  11  12
ENDBRANCH  10  11
ENDBRANCH   9  10
ENDBRANCH   8   9
ENDBRANCH   7   8
ENDBRANCH   6   7
ENDBRANCH   5   6
ENDBRANCH   4   5
ENDBRANCH   3   4
ENDBRANCH   2   3
ENDBRANCH   1   2
BRANCH   1  15
ATOM     15  C   UNL     1      32.147   0.356 -37.866  1.00  0.00     0.000 C 
BRANCH  15  16
ATOM     16  C   UNL     1      30.918   0.059 -38.746  1.00  0.00     0.000 C 
BRANCH  16  17
ATOM     17  C   UNL     1      29.644   0.763 -38.247  1.00  0.00     0.000 C 
BRANCH  17  18
ATOM     18  C   UNL     1      28.618  -0.224 -37.649  1.00  0.00    -0.000 C 
BRANCH  18  19
ATOM     19  C   UNL     1      28.763  -0.432 -36.130  1.00  0.00    -0.000 C 
BRANCH  19  20
ATOM     20  C   UNL     1      29.783  -1.507 -35.708  1.00  0.00    -0.000 C 
BRANCH  20  21
ATOM     21  C   UNL     1      29.662  -1.991 -34.251  1.00  0.00    -0.000 C 
BRANCH  21  22
ATOM     22  C   UNL     1      31.016  -2.377 -33.634  1.00  0.00    -0.000 C 
BRANCH  22  23
ATOM     23  C   UNL     1      32.175  -1.495 -34.133  1.00  0.00    -0.000 C 
BRANCH  23  24
ATOM     24  C   UNL     1      32.397  -0.194 -33.341  1.00  0.00    -0.000 C 
BRANCH  24  25
ATOM     25  C   UNL     1      32.635   1.026 -34.243  1.00  0.00    -0.003 C 
ATOM     26  C   UNL     1      31.328   1.759 -34.532  1.00  0.00     0.004 C 
ENDBRANCH  24  25
ENDBRANCH  23  24
ENDBRANCH  22  23
ENDBRANCH  21  22
ENDBRANCH  20  21
ENDBRANCH  19  20
ENDBRANCH  18  19
ENDBRANCH  17  18
ENDBRANCH  16  17
ENDBRANCH  15  16
ENDBRANCH   1  15
TORSDOF 22
ENDMDL
MODEL 7
REMARK VINA RESULT:    -3.283      3.155      6.368
REMARK INTER + INTRA:         -11.447
REMARK INTER:                  -6.785
REMARK INTRA:                  -4.662
REMARK UNBOUND:                -3.941
REMARK SMILES CCCCCCCCCCCCCCCCCCCCCCCC(=O)[O-]
REMARK SMILES IDX 13 1 14 2 15 3 16 4 17 5 18 6 19 7 20 8 21 9 22 10 23 11
REMARK SMILES IDX 24 12 25 13 26 14 12 15 11 16 10 17 9 18 8 19 7 20 6 21 5 22
REMARK SMILES IDX 4 23 3 24 2 25 1 26
REMARK H PARENT
REMARK Flexibility Score: inf
ROOT
ATOM      1  C   UNL     1      27.391  -3.189 -37.426  1.00  0.00     0.000 C 
ENDROOT
BRANCH   1   2
ATOM      2  C   UNL     1      26.782  -4.425 -36.736  1.00  0.00     0.000 C 
BRANCH   2   3
ATOM      3  C   UNL     1      26.110  -4.148 -35.378  1.00  0.00     0.000 C 
BRANCH   3   4
ATOM      4  C   UNL     1      27.045  -4.402 -34.187  1.00  0.00     0.000 C 
BRANCH   4   5
ATOM      5  C   UNL     1      27.323  -3.099 -33.422  1.00  0.00     0.000 C 
BRANCH   5   6
ATOM      6  C   UNL     1      28.579  -2.364 -33.926  1.00  0.00     0.000 C 
BRANCH   6   7
ATOM      7  C   UNL     1      29.643  -3.266 -34.579  1.00  0.00     0.000 C 
BRANCH   7   8
ATOM      8  C   UNL     1      30.778  -2.517 -35.305  1.00  0.00     0.000 C 
BRANCH   8   9
ATOM      9  C   UNL     1      32.180  -3.110 -35.052  1.00  0.00     0.000 C 
BRANCH   9  10
ATOM     10  C   UNL     1      33.147  -2.093 -34.430  1.00  0.00     0.006 C 
BRANCH  10  11
ATOM     11  C   UNL     1      32.945  -0.700 -35.036  1.00  0.00     0.053 C 
BRANCH  11  12
ATOM     12  C   UNL     1      32.672   0.305 -33.962  1.00  0.00     0.041 C 
ATOM     13  O   UNL     1      32.555   1.526 -34.250  1.00  0.00    -0.550 OA
ATOM     14  O   UNL     1      32.500  -0.112 -32.647  1.00  0.00    -0.550 OA
ENDBRANCH  11  12
ENDBRANCH  10  11
ENDBRANCH   9  10
ENDBRANCH   8   9
ENDBRANCH   7   8
ENDBRANCH   6   7
ENDBRANCH   5   6
ENDBRANCH   4   5
ENDBRANCH   3   4
ENDBRANCH   2   3
ENDBRANCH   1   2
BRANCH   1  15
ATOM     15  C   UNL     1      28.621  -3.469 -38.313  1.00  0.00     0.000 C 
BRANCH  15  16
ATOM     16  C   UNL     1      29.299  -4.830 -38.069  1.00  0.00     0.000 C 
BRANCH  16  17
ATOM     17  C   UNL     1      30.827  -4.773 -38.236  1.00  0.00     0.000 C 
BRANCH  17  18
ATOM     18  C   UNL     1      31.285  -3.577 -39.100  1.00  0.00    -0.000 C 
BRANCH  18  19
ATOM     19  C   UNL     1      32.577  -2.904 -38.601  1.00  0.00    -0.000 C 
BRANCH  19  20
ATOM     20  C   UNL     1      32.615  -1.370 -38.738  1.00  0.00    -0.000 C 
BRANCH  20  21
ATOM     21  C   UNL     1      31.243  -0.673 -38.684  1.00  0.00    -0.000 C 
BRANCH  21  22
ATOM     22  C   UNL     1      31.314   0.740 -38.082  1.00  0.00    -0.000 C 
BRANCH  22  23
ATOM     23  C   UNL     1      30.254   0.980 -36.991  1.00  0.00    -0.000 C 
BRANCH  23  24
ATOM     24  C   UNL     1      28.979   0.128 -37.117  1.00  0.00    -0.000 C 
BRANCH  24  25
ATOM     25  C   UNL     1      27.806   0.891 -37.752  1.00  0.00    -0.003 C 
ATOM     26  C   UNL     1      27.346   0.216 -39.041  1.00  0.00     0.004 C 
ENDBRANCH  24  25
ENDBRANCH  23  24
ENDBRANCH  22  23
ENDBRANCH  21  22
ENDBRANCH  20  21
ENDBRANCH  19  20
ENDBRANCH  18  19
ENDBRANCH  17  18
ENDBRANCH  16  17
ENDBRANCH  15  16
ENDBRANCH   1  15
TORSDOF 22
ENDMDL
MODEL 8
REMARK VINA RESULT:    -3.271      2.727      4.891
REMARK INTER + INTRA:         -11.419
REMARK INTER:                  -7.821
REMARK INTRA:                  -3.598
REMARK UNBOUND:                -3.941
REMARK SMILES CCCCCCCCCCCCCCCCCCCCCCCC(=O)[O-]
REMARK SMILES IDX 13 1 14 2 15 3 16 4 17 5 18 6 19 7 20 8 21 9 22 10 23 11
REMARK SMILES IDX 24 12 25 13 26 14 12 15 11 16 10 17 9 18 8 19 7 20 6 21 5 22
REMARK SMILES IDX 4 23 3 24 2 25 1 26
REMARK H PARENT
REMARK Flexibility Score: inf
ROOT
ATOM      1  C   UNL     1      30.113  -3.434 -36.064  1.00  0.00     0.000 C 
ENDROOT
BRANCH   1   2
ATOM      2  C   UNL     1      29.738  -3.985 -37.454  1.00  0.00     0.000 C 
BRANCH   2   3
ATOM      3  C   UNL     1      28.263  -4.401 -37.614  1.00  0.00     0.000 C 
BRANCH   3   4
ATOM      4  C   UNL     1      27.289  -3.391 -36.991  1.00  0.00     0.000 C 
BRANCH   4   5
ATOM      5  C   UNL     1      26.039  -4.100 -36.448  1.00  0.00     0.000 C 
BRANCH   5   6
ATOM      6  C   UNL     1      26.350  -5.053 -35.280  1.00  0.00     0.000 C 
BRANCH   6   7
ATOM      7  C   UNL     1      26.911  -4.373 -34.017  1.00  0.00     0.000 C 
BRANCH   7   8
ATOM      8  C   UNL     1      25.856  -3.708 -33.110  1.00  0.00     0.000 C 
BRANCH   8   9
ATOM      9  C   UNL     1      24.467  -4.377 -33.173  1.00  0.00     0.000 C 
BRANCH   9  10
ATOM     10  C   UNL     1      24.272  -5.435 -32.078  1.00  0.00     0.006 C 
BRANCH  10  11
ATOM     11  C   UNL     1      25.019  -5.047 -30.798  1.00  0.00     0.053 C 
BRANCH  11  12
ATOM     12  C   UNL     1      24.056  -4.588 -29.748  1.00  0.00     0.041 C 
ATOM     13  O   UNL     1      23.151  -3.759 -30.035  1.00  0.00    -0.550 OA
ATOM     14  O   UNL     1      24.128  -5.112 -28.462  1.00  0.00    -0.550 OA
ENDBRANCH  11  12
ENDBRANCH  10  11
ENDBRANCH   9  10
ENDBRANCH   8   9
ENDBRANCH   7   8
ENDBRANCH   6   7
ENDBRANCH   5   6
ENDBRANCH   4   5
ENDBRANCH   3   4
ENDBRANCH   2   3
ENDBRANCH   1   2
BRANCH   1  15
ATOM     15  C   UNL     1      31.617  -3.471 -35.725  1.00  0.00     0.000 C 
BRANCH  15  16
ATOM     16  C   UNL     1      32.557  -3.349 -36.939  1.00  0.00     0.000 C 
BRANCH  16  17
ATOM     17  C   UNL     1      33.199  -1.956 -37.059  1.00  0.00     0.000 C 
BRANCH  17  18
ATOM     18  C   UNL     1      32.834  -1.248 -38.382  1.00  0.00    -0.000 C 
BRANCH  18  19
ATOM     19  C   UNL     1      32.453   0.234 -38.214  1.00  0.00    -0.000 C 
BRANCH  19  20
ATOM     20  C   UNL     1      31.035   0.607 -38.687  1.00  0.00    -0.000 C 
BRANCH  20  21
ATOM     21  C   UNL     1      30.039  -0.565 -38.759  1.00  0.00    -0.000 C 
BRANCH  21  22
ATOM     22  C   UNL     1      28.714  -0.269 -38.037  1.00  0.00    -0.000 C 
BRANCH  22  23
ATOM     23  C   UNL     1      28.896   0.620 -36.793  1.00  0.00    -0.000 C 
BRANCH  23  24
ATOM     24  C   UNL     1      29.181  -0.135 -35.483  1.00  0.00    -0.000 C 
BRANCH  24  25
ATOM     25  C   UNL     1      30.591   0.130 -34.932  1.00  0.00    -0.003 C 
ATOM     26  C   UNL     1      30.971   1.600 -35.084  1.00  0.00     0.004 C 
ENDBRANCH  24  25
ENDBRANCH  23  24
ENDBRANCH  22  23
ENDBRANCH  21  22
ENDBRANCH  20  21
ENDBRANCH  19  20
ENDBRANCH  18  19
ENDBRANCH  17  18
ENDBRANCH  16  17
ENDBRANCH  15  16
ENDBRANCH   1  15
TORSDOF 22
ENDMDL
MODEL 9
REMARK VINA RESULT:    -3.238      1.648      4.323
REMARK INTER + INTRA:         -11.344
REMARK INTER:                  -7.387
REMARK INTRA:                  -3.957
REMARK UNBOUND:                -3.941
REMARK SMILES CCCCCCCCCCCCCCCCCCCCCCCC(=O)[O-]
REMARK SMILES IDX 13 1 14 2 15 3 16 4 17 5 18 6 19 7 20 8 21 9 22 10 23 11
REMARK SMILES IDX 24 12 25 13 26 14 12 15 11 16 10 17 9 18 8 19 7 20 6 21 5 22
REMARK SMILES IDX 4 23 3 24 2 25 1 26
REMARK H PARENT
REMARK Flexibility Score: inf
ROOT
ATOM      1  C   UNL     1      31.953  -4.334 -35.832  1.00  0.00     0.000 C 
ENDROOT
BRANCH   1   2
ATOM      2  C   UNL     1      31.838  -5.154 -37.131  1.00  0.00     0.000 C 
BRANCH   2   3
ATOM      3  C   UNL     1      32.804  -4.733 -38.256  1.00  0.00     0.000 C 
BRANCH   3   4
ATOM      4  C   UNL     1      32.459  -3.362 -38.855  1.00  0.00     0.000 C 
BRANCH   4   5
ATOM      5  C   UNL     1      31.167  -3.437 -39.683  1.00  0.00     0.000 C 
BRANCH   5   6
ATOM      6  C   UNL     1      30.061  -2.504 -39.156  1.00  0.00     0.000 C 
BRANCH   6   7
ATOM      7  C   UNL     1      28.651  -3.124 -39.118  1.00  0.00     0.000 C 
BRANCH   7   8
ATOM      8  C   UNL     1      27.951  -3.071 -37.746  1.00  0.00     0.000 C 
BRANCH   8   9
ATOM      9  C   UNL     1      27.608  -4.459 -37.165  1.00  0.00     0.000 C 
BRANCH   9  10
ATOM     10  C   UNL     1      26.636  -4.379 -35.979  1.00  0.00     0.006 C 
BRANCH  10  11
ATOM     11  C   UNL     1      25.336  -3.674 -36.380  1.00  0.00     0.053 C 
BRANCH  11  12
ATOM     12  C   UNL     1      24.788  -2.891 -35.228  1.00  0.00     0.041 C 
ATOM     13  O   UNL     1      25.256  -1.753 -34.954  1.00  0.00    -0.550 OA
ATOM     14  O   UNL     1      23.727  -3.397 -34.485  1.00  0.00    -0.550 OA
ENDBRANCH  11  12
ENDBRANCH  10  11
ENDBRANCH   9  10
ENDBRANCH   8   9
ENDBRANCH   7   8
ENDBRANCH   6   7
ENDBRANCH   5   6
ENDBRANCH   4   5
ENDBRANCH   3   4
ENDBRANCH   2   3
ENDBRANCH   1   2
BRANCH   1  15
ATOM     15  C   UNL     1      30.670  -3.588 -35.409  1.00  0.00     0.000 C 
BRANCH  15  16
ATOM     16  C   UNL     1      30.831  -2.066 -35.243  1.00  0.00     0.000 C 
BRANCH  16  17
ATOM     17  C   UNL     1      32.221  -1.667 -34.716  1.00  0.00     0.000 C 
BRANCH  17  18
ATOM     18  C   UNL     1      32.736  -0.352 -35.341  1.00  0.00    -0.000 C 
BRANCH  18  19
ATOM     19  C   UNL     1      33.460  -0.542 -36.688  1.00  0.00    -0.000 C 
BRANCH  19  20
ATOM     20  C   UNL     1      32.797   0.150 -37.894  1.00  0.00    -0.000 C 
BRANCH  20  21
ATOM     21  C   UNL     1      31.317   0.529 -37.701  1.00  0.00    -0.000 C 
BRANCH  21  22
ATOM     22  C   UNL     1      30.689   1.146 -38.962  1.00  0.00    -0.000 C 
BRANCH  22  23
ATOM     23  C   UNL     1      29.150   1.104 -38.946  1.00  0.00    -0.000 C 
BRANCH  23  24
ATOM     24  C   UNL     1      28.522   0.567 -37.647  1.00  0.00    -0.000 C 
BRANCH  24  25
ATOM     25  C   UNL     1      26.986   0.577 -37.673  1.00  0.00    -0.003 C 
ATOM     26  C   UNL     1      26.454   1.957 -38.049  1.00  0.00     0.004 C 
ENDBRANCH  24  25
ENDBRANCH  23  24
ENDBRANCH  22  23
ENDBRANCH  21  22
ENDBRANCH  20  21
ENDBRANCH  19  20
ENDBRANCH  18  19
ENDBRANCH  17  18
ENDBRANCH  16  17
ENDBRANCH  15  16
ENDBRANCH   1  15
TORSDOF 22
ENDMDL
