MODEL 1
REMARK VINA RESULT:    -4.869      0.000      0.000
REMARK INTER + INTRA:          -7.884
REMARK INTER:                  -7.430
REMARK INTRA:                  -0.454
REMARK UNBOUND:                -0.454
REMARK SMILES O=C([O-])CCCCCCCCC(=O)[O-]
REMARK SMILES IDX 7 1 6 2 5 3 4 4 2 5 1 6 3 7 8 8 9 9 10 10 11 11 12 12 13 13
REMARK SMILES IDX 14 14
REMARK H PARENT
REMARK Flexibility Score: inf
ROOT
ATOM      1  C   UNL     1      -8.228  -5.119  -5.448  1.00  0.00     0.000 C 
ENDROOT
BRANCH   1   2
ATOM      2  C   UNL     1      -8.026  -5.017  -6.972  1.00  0.00     0.000 C 
BRANCH   2   3
ATOM      3  C   UNL     1      -6.679  -5.596  -7.438  1.00  0.00     0.006 C 
BRANCH   3   4
ATOM      4  C   UNL     1      -5.579  -5.427  -6.382  1.00  0.00     0.053 C 
BRANCH   4   5
ATOM      5  C   UNL     1      -4.891  -6.723  -6.083  1.00  0.00     0.041 C 
ATOM      6  O   UNL     1      -3.669  -6.737  -5.778  1.00  0.00    -0.550 OA
ATOM      7  O   UNL     1      -5.606  -7.913  -6.114  1.00  0.00    -0.550 OA
ENDBRANCH   4   5
ENDBRANCH   3   4
ENDBRANCH   2   3
ENDBRANCH   1   2
BRANCH   1   8
ATOM      8  C   UNL     1      -9.695  -5.104  -4.982  1.00  0.00     0.000 C 
BRANCH   8   9
ATOM      9  C   UNL     1     -10.112  -3.763  -4.358  1.00  0.00     0.000 C 
BRANCH   9  10
ATOM     10  C   UNL     1     -10.994  -3.985  -3.120  1.00  0.00     0.006 C 
BRANCH  10  11
ATOM     11  C   UNL     1     -10.593  -3.076  -1.952  1.00  0.00     0.053 C 
BRANCH  11  12
ATOM     12  C   UNL     1      -9.110  -3.080  -1.729  1.00  0.00     0.041 C 
ATOM     13  O   UNL     1      -8.465  -1.998  -1.736  1.00  0.00    -0.550 OA
ATOM     14  O   UNL     1      -8.448  -4.276  -1.482  1.00  0.00    -0.550 OA
ENDBRANCH  11  12
ENDBRANCH  10  11
ENDBRANCH   9  10
ENDBRANCH   8   9
ENDBRANCH   1   8
TORSDOF 9
ENDMDL
MODEL 2
REMARK VINA RESULT:    -4.866      0.536      6.050
REMARK INTER + INTRA:          -7.880
REMARK INTER:                  -7.347
REMARK INTRA:                  -0.534
REMARK UNBOUND:                -0.454
REMARK SMILES O=C([O-])CCCCCCCCC(=O)[O-]
REMARK SMILES IDX 7 1 6 2 5 3 4 4 2 5 1 6 3 7 8 8 9 9 10 10 11 11 12 12 13 13
REMARK SMILES IDX 14 14
REMARK H PARENT
REMARK Flexibility Score: inf
ROOT
ATOM      1  C   UNL     1      -9.778  -3.530  -5.191  1.00  0.00     0.000 C 
ENDROOT
BRANCH   1   2
ATOM      2  C   UNL     1     -11.049  -3.322  -4.348  1.00  0.00     0.000 C 
BRANCH   2   3
ATOM      3  C   UNL     1     -11.065  -4.173  -3.066  1.00  0.00     0.006 C 
BRANCH   3   4
ATOM      4  C   UNL     1     -10.647  -3.365  -1.830  1.00  0.00     0.053 C 
BRANCH   4   5
ATOM      5  C   UNL     1      -9.158  -3.247  -1.719  1.00  0.00     0.041 C 
ATOM      6  O   UNL     1      -8.451  -4.275  -1.547  1.00  0.00    -0.550 OA
ATOM      7  O   UNL     1      -8.549  -2.005  -1.835  1.00  0.00    -0.550 OA
ENDBRANCH   4   5
ENDBRANCH   3   4
ENDBRANCH   2   3
ENDBRANCH   1   2
BRANCH   1   8
ATOM      8  C   UNL     1      -9.332  -4.996  -5.348  1.00  0.00     0.000 C 
BRANCH   8   9
ATOM      9  C   UNL     1      -7.805  -5.164  -5.312  1.00  0.00     0.000 C 
BRANCH   9  10
ATOM     10  C   UNL     1      -7.283  -5.717  -6.647  1.00  0.00     0.006 C 
BRANCH  10  11
ATOM     11  C   UNL     1      -5.765  -5.546  -6.791  1.00  0.00     0.053 C 
BRANCH  11  12
ATOM     12  C   UNL     1      -5.016  -6.682  -6.162  1.00  0.00     0.041 C 
ATOM     13  O   UNL     1      -3.849  -6.507  -5.724  1.00  0.00    -0.550 OA
ATOM     14  O   UNL     1      -5.622  -7.926  -6.031  1.00  0.00    -0.550 OA
ENDBRANCH  11  12
ENDBRANCH  10  11
ENDBRANCH   9  10
ENDBRANCH   8   9
ENDBRANCH   1   8
TORSDOF 9
ENDMDL
MODEL 3
REMARK VINA RESULT:    -4.835      0.230      6.048
REMARK INTER + INTRA:          -7.832
REMARK INTER:                  -7.309
REMARK INTRA:                  -0.523
REMARK UNBOUND:                -0.454
REMARK SMILES O=C([O-])CCCCCCCCC(=O)[O-]
REMARK SMILES IDX 7 1 6 2 5 3 4 4 2 5 1 6 3 7 8 8 9 9 10 10 11 11 12 12 13 13
REMARK SMILES IDX 14 14
REMARK H PARENT
REMARK Flexibility Score: inf
ROOT
ATOM      1  C   UNL     1      -9.866  -5.377  -4.948  1.00  0.00     0.000 C 
ENDROOT
BRANCH   1   2
ATOM      2  C   UNL     1     -10.519  -4.088  -4.415  1.00  0.00     0.000 C 
BRANCH   2   3
ATOM      3  C   UNL     1     -11.043  -4.232  -2.976  1.00  0.00     0.006 C 
BRANCH   3   4
ATOM      4  C   UNL     1     -10.600  -3.068  -2.080  1.00  0.00     0.053 C 
BRANCH   4   5
ATOM      5  C   UNL     1      -9.125  -3.095  -1.820  1.00  0.00     0.041 C 
ATOM      6  O   UNL     1      -8.460  -2.025  -1.821  1.00  0.00    -0.550 OA
ATOM      7  O   UNL     1      -8.489  -4.299  -1.549  1.00  0.00    -0.550 OA
ENDBRANCH   4   5
ENDBRANCH   3   4
ENDBRANCH   2   3
ENDBRANCH   1   2
BRANCH   1   8
ATOM      8  C   UNL     1      -8.368  -5.260  -5.282  1.00  0.00     0.000 C 
BRANCH   8   9
ATOM      9  C   UNL     1      -8.107  -4.932  -6.760  1.00  0.00     0.000 C 
BRANCH   9  10
ATOM     10  C   UNL     1      -6.855  -5.660  -7.272  1.00  0.00     0.006 C 
BRANCH  10  11
ATOM     11  C   UNL     1      -5.653  -5.475  -6.337  1.00  0.00     0.053 C 
BRANCH  11  12
ATOM     12  C   UNL     1      -4.962  -6.776  -6.057  1.00  0.00     0.041 C 
ATOM     13  O   UNL     1      -3.723  -6.801  -5.835  1.00  0.00    -0.550 OA
ATOM     14  O   UNL     1      -5.695  -7.956  -6.010  1.00  0.00    -0.550 OA
ENDBRANCH  11  12
ENDBRANCH  10  11
ENDBRANCH   9  10
ENDBRANCH   8   9
ENDBRANCH   1   8
TORSDOF 9
ENDMDL
MODEL 4
REMARK VINA RESULT:    -4.709      1.188      1.630
REMARK INTER + INTRA:          -7.640
REMARK INTER:                  -7.033
REMARK INTRA:                  -0.607
REMARK UNBOUND:                -0.454
REMARK SMILES O=C([O-])CCCCCCCCC(=O)[O-]
REMARK SMILES IDX 7 1 6 2 5 3 4 4 2 5 1 6 3 7 8 8 9 9 10 10 11 11 12 12 13 13
REMARK SMILES IDX 14 14
REMARK H PARENT
REMARK Flexibility Score: inf
ROOT
ATOM      1  C   UNL     1      -8.718  -5.496  -7.623  1.00  0.00     0.000 C 
ENDROOT
BRANCH   1   2
ATOM      2  C   UNL     1      -7.438  -4.842  -8.175  1.00  0.00     0.000 C 
BRANCH   2   3
ATOM      3  C   UNL     1      -6.170  -5.660  -7.877  1.00  0.00     0.006 C 
BRANCH   3   4
ATOM      4  C   UNL     1      -5.740  -5.549  -6.408  1.00  0.00     0.053 C 
BRANCH   4   5
ATOM      5  C   UNL     1      -6.044  -6.800  -5.643  1.00  0.00     0.041 C 
ATOM      6  O   UNL     1      -5.556  -7.902  -6.008  1.00  0.00    -0.550 OA
ATOM      7  O   UNL     1      -6.844  -6.745  -4.509  1.00  0.00    -0.550 OA
ENDBRANCH   4   5
ENDBRANCH   3   4
ENDBRANCH   2   3
ENDBRANCH   1   2
BRANCH   1   8
ATOM      8  C   UNL     1      -9.424  -4.707  -6.504  1.00  0.00     0.000 C 
BRANCH   8   9
ATOM      9  C   UNL     1     -10.020  -5.613  -5.416  1.00  0.00     0.000 C 
BRANCH   9  10
ATOM     10  C   UNL     1     -10.308  -4.816  -4.135  1.00  0.00     0.006 C 
BRANCH  10  11
ATOM     11  C   UNL     1      -9.197  -3.807  -3.817  1.00  0.00     0.053 C 
BRANCH  11  12
ATOM     12  C   UNL     1      -9.137  -3.491  -2.353  1.00  0.00     0.041 C 
ATOM     13  O   UNL     1      -9.772  -2.507  -1.890  1.00  0.00    -0.550 OA
ATOM     14  O   UNL     1      -8.402  -4.302  -1.497  1.00  0.00    -0.550 OA
ENDBRANCH  11  12
ENDBRANCH  10  11
ENDBRANCH   9  10
ENDBRANCH   8   9
ENDBRANCH   1   8
TORSDOF 9
ENDMDL
MODEL 5
REMARK VINA RESULT:    -4.534      0.977      5.873
REMARK INTER + INTRA:          -7.373
REMARK INTER:                  -6.837
REMARK INTRA:                  -0.536
REMARK UNBOUND:                -0.454
REMARK SMILES O=C([O-])CCCCCCCCC(=O)[O-]
REMARK SMILES IDX 7 1 6 2 5 3 4 4 2 5 1 6 3 7 8 8 9 9 10 10 11 11 12 12 13 13
REMARK SMILES IDX 14 14
REMARK H PARENT
REMARK Flexibility Score: inf
ROOT
ATOM      1  C   UNL     1      -9.647  -5.613  -6.353  1.00  0.00     0.000 C 
ENDROOT
BRANCH   1   2
ATOM      2  C   UNL     1     -10.792  -4.970  -5.548  1.00  0.00     0.000 C 
BRANCH   2   3
ATOM      3  C   UNL     1     -10.714  -5.280  -4.043  1.00  0.00     0.006 C 
BRANCH   3   4
ATOM      4  C   UNL     1     -10.666  -4.005  -3.191  1.00  0.00     0.053 C 
BRANCH   4   5
ATOM      5  C   UNL     1      -9.264  -3.641  -2.811  1.00  0.00     0.041 C 
ATOM      6  O   UNL     1      -8.697  -4.221  -1.848  1.00  0.00    -0.550 OA
ATOM      7  O   UNL     1      -8.573  -2.682  -3.540  1.00  0.00    -0.550 OA
ENDBRANCH   4   5
ENDBRANCH   3   4
ENDBRANCH   2   3
ENDBRANCH   1   2
BRANCH   1   8
ATOM      8  C   UNL     1      -8.377  -4.752  -6.482  1.00  0.00     0.000 C 
BRANCH   8   9
ATOM      9  C   UNL     1      -7.706  -4.877  -7.858  1.00  0.00     0.000 C 
BRANCH   9  10
ATOM     10  C   UNL     1      -6.273  -5.414  -7.724  1.00  0.00     0.006 C 
BRANCH  10  11
ATOM     11  C   UNL     1      -5.852  -5.582  -6.258  1.00  0.00     0.053 C 
BRANCH  11  12
ATOM     12  C   UNL     1      -5.098  -6.860  -6.040  1.00  0.00     0.041 C 
ATOM     13  O   UNL     1      -5.703  -7.964  -6.059  1.00  0.00    -0.550 OA
ATOM     14  O   UNL     1      -3.723  -6.830  -5.847  1.00  0.00    -0.550 OA
ENDBRANCH  11  12
ENDBRANCH  10  11
ENDBRANCH   9  10
ENDBRANCH   8   9
ENDBRANCH   1   8
TORSDOF 9
ENDMDL
MODEL 6
REMARK VINA RESULT:    -4.173      1.935      2.354
REMARK INTER + INTRA:          -6.823
REMARK INTER:                  -6.268
REMARK INTRA:                  -0.555
REMARK UNBOUND:                -0.454
REMARK SMILES O=C([O-])CCCCCCCCC(=O)[O-]
REMARK SMILES IDX 7 1 6 2 5 3 4 4 2 5 1 6 3 7 8 8 9 9 10 10 11 11 12 12 13 13
REMARK SMILES IDX 14 14
REMARK H PARENT
REMARK Flexibility Score: inf
ROOT
ATOM      1  C   UNL     1      -8.927  -4.683  -5.095  1.00  0.00     0.000 C 
ENDROOT
BRANCH   1   2
ATOM      2  C   UNL     1      -8.109  -5.334  -6.226  1.00  0.00     0.000 C 
BRANCH   2   3
ATOM      3  C   UNL     1      -8.886  -5.427  -7.550  1.00  0.00     0.006 C 
BRANCH   3   4
ATOM      4  C   UNL     1      -8.065  -6.101  -8.657  1.00  0.00     0.053 C 
BRANCH   4   5
ATOM      5  C   UNL     1      -6.823  -5.329  -8.978  1.00  0.00     0.041 C 
ATOM      6  O   UNL     1      -5.706  -5.909  -9.015  1.00  0.00    -0.550 OA
ATOM      7  O   UNL     1      -6.902  -3.972  -9.263  1.00  0.00    -0.550 OA
ENDBRANCH   4   5
ENDBRANCH   3   4
ENDBRANCH   2   3
ENDBRANCH   1   2
BRANCH   1   8
ATOM      8  C   UNL     1     -10.305  -4.138  -5.516  1.00  0.00     0.000 C 
BRANCH   8   9
ATOM      9  C   UNL     1     -11.024  -3.388  -4.385  1.00  0.00     0.000 C 
BRANCH   9  10
ATOM     10  C   UNL     1     -11.063  -4.235  -3.103  1.00  0.00     0.006 C 
BRANCH  10  11
ATOM     11  C   UNL     1     -10.733  -3.411  -1.853  1.00  0.00     0.053 C 
BRANCH  11  12
ATOM     12  C   UNL     1      -9.257  -3.201  -1.700  1.00  0.00     0.041 C 
ATOM     13  O   UNL     1      -8.773  -2.039  -1.738  1.00  0.00    -0.550 OA
ATOM     14  O   UNL     1      -8.419  -4.289  -1.484  1.00  0.00    -0.550 OA
ENDBRANCH  11  12
ENDBRANCH  10  11
ENDBRANCH   9  10
ENDBRANCH   8   9
ENDBRANCH   1   8
TORSDOF 9
ENDMDL
MODEL 7
REMARK VINA RESULT:    -4.132      2.172      3.007
REMARK INTER + INTRA:          -6.759
REMARK INTER:                  -6.151
REMARK INTRA:                  -0.608
REMARK UNBOUND:                -0.454
REMARK SMILES O=C([O-])CCCCCCCCC(=O)[O-]
REMARK SMILES IDX 7 1 6 2 5 3 4 4 2 5 1 6 3 7 8 8 9 9 10 10 11 11 12 12 13 13
REMARK SMILES IDX 14 14
REMARK H PARENT
REMARK Flexibility Score: inf
ROOT
ATOM      1  C   UNL     1      -6.807  -6.626  -5.147  1.00  0.00     0.000 C 
ENDROOT
BRANCH   1   2
ATOM      2  C   UNL     1      -5.500  -6.663  -5.961  1.00  0.00     0.000 C 
BRANCH   2   3
ATOM      3  C   UNL     1      -5.464  -5.613  -7.085  1.00  0.00     0.006 C 
BRANCH   3   4
ATOM      4  C   UNL     1      -5.906  -6.194  -8.435  1.00  0.00     0.053 C 
BRANCH   4   5
ATOM      5  C   UNL     1      -7.104  -5.481  -8.981  1.00  0.00     0.041 C 
ATOM      6  O   UNL     1      -8.192  -6.096  -9.140  1.00  0.00    -0.550 OA
ATOM      7  O   UNL     1      -7.028  -4.129  -9.290  1.00  0.00    -0.550 OA
ENDBRANCH   4   5
ENDBRANCH   3   4
ENDBRANCH   2   3
ENDBRANCH   1   2
BRANCH   1   8
ATOM      8  C   UNL     1      -7.673  -5.370  -5.360  1.00  0.00     0.000 C 
BRANCH   8   9
ATOM      9  C   UNL     1      -9.164  -5.693  -5.532  1.00  0.00     0.000 C 
BRANCH   9  10
ATOM     10  C   UNL     1     -10.010  -4.955  -4.483  1.00  0.00     0.006 C 
BRANCH  10  11
ATOM     11  C   UNL     1      -9.369  -3.631  -4.047  1.00  0.00     0.053 C 
BRANCH  11  12
ATOM     12  C   UNL     1      -9.347  -3.489  -2.555  1.00  0.00     0.041 C 
ATOM     13  O   UNL     1      -8.566  -4.193  -1.862  1.00  0.00    -0.550 OA
ATOM     14  O   UNL     1     -10.169  -2.557  -1.934  1.00  0.00    -0.550 OA
ENDBRANCH  11  12
ENDBRANCH  10  11
ENDBRANCH   9  10
ENDBRANCH   8   9
ENDBRANCH   1   8
TORSDOF 9
ENDMDL
MODEL 8
REMARK VINA RESULT:    -4.124      1.506      2.536
REMARK INTER + INTRA:          -6.747
REMARK INTER:                  -6.098
REMARK INTRA:                  -0.648
REMARK UNBOUND:                -0.454
REMARK SMILES O=C([O-])CCCCCCCCC(=O)[O-]
REMARK SMILES IDX 7 1 6 2 5 3 4 4 2 5 1 6 3 7 8 8 9 9 10 10 11 11 12 12 13 13
REMARK SMILES IDX 14 14
REMARK H PARENT
REMARK Flexibility Score: inf
ROOT
ATOM      1  C   UNL     1      -9.956  -4.426  -4.060  1.00  0.00     0.000 C 
ENDROOT
BRANCH   1   2
ATOM      2  C   UNL     1      -9.679  -3.812  -5.445  1.00  0.00     0.000 C 
BRANCH   2   3
ATOM      3  C   UNL     1      -8.658  -4.620  -6.265  1.00  0.00     0.006 C 
BRANCH   3   4
ATOM      4  C   UNL     1      -8.021  -5.750  -5.446  1.00  0.00     0.053 C 
BRANCH   4   5
ATOM      5  C   UNL     1      -6.604  -6.005  -5.858  1.00  0.00     0.041 C 
ATOM      6  O   UNL     1      -5.932  -5.097  -6.414  1.00  0.00    -0.550 OA
ATOM      7  O   UNL     1      -6.017  -7.237  -5.600  1.00  0.00    -0.550 OA
ENDBRANCH   4   5
ENDBRANCH   3   4
ENDBRANCH   2   3
ENDBRANCH   1   2
BRANCH   1   8
ATOM      8  C   UNL     1     -10.979  -3.660  -3.200  1.00  0.00     0.000 C 
BRANCH   8   9
ATOM      9  C   UNL     1     -10.435  -3.284  -1.814  1.00  0.00     0.000 C 
BRANCH   9  10
ATOM     10  C   UNL     1      -8.949  -3.654  -1.689  1.00  0.00     0.006 C 
BRANCH  10  11
ATOM     11  C   UNL     1      -8.136  -2.562  -0.982  1.00  0.00     0.053 C 
BRANCH  11  12
ATOM     12  C   UNL     1      -7.794  -1.436  -1.911  1.00  0.00     0.041 C 
ATOM     13  O   UNL     1      -7.509  -1.671  -3.115  1.00  0.00    -0.550 OA
ATOM     14  O   UNL     1      -7.822  -0.125  -1.452  1.00  0.00    -0.550 OA
ENDBRANCH  11  12
ENDBRANCH  10  11
ENDBRANCH   9  10
ENDBRANCH   8   9
ENDBRANCH   1   8
TORSDOF 9
ENDMDL
MODEL 9
REMARK VINA RESULT:    -3.814      2.025      5.679
REMARK INTER + INTRA:          -6.274
REMARK INTER:                  -5.578
REMARK INTRA:                  -0.696
REMARK UNBOUND:                -0.454
REMARK SMILES O=C([O-])CCCCCCCCC(=O)[O-]
REMARK SMILES IDX 7 1 6 2 5 3 4 4 2 5 1 6 3 7 8 8 9 9 10 10 11 11 12 12 13 13
REMARK SMILES IDX 14 14
REMARK H PARENT
REMARK Flexibility Score: inf
ROOT
ATOM      1  C   UNL     1      -9.486  -5.482  -9.107  1.00  0.00     0.000 C 
ENDROOT
BRANCH   1   2
ATOM      2  C   UNL     1     -10.548  -4.902  -8.155  1.00  0.00     0.000 C 
BRANCH   2   3
ATOM      3  C   UNL     1     -10.380  -5.383  -6.704  1.00  0.00     0.006 C 
BRANCH   3   4
ATOM      4  C   UNL     1      -9.803  -4.290  -5.795  1.00  0.00     0.053 C 
BRANCH   4   5
ATOM      5  C   UNL     1      -8.971  -4.866  -4.690  1.00  0.00     0.041 C 
ATOM      6  O   UNL     1      -8.211  -5.846  -4.913  1.00  0.00    -0.550 OA
ATOM      7  O   UNL     1      -9.014  -4.303  -3.422  1.00  0.00    -0.550 OA
ENDBRANCH   4   5
ENDBRANCH   3   4
ENDBRANCH   2   3
ENDBRANCH   1   2
BRANCH   1   8
ATOM      8  C   UNL     1      -8.397  -4.489  -9.554  1.00  0.00     0.000 C 
BRANCH   8   9
ATOM      9  C   UNL     1      -6.983  -5.087  -9.504  1.00  0.00     0.000 C 
BRANCH   9  10
ATOM     10  C   UNL     1      -6.532  -5.307  -8.052  1.00  0.00     0.006 C 
BRANCH  10  11
ATOM     11  C   UNL     1      -5.556  -6.483  -7.920  1.00  0.00     0.053 C 
BRANCH  11  12
ATOM     12  C   UNL     1      -5.248  -6.790  -6.485  1.00  0.00     0.041 C 
ATOM     13  O   UNL     1      -4.673  -5.934  -5.763  1.00  0.00    -0.550 OA
ATOM     14  O   UNL     1      -5.625  -8.011  -5.940  1.00  0.00    -0.550 OA
ENDBRANCH  11  12
ENDBRANCH  10  11
ENDBRANCH   9  10
ENDBRANCH   8   9
ENDBRANCH   1   8
TORSDOF 9
ENDMDL
