MODEL 1
REMARK VINA RESULT:    -3.576      0.000      0.000
REMARK INTER + INTRA:          -5.340
REMARK INTER:                  -4.831
REMARK INTRA:                  -0.509
REMARK UNBOUND:                -0.509
REMARK SMILES [NH3+]CCCC[C@H]([NH3+])C(=O)[O-]
REMARK SMILES IDX 4 1 3 2 2 3 1 4 5 8 6 9 7 10 8 14 9 15 10 16
REMARK H PARENT 1 5 1 6 1 7 7 11 7 12 7 13
REMARK Flexibility Score: inf
ROOT
ATOM      1  C   UNL     1     127.808 134.559 125.929  1.00  0.00     0.012 C 
ENDROOT
BRANCH   1   2
ATOM      2  C   UNL     1     128.069 135.898 125.221  1.00  0.00     0.061 C 
BRANCH   2   3
ATOM      3  C   UNL     1     129.441 135.949 124.529  1.00  0.00     0.258 C 
BRANCH   3   4
ATOM      4  N   UNL     1     129.544 134.914 123.500  1.00  0.00    -0.358 N 
ATOM      5  H   UNL     1     130.166 135.239 122.725  1.00  0.00     0.344 HD
ATOM      6  H   UNL     1     129.955 134.051 123.924  1.00  0.00     0.344 HD
ATOM      7  H   UNL     1     128.597 134.687 123.122  1.00  0.00     0.344 HD
ENDBRANCH   3   4
ENDBRANCH   2   3
ENDBRANCH   1   2
BRANCH   1   8
ATOM      8  C   UNL     1     126.453 133.941 125.543  1.00  0.00     0.072 C 
BRANCH   8   9
ATOM      9  C   UNL     1     126.053 134.249 124.082  1.00  0.00     0.227 C 
BRANCH   9  10
ATOM     10  N   UNL     1     124.627 134.581 123.964  1.00  0.00    -0.350 N 
ATOM     11  H   UNL     1     124.497 135.595 123.736  1.00  0.00     0.345 HD
ATOM     12  H   UNL     1     124.135 134.370 124.863  1.00  0.00     0.345 HD
ATOM     13  H   UNL     1     124.180 133.999 123.221  1.00  0.00     0.345 HD
ENDBRANCH   9  10
BRANCH   9  14
ATOM     14  C   UNL     1     126.377 133.063 123.213  1.00  0.00     0.099 C 
ATOM     15  O   UNL     1     125.451 132.372 122.713  1.00  0.00    -0.544 OA
ATOM     16  O   UNL     1     127.700 132.735 122.940  1.00  0.00    -0.544 OA
ENDBRANCH   9  14
ENDBRANCH   8   9
ENDBRANCH   1   8
TORSDOF 7
ENDMDL
MODEL 2
REMARK VINA RESULT:    -3.520      8.076      9.360
REMARK INTER + INTRA:          -5.263
REMARK INTER:                  -4.767
REMARK INTRA:                  -0.496
REMARK UNBOUND:                -0.509
REMARK SMILES [NH3+]CCCC[C@H]([NH3+])C(=O)[O-]
REMARK SMILES IDX 4 1 3 2 2 3 1 4 5 8 6 9 7 10 8 14 9 15 10 16
REMARK H PARENT 1 5 1 6 1 7 7 11 7 12 7 13
REMARK Flexibility Score: inf
ROOT
ATOM      1  C   UNL     1     130.579 135.916 130.330  1.00  0.00     0.012 C 
ENDROOT
BRANCH   1   2
ATOM      2  C   UNL     1     129.099 135.599 130.601  1.00  0.00     0.061 C 
BRANCH   2   3
ATOM      3  C   UNL     1     128.622 136.105 131.973  1.00  0.00     0.258 C 
BRANCH   3   4
ATOM      4  N   UNL     1     128.327 134.985 132.866  1.00  0.00    -0.358 N 
ATOM      5  H   UNL     1     127.603 134.365 132.436  1.00  0.00     0.344 HD
ATOM      6  H   UNL     1     129.200 134.430 133.019  1.00  0.00     0.344 HD
ATOM      7  H   UNL     1     127.986 135.339 133.788  1.00  0.00     0.344 HD
ENDBRANCH   3   4
ENDBRANCH   2   3
ENDBRANCH   1   2
BRANCH   1   8
ATOM      8  C   UNL     1     131.498 134.708 130.584  1.00  0.00     0.072 C 
BRANCH   8   9
ATOM      9  C   UNL     1     132.013 134.648 132.039  1.00  0.00     0.227 C 
BRANCH   9  10
ATOM     10  N   UNL     1     133.476 134.773 132.107  1.00  0.00    -0.350 N 
ATOM     11  H   UNL     1     133.881 134.067 132.764  1.00  0.00     0.345 HD
ATOM     12  H   UNL     1     133.738 135.731 132.435  1.00  0.00     0.345 HD
ATOM     13  H   UNL     1     133.894 134.644 131.158  1.00  0.00     0.345 HD
ENDBRANCH   9  10
BRANCH   9  14
ATOM     14  C   UNL     1     131.580 133.352 132.672  1.00  0.00     0.099 C 
ATOM     15  O   UNL     1     132.402 132.662 133.330  1.00  0.00    -0.544 OA
ATOM     16  O   UNL     1     130.264 132.919 132.551  1.00  0.00    -0.544 OA
ENDBRANCH   9  14
ENDBRANCH   8   9
ENDBRANCH   1   8
TORSDOF 7
ENDMDL
MODEL 3
REMARK VINA RESULT:    -3.506     10.324     11.170
REMARK INTER + INTRA:          -5.245
REMARK INTER:                  -4.790
REMARK INTRA:                  -0.455
REMARK UNBOUND:                -0.509
REMARK SMILES [NH3+]CCCC[C@H]([NH3+])C(=O)[O-]
REMARK SMILES IDX 4 1 3 2 2 3 1 4 5 8 6 9 7 10 8 14 9 15 10 16
REMARK H PARENT 1 5 1 6 1 7 7 11 7 12 7 13
REMARK Flexibility Score: inf
ROOT
ATOM      1  C   UNL     1     130.990 123.351 126.843  1.00  0.00     0.012 C 
ENDROOT
BRANCH   1   2
ATOM      2  C   UNL     1     130.323 124.254 127.893  1.00  0.00     0.061 C 
BRANCH   2   3
ATOM      3  C   UNL     1     129.471 125.369 127.266  1.00  0.00     0.258 C 
BRANCH   3   4
ATOM      4  N   UNL     1     128.437 124.807 126.396  1.00  0.00    -0.358 N 
ATOM      5  H   UNL     1     127.966 125.571 125.859  1.00  0.00     0.344 HD
ATOM      6  H   UNL     1     128.882 124.144 125.721  1.00  0.00     0.344 HD
ATOM      7  H   UNL     1     127.731 124.287 126.965  1.00  0.00     0.344 HD
ENDBRANCH   3   4
ENDBRANCH   2   3
ENDBRANCH   1   2
BRANCH   1   8
ATOM      8  C   UNL     1     131.954 124.124 125.926  1.00  0.00     0.072 C 
BRANCH   8   9
ATOM      9  C   UNL     1     131.946 123.598 124.474  1.00  0.00     0.227 C 
BRANCH   9  10
ATOM     10  N   UNL     1     133.307 123.403 123.955  1.00  0.00    -0.350 N 
ATOM     11  H   UNL     1     133.848 124.298 123.981  1.00  0.00     0.345 HD
ATOM     12  H   UNL     1     133.267 123.059 122.968  1.00  0.00     0.345 HD
ATOM     13  H   UNL     1     133.808 122.678 124.517  1.00  0.00     0.345 HD
ENDBRANCH   9  10
BRANCH   9  14
ATOM     14  C   UNL     1     131.195 124.564 123.595  1.00  0.00     0.099 C 
ATOM     15  O   UNL     1     131.816 125.277 122.763  1.00  0.00    -0.544 OA
ATOM     16  O   UNL     1     129.811 124.659 123.681  1.00  0.00    -0.544 OA
ENDBRANCH   9  14
ENDBRANCH   8   9
ENDBRANCH   1   8
TORSDOF 7
ENDMDL
MODEL 4
REMARK VINA RESULT:    -3.497     11.721     12.308
REMARK INTER + INTRA:          -5.233
REMARK INTER:                  -4.834
REMARK INTRA:                  -0.399
REMARK UNBOUND:                -0.509
REMARK SMILES [NH3+]CCCC[C@H]([NH3+])C(=O)[O-]
REMARK SMILES IDX 4 1 3 2 2 3 1 4 5 8 6 9 7 10 8 14 9 15 10 16
REMARK H PARENT 1 5 1 6 1 7 7 11 7 12 7 13
REMARK Flexibility Score: inf
ROOT
ATOM      1  C   UNL     1     127.034 123.809 129.537  1.00  0.00     0.012 C 
ENDROOT
BRANCH   1   2
ATOM      2  C   UNL     1     127.506 124.915 128.579  1.00  0.00     0.061 C 
BRANCH   2   3
ATOM      3  C   UNL     1     128.877 125.495 128.966  1.00  0.00     0.258 C 
BRANCH   3   4
ATOM      4  N   UNL     1     129.308 124.986 130.268  1.00  0.00    -0.358 N 
ATOM      5  H   UNL     1     128.517 124.490 130.739  1.00  0.00     0.344 HD
ATOM      6  H   UNL     1     130.094 124.311 130.128  1.00  0.00     0.344 HD
ATOM      7  H   UNL     1     129.641 125.772 130.871  1.00  0.00     0.344 HD
ENDBRANCH   3   4
ENDBRANCH   2   3
ENDBRANCH   1   2
BRANCH   1   8
ATOM      8  C   UNL     1     125.829 124.243 130.390  1.00  0.00     0.072 C 
BRANCH   8   9
ATOM      9  C   UNL     1     125.852 123.628 131.808  1.00  0.00     0.227 C 
BRANCH   9  10
ATOM     10  N   UNL     1     124.500 123.301 132.283  1.00  0.00    -0.350 N 
ATOM     11  H   UNL     1     124.140 124.047 132.923  1.00  0.00     0.345 HD
ATOM     12  H   UNL     1     124.513 122.390 132.797  1.00  0.00     0.345 HD
ATOM     13  H   UNL     1     123.848 123.193 131.474  1.00  0.00     0.345 HD
ENDBRANCH   9  10
BRANCH   9  14
ATOM     14  C   UNL     1     126.512 124.589 132.761  1.00  0.00     0.099 C 
ATOM     15  O   UNL     1     125.813 125.367 133.462  1.00  0.00    -0.544 OA
ATOM     16  O   UNL     1     127.896 124.609 132.887  1.00  0.00    -0.544 OA
ENDBRANCH   9  14
ENDBRANCH   8   9
ENDBRANCH   1   8
TORSDOF 7
ENDMDL
MODEL 5
REMARK VINA RESULT:    -3.493     12.900     13.561
REMARK INTER + INTRA:          -5.227
REMARK INTER:                  -4.682
REMARK INTRA:                  -0.545
REMARK UNBOUND:                -0.509
REMARK SMILES [NH3+]CCCC[C@H]([NH3+])C(=O)[O-]
REMARK SMILES IDX 4 1 3 2 2 3 1 4 5 8 6 9 7 10 8 14 9 15 10 16
REMARK H PARENT 1 5 1 6 1 7 7 11 7 12 7 13
REMARK Flexibility Score: inf
ROOT
ATOM      1  C   UNL     1     127.166 122.769 129.748  1.00  0.00     0.012 C 
ENDROOT
BRANCH   1   2
ATOM      2  C   UNL     1     127.862 121.813 130.729  1.00  0.00     0.061 C 
BRANCH   2   3
ATOM      3  C   UNL     1     129.374 122.074 130.844  1.00  0.00     0.258 C 
BRANCH   3   4
ATOM      4  N   UNL     1     129.730 122.481 132.203  1.00  0.00    -0.358 N 
ATOM      5  H   UNL     1     129.281 123.398 132.431  1.00  0.00     0.344 HD
ATOM      6  H   UNL     1     129.387 121.760 132.877  1.00  0.00     0.344 HD
ATOM      7  H   UNL     1     130.768 122.563 132.294  1.00  0.00     0.344 HD
ENDBRANCH   3   4
ENDBRANCH   2   3
ENDBRANCH   1   2
BRANCH   1   8
ATOM      8  C   UNL     1     126.362 123.869 130.464  1.00  0.00     0.072 C 
BRANCH   8   9
ATOM      9  C   UNL     1     126.106 123.544 131.953  1.00  0.00     0.227 C 
BRANCH   9  10
ATOM     10  N   UNL     1     124.676 123.347 132.230  1.00  0.00    -0.350 N 
ATOM     11  H   UNL     1     124.539 122.774 133.095  1.00  0.00     0.345 HD
ATOM     12  H   UNL     1     124.219 122.860 131.425  1.00  0.00     0.345 HD
ATOM     13  H   UNL     1     124.200 124.270 132.347  1.00  0.00     0.345 HD
ENDBRANCH   9  10
BRANCH   9  14
ATOM     14  C   UNL     1     126.646 124.658 132.810  1.00  0.00     0.099 C 
ATOM     15  O   UNL     1     127.887 124.862 132.875  1.00  0.00    -0.544 OA
ATOM     16  O   UNL     1     125.778 125.480 133.518  1.00  0.00    -0.544 OA
ENDBRANCH   9  14
ENDBRANCH   8   9
ENDBRANCH   1   8
TORSDOF 7
ENDMDL
MODEL 6
REMARK VINA RESULT:    -3.473      1.786      2.127
REMARK INTER + INTRA:          -5.200
REMARK INTER:                  -4.751
REMARK INTRA:                  -0.449
REMARK UNBOUND:                -0.509
REMARK SMILES [NH3+]CCCC[C@H]([NH3+])C(=O)[O-]
REMARK SMILES IDX 4 1 3 2 2 3 1 4 5 8 6 9 7 10 8 14 9 15 10 16
REMARK H PARENT 1 5 1 6 1 7 7 11 7 12 7 13
REMARK Flexibility Score: inf
ROOT
ATOM      1  C   UNL     1     127.026 134.892 126.720  1.00  0.00     0.012 C 
ENDROOT
BRANCH   1   2
ATOM      2  C   UNL     1     127.707 134.100 127.847  1.00  0.00     0.061 C 
BRANCH   2   3
ATOM      3  C   UNL     1     128.340 132.787 127.355  1.00  0.00     0.258 C 
BRANCH   3   4
ATOM      4  N   UNL     1     129.448 133.055 126.439  1.00  0.00    -0.358 N 
ATOM      5  H   UNL     1     129.877 133.984 126.657  1.00  0.00     0.344 HD
ATOM      6  H   UNL     1     130.175 132.313 126.556  1.00  0.00     0.344 HD
ATOM      7  H   UNL     1     129.110 133.045 125.451  1.00  0.00     0.344 HD
ENDBRANCH   3   4
ENDBRANCH   2   3
ENDBRANCH   1   2
BRANCH   1   8
ATOM      8  C   UNL     1     126.035 134.035 125.912  1.00  0.00     0.072 C 
BRANCH   8   9
ATOM      9  C   UNL     1     125.988 134.428 124.419  1.00  0.00     0.227 C 
BRANCH   9  10
ATOM     10  N   UNL     1     124.608 134.578 123.936  1.00  0.00    -0.350 N 
ATOM     11  H   UNL     1     124.077 135.256 124.531  1.00  0.00     0.345 HD
ATOM     12  H   UNL     1     124.120 133.653 123.956  1.00  0.00     0.345 HD
ATOM     13  H   UNL     1     124.606 134.910 122.945  1.00  0.00     0.345 HD
ENDBRANCH   9  10
BRANCH   9  14
ATOM     14  C   UNL     1     126.706 133.385 123.603  1.00  0.00     0.099 C 
ATOM     15  O   UNL     1     126.073 132.688 122.767  1.00  0.00    -0.544 OA
ATOM     16  O   UNL     1     128.076 133.201 123.752  1.00  0.00    -0.544 OA
ENDBRANCH   9  14
ENDBRANCH   8   9
ENDBRANCH   1   8
TORSDOF 7
ENDMDL
MODEL 7
REMARK VINA RESULT:    -3.437     11.096     12.173
REMARK INTER + INTRA:          -5.151
REMARK INTER:                  -4.602
REMARK INTRA:                  -0.550
REMARK UNBOUND:                -0.509
REMARK SMILES [NH3+]CCCC[C@H]([NH3+])C(=O)[O-]
REMARK SMILES IDX 4 1 3 2 2 3 1 4 5 8 6 9 7 10 8 14 9 15 10 16
REMARK H PARENT 1 5 1 6 1 7 7 11 7 12 7 13
REMARK Flexibility Score: inf
ROOT
ATOM      1  C   UNL     1     130.972 122.140 126.263  1.00  0.00     0.012 C 
ENDROOT
BRANCH   1   2
ATOM      2  C   UNL     1     130.099 121.464 125.193  1.00  0.00     0.061 C 
BRANCH   2   3
ATOM      3  C   UNL     1     128.641 121.955 125.216  1.00  0.00     0.258 C 
BRANCH   3   4
ATOM      4  N   UNL     1     128.245 122.467 123.905  1.00  0.00    -0.358 N 
ATOM      5  H   UNL     1     128.168 121.680 123.220  1.00  0.00     0.344 HD
ATOM      6  H   UNL     1     127.313 122.935 123.988  1.00  0.00     0.344 HD
ATOM      7  H   UNL     1     128.944 123.165 123.563  1.00  0.00     0.344 HD
ENDBRANCH   3   4
ENDBRANCH   2   3
ENDBRANCH   1   2
BRANCH   1   8
ATOM      8  C   UNL     1     131.612 123.447 125.762  1.00  0.00     0.072 C 
BRANCH   8   9
ATOM      9  C   UNL     1     131.972 123.396 124.261  1.00  0.00     0.227 C 
BRANCH   9  10
ATOM     10  N   UNL     1     133.426 123.364 124.048  1.00  0.00    -0.350 N 
ATOM     11  H   UNL     1     133.756 122.387 123.873  1.00  0.00     0.345 HD
ATOM     12  H   UNL     1     133.918 123.744 124.890  1.00  0.00     0.345 HD
ATOM     13  H   UNL     1     133.686 123.969 123.236  1.00  0.00     0.345 HD
ENDBRANCH   9  10
BRANCH   9  14
ATOM     14  C   UNL     1     131.377 124.590 123.561  1.00  0.00     0.099 C 
ATOM     15  O   UNL     1     132.093 125.309 122.816  1.00  0.00    -0.544 OA
ATOM     16  O   UNL     1     130.030 124.893 123.718  1.00  0.00    -0.544 OA
ENDBRANCH   9  14
ENDBRANCH   8   9
ENDBRANCH   1   8
TORSDOF 7
ENDMDL
MODEL 8
REMARK VINA RESULT:    -3.403      6.229      7.304
REMARK INTER + INTRA:          -5.105
REMARK INTER:                  -4.578
REMARK INTRA:                  -0.528
REMARK UNBOUND:                -0.509
REMARK SMILES [NH3+]CCCC[C@H]([NH3+])C(=O)[O-]
REMARK SMILES IDX 4 1 3 2 2 3 1 4 5 8 6 9 7 10 8 14 9 15 10 16
REMARK H PARENT 1 5 1 6 1 7 7 11 7 12 7 13
REMARK Flexibility Score: inf
ROOT
ATOM      1  C   UNL     1     131.900 133.880 130.768  1.00  0.00     0.012 C 
ENDROOT
BRANCH   1   2
ATOM      2  C   UNL     1     131.363 134.247 132.161  1.00  0.00     0.061 C 
BRANCH   2   3
ATOM      3  C   UNL     1     130.245 133.303 132.637  1.00  0.00     0.258 C 
BRANCH   3   4
ATOM      4  N   UNL     1     128.984 134.028 132.792  1.00  0.00    -0.358 N 
ATOM      5  H   UNL     1     128.464 134.040 131.885  1.00  0.00     0.344 HD
ATOM      6  H   UNL     1     128.398 133.544 133.511  1.00  0.00     0.344 HD
ATOM      7  H   UNL     1     129.167 135.007 133.108  1.00  0.00     0.344 HD
ENDBRANCH   3   4
ENDBRANCH   2   3
ENDBRANCH   1   2
BRANCH   1   8
ATOM      8  C   UNL     1     131.243 134.705 129.647  1.00  0.00     0.072 C 
BRANCH   8   9
ATOM      9  C   UNL     1     130.339 133.850 128.731  1.00  0.00     0.227 C 
BRANCH   9  10
ATOM     10  N   UNL     1     130.488 134.221 127.317  1.00  0.00    -0.350 N 
ATOM     11  H   UNL     1     129.626 134.700 126.964  1.00  0.00     0.345 HD
ATOM     12  H   UNL     1     130.662 133.366 126.739  1.00  0.00     0.345 HD
ATOM     13  H   UNL     1     131.311 134.853 127.193  1.00  0.00     0.345 HD
ENDBRANCH   9  10
BRANCH   9  14
ATOM     14  C   UNL     1     128.903 134.010 129.155  1.00  0.00     0.099 C 
ATOM     15  O   UNL     1     128.560 134.978 129.882  1.00  0.00    -0.544 OA
ATOM     16  O   UNL     1     127.942 133.100 128.727  1.00  0.00    -0.544 OA
ENDBRANCH   9  14
ENDBRANCH   8   9
ENDBRANCH   1   8
TORSDOF 7
ENDMDL
MODEL 9
REMARK VINA RESULT:    -3.380     11.696     12.338
REMARK INTER + INTRA:          -5.075
REMARK INTER:                  -4.547
REMARK INTRA:                  -0.528
REMARK UNBOUND:                -0.509
REMARK SMILES [NH3+]CCCC[C@H]([NH3+])C(=O)[O-]
REMARK SMILES IDX 4 1 3 2 2 3 1 4 5 8 6 9 7 10 8 14 9 15 10 16
REMARK H PARENT 1 5 1 6 1 7 7 11 7 12 7 13
REMARK Flexibility Score: inf
ROOT
ATOM      1  C   UNL     1     126.209 124.050 130.790  1.00  0.00     0.012 C 
ENDROOT
BRANCH   1   2
ATOM      2  C   UNL     1     126.798 123.607 132.139  1.00  0.00     0.061 C 
BRANCH   2   3
ATOM      3  C   UNL     1     127.922 124.533 132.632  1.00  0.00     0.258 C 
BRANCH   3   4
ATOM      4  N   UNL     1     129.181 123.800 132.763  1.00  0.00    -0.358 N 
ATOM      5  H   UNL     1     129.965 124.358 132.353  1.00  0.00     0.344 HD
ATOM      6  H   UNL     1     129.377 123.635 133.776  1.00  0.00     0.344 HD
ATOM      7  H   UNL     1     129.113 122.877 132.277  1.00  0.00     0.344 HD
ENDBRANCH   3   4
ENDBRANCH   2   3
ENDBRANCH   1   2
BRANCH   1   8
ATOM      8  C   UNL     1     126.738 123.215 129.611  1.00  0.00     0.072 C 
BRANCH   8   9
ATOM      9  C   UNL     1     127.583 124.049 128.623  1.00  0.00     0.227 C 
BRANCH   9  10
ATOM     10  N   UNL     1     127.487 123.532 127.250  1.00  0.00    -0.350 N 
ATOM     11  H   UNL     1     128.315 123.826 126.682  1.00  0.00     0.345 HD
ATOM     12  H   UNL     1     126.617 123.892 126.793  1.00  0.00     0.345 HD
ATOM     13  H   UNL     1     127.425 122.489 127.260  1.00  0.00     0.345 HD
ENDBRANCH   9  10
BRANCH   9  14
ATOM     14  C   UNL     1     129.021 124.051 129.070  1.00  0.00     0.099 C 
ATOM     15  O   UNL     1     129.759 125.041 128.824  1.00  0.00    -0.544 OA
ATOM     16  O   UNL     1     129.536 122.971 129.776  1.00  0.00    -0.544 OA
ENDBRANCH   9  14
ENDBRANCH   8   9
ENDBRANCH   1   8
TORSDOF 7
ENDMDL
