MODEL 1
REMARK VINA RESULT:    -3.638      0.000      0.000
REMARK INTER + INTRA:          -5.804
REMARK INTER:                  -5.126
REMARK INTRA:                  -0.678
REMARK UNBOUND:                -0.678
REMARK SMILES C=CCCCCCCC(=O)[O-]
REMARK SMILES IDX 6 1 7 2 8 3 9 4 10 5 11 6 5 7 4 8 3 9 2 10 1 11
REMARK H PARENT
REMARK Flexibility Score: inf
ROOT
ATOM      1  C   UNL     1      -2.542   4.513  15.714  1.00  0.00     0.000 C 
ENDROOT
BRANCH   1   2
ATOM      2  C   UNL     1      -2.400   4.013  14.264  1.00  0.00     0.006 C 
BRANCH   2   3
ATOM      3  C   UNL     1      -1.824   2.594  14.136  1.00  0.00     0.053 C 
BRANCH   3   4
ATOM      4  C   UNL     1      -2.111   1.991  12.795  1.00  0.00     0.041 C 
ATOM      5  O   UNL     1      -1.192   1.876  11.943  1.00  0.00    -0.550 OA
ATOM      6  O   UNL     1      -3.400   1.586  12.475  1.00  0.00    -0.550 OA
ENDBRANCH   3   4
ENDBRANCH   2   3
ENDBRANCH   1   2
BRANCH   1   7
ATOM      7  C   UNL     1      -2.758   3.371  16.718  1.00  0.00     0.000 C 
BRANCH   7   8
ATOM      8  C   UNL     1      -1.735   3.442  17.858  1.00  0.00     0.004 C 
BRANCH   8   9
ATOM      9  C   UNL     1      -0.728   4.574  17.624  1.00  0.00     0.027 C 
BRANCH   9  10
ATOM     10  C   UNL     1       0.667   4.037  17.459  1.00  0.00    -0.035 C 
ATOM     11  C   UNL     1       0.950   3.068  16.584  1.00  0.00     0.004 C 
ENDBRANCH   9  10
ENDBRANCH   8   9
ENDBRANCH   7   8
ENDBRANCH   1   7
TORSDOF 7
ENDMDL
MODEL 2
REMARK VINA RESULT:    -3.595      2.844      4.443
REMARK INTER + INTRA:          -5.745
REMARK INTER:                  -5.160
REMARK INTRA:                  -0.585
REMARK UNBOUND:                -0.678
REMARK SMILES C=CCCCCCCC(=O)[O-]
REMARK SMILES IDX 6 1 7 2 8 3 9 4 10 5 11 6 5 7 4 8 3 9 2 10 1 11
REMARK H PARENT
REMARK Flexibility Score: inf
ROOT
ATOM      1  C   UNL     1       0.450   4.327  17.063  1.00  0.00     0.000 C 
ENDROOT
BRANCH   1   2
ATOM      2  C   UNL     1       1.360   3.221  17.628  1.00  0.00     0.006 C 
BRANCH   2   3
ATOM      3  C   UNL     1       1.282   1.887  16.869  1.00  0.00     0.053 C 
BRANCH   3   4
ATOM      4  C   UNL     1       0.244   0.972  17.445  1.00  0.00     0.041 C 
ATOM      5  O   UNL     1       0.008   0.984  18.681  1.00  0.00    -0.550 OA
ATOM      6  O   UNL     1      -0.438   0.087  16.622  1.00  0.00    -0.550 OA
ENDBRANCH   3   4
ENDBRANCH   2   3
ENDBRANCH   1   2
BRANCH   1   7
ATOM      7  C   UNL     1      -0.884   4.442  17.814  1.00  0.00     0.000 C 
BRANCH   7   8
ATOM      8  C   UNL     1      -2.051   3.979  16.935  1.00  0.00     0.004 C 
BRANCH   8   9
ATOM      9  C   UNL     1      -1.692   4.079  15.447  1.00  0.00     0.027 C 
BRANCH   9  10
ATOM     10  C   UNL     1      -2.689   4.921  14.701  1.00  0.00    -0.035 C 
ATOM     11  C   UNL     1      -2.313   5.970  13.963  1.00  0.00     0.004 C 
ENDBRANCH   9  10
ENDBRANCH   8   9
ENDBRANCH   7   8
ENDBRANCH   1   7
TORSDOF 7
ENDMDL
MODEL 3
REMARK VINA RESULT:    -3.555     13.044     13.717
REMARK INTER + INTRA:          -5.688
REMARK INTER:                  -5.372
REMARK INTRA:                  -0.316
REMARK UNBOUND:                -0.678
REMARK SMILES C=CCCCCCCC(=O)[O-]
REMARK SMILES IDX 6 1 7 2 8 3 9 4 10 5 11 6 5 7 4 8 3 9 2 10 1 11
REMARK H PARENT
REMARK Flexibility Score: inf
ROOT
ATOM      1  C   UNL     1     -11.055  -6.160  12.402  1.00  0.00     0.000 C 
ENDROOT
BRANCH   1   2
ATOM      2  C   UNL     1      -9.830  -6.071  11.474  1.00  0.00     0.006 C 
BRANCH   2   3
ATOM      3  C   UNL     1      -8.739  -7.114  11.762  1.00  0.00     0.053 C 
BRANCH   3   4
ATOM      4  C   UNL     1      -8.222  -7.747  10.506  1.00  0.00     0.041 C 
ATOM      5  O   UNL     1      -8.104  -7.064   9.455  1.00  0.00    -0.550 OA
ATOM      6  O   UNL     1      -7.901  -9.097  10.489  1.00  0.00    -0.550 OA
ENDBRANCH   3   4
ENDBRANCH   2   3
ENDBRANCH   1   2
BRANCH   1   7
ATOM      7  C   UNL     1     -12.238  -5.313  11.910  1.00  0.00     0.000 C 
BRANCH   7   8
ATOM      8  C   UNL     1     -13.099  -4.837  13.086  1.00  0.00     0.004 C 
BRANCH   8   9
ATOM      9  C   UNL     1     -12.647  -5.489  14.398  1.00  0.00     0.027 C 
BRANCH   9  10
ATOM     10  C   UNL     1     -12.436  -4.459  15.474  1.00  0.00    -0.035 C 
ATOM     11  C   UNL     1     -13.125  -3.315  15.498  1.00  0.00     0.004 C 
ENDBRANCH   9  10
ENDBRANCH   8   9
ENDBRANCH   7   8
ENDBRANCH   1   7
TORSDOF 7
ENDMDL
MODEL 4
REMARK VINA RESULT:    -3.543      2.747      4.693
REMARK INTER + INTRA:          -5.671
REMARK INTER:                  -5.254
REMARK INTRA:                  -0.417
REMARK UNBOUND:                -0.678
REMARK SMILES C=CCCCCCCC(=O)[O-]
REMARK SMILES IDX 6 1 7 2 8 3 9 4 10 5 11 6 5 7 4 8 3 9 2 10 1 11
REMARK H PARENT
REMARK Flexibility Score: inf
ROOT
ATOM      1  C   UNL     1      -2.944   3.531  16.505  1.00  0.00     0.000 C 
ENDROOT
BRANCH   1   2
ATOM      2  C   UNL     1      -2.131   3.555  17.813  1.00  0.00     0.006 C 
BRANCH   2   3
ATOM      3  C   UNL     1      -0.904   4.481  17.779  1.00  0.00     0.053 C 
BRANCH   3   4
ATOM      4  C   UNL     1       0.345   3.743  17.405  1.00  0.00     0.041 C 
ATOM      5  O   UNL     1       0.519   2.557  17.789  1.00  0.00    -0.550 OA
ATOM      6  O   UNL     1       1.331   4.376  16.660  1.00  0.00    -0.550 OA
ENDBRANCH   3   4
ENDBRANCH   2   3
ENDBRANCH   1   2
BRANCH   1   7
ATOM      7  C   UNL     1      -2.658   4.741  15.604  1.00  0.00     0.000 C 
BRANCH   7   8
ATOM      8  C   UNL     1      -2.459   4.306  14.148  1.00  0.00     0.004 C 
BRANCH   8   9
ATOM      9  C   UNL     1      -2.851   2.836  13.954  1.00  0.00     0.027 C 
BRANCH   9  10
ATOM     10  C   UNL     1      -1.728   2.049  13.337  1.00  0.00    -0.035 C 
ATOM     11  C   UNL     1      -1.583   1.947  12.013  1.00  0.00     0.004 C 
ENDBRANCH   9  10
ENDBRANCH   8   9
ENDBRANCH   7   8
ENDBRANCH   1   7
TORSDOF 7
ENDMDL
MODEL 5
REMARK VINA RESULT:    -3.489      3.211      4.827
REMARK INTER + INTRA:          -5.596
REMARK INTER:                  -5.013
REMARK INTRA:                  -0.582
REMARK UNBOUND:                -0.678
REMARK SMILES C=CCCCCCCC(=O)[O-]
REMARK SMILES IDX 6 1 7 2 8 3 9 4 10 5 11 6 5 7 4 8 3 9 2 10 1 11
REMARK H PARENT
REMARK Flexibility Score: inf
ROOT
ATOM      1  C   UNL     1      -1.409   3.905  17.610  1.00  0.00     0.000 C 
ENDROOT
BRANCH   1   2
ATOM      2  C   UNL     1      -0.158   4.352  16.832  1.00  0.00     0.006 C 
BRANCH   2   3
ATOM      3  C   UNL     1       0.836   3.221  16.525  1.00  0.00     0.053 C 
BRANCH   3   4
ATOM      4  C   UNL     1       1.380   2.597  17.774  1.00  0.00     0.041 C 
ATOM      5  O   UNL     1       1.007   1.446  18.120  1.00  0.00    -0.550 OA
ATOM      6  O   UNL     1       2.272   3.300  18.572  1.00  0.00    -0.550 OA
ENDBRANCH   3   4
ENDBRANCH   2   3
ENDBRANCH   1   2
BRANCH   1   7
ATOM      7  C   UNL     1      -2.690   3.966  16.765  1.00  0.00     0.000 C 
BRANCH   7   8
ATOM      8  C   UNL     1      -2.586   3.044  15.545  1.00  0.00     0.004 C 
BRANCH   8   9
ATOM      9  C   UNL     1      -2.830   3.821  14.245  1.00  0.00     0.027 C 
BRANCH   9  10
ATOM     10  C   UNL     1      -2.942   5.298  14.506  1.00  0.00    -0.035 C 
ATOM     11  C   UNL     1      -2.182   6.187  13.860  1.00  0.00     0.004 C 
ENDBRANCH   9  10
ENDBRANCH   8   9
ENDBRANCH   7   8
ENDBRANCH   1   7
TORSDOF 7
ENDMDL
MODEL 6
REMARK VINA RESULT:    -3.488     13.962     14.898
REMARK INTER + INTRA:          -5.594
REMARK INTER:                  -5.196
REMARK INTRA:                  -0.397
REMARK UNBOUND:                -0.678
REMARK SMILES C=CCCCCCCC(=O)[O-]
REMARK SMILES IDX 6 1 7 2 8 3 9 4 10 5 11 6 5 7 4 8 3 9 2 10 1 11
REMARK H PARENT
REMARK Flexibility Score: inf
ROOT
ATOM      1  C   UNL     1     -12.368  -7.312  15.319  1.00  0.00     0.000 C 
ENDROOT
BRANCH   1   2
ATOM      2  C   UNL     1     -11.482  -8.369  16.003  1.00  0.00     0.006 C 
BRANCH   2   3
ATOM      3  C   UNL     1     -10.546  -7.808  17.085  1.00  0.00     0.053 C 
BRANCH   3   4
ATOM      4  C   UNL     1     -11.250  -7.616  18.393  1.00  0.00     0.041 C 
ATOM      5  O   UNL     1     -11.884  -8.570  18.916  1.00  0.00    -0.550 OA
ATOM      6  O   UNL     1     -11.234  -6.376  19.017  1.00  0.00    -0.550 OA
ENDBRANCH   3   4
ENDBRANCH   2   3
ENDBRANCH   1   2
BRANCH   1   7
ATOM      7  C   UNL     1     -11.587  -6.053  14.914  1.00  0.00     0.000 C 
BRANCH   7   8
ATOM      8  C   UNL     1     -12.400  -5.192  13.940  1.00  0.00     0.004 C 
BRANCH   8   9
ATOM      9  C   UNL     1     -11.980  -5.457  12.489  1.00  0.00     0.027 C 
BRANCH   9  10
ATOM     10  C   UNL     1     -10.645  -6.146  12.425  1.00  0.00    -0.035 C 
ATOM     11  C   UNL     1     -10.095  -6.509  11.263  1.00  0.00     0.004 C 
ENDBRANCH   9  10
ENDBRANCH   8   9
ENDBRANCH   7   8
ENDBRANCH   1   7
TORSDOF 7
ENDMDL
MODEL 7
REMARK VINA RESULT:    -3.444     12.579     13.595
REMARK INTER + INTRA:          -5.531
REMARK INTER:                  -5.037
REMARK INTRA:                  -0.494
REMARK UNBOUND:                -0.678
REMARK SMILES C=CCCCCCCC(=O)[O-]
REMARK SMILES IDX 6 1 7 2 8 3 9 4 10 5 11 6 5 7 4 8 3 9 2 10 1 11
REMARK H PARENT
REMARK Flexibility Score: inf
ROOT
ATOM      1  C   UNL     1     -11.717  -5.420  12.233  1.00  0.00     0.000 C 
ENDROOT
BRANCH   1   2
ATOM      2  C   UNL     1     -10.487  -6.345  12.200  1.00  0.00     0.006 C 
BRANCH   2   3
ATOM      3  C   UNL     1      -9.931  -6.610  10.791  1.00  0.00     0.053 C 
BRANCH   3   4
ATOM      4  C   UNL     1      -8.622  -5.917  10.566  1.00  0.00     0.041 C 
ATOM      5  O   UNL     1      -8.491  -4.700  10.859  1.00  0.00    -0.550 OA
ATOM      6  O   UNL     1      -7.557  -6.607  10.001  1.00  0.00    -0.550 OA
ENDBRANCH   3   4
ENDBRANCH   2   3
ENDBRANCH   1   2
BRANCH   1   7
ATOM      7  C   UNL     1     -12.381  -5.362  13.617  1.00  0.00     0.000 C 
BRANCH   7   8
ATOM      8  C   UNL     1     -11.498  -6.030  14.677  1.00  0.00     0.004 C 
BRANCH   8   9
ATOM      9  C   UNL     1     -12.251  -7.163  15.386  1.00  0.00     0.027 C 
BRANCH   9  10
ATOM     10  C   UNL     1     -11.327  -8.297  15.734  1.00  0.00    -0.035 C 
ATOM     11  C   UNL     1     -10.066  -8.339  15.293  1.00  0.00     0.004 C 
ENDBRANCH   9  10
ENDBRANCH   8   9
ENDBRANCH   7   8
ENDBRANCH   1   7
TORSDOF 7
ENDMDL
MODEL 8
REMARK VINA RESULT:    -3.370      1.010      1.492
REMARK INTER + INTRA:          -5.428
REMARK INTER:                  -4.869
REMARK INTRA:                  -0.559
REMARK UNBOUND:                -0.678
REMARK SMILES C=CCCCCCCC(=O)[O-]
REMARK SMILES IDX 6 1 7 2 8 3 9 4 10 5 11 6 5 7 4 8 3 9 2 10 1 11
REMARK H PARENT
REMARK Flexibility Score: inf
ROOT
ATOM      1  C   UNL     1      -2.531   3.969  14.266  1.00  0.00     0.000 C 
ENDROOT
BRANCH   1   2
ATOM      2  C   UNL     1      -1.703   2.671  14.247  1.00  0.00     0.006 C 
BRANCH   2   3
ATOM      3  C   UNL     1      -1.879   1.825  12.976  1.00  0.00     0.053 C 
BRANCH   3   4
ATOM      4  C   UNL     1      -3.278   1.305  12.838  1.00  0.00     0.041 C 
ATOM      5  O   UNL     1      -3.886   1.412  11.741  1.00  0.00    -0.550 OA
ATOM      6  O   UNL     1      -3.919   0.733  13.928  1.00  0.00    -0.550 OA
ENDBRANCH   3   4
ENDBRANCH   2   3
ENDBRANCH   1   2
BRANCH   1   7
ATOM      7  C   UNL     1      -2.408   4.735  15.592  1.00  0.00     0.000 C 
BRANCH   7   8
ATOM      8  C   UNL     1      -2.100   3.779  16.750  1.00  0.00     0.004 C 
BRANCH   8   9
ATOM      9  C   UNL     1      -1.051   4.379  17.695  1.00  0.00     0.027 C 
BRANCH   9  10
ATOM     10  C   UNL     1       0.343   4.128  17.190  1.00  0.00    -0.035 C 
ATOM     11  C   UNL     1       0.861   2.897  17.137  1.00  0.00     0.004 C 
ENDBRANCH   9  10
ENDBRANCH   8   9
ENDBRANCH   7   8
ENDBRANCH   1   7
TORSDOF 7
ENDMDL
MODEL 9
REMARK VINA RESULT:    -3.351      1.977      3.114
REMARK INTER + INTRA:          -5.401
REMARK INTER:                  -4.661
REMARK INTRA:                  -0.740
REMARK UNBOUND:                -0.678
REMARK SMILES C=CCCCCCCC(=O)[O-]
REMARK SMILES IDX 6 1 7 2 8 3 9 4 10 5 11 6 5 7 4 8 3 9 2 10 1 11
REMARK H PARENT
REMARK Flexibility Score: inf
ROOT
ATOM      1  C   UNL     1      -0.764   4.398  17.874  1.00  0.00     0.000 C 
ENDROOT
BRANCH   1   2
ATOM      2  C   UNL     1      -1.933   3.954  16.975  1.00  0.00     0.006 C 
BRANCH   2   3
ATOM      3  C   UNL     1      -1.554   3.741  15.501  1.00  0.00     0.053 C 
BRANCH   3   4
ATOM      4  C   UNL     1      -2.638   4.194  14.571  1.00  0.00     0.041 C 
ATOM      5  O   UNL     1      -2.827   5.423  14.371  1.00  0.00    -0.550 OA
ATOM      6  O   UNL     1      -3.459   3.262  13.952  1.00  0.00    -0.550 OA
ENDBRANCH   3   4
ENDBRANCH   2   3
ENDBRANCH   1   2
BRANCH   1   7
ATOM      7  C   UNL     1       0.587   4.379  17.145  1.00  0.00     0.000 C 
BRANCH   7   8
ATOM      8  C   UNL     1       1.493   3.272  17.696  1.00  0.00     0.004 C 
BRANCH   8   9
ATOM      9  C   UNL     1       1.608   2.110  16.701  1.00  0.00     0.027 C 
BRANCH   9  10
ATOM     10  C   UNL     1       0.748   0.949  17.119  1.00  0.00    -0.035 C 
ATOM     11  C   UNL     1       0.286   0.827  18.367  1.00  0.00     0.004 C 
ENDBRANCH   9  10
ENDBRANCH   8   9
ENDBRANCH   7   8
ENDBRANCH   1   7
TORSDOF 7
ENDMDL
