MODEL 1
REMARK VINA RESULT:    -3.848      0.000      0.000
REMARK INTER + INTRA:         -11.285
REMARK INTER:                  -8.346
REMARK INTRA:                  -2.938
REMARK UNBOUND:                -2.938
REMARK SMILES CCCCCCCCCCCCCCCCCCCCCC(=O)[O-]
REMARK SMILES IDX 12 1 11 2 10 3 9 4 8 5 7 6 6 7 5 8 4 9 3 10 2 11 1 12 13 13
REMARK SMILES IDX 14 14 15 15 16 16 17 17 18 18 19 19 20 20 21 21 22 22 23 23
REMARK SMILES IDX 24 24
REMARK H PARENT
REMARK Flexibility Score: inf
ROOT
ATOM      1  C   UNL     1     -21.505  31.735  21.774  1.00  0.00     0.000 C 
ENDROOT
BRANCH   1   2
ATOM      2  C   UNL     1     -20.996  32.027  23.194  1.00  0.00     0.000 C 
BRANCH   2   3
ATOM      3  C   UNL     1     -19.658  32.786  23.198  1.00  0.00     0.000 C 
BRANCH   3   4
ATOM      4  C   UNL     1     -18.524  31.984  23.858  1.00  0.00    -0.000 C 
BRANCH   4   5
ATOM      5  C   UNL     1     -18.798  30.471  23.869  1.00  0.00    -0.000 C 
BRANCH   5   6
ATOM      6  C   UNL     1     -17.573  29.647  23.445  1.00  0.00    -0.000 C 
BRANCH   6   7
ATOM      7  C   UNL     1     -17.926  28.687  22.301  1.00  0.00    -0.000 C 
BRANCH   7   8
ATOM      8  C   UNL     1     -18.865  29.362  21.289  1.00  0.00    -0.000 C 
BRANCH   8   9
ATOM      9  C   UNL     1     -19.781  28.359  20.570  1.00  0.00    -0.000 C 
BRANCH   9  10
ATOM     10  C   UNL     1     -20.400  28.939  19.287  1.00  0.00    -0.000 C 
BRANCH  10  11
ATOM     11  C   UNL     1     -21.902  28.638  19.170  1.00  0.00    -0.003 C 
ATOM     12  C   UNL     1     -22.425  27.779  20.322  1.00  0.00     0.004 C 
ENDBRANCH  10  11
ENDBRANCH   9  10
ENDBRANCH   8   9
ENDBRANCH   7   8
ENDBRANCH   6   7
ENDBRANCH   5   6
ENDBRANCH   4   5
ENDBRANCH   3   4
ENDBRANCH   2   3
ENDBRANCH   1   2
BRANCH   1  13
ATOM     13  C   UNL     1     -22.896  31.083  21.813  1.00  0.00     0.000 C 
BRANCH  13  14
ATOM     14  C   UNL     1     -24.037  32.111  21.738  1.00  0.00     0.000 C 
BRANCH  14  15
ATOM     15  C   UNL     1     -24.091  32.838  20.382  1.00  0.00     0.000 C 
BRANCH  15  16
ATOM     16  C   UNL     1     -23.790  34.344  20.498  1.00  0.00     0.000 C 
BRANCH  16  17
ATOM     17  C   UNL     1     -22.412  34.779  19.966  1.00  0.00     0.000 C 
BRANCH  17  18
ATOM     18  C   UNL     1     -21.480  35.301  21.071  1.00  0.00     0.000 C 
BRANCH  18  19
ATOM     19  C   UNL     1     -22.260  35.556  22.370  1.00  0.00     0.000 C 
BRANCH  19  20
ATOM     20  C   UNL     1     -22.270  37.041  22.777  1.00  0.00     0.006 C 
BRANCH  20  21
ATOM     21  C   UNL     1     -23.089  37.947  21.844  1.00  0.00     0.053 C 
BRANCH  21  22
ATOM     22  C   UNL     1     -22.430  39.275  21.633  1.00  0.00     0.041 C 
ATOM     23  O   UNL     1     -21.632  39.730  22.494  1.00  0.00    -0.550 OA
ATOM     24  O   UNL     1     -22.668  39.991  20.468  1.00  0.00    -0.550 OA
ENDBRANCH  21  22
ENDBRANCH  20  21
ENDBRANCH  19  20
ENDBRANCH  18  19
ENDBRANCH  17  18
ENDBRANCH  16  17
ENDBRANCH  15  16
ENDBRANCH  14  15
ENDBRANCH  13  14
ENDBRANCH   1  13
TORSDOF 20
ENDMDL
MODEL 2
REMARK VINA RESULT:    -3.641      4.892      8.822
REMARK INTER + INTRA:         -10.837
REMARK INTER:                  -7.111
REMARK INTRA:                  -3.726
REMARK UNBOUND:                -2.938
REMARK SMILES CCCCCCCCCCCCCCCCCCCCCC(=O)[O-]
REMARK SMILES IDX 12 1 11 2 10 3 9 4 8 5 7 6 6 7 5 8 4 9 3 10 2 11 1 12 13 13
REMARK SMILES IDX 14 14 15 15 16 16 17 17 18 18 19 19 20 20 21 21 22 22 23 23
REMARK SMILES IDX 24 24
REMARK H PARENT
REMARK Flexibility Score: inf
ROOT
ATOM      1  C   UNL     1     -19.502  29.475  21.455  1.00  0.00     0.000 C 
ENDROOT
BRANCH   1   2
ATOM      2  C   UNL     1     -20.296  30.366  22.422  1.00  0.00     0.000 C 
BRANCH   2   3
ATOM      3  C   UNL     1     -21.244  31.333  21.694  1.00  0.00     0.000 C 
BRANCH   3   4
ATOM      4  C   UNL     1     -22.574  31.533  22.441  1.00  0.00    -0.000 C 
BRANCH   4   5
ATOM      5  C   UNL     1     -23.797  31.360  21.527  1.00  0.00    -0.000 C 
BRANCH   5   6
ATOM      6  C   UNL     1     -23.713  32.225  20.260  1.00  0.00    -0.000 C 
BRANCH   6   7
ATOM      7  C   UNL     1     -23.829  33.716  20.604  1.00  0.00    -0.000 C 
BRANCH   7   8
ATOM      8  C   UNL     1     -22.646  34.507  20.025  1.00  0.00    -0.000 C 
BRANCH   8   9
ATOM      9  C   UNL     1     -22.075  35.533  21.016  1.00  0.00    -0.000 C 
BRANCH   9  10
ATOM     10  C   UNL     1     -22.831  35.545  22.355  1.00  0.00    -0.000 C 
BRANCH  10  11
ATOM     11  C   UNL     1     -21.893  35.725  23.559  1.00  0.00    -0.003 C 
ATOM     12  C   UNL     1     -21.069  34.473  23.860  1.00  0.00     0.004 C 
ENDBRANCH  10  11
ENDBRANCH   9  10
ENDBRANCH   8   9
ENDBRANCH   7   8
ENDBRANCH   6   7
ENDBRANCH   5   6
ENDBRANCH   4   5
ENDBRANCH   3   4
ENDBRANCH   2   3
ENDBRANCH   1   2
BRANCH   1  13
ATOM     13  C   UNL     1     -19.807  29.842  19.995  1.00  0.00     0.000 C 
BRANCH  13  14
ATOM     14  C   UNL     1     -20.453  28.686  19.212  1.00  0.00     0.000 C 
BRANCH  14  15
ATOM     15  C   UNL     1     -21.986  28.804  19.142  1.00  0.00     0.000 C 
BRANCH  15  16
ATOM     16  C   UNL     1     -22.708  27.624  19.821  1.00  0.00     0.000 C 
BRANCH  16  17
ATOM     17  C   UNL     1     -23.130  27.868  21.281  1.00  0.00     0.000 C 
BRANCH  17  18
ATOM     18  C   UNL     1     -22.221  27.157  22.295  1.00  0.00     0.000 C 
BRANCH  18  19
ATOM     19  C   UNL     1     -21.614  25.883  21.687  1.00  0.00     0.000 C 
BRANCH  19  20
ATOM     20  C   UNL     1     -20.088  25.802  21.873  1.00  0.00     0.006 C 
BRANCH  20  21
ATOM     21  C   UNL     1     -19.307  25.511  20.582  1.00  0.00     0.053 C 
BRANCH  21  22
ATOM     22  C   UNL     1     -18.087  24.683  20.840  1.00  0.00     0.041 C 
ATOM     23  O   UNL     1     -18.027  23.496  20.427  1.00  0.00    -0.550 OA
ATOM     24  O   UNL     1     -16.999  25.238  21.504  1.00  0.00    -0.550 OA
ENDBRANCH  21  22
ENDBRANCH  20  21
ENDBRANCH  19  20
ENDBRANCH  18  19
ENDBRANCH  17  18
ENDBRANCH  16  17
ENDBRANCH  15  16
ENDBRANCH  14  15
ENDBRANCH  13  14
ENDBRANCH   1  13
TORSDOF 20
ENDMDL
MODEL 3
REMARK VINA RESULT:    -3.592      1.641      2.461
REMARK INTER + INTRA:         -10.730
REMARK INTER:                  -8.786
REMARK INTRA:                  -1.944
REMARK UNBOUND:                -2.938
REMARK SMILES CCCCCCCCCCCCCCCCCCCCCC(=O)[O-]
REMARK SMILES IDX 12 1 11 2 10 3 9 4 8 5 7 6 6 7 5 8 4 9 3 10 2 11 1 12 13 13
REMARK SMILES IDX 14 14 15 15 16 16 17 17 18 18 19 19 20 20 21 21 22 22 23 23
REMARK SMILES IDX 24 24
REMARK H PARENT
REMARK Flexibility Score: inf
ROOT
ATOM      1  C   UNL     1     -21.719  32.306  21.485  1.00  0.00     0.000 C 
ENDROOT
BRANCH   1   2
ATOM      2  C   UNL     1     -21.289  32.166  22.954  1.00  0.00     0.000 C 
BRANCH   2   3
ATOM      3  C   UNL     1     -20.058  33.024  23.294  1.00  0.00     0.000 C 
BRANCH   3   4
ATOM      4  C   UNL     1     -18.841  32.177  23.703  1.00  0.00    -0.000 C 
BRANCH   4   5
ATOM      5  C   UNL     1     -19.104  30.667  23.583  1.00  0.00    -0.000 C 
BRANCH   5   6
ATOM      6  C   UNL     1     -17.872  29.892  23.091  1.00  0.00    -0.000 C 
BRANCH   6   7
ATOM      7  C   UNL     1     -18.277  28.772  22.124  1.00  0.00    -0.000 C 
BRANCH   7   8
ATOM      8  C   UNL     1     -19.678  29.026  21.547  1.00  0.00    -0.000 C 
BRANCH   8   9
ATOM      9  C   UNL     1     -19.639  29.688  20.161  1.00  0.00    -0.000 C 
BRANCH   9  10
ATOM     10  C   UNL     1     -20.366  28.858  19.090  1.00  0.00    -0.000 C 
BRANCH  10  11
ATOM     11  C   UNL     1     -21.691  28.271  19.599  1.00  0.00    -0.003 C 
ATOM     12  C   UNL     1     -22.788  29.325  19.747  1.00  0.00     0.004 C 
ENDBRANCH  10  11
ENDBRANCH   9  10
ENDBRANCH   8   9
ENDBRANCH   7   8
ENDBRANCH   6   7
ENDBRANCH   5   6
ENDBRANCH   4   5
ENDBRANCH   3   4
ENDBRANCH   2   3
ENDBRANCH   1   2
BRANCH   1  13
ATOM     13  C   UNL     1     -23.055  33.056  21.374  1.00  0.00     0.000 C 
BRANCH  13  14
ATOM     14  C   UNL     1     -23.001  34.223  20.373  1.00  0.00     0.000 C 
BRANCH  14  15
ATOM     15  C   UNL     1     -21.897  35.240  20.710  1.00  0.00     0.000 C 
BRANCH  15  16
ATOM     16  C   UNL     1     -22.216  36.078  21.963  1.00  0.00     0.000 C 
BRANCH  16  17
ATOM     17  C   UNL     1     -22.735  37.500  21.684  1.00  0.00     0.000 C 
BRANCH  17  18
ATOM     18  C   UNL     1     -22.818  38.367  22.950  1.00  0.00     0.000 C 
BRANCH  18  19
ATOM     19  C   UNL     1     -21.486  39.087  23.209  1.00  0.00     0.000 C 
BRANCH  19  20
ATOM     20  C   UNL     1     -21.443  40.499  22.597  1.00  0.00     0.006 C 
BRANCH  20  21
ATOM     21  C   UNL     1     -20.036  41.113  22.520  1.00  0.00     0.053 C 
BRANCH  21  22
ATOM     22  C   UNL     1     -19.663  41.481  21.117  1.00  0.00     0.041 C 
ATOM     23  O   UNL     1     -18.561  42.041  20.881  1.00  0.00    -0.550 OA
ATOM     24  O   UNL     1     -20.516  41.170  20.067  1.00  0.00    -0.550 OA
ENDBRANCH  21  22
ENDBRANCH  20  21
ENDBRANCH  19  20
ENDBRANCH  18  19
ENDBRANCH  17  18
ENDBRANCH  16  17
ENDBRANCH  15  16
ENDBRANCH  14  15
ENDBRANCH  13  14
ENDBRANCH   1  13
TORSDOF 20
ENDMDL
MODEL 4
REMARK VINA RESULT:    -3.560      2.858      4.987
REMARK INTER + INTRA:         -10.661
REMARK INTER:                  -7.363
REMARK INTRA:                  -3.297
REMARK UNBOUND:                -2.938
REMARK SMILES CCCCCCCCCCCCCCCCCCCCCC(=O)[O-]
REMARK SMILES IDX 12 1 11 2 10 3 9 4 8 5 7 6 6 7 5 8 4 9 3 10 2 11 1 12 13 13
REMARK SMILES IDX 14 14 15 15 16 16 17 17 18 18 19 19 20 20 21 21 22 22 23 23
REMARK SMILES IDX 24 24
REMARK H PARENT
REMARK Flexibility Score: inf
ROOT
ATOM      1  C   UNL     1     -20.341  28.884  19.235  1.00  0.00     0.000 C 
ENDROOT
BRANCH   1   2
ATOM      2  C   UNL     1     -21.850  28.699  19.462  1.00  0.00     0.000 C 
BRANCH   2   3
ATOM      3  C   UNL     1     -22.410  29.658  20.525  1.00  0.00     0.000 C 
BRANCH   3   4
ATOM      4  C   UNL     1     -23.002  28.918  21.737  1.00  0.00    -0.000 C 
BRANCH   4   5
ATOM      5  C   UNL     1     -22.567  27.445  21.800  1.00  0.00    -0.000 C 
BRANCH   5   6
ATOM      6  C   UNL     1     -21.581  27.171  22.947  1.00  0.00    -0.000 C 
BRANCH   6   7
ATOM      7  C   UNL     1     -20.576  26.079  22.558  1.00  0.00    -0.000 C 
BRANCH   7   8
ATOM      8  C   UNL     1     -20.861  25.550  21.144  1.00  0.00    -0.000 C 
BRANCH   8   9
ATOM      9  C   UNL     1     -19.584  25.381  20.305  1.00  0.00    -0.000 C 
BRANCH   9  10
ATOM     10  C   UNL     1     -18.315  25.299  21.170  1.00  0.00    -0.000 C 
BRANCH  10  11
ATOM     11  C   UNL     1     -17.362  24.185  20.712  1.00  0.00    -0.003 C 
ATOM     12  C   UNL     1     -17.895  23.406  19.510  1.00  0.00     0.004 C 
ENDBRANCH  10  11
ENDBRANCH   9  10
ENDBRANCH   8   9
ENDBRANCH   7   8
ENDBRANCH   6   7
ENDBRANCH   5   6
ENDBRANCH   4   5
ENDBRANCH   3   4
ENDBRANCH   2   3
ENDBRANCH   1   2
BRANCH   1  13
ATOM     13  C   UNL     1     -19.722  29.750  20.342  1.00  0.00     0.000 C 
BRANCH  13  14
ATOM     14  C   UNL     1     -18.813  28.947  21.288  1.00  0.00     0.000 C 
BRANCH  14  15
ATOM     15  C   UNL     1     -18.678  29.601  22.675  1.00  0.00     0.000 C 
BRANCH  15  16
ATOM     16  C   UNL     1     -19.811  30.599  22.979  1.00  0.00     0.000 C 
BRANCH  16  17
ATOM     17  C   UNL     1     -19.349  32.008  23.393  1.00  0.00     0.000 C 
BRANCH  17  18
ATOM     18  C   UNL     1     -20.517  32.963  23.678  1.00  0.00     0.000 C 
BRANCH  18  19
ATOM     19  C   UNL     1     -20.980  33.663  22.390  1.00  0.00     0.000 C 
BRANCH  19  20
ATOM     20  C   UNL     1     -21.896  34.869  22.663  1.00  0.00     0.006 C 
BRANCH  20  21
ATOM     21  C   UNL     1     -23.247  34.816  21.931  1.00  0.00     0.053 C 
BRANCH  21  22
ATOM     22  C   UNL     1     -23.117  34.228  20.560  1.00  0.00     0.041 C 
ATOM     23  O   UNL     1     -23.705  33.153  20.273  1.00  0.00    -0.550 OA
ATOM     24  O   UNL     1     -22.379  34.890  19.587  1.00  0.00    -0.550 OA
ENDBRANCH  21  22
ENDBRANCH  20  21
ENDBRANCH  19  20
ENDBRANCH  18  19
ENDBRANCH  17  18
ENDBRANCH  16  17
ENDBRANCH  15  16
ENDBRANCH  14  15
ENDBRANCH  13  14
ENDBRANCH   1  13
TORSDOF 20
ENDMDL
MODEL 5
REMARK VINA RESULT:    -3.529      5.236      8.582
REMARK INTER + INTRA:         -10.593
REMARK INTER:                  -6.982
REMARK INTRA:                  -3.611
REMARK UNBOUND:                -2.938
REMARK SMILES CCCCCCCCCCCCCCCCCCCCCC(=O)[O-]
REMARK SMILES IDX 12 1 11 2 10 3 9 4 8 5 7 6 6 7 5 8 4 9 3 10 2 11 1 12 13 13
REMARK SMILES IDX 14 14 15 15 16 16 17 17 18 18 19 19 20 20 21 21 22 22 23 23
REMARK SMILES IDX 24 24
REMARK H PARENT
REMARK Flexibility Score: inf
ROOT
ATOM      1  C   UNL     1     -20.374  28.742  19.327  1.00  0.00     0.000 C 
ENDROOT
BRANCH   1   2
ATOM      2  C   UNL     1     -19.667  29.621  20.370  1.00  0.00     0.000 C 
BRANCH   2   3
ATOM      3  C   UNL     1     -18.837  28.801  21.371  1.00  0.00     0.000 C 
BRANCH   3   4
ATOM      4  C   UNL     1     -18.710  29.489  22.740  1.00  0.00    -0.000 C 
BRANCH   4   5
ATOM      5  C   UNL     1     -19.714  30.639  22.919  1.00  0.00    -0.000 C 
BRANCH   5   6
ATOM      6  C   UNL     1     -19.058  31.914  23.470  1.00  0.00    -0.000 C 
BRANCH   6   7
ATOM      7  C   UNL     1     -20.018  33.108  23.384  1.00  0.00    -0.000 C 
BRANCH   7   8
ATOM      8  C   UNL     1     -21.322  32.713  22.675  1.00  0.00    -0.000 C 
BRANCH   8   9
ATOM      9  C   UNL     1     -22.378  33.829  22.710  1.00  0.00    -0.000 C 
BRANCH   9  10
ATOM     10  C   UNL     1     -21.773  35.223  22.476  1.00  0.00    -0.000 C 
BRANCH  10  11
ATOM     11  C   UNL     1     -22.260  35.864  21.168  1.00  0.00    -0.003 C 
ATOM     12  C   UNL     1     -22.282  34.879  19.998  1.00  0.00     0.004 C 
ENDBRANCH  10  11
ENDBRANCH   9  10
ENDBRANCH   8   9
ENDBRANCH   7   8
ENDBRANCH   6   7
ENDBRANCH   5   6
ENDBRANCH   4   5
ENDBRANCH   3   4
ENDBRANCH   2   3
ENDBRANCH   1   2
BRANCH   1  13
ATOM     13  C   UNL     1     -21.887  28.688  19.589  1.00  0.00     0.000 C 
BRANCH  13  14
ATOM     14  C   UNL     1     -22.392  29.889  20.406  1.00  0.00     0.000 C 
BRANCH  14  15
ATOM     15  C   UNL     1     -23.142  29.462  21.681  1.00  0.00     0.000 C 
BRANCH  15  16
ATOM     16  C   UNL     1     -22.880  27.994  22.067  1.00  0.00     0.000 C 
BRANCH  16  17
ATOM     17  C   UNL     1     -22.032  27.793  23.336  1.00  0.00     0.000 C 
BRANCH  17  18
ATOM     18  C   UNL     1     -21.072  26.598  23.232  1.00  0.00     0.000 C 
BRANCH  18  19
ATOM     19  C   UNL     1     -21.266  25.853  21.902  1.00  0.00     0.000 C 
BRANCH  19  20
ATOM     20  C   UNL     1     -20.019  25.056  21.478  1.00  0.00     0.006 C 
BRANCH  20  21
ATOM     21  C   UNL     1     -19.612  25.251  20.009  1.00  0.00     0.053 C 
BRANCH  21  22
ATOM     22  C   UNL     1     -19.694  23.974  19.231  1.00  0.00     0.041 C 
ATOM     23  O   UNL     1     -19.859  22.878  19.828  1.00  0.00    -0.550 OA
ATOM     24  O   UNL     1     -19.628  24.001  17.844  1.00  0.00    -0.550 OA
ENDBRANCH  21  22
ENDBRANCH  20  21
ENDBRANCH  19  20
ENDBRANCH  18  19
ENDBRANCH  17  18
ENDBRANCH  16  17
ENDBRANCH  15  16
ENDBRANCH  14  15
ENDBRANCH  13  14
ENDBRANCH   1  13
TORSDOF 20
ENDMDL
MODEL 6
REMARK VINA RESULT:    -3.527      5.249      9.098
REMARK INTER + INTRA:         -10.589
REMARK INTER:                  -6.659
REMARK INTRA:                  -3.930
REMARK UNBOUND:                -2.938
REMARK SMILES CCCCCCCCCCCCCCCCCCCCCC(=O)[O-]
REMARK SMILES IDX 12 1 11 2 10 3 9 4 8 5 7 6 6 7 5 8 4 9 3 10 2 11 1 12 13 13
REMARK SMILES IDX 14 14 15 15 16 16 17 17 18 18 19 19 20 20 21 21 22 22 23 23
REMARK SMILES IDX 24 24
REMARK H PARENT
REMARK Flexibility Score: inf
ROOT
ATOM      1  C   UNL     1     -19.792  29.772  20.373  1.00  0.00     0.000 C 
ENDROOT
BRANCH   1   2
ATOM      2  C   UNL     1     -20.371  28.715  19.421  1.00  0.00     0.000 C 
BRANCH   2   3
ATOM      3  C   UNL     1     -21.851  28.410  19.704  1.00  0.00     0.000 C 
BRANCH   3   4
ATOM      4  C   UNL     1     -22.800  29.430  19.052  1.00  0.00    -0.000 C 
BRANCH   4   5
ATOM      5  C   UNL     1     -23.953  29.843  19.982  1.00  0.00    -0.000 C 
BRANCH   5   6
ATOM      6  C   UNL     1     -23.614  29.638  21.466  1.00  0.00    -0.000 C 
BRANCH   6   7
ATOM      7  C   UNL     1     -23.678  30.965  22.233  1.00  0.00    -0.000 C 
BRANCH   7   8
ATOM      8  C   UNL     1     -22.267  31.516  22.494  1.00  0.00    -0.000 C 
BRANCH   8   9
ATOM      9  C   UNL     1     -21.861  32.606  21.490  1.00  0.00    -0.000 C 
BRANCH   9  10
ATOM     10  C   UNL     1     -23.074  33.327  20.878  1.00  0.00    -0.000 C 
BRANCH  10  11
ATOM     11  C   UNL     1     -22.676  34.595  20.105  1.00  0.00    -0.003 C 
ATOM     12  C   UNL     1     -22.252  35.740  21.025  1.00  0.00     0.004 C 
ENDBRANCH  10  11
ENDBRANCH   9  10
ENDBRANCH   8   9
ENDBRANCH   7   8
ENDBRANCH   6   7
ENDBRANCH   5   6
ENDBRANCH   4   5
ENDBRANCH   3   4
ENDBRANCH   2   3
ENDBRANCH   1   2
BRANCH   1  13
ATOM     13  C   UNL     1     -18.778  29.144  21.341  1.00  0.00     0.000 C 
BRANCH  13  14
ATOM     14  C   UNL     1     -18.939  29.651  22.784  1.00  0.00     0.000 C 
BRANCH  14  15
ATOM     15  C   UNL     1     -19.459  28.561  23.739  1.00  0.00     0.000 C 
BRANCH  15  16
ATOM     16  C   UNL     1     -20.990  28.400  23.688  1.00  0.00     0.000 C 
BRANCH  16  17
ATOM     17  C   UNL     1     -21.489  27.059  23.119  1.00  0.00     0.000 C 
BRANCH  17  18
ATOM     18  C   UNL     1     -20.350  26.070  22.828  1.00  0.00     0.000 C 
BRANCH  18  19
ATOM     19  C   UNL     1     -20.538  25.405  21.456  1.00  0.00     0.000 C 
BRANCH  19  20
ATOM     20  C   UNL     1     -19.249  25.399  20.615  1.00  0.00     0.006 C 
BRANCH  20  21
ATOM     21  C   UNL     1     -17.960  25.581  21.431  1.00  0.00     0.053 C 
BRANCH  21  22
ATOM     22  C   UNL     1     -17.043  24.405  21.298  1.00  0.00     0.041 C 
ATOM     23  O   UNL     1     -16.204  24.150  22.201  1.00  0.00    -0.550 OA
ATOM     24  O   UNL     1     -17.142  23.567  20.195  1.00  0.00    -0.550 OA
ENDBRANCH  21  22
ENDBRANCH  20  21
ENDBRANCH  19  20
ENDBRANCH  18  19
ENDBRANCH  17  18
ENDBRANCH  16  17
ENDBRANCH  15  16
ENDBRANCH  14  15
ENDBRANCH  13  14
ENDBRANCH   1  13
TORSDOF 20
ENDMDL
MODEL 7
REMARK VINA RESULT:    -3.490      3.476      8.750
REMARK INTER + INTRA:         -10.510
REMARK INTER:                  -8.342
REMARK INTRA:                  -2.167
REMARK UNBOUND:                -2.938
REMARK SMILES CCCCCCCCCCCCCCCCCCCCCC(=O)[O-]
REMARK SMILES IDX 12 1 11 2 10 3 9 4 8 5 7 6 6 7 5 8 4 9 3 10 2 11 1 12 13 13
REMARK SMILES IDX 14 14 15 15 16 16 17 17 18 18 19 19 20 20 21 21 22 22 23 23
REMARK SMILES IDX 24 24
REMARK H PARENT
REMARK Flexibility Score: inf
ROOT
ATOM      1  C   UNL     1     -23.295  32.473  21.295  1.00  0.00     0.000 C 
ENDROOT
BRANCH   1   2
ATOM      2  C   UNL     1     -23.554  33.792  20.552  1.00  0.00     0.000 C 
BRANCH   2   3
ATOM      3  C   UNL     1     -22.258  34.465  20.070  1.00  0.00     0.000 C 
BRANCH   3   4
ATOM      4  C   UNL     1     -22.118  35.911  20.575  1.00  0.00    -0.000 C 
BRANCH   4   5
ATOM      5  C   UNL     1     -22.249  36.019  22.103  1.00  0.00    -0.000 C 
BRANCH   5   6
ATOM      6  C   UNL     1     -23.012  37.278  22.541  1.00  0.00    -0.000 C 
BRANCH   6   7
ATOM      7  C   UNL     1     -22.071  38.286  23.212  1.00  0.00    -0.000 C 
BRANCH   7   8
ATOM      8  C   UNL     1     -22.187  39.669  22.552  1.00  0.00    -0.000 C 
BRANCH   8   9
ATOM      9  C   UNL     1     -22.499  39.584  21.050  1.00  0.00    -0.000 C 
BRANCH   9  10
ATOM     10  C   UNL     1     -21.556  40.453  20.201  1.00  0.00    -0.000 C 
BRANCH  10  11
ATOM     11  C   UNL     1     -20.840  41.529  21.031  1.00  0.00    -0.003 C 
ATOM     12  C   UNL     1     -19.349  41.631  20.709  1.00  0.00     0.004 C 
ENDBRANCH  10  11
ENDBRANCH   9  10
ENDBRANCH   8   9
ENDBRANCH   7   8
ENDBRANCH   6   7
ENDBRANCH   5   6
ENDBRANCH   4   5
ENDBRANCH   3   4
ENDBRANCH   2   3
ENDBRANCH   1   2
BRANCH   1  13
ATOM     13  C   UNL     1     -21.793  32.272  21.549  1.00  0.00     0.000 C 
BRANCH  13  14
ATOM     14  C   UNL     1     -21.381  32.620  22.989  1.00  0.00     0.000 C 
BRANCH  14  15
ATOM     15  C   UNL     1     -19.862  32.511  23.212  1.00  0.00     0.000 C 
BRANCH  15  16
ATOM     16  C   UNL     1     -19.468  31.292  24.067  1.00  0.00     0.000 C 
BRANCH  16  17
ATOM     17  C   UNL     1     -18.467  30.326  23.408  1.00  0.00     0.000 C 
BRANCH  17  18
ATOM     18  C   UNL     1     -19.131  29.050  22.868  1.00  0.00     0.000 C 
BRANCH  18  19
ATOM     19  C   UNL     1     -18.759  28.820  21.395  1.00  0.00     0.000 C 
BRANCH  19  20
ATOM     20  C   UNL     1     -19.584  29.691  20.429  1.00  0.00     0.006 C 
BRANCH  20  21
ATOM     21  C   UNL     1     -20.489  28.895  19.475  1.00  0.00     0.053 C 
BRANCH  21  22
ATOM     22  C   UNL     1     -21.894  28.804  19.983  1.00  0.00     0.041 C 
ATOM     23  O   UNL     1     -22.134  28.251  21.088  1.00  0.00    -0.550 OA
ATOM     24  O   UNL     1     -22.934  29.365  19.254  1.00  0.00    -0.550 OA
ENDBRANCH  21  22
ENDBRANCH  20  21
ENDBRANCH  19  20
ENDBRANCH  18  19
ENDBRANCH  17  18
ENDBRANCH  16  17
ENDBRANCH  15  16
ENDBRANCH  14  15
ENDBRANCH  13  14
ENDBRANCH   1  13
TORSDOF 20
ENDMDL
MODEL 8
REMARK VINA RESULT:    -3.463      2.543      5.223
REMARK INTER + INTRA:         -10.451
REMARK INTER:                  -6.972
REMARK INTRA:                  -3.478
REMARK UNBOUND:                -2.938
REMARK SMILES CCCCCCCCCCCCCCCCCCCCCC(=O)[O-]
REMARK SMILES IDX 12 1 11 2 10 3 9 4 8 5 7 6 6 7 5 8 4 9 3 10 2 11 1 12 13 13
REMARK SMILES IDX 14 14 15 15 16 16 17 17 18 18 19 19 20 20 21 21 22 22 23 23
REMARK SMILES IDX 24 24
REMARK H PARENT
REMARK Flexibility Score: inf
ROOT
ATOM      1  C   UNL     1     -20.426  28.524  19.270  1.00  0.00     0.000 C 
ENDROOT
BRANCH   1   2
ATOM      2  C   UNL     1     -21.929  28.839  19.225  1.00  0.00     0.000 C 
BRANCH   2   3
ATOM      3  C   UNL     1     -22.781  27.753  19.903  1.00  0.00     0.000 C 
BRANCH   3   4
ATOM      4  C   UNL     1     -22.785  27.874  21.436  1.00  0.00    -0.000 C 
BRANCH   4   5
ATOM      5  C   UNL     1     -22.029  26.724  22.121  1.00  0.00    -0.000 C 
BRANCH   5   6
ATOM      6  C   UNL     1     -21.990  25.451  21.263  1.00  0.00    -0.000 C 
BRANCH   6   7
ATOM      7  C   UNL     1     -20.684  24.677  21.486  1.00  0.00    -0.000 C 
BRANCH   7   8
ATOM      8  C   UNL     1     -19.559  25.234  20.600  1.00  0.00    -0.000 C 
BRANCH   8   9
ATOM      9  C   UNL     1     -18.367  25.759  21.415  1.00  0.00    -0.000 C 
BRANCH   9  10
ATOM     10  C   UNL     1     -17.099  24.911  21.221  1.00  0.00    -0.000 C 
BRANCH  10  11
ATOM     11  C   UNL     1     -16.326  24.699  22.532  1.00  0.00    -0.003 C 
ATOM     12  C   UNL     1     -16.718  25.700  23.619  1.00  0.00     0.004 C 
ENDBRANCH  10  11
ENDBRANCH   9  10
ENDBRANCH   8   9
ENDBRANCH   7   8
ENDBRANCH   6   7
ENDBRANCH   5   6
ENDBRANCH   4   5
ENDBRANCH   3   4
ENDBRANCH   2   3
ENDBRANCH   1   2
BRANCH   1  13
ATOM     13  C   UNL     1     -19.653  29.635  19.997  1.00  0.00     0.000 C 
BRANCH  13  14
ATOM     14  C   UNL     1     -19.362  29.293  21.468  1.00  0.00     0.000 C 
BRANCH  14  15
ATOM     15  C   UNL     1     -19.739  30.436  22.427  1.00  0.00     0.000 C 
BRANCH  15  16
ATOM     16  C   UNL     1     -20.994  31.206  21.975  1.00  0.00     0.000 C 
BRANCH  16  17
ATOM     17  C   UNL     1     -22.146  31.237  22.996  1.00  0.00     0.000 C 
BRANCH  17  18
ATOM     18  C   UNL     1     -23.509  31.537  22.354  1.00  0.00     0.000 C 
BRANCH  18  19
ATOM     19  C   UNL     1     -23.368  31.732  20.836  1.00  0.00     0.000 C 
BRANCH  19  20
ATOM     20  C   UNL     1     -23.948  33.073  20.351  1.00  0.00     0.006 C 
BRANCH  20  21
ATOM     21  C   UNL     1     -23.566  34.280  21.223  1.00  0.00     0.053 C 
BRANCH  21  22
ATOM     22  C   UNL     1     -22.153  34.715  20.987  1.00  0.00     0.041 C 
ATOM     23  O   UNL     1     -21.346  34.795  21.949  1.00  0.00    -0.550 OA
ATOM     24  O   UNL     1     -21.719  34.995  19.698  1.00  0.00    -0.550 OA
ENDBRANCH  21  22
ENDBRANCH  20  21
ENDBRANCH  19  20
ENDBRANCH  18  19
ENDBRANCH  17  18
ENDBRANCH  16  17
ENDBRANCH  15  16
ENDBRANCH  14  15
ENDBRANCH  13  14
ENDBRANCH   1  13
TORSDOF 20
ENDMDL
MODEL 9
REMARK VINA RESULT:    -3.445      5.701      9.915
REMARK INTER + INTRA:         -10.412
REMARK INTER:                  -7.507
REMARK INTRA:                  -2.905
REMARK UNBOUND:                -2.938
REMARK SMILES CCCCCCCCCCCCCCCCCCCCCC(=O)[O-]
REMARK SMILES IDX 12 1 11 2 10 3 9 4 8 5 7 6 6 7 5 8 4 9 3 10 2 11 1 12 13 13
REMARK SMILES IDX 14 14 15 15 16 16 17 17 18 18 19 19 20 20 21 21 22 22 23 23
REMARK SMILES IDX 24 24
REMARK H PARENT
REMARK Flexibility Score: inf
ROOT
ATOM      1  C   UNL     1     -19.621  29.630  20.347  1.00  0.00     0.000 C 
ENDROOT
BRANCH   1   2
ATOM      2  C   UNL     1     -20.370  28.874  19.239  1.00  0.00     0.000 C 
BRANCH   2   3
ATOM      3  C   UNL     1     -21.112  27.634  19.766  1.00  0.00     0.000 C 
BRANCH   3   4
ATOM      4  C   UNL     1     -22.637  27.742  19.598  1.00  0.00    -0.000 C 
BRANCH   4   5
ATOM      5  C   UNL     1     -23.183  29.116  20.018  1.00  0.00    -0.000 C 
BRANCH   5   6
ATOM      6  C   UNL     1     -23.583  29.163  21.500  1.00  0.00    -0.000 C 
BRANCH   6   7
ATOM      7  C   UNL     1     -23.379  30.568  22.081  1.00  0.00    -0.000 C 
BRANCH   7   8
ATOM      8  C   UNL     1     -22.554  31.443  21.124  1.00  0.00    -0.000 C 
BRANCH   8   9
ATOM      9  C   UNL     1     -22.125  32.775  21.758  1.00  0.00    -0.000 C 
BRANCH   9  10
ATOM     10  C   UNL     1     -21.494  32.591  23.149  1.00  0.00    -0.000 C 
BRANCH  10  11
ATOM     11  C   UNL     1     -20.058  33.133  23.220  1.00  0.00    -0.003 C 
ATOM     12  C   UNL     1     -19.030  32.045  23.530  1.00  0.00     0.004 C 
ENDBRANCH  10  11
ENDBRANCH   9  10
ENDBRANCH   8   9
ENDBRANCH   7   8
ENDBRANCH   6   7
ENDBRANCH   5   6
ENDBRANCH   4   5
ENDBRANCH   3   4
ENDBRANCH   2   3
ENDBRANCH   1   2
BRANCH   1  13
ATOM     13  C   UNL     1     -19.789  28.926  21.702  1.00  0.00     0.000 C 
BRANCH  13  14
ATOM     14  C   UNL     1     -18.452  28.461  22.302  1.00  0.00     0.000 C 
BRANCH  14  15
ATOM     15  C   UNL     1     -18.123  26.999  21.954  1.00  0.00     0.000 C 
BRANCH  15  16
ATOM     16  C   UNL     1     -19.177  26.007  22.482  1.00  0.00     0.000 C 
BRANCH  16  17
ATOM     17  C   UNL     1     -19.469  24.810  21.558  1.00  0.00     0.000 C 
BRANCH  17  18
ATOM     18  C   UNL     1     -18.506  24.724  20.365  1.00  0.00     0.000 C 
BRANCH  18  19
ATOM     19  C   UNL     1     -18.894  23.568  19.429  1.00  0.00     0.000 C 
BRANCH  19  20
ATOM     20  C   UNL     1     -19.582  24.051  18.140  1.00  0.00     0.006 C 
BRANCH  20  21
ATOM     21  C   UNL     1     -19.177  23.273  16.877  1.00  0.00     0.053 C 
BRANCH  21  22
ATOM     22  C   UNL     1     -20.044  23.617  15.706  1.00  0.00     0.041 C 
ATOM     23  O   UNL     1     -21.297  23.538  15.801  1.00  0.00    -0.550 OA
ATOM     24  O   UNL     1     -19.470  24.062  14.523  1.00  0.00    -0.550 OA
ENDBRANCH  21  22
ENDBRANCH  20  21
ENDBRANCH  19  20
ENDBRANCH  18  19
ENDBRANCH  17  18
ENDBRANCH  16  17
ENDBRANCH  15  16
ENDBRANCH  14  15
ENDBRANCH  13  14
ENDBRANCH   1  13
TORSDOF 20
ENDMDL
