MODEL 1
REMARK VINA RESULT:    -5.619      0.000      0.000
REMARK INTER + INTRA:         -11.515
REMARK INTER:                 -10.218
REMARK INTRA:                  -1.296
REMARK UNBOUND:                -1.296
REMARK SMILES CCCCCCCCCCCCCCCC(=O)[O-]
REMARK SMILES IDX 9 1 10 2 11 3 12 4 13 5 14 6 15 7 16 8 17 9 18 10 8 11 7 12
REMARK SMILES IDX 6 13 5 14 4 15 3 16 2 17 1 18
REMARK H PARENT
REMARK Flexibility Score: inf
ROOT
ATOM      1  C   UNL     1       9.629   3.954  54.940  1.00  0.00     0.000 C 
ENDROOT
BRANCH   1   2
ATOM      2  C   UNL     1       9.926   5.270  55.681  1.00  0.00     0.000 C 
BRANCH   2   3
ATOM      3  C   UNL     1       9.119   6.459  55.141  1.00  0.00     0.000 C 
BRANCH   3   4
ATOM      4  C   UNL     1       9.927   7.760  55.232  1.00  0.00     0.000 C 
BRANCH   4   5
ATOM      5  C   UNL     1      11.288   7.612  54.541  1.00  0.00     0.000 C 
BRANCH   5   6
ATOM      6  C   UNL     1      11.141   7.676  53.014  1.00  0.00     0.006 C 
BRANCH   6   7
ATOM      7  C   UNL     1      10.090   8.705  52.574  1.00  0.00     0.053 C 
BRANCH   7   8
ATOM      8  C   UNL     1       9.296   8.221  51.400  1.00  0.00     0.041 C 
ATOM      9  O   UNL     1       9.824   7.458  50.549  1.00  0.00    -0.550 OA
ATOM     10  O   UNL     1       7.983   8.639  51.228  1.00  0.00    -0.550 OA
ENDBRANCH   7   8
ENDBRANCH   6   7
ENDBRANCH   5   6
ENDBRANCH   4   5
ENDBRANCH   3   4
ENDBRANCH   2   3
ENDBRANCH   1   2
BRANCH   1  11
ATOM     11  C   UNL     1      10.862   3.239  54.357  1.00  0.00     0.000 C 
BRANCH  11  12
ATOM     12  C   UNL     1      11.938   4.216  53.851  1.00  0.00    -0.000 C 
BRANCH  12  13
ATOM     13  C   UNL     1      13.171   4.262  54.769  1.00  0.00    -0.000 C 
BRANCH  13  14
ATOM     14  C   UNL     1      12.993   3.421  56.043  1.00  0.00    -0.000 C 
BRANCH  14  15
ATOM     15  C   UNL     1      14.313   2.751  56.446  1.00  0.00    -0.000 C 
BRANCH  15  16
ATOM     16  C   UNL     1      15.469   3.231  55.557  1.00  0.00    -0.000 C 
BRANCH  16  17
ATOM     17  C   UNL     1      16.624   2.221  55.494  1.00  0.00    -0.003 C 
ATOM     18  C   UNL     1      16.257   0.864  56.096  1.00  0.00     0.004 C 
ENDBRANCH  16  17
ENDBRANCH  15  16
ENDBRANCH  14  15
ENDBRANCH  13  14
ENDBRANCH  12  13
ENDBRANCH  11  12
ENDBRANCH   1  11
TORSDOF 14
ENDMDL
MODEL 2
REMARK VINA RESULT:    -5.612      1.608      2.534
REMARK INTER + INTRA:         -11.502
REMARK INTER:                 -10.056
REMARK INTRA:                  -1.446
REMARK UNBOUND:                -1.296
REMARK SMILES CCCCCCCCCCCCCCCC(=O)[O-]
REMARK SMILES IDX 9 1 10 2 11 3 12 4 13 5 14 6 15 7 16 8 17 9 18 10 8 11 7 12
REMARK SMILES IDX 6 13 5 14 4 15 3 16 2 17 1 18
REMARK H PARENT
REMARK Flexibility Score: inf
ROOT
ATOM      1  C   UNL     1      10.743   3.300  54.314  1.00  0.00     0.000 C 
ENDROOT
BRANCH   1   2
ATOM      2  C   UNL     1      11.749   3.765  53.245  1.00  0.00     0.000 C 
BRANCH   2   3
ATOM      3  C   UNL     1      12.370   5.134  53.559  1.00  0.00     0.000 C 
BRANCH   3   4
ATOM      4  C   UNL     1      11.960   6.176  52.512  1.00  0.00     0.000 C 
BRANCH   4   5
ATOM      5  C   UNL     1      11.380   7.429  53.179  1.00  0.00     0.000 C 
BRANCH   5   6
ATOM      6  C   UNL     1      10.037   7.820  52.543  1.00  0.00     0.006 C 
BRANCH   6   7
ATOM      7  C   UNL     1       8.843   7.437  53.427  1.00  0.00     0.053 C 
BRANCH   7   8
ATOM      8  C   UNL     1       8.451   8.553  54.346  1.00  0.00     0.041 C 
ATOM      9  O   UNL     1       8.292   8.335  55.577  1.00  0.00    -0.550 OA
ATOM     10  O   UNL     1       8.230   9.827  53.839  1.00  0.00    -0.550 OA
ENDBRANCH   7   8
ENDBRANCH   6   7
ENDBRANCH   5   6
ENDBRANCH   4   5
ENDBRANCH   3   4
ENDBRANCH   2   3
ENDBRANCH   1   2
BRANCH   1  11
ATOM     11  C   UNL     1      10.144   4.424  55.180  1.00  0.00     0.000 C 
BRANCH  11  12
ATOM     12  C   UNL     1      10.744   4.474  56.596  1.00  0.00    -0.000 C 
BRANCH  12  13
ATOM     13  C   UNL     1      11.760   3.348  56.846  1.00  0.00    -0.000 C 
BRANCH  13  14
ATOM     14  C   UNL     1      13.213   3.847  56.833  1.00  0.00    -0.000 C 
BRANCH  14  15
ATOM     15  C   UNL     1      14.182   2.707  56.494  1.00  0.00    -0.000 C 
BRANCH  15  16
ATOM     16  C   UNL     1      15.356   3.215  55.645  1.00  0.00    -0.000 C 
BRANCH  16  17
ATOM     17  C   UNL     1      16.476   2.175  55.504  1.00  0.00    -0.003 C 
ATOM     18  C   UNL     1      16.183   0.882  56.265  1.00  0.00     0.004 C 
ENDBRANCH  16  17
ENDBRANCH  15  16
ENDBRANCH  14  15
ENDBRANCH  13  14
ENDBRANCH  12  13
ENDBRANCH  11  12
ENDBRANCH   1  11
TORSDOF 14
ENDMDL
MODEL 3
REMARK VINA RESULT:    -5.565      1.113      2.066
REMARK INTER + INTRA:         -11.416
REMARK INTER:                  -9.940
REMARK INTRA:                  -1.476
REMARK UNBOUND:                -1.296
REMARK SMILES CCCCCCCCCCCCCCCC(=O)[O-]
REMARK SMILES IDX 9 1 10 2 11 3 12 4 13 5 14 6 15 7 16 8 17 9 18 10 8 11 7 12
REMARK SMILES IDX 6 13 5 14 4 15 3 16 2 17 1 18
REMARK H PARENT
REMARK Flexibility Score: inf
ROOT
ATOM      1  C   UNL     1      11.287   6.310  52.958  1.00  0.00     0.000 C 
ENDROOT
BRANCH   1   2
ATOM      2  C   UNL     1      11.855   7.500  53.754  1.00  0.00     0.000 C 
BRANCH   2   3
ATOM      3  C   UNL     1      11.297   7.589  55.181  1.00  0.00     0.000 C 
BRANCH   3   4
ATOM      4  C   UNL     1       9.844   7.101  55.235  1.00  0.00     0.000 C 
BRANCH   4   5
ATOM      5  C   UNL     1       8.868   8.282  55.292  1.00  0.00     0.000 C 
BRANCH   5   6
ATOM      6  C   UNL     1       8.069   8.400  53.986  1.00  0.00     0.006 C 
BRANCH   6   7
ATOM      7  C   UNL     1       8.763   9.307  52.960  1.00  0.00     0.053 C 
BRANCH   7   8
ATOM      8  C   UNL     1       8.376   8.956  51.557  1.00  0.00     0.041 C 
ATOM      9  O   UNL     1       7.282   9.360  51.081  1.00  0.00    -0.550 OA
ATOM     10  O   UNL     1       9.208   8.156  50.784  1.00  0.00    -0.550 OA
ENDBRANCH   7   8
ENDBRANCH   6   7
ENDBRANCH   5   6
ENDBRANCH   4   5
ENDBRANCH   3   4
ENDBRANCH   2   3
ENDBRANCH   1   2
BRANCH   1  11
ATOM     11  C   UNL     1      12.157   5.039  52.973  1.00  0.00     0.000 C 
BRANCH  11  12
ATOM     12  C   UNL     1      11.560   3.914  53.837  1.00  0.00    -0.000 C 
BRANCH  12  13
ATOM     13  C   UNL     1      12.197   3.845  55.235  1.00  0.00    -0.000 C 
BRANCH  13  14
ATOM     14  C   UNL     1      13.699   4.166  55.219  1.00  0.00    -0.000 C 
BRANCH  14  15
ATOM     15  C   UNL     1      14.494   3.114  56.003  1.00  0.00    -0.000 C 
BRANCH  15  16
ATOM     16  C   UNL     1      15.916   2.967  55.442  1.00  0.00    -0.000 C 
BRANCH  16  17
ATOM     17  C   UNL     1      16.591   1.660  55.881  1.00  0.00    -0.003 C 
ATOM     18  C   UNL     1      15.674   0.774  56.725  1.00  0.00     0.004 C 
ENDBRANCH  16  17
ENDBRANCH  15  16
ENDBRANCH  14  15
ENDBRANCH  13  14
ENDBRANCH  12  13
ENDBRANCH  11  12
ENDBRANCH   1  11
TORSDOF 14
ENDMDL
MODEL 4
REMARK VINA RESULT:    -5.492      1.355      2.716
REMARK INTER + INTRA:         -11.283
REMARK INTER:                 -10.160
REMARK INTRA:                  -1.123
REMARK UNBOUND:                -1.296
REMARK SMILES CCCCCCCCCCCCCCCC(=O)[O-]
REMARK SMILES IDX 9 1 10 2 11 3 12 4 13 5 14 6 15 7 16 8 17 9 18 10 8 11 7 12
REMARK SMILES IDX 6 13 5 14 4 15 3 16 2 17 1 18
REMARK H PARENT
REMARK Flexibility Score: inf
ROOT
ATOM      1  C   UNL     1      12.119   3.387  55.371  1.00  0.00     0.000 C 
ENDROOT
BRANCH   1   2
ATOM      2  C   UNL     1      10.850   3.468  54.504  1.00  0.00     0.000 C 
BRANCH   2   3
ATOM      3  C   UNL     1       9.613   3.926  55.289  1.00  0.00     0.000 C 
BRANCH   3   4
ATOM      4  C   UNL     1       9.861   5.280  55.965  1.00  0.00     0.000 C 
BRANCH   4   5
ATOM      5  C   UNL     1       9.497   6.438  55.028  1.00  0.00     0.000 C 
BRANCH   5   6
ATOM      6  C   UNL     1      10.751   7.217  54.601  1.00  0.00     0.006 C 
BRANCH   6   7
ATOM      7  C   UNL     1      11.047   7.065  53.103  1.00  0.00     0.053 C 
BRANCH   7   8
ATOM      8  C   UNL     1      10.187   7.967  52.273  1.00  0.00     0.041 C 
ATOM      9  O   UNL     1       9.804   9.076  52.730  1.00  0.00    -0.550 OA
ATOM     10  O   UNL     1       9.781   7.569  51.006  1.00  0.00    -0.550 OA
ENDBRANCH   7   8
ENDBRANCH   6   7
ENDBRANCH   5   6
ENDBRANCH   4   5
ENDBRANCH   3   4
ENDBRANCH   2   3
ENDBRANCH   1   2
BRANCH   1  11
ATOM     11  C   UNL     1      13.241   4.368  54.983  1.00  0.00     0.000 C 
BRANCH  11  12
ATOM     12  C   UNL     1      14.524   4.171  55.810  1.00  0.00    -0.000 C 
BRANCH  12  13
ATOM     13  C   UNL     1      14.843   2.688  56.056  1.00  0.00    -0.000 C 
BRANCH  13  14
ATOM     14  C   UNL     1      16.170   2.253  55.414  1.00  0.00    -0.000 C 
BRANCH  14  15
ATOM     15  C   UNL     1      16.511   0.804  55.787  1.00  0.00    -0.000 C 
BRANCH  15  16
ATOM     16  C   UNL     1      16.306   0.559  57.288  1.00  0.00    -0.000 C 
BRANCH  16  17
ATOM     17  C   UNL     1      17.557  -0.015  57.969  1.00  0.00    -0.003 C 
ATOM     18  C   UNL     1      17.504   0.092  59.493  1.00  0.00     0.004 C 
ENDBRANCH  16  17
ENDBRANCH  15  16
ENDBRANCH  14  15
ENDBRANCH  13  14
ENDBRANCH  12  13
ENDBRANCH  11  12
ENDBRANCH   1  11
TORSDOF 14
ENDMDL
MODEL 5
REMARK VINA RESULT:    -5.490      3.968      7.242
REMARK INTER + INTRA:         -11.279
REMARK INTER:                  -9.356
REMARK INTRA:                  -1.923
REMARK UNBOUND:                -1.296
REMARK SMILES CCCCCCCCCCCCCCCC(=O)[O-]
REMARK SMILES IDX 9 1 10 2 11 3 12 4 13 5 14 6 15 7 16 8 17 9 18 10 8 11 7 12
REMARK SMILES IDX 6 13 5 14 4 15 3 16 2 17 1 18
REMARK H PARENT
REMARK Flexibility Score: inf
ROOT
ATOM      1  C   UNL     1       9.760   3.929  54.510  1.00  0.00     0.000 C 
ENDROOT
BRANCH   1   2
ATOM      2  C   UNL     1      10.999   3.118  54.086  1.00  0.00     0.000 C 
BRANCH   2   3
ATOM      3  C   UNL     1      12.105   3.988  53.471  1.00  0.00     0.000 C 
BRANCH   3   4
ATOM      4  C   UNL     1      12.891   4.728  54.560  1.00  0.00     0.000 C 
BRANCH   4   5
ATOM      5  C   UNL     1      13.759   3.758  55.370  1.00  0.00     0.000 C 
BRANCH   5   6
ATOM      6  C   UNL     1      13.314   3.716  56.840  1.00  0.00     0.006 C 
BRANCH   6   7
ATOM      7  C   UNL     1      12.738   2.348  57.233  1.00  0.00     0.053 C 
BRANCH   7   8
ATOM      8  C   UNL     1      13.764   1.485  57.901  1.00  0.00     0.041 C 
ATOM      9  O   UNL     1      13.717   1.291  59.144  1.00  0.00    -0.550 OA
ATOM     10  O   UNL     1      14.792   0.922  57.155  1.00  0.00    -0.550 OA
ENDBRANCH   7   8
ENDBRANCH   6   7
ENDBRANCH   5   6
ENDBRANCH   4   5
ENDBRANCH   3   4
ENDBRANCH   2   3
ENDBRANCH   1   2
BRANCH   1  11
ATOM     11  C   UNL     1       9.680   4.261  56.011  1.00  0.00     0.000 C 
BRANCH  11  12
ATOM     12  C   UNL     1       9.485   5.763  56.283  1.00  0.00    -0.000 C 
BRANCH  12  13
ATOM     13  C   UNL     1       9.547   6.607  55.000  1.00  0.00    -0.000 C 
BRANCH  13  14
ATOM     14  C   UNL     1      10.669   7.656  55.033  1.00  0.00    -0.000 C 
BRANCH  14  15
ATOM     15  C   UNL     1      11.425   7.693  53.698  1.00  0.00    -0.000 C 
BRANCH  15  16
ATOM     16  C   UNL     1      10.467   7.483  52.517  1.00  0.00    -0.000 C 
BRANCH  16  17
ATOM     17  C   UNL     1       9.771   8.782  52.084  1.00  0.00    -0.003 C 
ATOM     18  C   UNL     1       9.128   8.677  50.701  1.00  0.00     0.004 C 
ENDBRANCH  16  17
ENDBRANCH  15  16
ENDBRANCH  14  15
ENDBRANCH  13  14
ENDBRANCH  12  13
ENDBRANCH  11  12
ENDBRANCH   1  11
TORSDOF 14
ENDMDL
MODEL 6
REMARK VINA RESULT:    -5.445      4.071      7.116
REMARK INTER + INTRA:         -11.197
REMARK INTER:                  -9.578
REMARK INTRA:                  -1.620
REMARK UNBOUND:                -1.296
REMARK SMILES CCCCCCCCCCCCCCCC(=O)[O-]
REMARK SMILES IDX 9 1 10 2 11 3 12 4 13 5 14 6 15 7 16 8 17 9 18 10 8 11 7 12
REMARK SMILES IDX 6 13 5 14 4 15 3 16 2 17 1 18
REMARK H PARENT
REMARK Flexibility Score: inf
ROOT
ATOM      1  C   UNL     1      10.930   5.206  56.440  1.00  0.00     0.000 C 
ENDROOT
BRANCH   1   2
ATOM      2  C   UNL     1      11.338   3.893  57.132  1.00  0.00     0.000 C 
BRANCH   2   3
ATOM      3  C   UNL     1      12.472   3.157  56.403  1.00  0.00     0.000 C 
BRANCH   3   4
ATOM      4  C   UNL     1      13.812   3.875  56.606  1.00  0.00     0.000 C 
BRANCH   4   5
ATOM      5  C   UNL     1      14.767   3.600  55.439  1.00  0.00     0.000 C 
BRANCH   5   6
ATOM      6  C   UNL     1      16.083   2.985  55.936  1.00  0.00     0.006 C 
BRANCH   6   7
ATOM      7  C   UNL     1      16.360   1.614  55.304  1.00  0.00     0.053 C 
BRANCH   7   8
ATOM      8  C   UNL     1      16.180   0.501  56.290  1.00  0.00     0.041 C 
ATOM      9  O   UNL     1      16.801  -0.584  56.141  1.00  0.00    -0.550 OA
ATOM     10  O   UNL     1      15.302   0.651  57.356  1.00  0.00    -0.550 OA
ENDBRANCH   7   8
ENDBRANCH   6   7
ENDBRANCH   5   6
ENDBRANCH   4   5
ENDBRANCH   3   4
ENDBRANCH   2   3
ENDBRANCH   1   2
BRANCH   1  11
ATOM     11  C   UNL     1       9.540   5.192  55.777  1.00  0.00     0.000 C 
BRANCH  11  12
ATOM     12  C   UNL     1       9.268   6.445  54.926  1.00  0.00    -0.000 C 
BRANCH  12  13
ATOM     13  C   UNL     1      10.146   7.637  55.336  1.00  0.00    -0.000 C 
BRANCH  13  14
ATOM     14  C   UNL     1      11.285   7.906  54.341  1.00  0.00    -0.000 C 
BRANCH  14  15
ATOM     15  C   UNL     1      10.785   7.804  52.894  1.00  0.00    -0.000 C 
BRANCH  15  16
ATOM     16  C   UNL     1      11.446   6.625  52.165  1.00  0.00    -0.000 C 
BRANCH  16  17
ATOM     17  C   UNL     1      12.379   5.815  53.077  1.00  0.00    -0.003 C 
ATOM     18  C   UNL     1      12.100   4.313  53.024  1.00  0.00     0.004 C 
ENDBRANCH  16  17
ENDBRANCH  15  16
ENDBRANCH  14  15
ENDBRANCH  13  14
ENDBRANCH  12  13
ENDBRANCH  11  12
ENDBRANCH   1  11
TORSDOF 14
ENDMDL
MODEL 7
REMARK VINA RESULT:    -5.410      3.499      7.283
REMARK INTER + INTRA:         -11.135
REMARK INTER:                  -9.093
REMARK INTRA:                  -2.042
REMARK UNBOUND:                -1.296
REMARK SMILES CCCCCCCCCCCCCCCC(=O)[O-]
REMARK SMILES IDX 9 1 10 2 11 3 12 4 13 5 14 6 15 7 16 8 17 9 18 10 8 11 7 12
REMARK SMILES IDX 6 13 5 14 4 15 3 16 2 17 1 18
REMARK H PARENT
REMARK Flexibility Score: inf
ROOT
ATOM      1  C   UNL     1      12.533   6.195  53.372  1.00  0.00     0.000 C 
ENDROOT
BRANCH   1   2
ATOM      2  C   UNL     1      11.920   4.871  52.877  1.00  0.00     0.000 C 
BRANCH   2   3
ATOM      3  C   UNL     1      11.703   3.852  54.005  1.00  0.00     0.000 C 
BRANCH   3   4
ATOM      4  C   UNL     1      10.240   3.843  54.464  1.00  0.00     0.000 C 
BRANCH   4   5
ATOM      5  C   UNL     1      10.123   4.253  55.937  1.00  0.00     0.000 C 
BRANCH   5   6
ATOM      6  C   UNL     1      11.502   4.575  56.531  1.00  0.00     0.006 C 
BRANCH   6   7
ATOM      7  C   UNL     1      11.885   3.613  57.664  1.00  0.00     0.053 C 
BRANCH   7   8
ATOM      8  C   UNL     1      13.030   2.728  57.279  1.00  0.00     0.041 C 
ATOM      9  O   UNL     1      13.916   3.146  56.487  1.00  0.00    -0.550 OA
ATOM     10  O   UNL     1      13.102   1.430  57.768  1.00  0.00    -0.550 OA
ENDBRANCH   7   8
ENDBRANCH   6   7
ENDBRANCH   5   6
ENDBRANCH   4   5
ENDBRANCH   3   4
ENDBRANCH   2   3
ENDBRANCH   1   2
BRANCH   1  11
ATOM     11  C   UNL     1      11.566   7.393  53.397  1.00  0.00     0.000 C 
BRANCH  11  12
ATOM     12  C   UNL     1      11.180   7.823  54.823  1.00  0.00    -0.000 C 
BRANCH  12  13
ATOM     13  C   UNL     1       9.663   7.770  55.064  1.00  0.00    -0.000 C 
BRANCH  13  14
ATOM     14  C   UNL     1       8.872   7.433  53.790  1.00  0.00    -0.000 C 
BRANCH  14  15
ATOM     15  C   UNL     1       7.820   8.511  53.496  1.00  0.00    -0.000 C 
BRANCH  15  16
ATOM     16  C   UNL     1       7.770   8.836  51.996  1.00  0.00    -0.000 C 
BRANCH  16  17
ATOM     17  C   UNL     1       9.158   9.134  51.410  1.00  0.00    -0.003 C 
ATOM     18  C   UNL     1       9.579   8.123  50.343  1.00  0.00     0.004 C 
ENDBRANCH  16  17
ENDBRANCH  15  16
ENDBRANCH  14  15
ENDBRANCH  13  14
ENDBRANCH  12  13
ENDBRANCH  11  12
ENDBRANCH   1  11
TORSDOF 14
ENDMDL
MODEL 8
REMARK VINA RESULT:    -5.287      2.494      3.830
REMARK INTER + INTRA:         -10.910
REMARK INTER:                  -8.865
REMARK INTRA:                  -2.044
REMARK UNBOUND:                -1.296
REMARK SMILES CCCCCCCCCCCCCCCC(=O)[O-]
REMARK SMILES IDX 9 1 10 2 11 3 12 4 13 5 14 6 15 7 16 8 17 9 18 10 8 11 7 12
REMARK SMILES IDX 6 13 5 14 4 15 3 16 2 17 1 18
REMARK H PARENT
REMARK Flexibility Score: inf
ROOT
ATOM      1  C   UNL     1      11.757   7.957  53.748  1.00  0.00     0.000 C 
ENDROOT
BRANCH   1   2
ATOM      2  C   UNL     1      11.355   8.051  55.231  1.00  0.00     0.000 C 
BRANCH   2   3
ATOM      3  C   UNL     1      10.953   9.470  55.656  1.00  0.00     0.000 C 
BRANCH   3   4
ATOM      4  C   UNL     1       9.441   9.680  55.509  1.00  0.00     0.000 C 
BRANCH   4   5
ATOM      5  C   UNL     1       8.715   8.344  55.317  1.00  0.00     0.000 C 
BRANCH   5   6
ATOM      6  C   UNL     1       7.962   8.313  53.979  1.00  0.00     0.006 C 
BRANCH   6   7
ATOM      7  C   UNL     1       8.412   9.435  53.033  1.00  0.00     0.053 C 
BRANCH   7   8
ATOM      8  C   UNL     1       8.120   9.106  51.602  1.00  0.00     0.041 C 
ATOM      9  O   UNL     1       7.076   9.545  51.050  1.00  0.00    -0.550 OA
ATOM     10  O   UNL     1       8.983   8.286  50.886  1.00  0.00    -0.550 OA
ENDBRANCH   7   8
ENDBRANCH   6   7
ENDBRANCH   5   6
ENDBRANCH   4   5
ENDBRANCH   3   4
ENDBRANCH   2   3
ENDBRANCH   1   2
BRANCH   1  11
ATOM     11  C   UNL     1      11.281   6.685  53.021  1.00  0.00     0.000 C 
BRANCH  11  12
ATOM     12  C   UNL     1      12.438   5.747  52.636  1.00  0.00    -0.000 C 
BRANCH  12  13
ATOM     13  C   UNL     1      12.555   4.539  53.579  1.00  0.00    -0.000 C 
BRANCH  13  14
ATOM     14  C   UNL     1      11.420   3.522  53.384  1.00  0.00    -0.000 C 
BRANCH  14  15
ATOM     15  C   UNL     1      10.762   3.169  54.724  1.00  0.00    -0.000 C 
BRANCH  15  16
ATOM     16  C   UNL     1       9.577   4.099  55.018  1.00  0.00    -0.000 C 
BRANCH  16  17
ATOM     17  C   UNL     1       9.800   4.962  56.269  1.00  0.00    -0.003 C 
ATOM     18  C   UNL     1      11.149   4.698  56.937  1.00  0.00     0.004 C 
ENDBRANCH  16  17
ENDBRANCH  15  16
ENDBRANCH  14  15
ENDBRANCH  13  14
ENDBRANCH  12  13
ENDBRANCH  11  12
ENDBRANCH   1  11
TORSDOF 14
ENDMDL
MODEL 9
REMARK VINA RESULT:    -5.185      2.204      3.223
REMARK INTER + INTRA:         -10.724
REMARK INTER:                  -9.025
REMARK INTRA:                  -1.700
REMARK UNBOUND:                -1.296
REMARK SMILES CCCCCCCCCCCCCCCC(=O)[O-]
REMARK SMILES IDX 9 1 10 2 11 3 12 4 13 5 14 6 15 7 16 8 17 9 18 10 8 11 7 12
REMARK SMILES IDX 6 13 5 14 4 15 3 16 2 17 1 18
REMARK H PARENT
REMARK Flexibility Score: inf
ROOT
ATOM      1  C   UNL     1      11.819   3.946  53.043  1.00  0.00     0.000 C 
ENDROOT
BRANCH   1   2
ATOM      2  C   UNL     1      12.302   5.382  53.319  1.00  0.00     0.000 C 
BRANCH   2   3
ATOM      3  C   UNL     1      11.761   6.402  52.308  1.00  0.00     0.000 C 
BRANCH   3   4
ATOM      4  C   UNL     1      10.864   7.437  52.998  1.00  0.00     0.000 C 
BRANCH   4   5
ATOM      5  C   UNL     1       9.646   7.776  52.131  1.00  0.00     0.000 C 
BRANCH   5   6
ATOM      6  C   UNL     1       8.375   7.888  52.987  1.00  0.00     0.006 C 
BRANCH   6   7
ATOM      7  C   UNL     1       8.121   9.323  53.467  1.00  0.00     0.053 C 
BRANCH   7   8
ATOM      8  C   UNL     1       8.083   9.410  54.961  1.00  0.00     0.041 C 
ATOM      9  O   UNL     1       9.147   9.574  55.615  1.00  0.00    -0.550 OA
ATOM     10  O   UNL     1       6.875   9.277  55.635  1.00  0.00    -0.550 OA
ENDBRANCH   7   8
ENDBRANCH   6   7
ENDBRANCH   5   6
ENDBRANCH   4   5
ENDBRANCH   3   4
ENDBRANCH   2   3
ENDBRANCH   1   2
BRANCH   1  11
ATOM     11  C   UNL     1      10.905   3.344  54.127  1.00  0.00     0.000 C 
BRANCH  11  12
ATOM     12  C   UNL     1       9.874   4.350  54.668  1.00  0.00    -0.000 C 
BRANCH  12  13
ATOM     13  C   UNL     1       9.908   4.462  56.200  1.00  0.00    -0.000 C 
BRANCH  13  14
ATOM     14  C   UNL     1      11.333   4.622  56.752  1.00  0.00    -0.000 C 
BRANCH  14  15
ATOM     15  C   UNL     1      11.758   3.379  57.544  1.00  0.00    -0.000 C 
BRANCH  15  16
ATOM     16  C   UNL     1      13.218   3.008  57.246  1.00  0.00    -0.000 C 
BRANCH  16  17
ATOM     17  C   UNL     1      13.896   4.003  56.293  1.00  0.00    -0.003 C 
ATOM     18  C   UNL     1      15.138   3.422  55.616  1.00  0.00     0.004 C 
ENDBRANCH  16  17
ENDBRANCH  15  16
ENDBRANCH  14  15
ENDBRANCH  13  14
ENDBRANCH  12  13
ENDBRANCH  11  12
ENDBRANCH   1  11
TORSDOF 14
ENDMDL
