MODEL 1
REMARK VINA RESULT:    -5.252      0.000      0.000
REMARK INTER + INTRA:          -6.605
REMARK INTER:                  -6.326
REMARK INTRA:                  -0.279
REMARK UNBOUND:                -0.279
REMARK SMILES Oc1cc(O)c2c(c1)O[C@H](c1ccc(O)c(O)c1)[C@H](O)C2
REMARK SMILES IDX 21 1 19 2 10 3 9 4 7 5 8 6 2 7 3 8 4 9 6 10 20 11 11 13
REMARK SMILES IDX 18 14 12 15 16 16 13 17 14 18 17 19 15 21 5 23 1 25
REMARK H PARENT 20 12 17 20 15 22 5 24 1 26
REMARK Flexibility Score: inf
ROOT
ATOM      1  C   UNL     1      57.272  22.861  27.136  1.00  0.00     0.079 C 
ATOM      2  C   UNL     1      58.322  23.167  28.225  1.00  0.00     0.164 C 
ATOM      3  C   UNL     1      58.754  21.865  28.941  1.00  0.00     0.232 C 
ATOM      4  O   UNL     1      57.603  21.186  29.450  1.00  0.00    -0.482 OA
ATOM      5  C   UNL     1      56.379  21.158  28.774  1.00  0.00     0.131 A 
ATOM      6  C   UNL     1      55.347  20.349  29.263  1.00  0.00     0.093 A 
ATOM      7  C   UNL     1      54.113  20.304  28.604  1.00  0.00     0.122 A 
ATOM      8  C   UNL     1      53.922  21.049  27.435  1.00  0.00     0.092 A 
ATOM      9  C   UNL     1      54.946  21.872  26.941  1.00  0.00     0.126 A 
ATOM     10  C   UNL     1      56.169  21.958  27.633  1.00  0.00     0.039 A 
ENDROOT
BRANCH   2  11
ATOM     11  O   UNL     1      57.846  24.123  29.144  1.00  0.00    -0.389 OA
ATOM     12  H   UNL     1      58.529  24.840  29.223  1.00  0.00     0.211 HD
ENDBRANCH   2  11
BRANCH   3  13
ATOM     13  C   UNL     1      59.768  22.129  30.042  1.00  0.00    -0.001 A 
ATOM     14  C   UNL     1      61.134  22.226  29.724  1.00  0.00     0.057 A 
ATOM     15  C   UNL     1      59.378  22.247  31.390  1.00  0.00     0.012 A 
ATOM     16  C   UNL     1      62.095  22.448  30.721  1.00  0.00     0.157 A 
ATOM     17  C   UNL     1      60.331  22.446  32.392  1.00  0.00     0.050 A 
ATOM     18  C   UNL     1      61.687  22.547  32.075  1.00  0.00     0.157 A 
BRANCH  16  19
ATOM     19  O   UNL     1      63.430  22.574  30.326  1.00  0.00    -0.504 OA
ATOM     20  H   UNL     1      64.183  22.824  30.954  1.00  0.00     0.293 HD
ENDBRANCH  16  19
BRANCH  18  21
ATOM     21  O   UNL     1      62.588  22.738  33.124  1.00  0.00    -0.504 OA
ATOM     22  H   UNL     1      63.582  22.578  33.054  1.00  0.00     0.293 HD
ENDBRANCH  18  21
ENDBRANCH   3  13
BRANCH   9  23
ATOM     23  O   UNL     1      54.754  22.590  25.760  1.00  0.00    -0.507 OA
ATOM     24  H   UNL     1      53.852  22.621  25.303  1.00  0.00     0.293 HD
ENDBRANCH   9  23
BRANCH   7  25
ATOM     25  O   UNL     1      53.066  19.533  29.101  1.00  0.00    -0.508 OA
ATOM     26  H   UNL     1      52.102  19.733  28.859  1.00  0.00     0.293 HD
ENDBRANCH   7  25
TORSDOF 6
ENDMDL
MODEL 2
REMARK VINA RESULT:    -4.435     13.590     14.544
REMARK INTER + INTRA:          -5.621
REMARK INTER:                  -5.263
REMARK INTRA:                  -0.358
REMARK UNBOUND:                -0.279
REMARK SMILES Oc1cc(O)c2c(c1)O[C@H](c1ccc(O)c(O)c1)[C@H](O)C2
REMARK SMILES IDX 21 1 19 2 10 3 9 4 7 5 8 6 2 7 3 8 4 9 6 10 20 11 11 13
REMARK SMILES IDX 18 14 12 15 16 16 13 17 14 18 17 19 15 21 5 23 1 25
REMARK H PARENT 20 12 17 20 15 22 5 24 1 26
REMARK Flexibility Score: inf
ROOT
ATOM      1  C   UNL     1      62.589   6.790  32.757  1.00  0.00     0.079 C 
ATOM      2  C   UNL     1      63.323   8.147  32.687  1.00  0.00     0.164 C 
ATOM      3  C   UNL     1      62.383   9.242  32.132  1.00  0.00     0.232 C 
ATOM      4  O   UNL     1      61.848   8.832  30.871  1.00  0.00    -0.482 OA
ATOM      5  C   UNL     1      61.505   7.505  30.589  1.00  0.00     0.131 A 
ATOM      6  C   UNL     1      60.850   7.209  29.389  1.00  0.00     0.093 A 
ATOM      7  C   UNL     1      60.497   5.889  29.085  1.00  0.00     0.122 A 
ATOM      8  C   UNL     1      60.776   4.867  29.998  1.00  0.00     0.092 A 
ATOM      9  C   UNL     1      61.442   5.150  31.200  1.00  0.00     0.126 A 
ATOM     10  C   UNL     1      61.844   6.470  31.483  1.00  0.00     0.039 A 
ENDROOT
BRANCH   2  11
ATOM     11  O   UNL     1      64.505   8.052  31.926  1.00  0.00    -0.389 OA
ATOM     12  H   UNL     1      65.209   7.650  32.498  1.00  0.00     0.211 HD
ENDBRANCH   2  11
BRANCH   3  13
ATOM     13  C   UNL     1      63.079  10.589  32.022  1.00  0.00    -0.001 A 
ATOM     14  C   UNL     1      63.082  11.275  30.795  1.00  0.00     0.057 A 
ATOM     15  C   UNL     1      63.757  11.159  33.118  1.00  0.00     0.012 A 
ATOM     16  C   UNL     1      63.735  12.509  30.658  1.00  0.00     0.157 A 
ATOM     17  C   UNL     1      64.428  12.377  32.983  1.00  0.00     0.050 A 
ATOM     18  C   UNL     1      64.427  13.060  31.766  1.00  0.00     0.157 A 
BRANCH  16  19
ATOM     19  O   UNL     1      63.661  13.153  29.420  1.00  0.00    -0.504 OA
ATOM     20  H   UNL     1      64.136  14.021  29.207  1.00  0.00     0.293 HD
ENDBRANCH  16  19
BRANCH  18  21
ATOM     21  O   UNL     1      65.124  14.269  31.697  1.00  0.00    -0.504 OA
ATOM     22  H   UNL     1      66.115  14.343  31.522  1.00  0.00     0.293 HD
ENDBRANCH  18  21
ENDBRANCH   3  13
BRANCH   9  23
ATOM     23  O   UNL     1      61.691   4.127  32.117  1.00  0.00    -0.507 OA
ATOM     24  H   UNL     1      62.212   4.297  32.968  1.00  0.00     0.293 HD
ENDBRANCH   9  23
BRANCH   7  25
ATOM     25  O   UNL     1      59.879   5.576  27.877  1.00  0.00    -0.508 OA
ATOM     26  H   UNL     1      60.092   4.716  27.383  1.00  0.00     0.293 HD
ENDBRANCH   7  25
TORSDOF 6
ENDMDL
MODEL 3
REMARK VINA RESULT:    -4.018     12.279     13.442
REMARK INTER + INTRA:          -5.120
REMARK INTER:                  -5.221
REMARK INTRA:                   0.101
REMARK UNBOUND:                -0.279
REMARK SMILES Oc1cc(O)c2c(c1)O[C@H](c1ccc(O)c(O)c1)[C@H](O)C2
REMARK SMILES IDX 21 1 19 2 10 3 9 4 7 5 8 6 2 7 3 8 4 9 6 10 20 11 11 13
REMARK SMILES IDX 18 14 12 15 16 16 13 17 14 18 17 19 15 21 5 23 1 25
REMARK H PARENT 20 12 17 20 15 22 5 24 1 26
REMARK Flexibility Score: inf
ROOT
ATOM      1  C   UNL     1      64.326   8.331  32.422  1.00  0.00     0.079 C 
ATOM      2  C   UNL     1      64.695   9.744  31.924  1.00  0.00     0.164 C 
ATOM      3  C   UNL     1      63.814  10.809  32.618  1.00  0.00     0.232 C 
ATOM      4  O   UNL     1      62.432  10.496  32.431  1.00  0.00    -0.482 OA
ATOM      5  C   UNL     1      61.947   9.183  32.425  1.00  0.00     0.131 A 
ATOM      6  C   UNL     1      60.566   8.966  32.386  1.00  0.00     0.093 A 
ATOM      7  C   UNL     1      60.056   7.662  32.379  1.00  0.00     0.122 A 
ATOM      8  C   UNL     1      60.933   6.573  32.439  1.00  0.00     0.092 A 
ATOM      9  C   UNL     1      62.320   6.779  32.469  1.00  0.00     0.126 A 
ATOM     10  C   UNL     1      62.835   8.089  32.423  1.00  0.00     0.039 A 
ENDROOT
BRANCH   2  11
ATOM     11  O   UNL     1      64.599   9.836  30.521  1.00  0.00    -0.389 OA
ATOM     12  H   UNL     1      63.793   9.335  30.234  1.00  0.00     0.211 HD
ENDBRANCH   2  11
BRANCH   3  13
ATOM     13  C   UNL     1      64.130  12.215  32.133  1.00  0.00    -0.001 A 
ATOM     14  C   UNL     1      63.794  12.593  30.821  1.00  0.00     0.057 A 
ATOM     15  C   UNL     1      64.787  13.149  32.958  1.00  0.00     0.012 A 
ATOM     16  C   UNL     1      64.092  13.875  30.339  1.00  0.00     0.157 A 
ATOM     17  C   UNL     1      65.107  14.421  32.479  1.00  0.00     0.050 A 
ATOM     18  C   UNL     1      64.769  14.797  31.177  1.00  0.00     0.157 A 
BRANCH  16  19
ATOM     19  O   UNL     1      63.692  14.194  29.038  1.00  0.00    -0.504 OA
ATOM     20  H   UNL     1      63.409  15.120  28.746  1.00  0.00     0.293 HD
ENDBRANCH  16  19
BRANCH  18  21
ATOM     21  O   UNL     1      65.125  16.080  30.757  1.00  0.00    -0.504 OA
ATOM     22  H   UNL     1      64.462  16.805  30.525  1.00  0.00     0.293 HD
ENDBRANCH  18  21
ENDBRANCH   3  13
BRANCH   9  23
ATOM     23  O   UNL     1      63.185   5.687  32.556  1.00  0.00    -0.507 OA
ATOM     24  H   UNL     1      63.536   5.224  31.727  1.00  0.00     0.293 HD
ENDBRANCH   9  23
BRANCH   7  25
ATOM     25  O   UNL     1      58.686   7.432  32.301  1.00  0.00    -0.508 OA
ATOM     26  H   UNL     1      58.084   7.549  33.110  1.00  0.00     0.293 HD
ENDBRANCH   7  25
TORSDOF 6
ENDMDL
MODEL 4
REMARK VINA RESULT:    -2.348     12.222     14.089
REMARK INTER + INTRA:          -3.107
REMARK INTER:                  -2.760
REMARK INTRA:                  -0.347
REMARK UNBOUND:                -0.279
REMARK SMILES Oc1cc(O)c2c(c1)O[C@H](c1ccc(O)c(O)c1)[C@H](O)C2
REMARK SMILES IDX 21 1 19 2 10 3 9 4 7 5 8 6 2 7 3 8 4 9 6 10 20 11 11 13
REMARK SMILES IDX 18 14 12 15 16 16 13 17 14 18 17 19 15 21 5 23 1 25
REMARK H PARENT 20 12 17 20 15 22 5 24 1 26
REMARK Flexibility Score: inf
ROOT
ATOM      1  C   UNL     1      64.395  11.543  32.902  1.00  0.00     0.079 C 
ATOM      2  C   UNL     1      63.560  10.255  32.739  1.00  0.00     0.164 C 
ATOM      3  C   UNL     1      63.654   9.729  31.288  1.00  0.00     0.232 C 
ATOM      4  O   UNL     1      63.274  10.759  30.371  1.00  0.00    -0.482 OA
ATOM      5  C   UNL     1      63.587  12.107  30.575  1.00  0.00     0.131 A 
ATOM      6  C   UNL     1      63.313  13.032  29.562  1.00  0.00     0.093 A 
ATOM      7  C   UNL     1      63.617  14.387  29.742  1.00  0.00     0.122 A 
ATOM      8  C   UNL     1      64.224  14.811  30.929  1.00  0.00     0.092 A 
ATOM      9  C   UNL     1      64.494  13.894  31.956  1.00  0.00     0.126 A 
ATOM     10  C   UNL     1      64.140  12.540  31.796  1.00  0.00     0.039 A 
ENDROOT
BRANCH   2  11
ATOM     11  O   UNL     1      62.220  10.460  33.125  1.00  0.00    -0.389 OA
ATOM     12  H   UNL     1      61.857  11.213  32.590  1.00  0.00     0.211 HD
ENDBRANCH   2  11
BRANCH   3  13
ATOM     13  C   UNL     1      62.820   8.475  31.081  1.00  0.00    -0.001 A 
ATOM     14  C   UNL     1      61.602   8.552  30.385  1.00  0.00     0.057 A 
ATOM     15  C   UNL     1      63.223   7.229  31.603  1.00  0.00     0.012 A 
ATOM     16  C   UNL     1      60.802   7.416  30.197  1.00  0.00     0.157 A 
ATOM     17  C   UNL     1      62.422   6.097  31.439  1.00  0.00     0.050 A 
ATOM     18  C   UNL     1      61.214   6.174  30.744  1.00  0.00     0.157 A 
BRANCH  16  19
ATOM     19  O   UNL     1      59.623   7.561  29.460  1.00  0.00    -0.504 OA
ATOM     20  H   UNL     1      59.337   6.927  28.725  1.00  0.00     0.293 HD
ENDBRANCH  16  19
BRANCH  18  21
ATOM     21  O   UNL     1      60.456   5.007  30.623  1.00  0.00    -0.504 OA
ATOM     22  H   UNL     1      60.131   4.630  29.745  1.00  0.00     0.293 HD
ENDBRANCH  18  21
ENDBRANCH   3  13
BRANCH   9  23
ATOM     23  O   UNL     1      65.125  14.323  33.125  1.00  0.00    -0.507 OA
ATOM     24  H   UNL     1      64.593  14.670  33.913  1.00  0.00     0.293 HD
ENDBRANCH   9  23
BRANCH   7  25
ATOM     25  O   UNL     1      63.314  15.323  28.757  1.00  0.00    -0.508 OA
ATOM     26  H   UNL     1      63.982  15.561  28.031  1.00  0.00     0.293 HD
ENDBRANCH   7  25
TORSDOF 6
ENDMDL
