MODEL 1
REMARK VINA RESULT:    -3.339      0.000      0.000
REMARK INTER + INTRA:         -11.681
REMARK INTER:                  -7.243
REMARK INTRA:                  -4.438
REMARK UNBOUND:                -4.438
REMARK SMILES CCCCCCCCCCCCCCCCCCCCCC(=O)[O-]
REMARK SMILES IDX 12 1 11 2 10 3 9 4 8 5 7 6 6 7 5 8 4 9 3 10 2 11 1 12 13 13
REMARK SMILES IDX 14 14 15 15 16 16 17 17 18 18 19 19 20 20 21 21 22 22 23 23
REMARK SMILES IDX 24 24
REMARK H PARENT
REMARK Flexibility Score: inf
ROOT
ATOM      1  C   UNL     1       2.141   6.888  39.021  1.00  0.00     0.000 C 
ENDROOT
BRANCH   1   2
ATOM      2  C   UNL     1       1.366   7.356  40.262  1.00  0.00     0.000 C 
BRANCH   2   3
ATOM      3  C   UNL     1       0.772   8.768  40.109  1.00  0.00     0.000 C 
BRANCH   3   4
ATOM      4  C   UNL     1       0.184   9.381  41.395  1.00  0.00    -0.000 C 
BRANCH   4   5
ATOM      5  C   UNL     1       0.064   8.367  42.545  1.00  0.00    -0.000 C 
BRANCH   5   6
ATOM      6  C   UNL     1      -1.380   7.884  42.768  1.00  0.00    -0.000 C 
BRANCH   6   7
ATOM      7  C   UNL     1      -1.536   6.367  42.974  1.00  0.00    -0.000 C 
BRANCH   7   8
ATOM      8  C   UNL     1      -1.493   5.577  41.654  1.00  0.00    -0.000 C 
BRANCH   8   9
ATOM      9  C   UNL     1      -2.903   5.215  41.150  1.00  0.00    -0.000 C 
BRANCH   9  10
ATOM     10  C   UNL     1      -3.207   5.765  39.739  1.00  0.00    -0.000 C 
BRANCH  10  11
ATOM     11  C   UNL     1      -2.258   6.894  39.300  1.00  0.00    -0.003 C 
ATOM     12  C   UNL     1      -2.870   8.286  39.452  1.00  0.00     0.004 C 
ENDBRANCH  10  11
ENDBRANCH   9  10
ENDBRANCH   8   9
ENDBRANCH   7   8
ENDBRANCH   6   7
ENDBRANCH   5   6
ENDBRANCH   4   5
ENDBRANCH   3   4
ENDBRANCH   2   3
ENDBRANCH   1   2
BRANCH   1  13
ATOM     13  C   UNL     1       1.355   5.813  38.256  1.00  0.00     0.000 C 
BRANCH  13  14
ATOM     14  C   UNL     1       0.995   4.602  39.135  1.00  0.00     0.000 C 
BRANCH  14  15
ATOM     15  C   UNL     1      -0.184   3.754  38.616  1.00  0.00     0.000 C 
BRANCH  15  16
ATOM     16  C   UNL     1      -0.425   3.835  37.096  1.00  0.00     0.000 C 
BRANCH  16  17
ATOM     17  C   UNL     1      -1.899   4.012  36.675  1.00  0.00     0.000 C 
BRANCH  17  18
ATOM     18  C   UNL     1      -2.221   5.341  35.967  1.00  0.00     0.000 C 
BRANCH  18  19
ATOM     19  C   UNL     1      -0.972   6.207  35.727  1.00  0.00     0.000 C 
BRANCH  19  20
ATOM     20  C   UNL     1      -1.302   7.702  35.599  1.00  0.00     0.006 C 
BRANCH  20  21
ATOM     21  C   UNL     1      -0.503   8.574  36.577  1.00  0.00     0.053 C 
BRANCH  21  22
ATOM     22  C   UNL     1       0.775   9.028  35.946  1.00  0.00     0.041 C 
ATOM     23  O   UNL     1       1.740   9.404  36.664  1.00  0.00    -0.550 OA
ATOM     24  O   UNL     1       0.887   9.086  34.562  1.00  0.00    -0.550 OA
ENDBRANCH  21  22
ENDBRANCH  20  21
ENDBRANCH  19  20
ENDBRANCH  18  19
ENDBRANCH  17  18
ENDBRANCH  16  17
ENDBRANCH  15  16
ENDBRANCH  14  15
ENDBRANCH  13  14
ENDBRANCH   1  13
TORSDOF 20
ENDMDL
MODEL 2
REMARK VINA RESULT:    -3.333      2.221      4.785
REMARK INTER + INTRA:         -11.669
REMARK INTER:                  -7.546
REMARK INTRA:                  -4.123
REMARK UNBOUND:                -4.438
REMARK SMILES CCCCCCCCCCCCCCCCCCCCCC(=O)[O-]
REMARK SMILES IDX 12 1 11 2 10 3 9 4 8 5 7 6 6 7 5 8 4 9 3 10 2 11 1 12 13 13
REMARK SMILES IDX 14 14 15 15 16 16 17 17 18 18 19 19 20 20 21 21 22 22 23 23
REMARK SMILES IDX 24 24
REMARK H PARENT
REMARK Flexibility Score: inf
ROOT
ATOM      1  C   UNL     1      -1.415   4.252  37.646  1.00  0.00     0.000 C 
ENDROOT
BRANCH   1   2
ATOM      2  C   UNL     1      -1.123   5.326  38.705  1.00  0.00     0.000 C 
BRANCH   2   3
ATOM      3  C   UNL     1      -2.141   5.332  39.859  1.00  0.00     0.000 C 
BRANCH   3   4
ATOM      4  C   UNL     1      -3.277   6.365  39.733  1.00  0.00    -0.000 C 
BRANCH   4   5
ATOM      5  C   UNL     1      -2.876   7.765  40.226  1.00  0.00    -0.000 C 
BRANCH   5   6
ATOM      6  C   UNL     1      -2.643   8.760  39.074  1.00  0.00    -0.000 C 
BRANCH   6   7
ATOM      7  C   UNL     1      -1.180   8.895  38.615  1.00  0.00    -0.000 C 
BRANCH   7   8
ATOM      8  C   UNL     1      -0.475  10.121  39.221  1.00  0.00    -0.000 C 
BRANCH   8   9
ATOM      9  C   UNL     1       0.428   9.742  40.410  1.00  0.00    -0.000 C 
BRANCH   9  10
ATOM     10  C   UNL     1       0.863   8.260  40.397  1.00  0.00    -0.000 C 
BRANCH  10  11
ATOM     11  C   UNL     1       0.516   7.503  41.690  1.00  0.00    -0.003 C 
ATOM     12  C   UNL     1       1.161   8.111  42.934  1.00  0.00     0.004 C 
ENDBRANCH  10  11
ENDBRANCH   9  10
ENDBRANCH   8   9
ENDBRANCH   7   8
ENDBRANCH   6   7
ENDBRANCH   5   6
ENDBRANCH   4   5
ENDBRANCH   3   4
ENDBRANCH   2   3
ENDBRANCH   1   2
BRANCH   1  13
ATOM     13  C   UNL     1      -2.144   4.857  36.437  1.00  0.00     0.000 C 
BRANCH  13  14
ATOM     14  C   UNL     1      -1.873   6.363  36.273  1.00  0.00     0.000 C 
BRANCH  14  15
ATOM     15  C   UNL     1      -1.114   6.747  34.987  1.00  0.00     0.000 C 
BRANCH  15  16
ATOM     16  C   UNL     1      -0.138   7.930  35.135  1.00  0.00     0.000 C 
BRANCH  16  17
ATOM     17  C   UNL     1       1.321   7.540  35.448  1.00  0.00     0.000 C 
BRANCH  17  18
ATOM     18  C   UNL     1       1.614   7.240  36.930  1.00  0.00     0.000 C 
BRANCH  18  19
ATOM     19  C   UNL     1       2.284   5.871  37.139  1.00  0.00     0.000 C 
BRANCH  19  20
ATOM     20  C   UNL     1       2.517   5.116  35.820  1.00  0.00     0.006 C 
BRANCH  20  21
ATOM     21  C   UNL     1       1.726   3.804  35.737  1.00  0.00     0.053 C 
BRANCH  21  22
ATOM     22  C   UNL     1       0.965   3.735  34.450  1.00  0.00     0.041 C 
ATOM     23  O   UNL     1       1.237   4.527  33.509  1.00  0.00    -0.550 OA
ATOM     24  O   UNL     1      -0.079   2.830  34.306  1.00  0.00    -0.550 OA
ENDBRANCH  21  22
ENDBRANCH  20  21
ENDBRANCH  19  20
ENDBRANCH  18  19
ENDBRANCH  17  18
ENDBRANCH  16  17
ENDBRANCH  15  16
ENDBRANCH  14  15
ENDBRANCH  13  14
ENDBRANCH   1  13
TORSDOF 20
ENDMDL
MODEL 3
REMARK VINA RESULT:    -3.322      1.837      4.656
REMARK INTER + INTRA:         -11.645
REMARK INTER:                  -7.831
REMARK INTRA:                  -3.813
REMARK UNBOUND:                -4.438
REMARK SMILES CCCCCCCCCCCCCCCCCCCCCC(=O)[O-]
REMARK SMILES IDX 12 1 11 2 10 3 9 4 8 5 7 6 6 7 5 8 4 9 3 10 2 11 1 12 13 13
REMARK SMILES IDX 14 14 15 15 16 16 17 17 18 18 19 19 20 20 21 21 22 22 23 23
REMARK SMILES IDX 24 24
REMARK H PARENT
REMARK Flexibility Score: inf
ROOT
ATOM      1  C   UNL     1      -2.517   9.803  38.193  1.00  0.00     0.000 C 
ENDROOT
BRANCH   1   2
ATOM      2  C   UNL     1      -1.849   9.968  36.820  1.00  0.00     0.000 C 
BRANCH   2   3
ATOM      3  C   UNL     1      -1.432   8.630  36.183  1.00  0.00     0.000 C 
BRANCH   3   4
ATOM      4  C   UNL     1      -0.096   8.650  35.416  1.00  0.00    -0.000 C 
BRANCH   4   5
ATOM      5  C   UNL     1       1.108   8.273  36.294  1.00  0.00    -0.000 C 
BRANCH   5   6
ATOM      6  C   UNL     1       1.658   9.465  37.099  1.00  0.00    -0.000 C 
BRANCH   6   7
ATOM      7  C   UNL     1       1.884   9.192  38.597  1.00  0.00    -0.000 C 
BRANCH   7   8
ATOM      8  C   UNL     1       1.571   7.738  38.992  1.00  0.00    -0.000 C 
BRANCH   8   9
ATOM      9  C   UNL     1       1.198   7.610  40.481  1.00  0.00    -0.000 C 
BRANCH   9  10
ATOM     10  C   UNL     1       0.885   6.160  40.909  1.00  0.00    -0.000 C 
BRANCH  10  11
ATOM     11  C   UNL     1       0.367   6.040  42.353  1.00  0.00    -0.003 C 
ATOM     12  C   UNL     1      -1.021   5.409  42.444  1.00  0.00     0.004 C 
ENDBRANCH  10  11
ENDBRANCH   9  10
ENDBRANCH   8   9
ENDBRANCH   7   8
ENDBRANCH   6   7
ENDBRANCH   5   6
ENDBRANCH   4   5
ENDBRANCH   3   4
ENDBRANCH   2   3
ENDBRANCH   1   2
BRANCH   1  13
ATOM     13  C   UNL     1      -1.844   8.681  39.000  1.00  0.00     0.000 C 
BRANCH  13  14
ATOM     14  C   UNL     1      -2.817   7.979  39.964  1.00  0.00     0.000 C 
BRANCH  14  15
ATOM     15  C   UNL     1      -3.153   6.520  39.592  1.00  0.00     0.000 C 
BRANCH  15  16
ATOM     16  C   UNL     1      -2.278   5.913  38.478  1.00  0.00     0.000 C 
BRANCH  16  17
ATOM     17  C   UNL     1      -1.572   4.592  38.847  1.00  0.00     0.000 C 
BRANCH  17  18
ATOM     18  C   UNL     1      -0.742   3.957  37.716  1.00  0.00     0.000 C 
BRANCH  18  19
ATOM     19  C   UNL     1      -0.159   5.001  36.747  1.00  0.00     0.000 C 
BRANCH  19  20
ATOM     20  C   UNL     1      -0.766   4.904  35.338  1.00  0.00     0.006 C 
BRANCH  20  21
ATOM     21  C   UNL     1       0.218   4.339  34.304  1.00  0.00     0.053 C 
BRANCH  21  22
ATOM     22  C   UNL     1       0.921   5.451  33.591  1.00  0.00     0.041 C 
ATOM     23  O   UNL     1       0.424   5.949  32.546  1.00  0.00    -0.550 OA
ATOM     24  O   UNL     1       2.151   5.904  34.051  1.00  0.00    -0.550 OA
ENDBRANCH  21  22
ENDBRANCH  20  21
ENDBRANCH  19  20
ENDBRANCH  18  19
ENDBRANCH  17  18
ENDBRANCH  16  17
ENDBRANCH  15  16
ENDBRANCH  14  15
ENDBRANCH  13  14
ENDBRANCH   1  13
TORSDOF 20
ENDMDL
MODEL 4
REMARK VINA RESULT:    -3.312      2.645      6.354
REMARK INTER + INTRA:         -11.623
REMARK INTER:                  -7.426
REMARK INTRA:                  -4.197
REMARK UNBOUND:                -4.438
REMARK SMILES CCCCCCCCCCCCCCCCCCCCCC(=O)[O-]
REMARK SMILES IDX 12 1 11 2 10 3 9 4 8 5 7 6 6 7 5 8 4 9 3 10 2 11 1 12 13 13
REMARK SMILES IDX 14 14 15 15 16 16 17 17 18 18 19 19 20 20 21 21 22 22 23 23
REMARK SMILES IDX 24 24
REMARK H PARENT
REMARK Flexibility Score: inf
ROOT
ATOM      1  C   UNL     1      -1.821   4.904  39.549  1.00  0.00     0.000 C 
ENDROOT
BRANCH   1   2
ATOM      2  C   UNL     1      -1.201   4.493  38.205  1.00  0.00     0.000 C 
BRANCH   2   3
ATOM      3  C   UNL     1      -2.022   4.961  36.990  1.00  0.00     0.000 C 
BRANCH   3   4
ATOM      4  C   UNL     1      -1.202   5.319  35.736  1.00  0.00    -0.000 C 
BRANCH   4   5
ATOM      5  C   UNL     1      -1.394   6.776  35.285  1.00  0.00    -0.000 C 
BRANCH   5   6
ATOM      6  C   UNL     1      -0.127   7.378  34.652  1.00  0.00    -0.000 C 
BRANCH   6   7
ATOM      7  C   UNL     1       1.200   6.767  35.139  1.00  0.00    -0.000 C 
BRANCH   7   8
ATOM      8  C   UNL     1       1.896   5.917  34.062  1.00  0.00    -0.000 C 
BRANCH   8   9
ATOM      9  C   UNL     1       3.011   5.034  34.654  1.00  0.00    -0.000 C 
BRANCH   9  10
ATOM     10  C   UNL     1       3.148   5.169  36.186  1.00  0.00    -0.000 C 
BRANCH  10  11
ATOM     11  C   UNL     1       2.535   3.994  36.967  1.00  0.00    -0.003 C 
ATOM     12  C   UNL     1       2.472   4.241  38.473  1.00  0.00     0.004 C 
ENDBRANCH  10  11
ENDBRANCH   9  10
ENDBRANCH   8   9
ENDBRANCH   7   8
ENDBRANCH   6   7
ENDBRANCH   5   6
ENDBRANCH   4   5
ENDBRANCH   3   4
ENDBRANCH   2   3
ENDBRANCH   1   2
BRANCH   1  13
ATOM     13  C   UNL     1      -3.014   5.849  39.338  1.00  0.00     0.000 C 
BRANCH  13  14
ATOM     14  C   UNL     1      -3.085   6.961  40.399  1.00  0.00     0.000 C 
BRANCH  14  15
ATOM     15  C   UNL     1      -2.800   8.380  39.868  1.00  0.00     0.000 C 
BRANCH  15  16
ATOM     16  C   UNL     1      -2.260   8.440  38.426  1.00  0.00     0.000 C 
BRANCH  16  17
ATOM     17  C   UNL     1      -1.229   9.556  38.159  1.00  0.00     0.000 C 
BRANCH  17  18
ATOM     18  C   UNL     1       0.227   9.078  38.009  1.00  0.00     0.000 C 
BRANCH  18  19
ATOM     19  C   UNL     1       0.440   7.645  38.527  1.00  0.00     0.000 C 
BRANCH  19  20
ATOM     20  C   UNL     1       1.415   7.582  39.713  1.00  0.00     0.006 C 
BRANCH  20  21
ATOM     21  C   UNL     1       0.744   7.911  41.053  1.00  0.00     0.053 C 
BRANCH  21  22
ATOM     22  C   UNL     1       0.466   6.655  41.818  1.00  0.00     0.041 C 
ATOM     23  O   UNL     1       1.047   5.581  41.508  1.00  0.00    -0.550 OA
ATOM     24  O   UNL     1      -0.472   6.657  42.843  1.00  0.00    -0.550 OA
ENDBRANCH  21  22
ENDBRANCH  20  21
ENDBRANCH  19  20
ENDBRANCH  18  19
ENDBRANCH  17  18
ENDBRANCH  16  17
ENDBRANCH  15  16
ENDBRANCH  14  15
ENDBRANCH  13  14
ENDBRANCH   1  13
TORSDOF 20
ENDMDL
MODEL 5
REMARK VINA RESULT:    -3.267      2.218      5.120
REMARK INTER + INTRA:         -11.525
REMARK INTER:                  -7.494
REMARK INTRA:                  -4.032
REMARK UNBOUND:                -4.438
REMARK SMILES CCCCCCCCCCCCCCCCCCCCCC(=O)[O-]
REMARK SMILES IDX 12 1 11 2 10 3 9 4 8 5 7 6 6 7 5 8 4 9 3 10 2 11 1 12 13 13
REMARK SMILES IDX 14 14 15 15 16 16 17 17 18 18 19 19 20 20 21 21 22 22 23 23
REMARK SMILES IDX 24 24
REMARK H PARENT
REMARK Flexibility Score: inf
ROOT
ATOM      1  C   UNL     1      -3.000   8.050  40.038  1.00  0.00     0.000 C 
ENDROOT
BRANCH   1   2
ATOM      2  C   UNL     1      -2.558   8.752  38.746  1.00  0.00     0.000 C 
BRANCH   2   3
ATOM      3  C   UNL     1      -1.442   9.788  38.970  1.00  0.00     0.000 C 
BRANCH   3   4
ATOM      4  C   UNL     1      -0.271   9.318  39.855  1.00  0.00    -0.000 C 
BRANCH   4   5
ATOM      5  C   UNL     1       1.048  10.044  39.544  1.00  0.00    -0.000 C 
BRANCH   5   6
ATOM      6  C   UNL     1       1.973   9.234  38.617  1.00  0.00    -0.000 C 
BRANCH   6   7
ATOM      7  C   UNL     1       1.666   9.363  37.114  1.00  0.00    -0.000 C 
BRANCH   7   8
ATOM      8  C   UNL     1       1.501   8.000  36.419  1.00  0.00    -0.000 C 
BRANCH   8   9
ATOM      9  C   UNL     1       0.033   7.532  36.403  1.00  0.00    -0.000 C 
BRANCH   9  10
ATOM     10  C   UNL     1      -0.260   6.409  37.422  1.00  0.00    -0.000 C 
BRANCH  10  11
ATOM     11  C   UNL     1      -1.217   5.328  36.891  1.00  0.00    -0.003 C 
ATOM     12  C   UNL     1      -0.999   3.962  37.539  1.00  0.00     0.004 C 
ENDBRANCH  10  11
ENDBRANCH   9  10
ENDBRANCH   8   9
ENDBRANCH   7   8
ENDBRANCH   6   7
ENDBRANCH   5   6
ENDBRANCH   4   5
ENDBRANCH   3   4
ENDBRANCH   2   3
ENDBRANCH   1   2
BRANCH   1  13
ATOM     13  C   UNL     1      -3.211   6.547  39.802  1.00  0.00     0.000 C 
BRANCH  13  14
ATOM     14  C   UNL     1      -2.241   5.675  40.619  1.00  0.00     0.000 C 
BRANCH  14  15
ATOM     15  C   UNL     1      -1.686   6.345  41.891  1.00  0.00     0.000 C 
BRANCH  15  16
ATOM     16  C   UNL     1      -0.153   6.297  42.037  1.00  0.00     0.000 C 
BRANCH  16  17
ATOM     17  C   UNL     1       0.611   5.845  40.776  1.00  0.00     0.000 C 
BRANCH  17  18
ATOM     18  C   UNL     1       1.112   4.389  40.801  1.00  0.00     0.000 C 
BRANCH  18  19
ATOM     19  C   UNL     1       2.112   4.083  39.672  1.00  0.00     0.000 C 
BRANCH  19  20
ATOM     20  C   UNL     1       2.712   5.354  39.050  1.00  0.00     0.006 C 
BRANCH  20  21
ATOM     21  C   UNL     1       4.148   5.152  38.551  1.00  0.00     0.053 C 
BRANCH  21  22
ATOM     22  C   UNL     1       4.145   4.704  37.123  1.00  0.00     0.041 C 
ATOM     23  O   UNL     1       5.122   4.059  36.658  1.00  0.00    -0.550 OA
ATOM     24  O   UNL     1       3.086   5.043  36.290  1.00  0.00    -0.550 OA
ENDBRANCH  21  22
ENDBRANCH  20  21
ENDBRANCH  19  20
ENDBRANCH  18  19
ENDBRANCH  17  18
ENDBRANCH  16  17
ENDBRANCH  15  16
ENDBRANCH  14  15
ENDBRANCH  13  14
ENDBRANCH   1  13
TORSDOF 20
ENDMDL
MODEL 6
REMARK VINA RESULT:    -3.243      2.041      4.412
REMARK INTER + INTRA:         -11.473
REMARK INTER:                  -7.797
REMARK INTRA:                  -3.676
REMARK UNBOUND:                -4.438
REMARK SMILES CCCCCCCCCCCCCCCCCCCCCC(=O)[O-]
REMARK SMILES IDX 12 1 11 2 10 3 9 4 8 5 7 6 6 7 5 8 4 9 3 10 2 11 1 12 13 13
REMARK SMILES IDX 14 14 15 15 16 16 17 17 18 18 19 19 20 20 21 21 22 22 23 23
REMARK SMILES IDX 24 24
REMARK H PARENT
REMARK Flexibility Score: inf
ROOT
ATOM      1  C   UNL     1      -1.346   5.802  35.619  1.00  0.00     0.000 C 
ENDROOT
BRANCH   1   2
ATOM      2  C   UNL     1      -1.567   7.322  35.589  1.00  0.00     0.000 C 
BRANCH   2   3
ATOM      3  C   UNL     1      -0.256   8.123  35.481  1.00  0.00     0.000 C 
BRANCH   3   4
ATOM      4  C   UNL     1      -0.243   9.472  36.226  1.00  0.00    -0.000 C 
BRANCH   4   5
ATOM      5  C   UNL     1      -1.632  10.125  36.314  1.00  0.00    -0.000 C 
BRANCH   5   6
ATOM      6  C   UNL     1      -2.214  10.102  37.739  1.00  0.00    -0.000 C 
BRANCH   6   7
ATOM      7  C   UNL     1      -1.287   9.502  38.812  1.00  0.00    -0.000 C 
BRANCH   7   8
ATOM      8  C   UNL     1      -1.637   8.043  39.154  1.00  0.00    -0.000 C 
BRANCH   8   9
ATOM      9  C   UNL     1      -3.044   7.912  39.766  1.00  0.00    -0.000 C 
BRANCH   9  10
ATOM     10  C   UNL     1      -3.027   7.715  41.298  1.00  0.00    -0.000 C 
BRANCH  10  11
ATOM     11  C   UNL     1      -1.644   7.338  41.857  1.00  0.00    -0.003 C 
ATOM     12  C   UNL     1      -1.633   5.990  42.575  1.00  0.00     0.004 C 
ENDBRANCH  10  11
ENDBRANCH   9  10
ENDBRANCH   8   9
ENDBRANCH   7   8
ENDBRANCH   6   7
ENDBRANCH   5   6
ENDBRANCH   4   5
ENDBRANCH   3   4
ENDBRANCH   2   3
ENDBRANCH   1   2
BRANCH   1  13
ATOM     13  C   UNL     1      -1.984   5.179  36.869  1.00  0.00     0.000 C 
BRANCH  13  14
ATOM     14  C   UNL     1      -1.049   4.184  37.580  1.00  0.00     0.000 C 
BRANCH  14  15
ATOM     15  C   UNL     1      -0.862   4.440  39.089  1.00  0.00     0.000 C 
BRANCH  15  16
ATOM     16  C   UNL     1       0.603   4.556  39.553  1.00  0.00     0.000 C 
BRANCH  16  17
ATOM     17  C   UNL     1       1.093   5.995  39.820  1.00  0.00     0.000 C 
BRANCH  17  18
ATOM     18  C   UNL     1       2.323   6.429  39.001  1.00  0.00     0.000 C 
BRANCH  18  19
ATOM     19  C   UNL     1       2.025   6.547  37.496  1.00  0.00     0.000 C 
BRANCH  19  20
ATOM     20  C   UNL     1       2.899   5.614  36.644  1.00  0.00     0.006 C 
BRANCH  20  21
ATOM     21  C   UNL     1       2.091   4.827  35.603  1.00  0.00     0.053 C 
BRANCH  21  22
ATOM     22  C   UNL     1       2.551   5.167  34.220  1.00  0.00     0.041 C 
ATOM     23  O   UNL     1       3.384   4.430  33.630  1.00  0.00    -0.550 OA
ATOM     24  O   UNL     1       2.099   6.326  33.602  1.00  0.00    -0.550 OA
ENDBRANCH  21  22
ENDBRANCH  20  21
ENDBRANCH  19  20
ENDBRANCH  18  19
ENDBRANCH  17  18
ENDBRANCH  16  17
ENDBRANCH  15  16
ENDBRANCH  14  15
ENDBRANCH  13  14
ENDBRANCH   1  13
TORSDOF 20
ENDMDL
MODEL 7
REMARK VINA RESULT:    -3.228      2.347      4.168
REMARK INTER + INTRA:         -11.441
REMARK INTER:                  -7.725
REMARK INTRA:                  -3.716
REMARK UNBOUND:                -4.438
REMARK SMILES CCCCCCCCCCCCCCCCCCCCCC(=O)[O-]
REMARK SMILES IDX 12 1 11 2 10 3 9 4 8 5 7 6 6 7 5 8 4 9 3 10 2 11 1 12 13 13
REMARK SMILES IDX 14 14 15 15 16 16 17 17 18 18 19 19 20 20 21 21 22 22 23 23
REMARK SMILES IDX 24 24
REMARK H PARENT
REMARK Flexibility Score: inf
ROOT
ATOM      1  C   UNL     1       0.658   9.781  40.439  1.00  0.00     0.000 C 
ENDROOT
BRANCH   1   2
ATOM      2  C   UNL     1       0.640   8.653  41.481  1.00  0.00     0.000 C 
BRANCH   2   3
ATOM      3  C   UNL     1      -0.632   8.648  42.347  1.00  0.00     0.000 C 
BRANCH   3   4
ATOM      4  C   UNL     1      -1.071   7.267  42.870  1.00  0.00    -0.000 C 
BRANCH   4   5
ATOM      5  C   UNL     1      -2.430   6.815  42.310  1.00  0.00    -0.000 C 
BRANCH   5   6
ATOM      6  C   UNL     1      -2.907   7.678  41.128  1.00  0.00    -0.000 C 
BRANCH   6   7
ATOM      7  C   UNL     1      -3.328   6.891  39.874  1.00  0.00    -0.000 C 
BRANCH   7   8
ATOM      8  C   UNL     1      -2.607   5.537  39.749  1.00  0.00    -0.000 C 
BRANCH   8   9
ATOM      9  C   UNL     1      -1.481   5.576  38.698  1.00  0.00    -0.000 C 
BRANCH   9  10
ATOM     10  C   UNL     1      -0.077   5.760  39.314  1.00  0.00    -0.000 C 
BRANCH  10  11
ATOM     11  C   UNL     1       1.065   5.276  38.404  1.00  0.00    -0.003 C 
ATOM     12  C   UNL     1       2.058   6.381  38.047  1.00  0.00     0.004 C 
ENDBRANCH  10  11
ENDBRANCH   9  10
ENDBRANCH   8   9
ENDBRANCH   7   8
ENDBRANCH   6   7
ENDBRANCH   5   6
ENDBRANCH   4   5
ENDBRANCH   3   4
ENDBRANCH   2   3
ENDBRANCH   1   2
BRANCH   1  13
ATOM     13  C   UNL     1       0.128   9.287  39.084  1.00  0.00     0.000 C 
BRANCH  13  14
ATOM     14  C   UNL     1      -1.213   9.936  38.698  1.00  0.00     0.000 C 
BRANCH  14  15
ATOM     15  C   UNL     1      -1.931   9.274  37.505  1.00  0.00     0.000 C 
BRANCH  15  16
ATOM     16  C   UNL     1      -1.155   9.313  36.174  1.00  0.00     0.000 C 
BRANCH  16  17
ATOM     17  C   UNL     1      -0.504   7.978  35.756  1.00  0.00     0.000 C 
BRANCH  17  18
ATOM     18  C   UNL     1      -1.489   6.881  35.313  1.00  0.00     0.000 C 
BRANCH  18  19
ATOM     19  C   UNL     1      -0.816   5.508  35.145  1.00  0.00     0.000 C 
BRANCH  19  20
ATOM     20  C   UNL     1       0.534   5.595  34.415  1.00  0.00     0.006 C 
BRANCH  20  21
ATOM     21  C   UNL     1       0.381   5.847  32.909  1.00  0.00     0.053 C 
BRANCH  21  22
ATOM     22  C   UNL     1       0.643   4.589  32.141  1.00  0.00     0.041 C 
ATOM     23  O   UNL     1       1.658   4.498  31.400  1.00  0.00    -0.550 OA
ATOM     24  O   UNL     1      -0.259   3.535  32.202  1.00  0.00    -0.550 OA
ENDBRANCH  21  22
ENDBRANCH  20  21
ENDBRANCH  19  20
ENDBRANCH  18  19
ENDBRANCH  17  18
ENDBRANCH  16  17
ENDBRANCH  15  16
ENDBRANCH  14  15
ENDBRANCH  13  14
ENDBRANCH   1  13
TORSDOF 20
ENDMDL
MODEL 8
REMARK VINA RESULT:    -3.226      1.841      4.373
REMARK INTER + INTRA:         -11.436
REMARK INTER:                  -7.581
REMARK INTRA:                  -3.856
REMARK UNBOUND:                -4.438
REMARK SMILES CCCCCCCCCCCCCCCCCCCCCC(=O)[O-]
REMARK SMILES IDX 12 1 11 2 10 3 9 4 8 5 7 6 6 7 5 8 4 9 3 10 2 11 1 12 13 13
REMARK SMILES IDX 14 14 15 15 16 16 17 17 18 18 19 19 20 20 21 21 22 22 23 23
REMARK SMILES IDX 24 24
REMARK H PARENT
REMARK Flexibility Score: inf
ROOT
ATOM      1  C   UNL     1       0.637   7.767  42.281  1.00  0.00     0.000 C 
ENDROOT
BRANCH   1   2
ATOM      2  C   UNL     1      -0.649   7.141  42.840  1.00  0.00     0.000 C 
BRANCH   2   3
ATOM      3  C   UNL     1      -1.829   8.128  42.898  1.00  0.00     0.000 C 
BRANCH   3   4
ATOM      4  C   UNL     1      -3.022   7.786  41.985  1.00  0.00    -0.000 C 
BRANCH   4   5
ATOM      5  C   UNL     1      -2.890   6.411  41.310  1.00  0.00    -0.000 C 
BRANCH   5   6
ATOM      6  C   UNL     1      -3.201   6.454  39.802  1.00  0.00    -0.000 C 
BRANCH   6   7
ATOM      7  C   UNL     1      -2.366   5.493  38.937  1.00  0.00    -0.000 C 
BRANCH   7   8
ATOM      8  C   UNL     1      -1.096   4.997  39.651  1.00  0.00    -0.000 C 
BRANCH   8   9
ATOM      9  C   UNL     1       0.181   5.626  39.064  1.00  0.00    -0.000 C 
BRANCH   9  10
ATOM     10  C   UNL     1       1.463   5.228  39.829  1.00  0.00    -0.000 C 
BRANCH  10  11
ATOM     11  C   UNL     1       2.483   4.463  38.968  1.00  0.00    -0.003 C 
ATOM     12  C   UNL     1       3.746   5.270  38.674  1.00  0.00     0.004 C 
ENDBRANCH  10  11
ENDBRANCH   9  10
ENDBRANCH   8   9
ENDBRANCH   7   8
ENDBRANCH   6   7
ENDBRANCH   5   6
ENDBRANCH   4   5
ENDBRANCH   3   4
ENDBRANCH   2   3
ENDBRANCH   1   2
BRANCH   1  13
ATOM     13  C   UNL     1       0.350   9.134  41.641  1.00  0.00     0.000 C 
BRANCH  13  14
ATOM     14  C   UNL     1       0.810   9.212  40.175  1.00  0.00     0.000 C 
BRANCH  14  15
ATOM     15  C   UNL     1      -0.078  10.083  39.265  1.00  0.00     0.000 C 
BRANCH  15  16
ATOM     16  C   UNL     1      -1.523   9.577  39.086  1.00  0.00     0.000 C 
BRANCH  16  17
ATOM     17  C   UNL     1      -1.922   9.234  37.636  1.00  0.00     0.000 C 
BRANCH  17  18
ATOM     18  C   UNL     1      -0.948   8.300  36.893  1.00  0.00     0.000 C 
BRANCH  18  19
ATOM     19  C   UNL     1      -1.565   7.679  35.628  1.00  0.00     0.000 C 
BRANCH  19  20
ATOM     20  C   UNL     1      -1.409   6.150  35.581  1.00  0.00     0.006 C 
BRANCH  20  21
ATOM     21  C   UNL     1      -0.287   5.696  34.637  1.00  0.00     0.053 C 
BRANCH  21  22
ATOM     22  C   UNL     1       0.882   5.191  35.423  1.00  0.00     0.041 C 
ATOM     23  O   UNL     1       1.857   5.950  35.668  1.00  0.00    -0.550 OA
ATOM     24  O   UNL     1       0.920   3.867  35.841  1.00  0.00    -0.550 OA
ENDBRANCH  21  22
ENDBRANCH  20  21
ENDBRANCH  19  20
ENDBRANCH  18  19
ENDBRANCH  17  18
ENDBRANCH  16  17
ENDBRANCH  15  16
ENDBRANCH  14  15
ENDBRANCH  13  14
ENDBRANCH   1  13
TORSDOF 20
ENDMDL
MODEL 9
REMARK VINA RESULT:    -3.170      2.393      4.553
REMARK INTER + INTRA:         -11.315
REMARK INTER:                  -7.369
REMARK INTRA:                  -3.946
REMARK UNBOUND:                -4.438
REMARK SMILES CCCCCCCCCCCCCCCCCCCCCC(=O)[O-]
REMARK SMILES IDX 12 1 11 2 10 3 9 4 8 5 7 6 6 7 5 8 4 9 3 10 2 11 1 12 13 13
REMARK SMILES IDX 14 14 15 15 16 16 17 17 18 18 19 19 20 20 21 21 22 22 23 23
REMARK SMILES IDX 24 24
REMARK H PARENT
REMARK Flexibility Score: inf
ROOT
ATOM      1  C   UNL     1      -2.621   6.029  38.689  1.00  0.00     0.000 C 
ENDROOT
BRANCH   1   2
ATOM      2  C   UNL     1      -2.726   6.870  39.970  1.00  0.00     0.000 C 
BRANCH   2   3
ATOM      3  C   UNL     1      -2.570   8.381  39.718  1.00  0.00     0.000 C 
BRANCH   3   4
ATOM      4  C   UNL     1      -2.248   8.779  38.265  1.00  0.00    -0.000 C 
BRANCH   4   5
ATOM      5  C   UNL     1      -1.443  10.085  38.162  1.00  0.00    -0.000 C 
BRANCH   5   6
ATOM      6  C   UNL     1       0.017   9.856  37.732  1.00  0.00    -0.000 C 
BRANCH   6   7
ATOM      7  C   UNL     1       0.976   9.455  38.866  1.00  0.00    -0.000 C 
BRANCH   7   8
ATOM      8  C   UNL     1       1.252   7.942  38.908  1.00  0.00    -0.000 C 
BRANCH   8   9
ATOM      9  C   UNL     1       1.100   7.364  40.328  1.00  0.00    -0.000 C 
BRANCH   9  10
ATOM     10  C   UNL     1       0.764   8.435  41.389  1.00  0.00    -0.000 C 
BRANCH  10  11
ATOM     11  C   UNL     1       0.284   7.848  42.728  1.00  0.00    -0.003 C 
ATOM     12  C   UNL     1      -1.112   8.323  43.125  1.00  0.00     0.004 C 
ENDBRANCH  10  11
ENDBRANCH   9  10
ENDBRANCH   8   9
ENDBRANCH   7   8
ENDBRANCH   6   7
ENDBRANCH   5   6
ENDBRANCH   4   5
ENDBRANCH   3   4
ENDBRANCH   2   3
ENDBRANCH   1   2
BRANCH   1  13
ATOM     13  C   UNL     1      -1.369   5.139  38.718  1.00  0.00     0.000 C 
BRANCH  13  14
ATOM     14  C   UNL     1      -0.664   5.061  37.351  1.00  0.00     0.000 C 
BRANCH  14  15
ATOM     15  C   UNL     1      -1.350   5.859  36.224  1.00  0.00     0.000 C 
BRANCH  15  16
ATOM     16  C   UNL     1      -0.452   6.892  35.517  1.00  0.00     0.000 C 
BRANCH  16  17
ATOM     17  C   UNL     1      -0.075   6.544  34.062  1.00  0.00     0.000 C 
BRANCH  17  18
ATOM     18  C   UNL     1       1.408   6.192  33.837  1.00  0.00     0.000 C 
BRANCH  18  19
ATOM     19  C   UNL     1       1.809   4.858  34.491  1.00  0.00     0.000 C 
BRANCH  19  20
ATOM     20  C   UNL     1       3.111   4.962  35.300  1.00  0.00     0.006 C 
BRANCH  20  21
ATOM     21  C   UNL     1       2.913   5.638  36.663  1.00  0.00     0.053 C 
BRANCH  21  22
ATOM     22  C   UNL     1       3.689   4.916  37.720  1.00  0.00     0.041 C 
ATOM     23  O   UNL     1       4.858   4.510  37.483  1.00  0.00    -0.550 OA
ATOM     24  O   UNL     1       3.104   4.645  38.950  1.00  0.00    -0.550 OA
ENDBRANCH  21  22
ENDBRANCH  20  21
ENDBRANCH  19  20
ENDBRANCH  18  19
ENDBRANCH  17  18
ENDBRANCH  16  17
ENDBRANCH  15  16
ENDBRANCH  14  15
ENDBRANCH  13  14
ENDBRANCH   1  13
TORSDOF 20
ENDMDL
