MODEL 1
REMARK VINA RESULT:    -5.387      0.000      0.000
REMARK INTER + INTRA:          -6.844
REMARK INTER:                  -6.647
REMARK INTRA:                  -0.197
REMARK UNBOUND:                -0.197
REMARK SMILES CCCCC=CC(C)=O
REMARK SMILES IDX 4 1 3 2 2 3 1 4 5 5 6 6 7 7 9 8 8 9
REMARK H PARENT
REMARK Flexibility Score: inf
ROOT
ATOM      1  C   UNL     1     -14.054  14.114  -0.023  1.00  0.00     0.027 C 
ENDROOT
BRANCH   1   2
ATOM      2  C   UNL     1     -15.048  13.003  -0.398  1.00  0.00     0.004 C 
BRANCH   2   3
ATOM      3  C   UNL     1     -14.415  11.604  -0.341  1.00  0.00    -0.003 C 
ATOM      4  C   UNL     1     -14.079  11.165   1.084  1.00  0.00     0.004 C 
ENDBRANCH   2   3
ENDBRANCH   1   2
BRANCH   1   5
ATOM      5  C   UNL     1     -14.250  14.567   1.399  1.00  0.00    -0.023 C 
ATOM      6  C   UNL     1     -15.104  15.518   1.812  1.00  0.00     0.042 C 
BRANCH   6   7
ATOM      7  C   UNL     1     -16.046  16.287   0.965  1.00  0.00     0.152 C 
ATOM      8  O   UNL     1     -17.119  15.782   0.539  1.00  0.00    -0.295 OA
ATOM      9  C   UNL     1     -15.746  17.719   0.655  1.00  0.00     0.093 C 
ENDBRANCH   6   7
ENDBRANCH   1   5
TORSDOF 4
ENDMDL
MODEL 2
REMARK VINA RESULT:    -5.313      1.253      1.874
REMARK INTER + INTRA:          -6.753
REMARK INTER:                  -6.420
REMARK INTRA:                  -0.333
REMARK UNBOUND:                -0.197
REMARK SMILES CCCCC=CC(C)=O
REMARK SMILES IDX 4 1 3 2 2 3 1 4 5 5 6 6 7 7 9 8 8 9
REMARK H PARENT
REMARK Flexibility Score: inf
ROOT
ATOM      1  C   UNL     1     -14.969  12.900  -0.409  1.00  0.00     0.027 C 
ENDROOT
BRANCH   1   2
ATOM      2  C   UNL     1     -14.329  11.545  -0.063  1.00  0.00     0.004 C 
BRANCH   2   3
ATOM      3  C   UNL     1     -13.981  11.424   1.428  1.00  0.00    -0.003 C 
ATOM      4  C   UNL     1     -12.990  10.296   1.715  1.00  0.00     0.004 C 
ENDBRANCH   2   3
ENDBRANCH   1   2
BRANCH   1   5
ATOM      5  C   UNL     1     -13.969  14.020  -0.303  1.00  0.00    -0.023 C 
ATOM      6  C   UNL     1     -14.057  15.079   0.519  1.00  0.00     0.042 C 
BRANCH   6   7
ATOM      7  C   UNL     1     -15.129  15.343   1.506  1.00  0.00     0.152 C 
ATOM      8  O   UNL     1     -15.063  14.912   2.689  1.00  0.00    -0.295 OA
ATOM      9  C   UNL     1     -16.293  16.194   1.110  1.00  0.00     0.093 C 
ENDBRANCH   6   7
ENDBRANCH   1   5
TORSDOF 4
ENDMDL
MODEL 3
REMARK VINA RESULT:    -5.177      1.881      4.874
REMARK INTER + INTRA:          -6.584
REMARK INTER:                  -6.419
REMARK INTRA:                  -0.165
REMARK UNBOUND:                -0.197
REMARK SMILES CCCCC=CC(C)=O
REMARK SMILES IDX 4 1 3 2 2 3 1 4 5 5 6 6 7 7 9 8 8 9
REMARK H PARENT
REMARK Flexibility Score: inf
ROOT
ATOM      1  C   UNL     1     -13.706  14.433   0.269  1.00  0.00     0.027 C 
ENDROOT
BRANCH   1   2
ATOM      2  C   UNL     1     -14.703  15.316   1.037  1.00  0.00     0.004 C 
BRANCH   2   3
ATOM      3  C   UNL     1     -14.538  16.808   0.712  1.00  0.00    -0.003 C 
ATOM      4  C   UNL     1     -15.867  17.563   0.704  1.00  0.00     0.004 C 
ENDBRANCH   2   3
ENDBRANCH   1   2
BRANCH   1   5
ATOM      5  C   UNL     1     -14.394  13.250  -0.359  1.00  0.00    -0.023 C 
ATOM      6  C   UNL     1     -14.486  12.019   0.171  1.00  0.00     0.042 C 
BRANCH   6   7
ATOM      7  C   UNL     1     -13.962  11.583   1.486  1.00  0.00     0.152 C 
ATOM      8  O   UNL     1     -14.347  12.115   2.562  1.00  0.00    -0.295 OA
ATOM      9  C   UNL     1     -12.998  10.442   1.546  1.00  0.00     0.093 C 
ENDBRANCH   6   7
ENDBRANCH   1   5
TORSDOF 4
ENDMDL
MODEL 4
REMARK VINA RESULT:    -4.987      2.340      4.699
REMARK INTER + INTRA:          -6.350
REMARK INTER:                  -6.101
REMARK INTRA:                  -0.249
REMARK UNBOUND:                -0.197
REMARK SMILES CCCCC=CC(C)=O
REMARK SMILES IDX 4 1 3 2 2 3 1 4 5 5 6 6 7 7 9 8 8 9
REMARK H PARENT
REMARK Flexibility Score: inf
ROOT
ATOM      1  C   UNL     1     -13.612  14.577   0.478  1.00  0.00     0.027 C 
ENDROOT
BRANCH   1   2
ATOM      2  C   UNL     1     -14.409  15.429   1.480  1.00  0.00     0.004 C 
BRANCH   2   3
ATOM      3  C   UNL     1     -15.817  15.772   0.970  1.00  0.00    -0.003 C 
ATOM      4  C   UNL     1     -16.021  17.273   0.763  1.00  0.00     0.004 C 
ENDBRANCH   2   3
ENDBRANCH   1   2
BRANCH   1   5
ATOM      5  C   UNL     1     -14.493  13.561  -0.198  1.00  0.00    -0.023 C 
ATOM      6  C   UNL     1     -14.603  12.265   0.138  1.00  0.00     0.042 C 
BRANCH   6   7
ATOM      7  C   UNL     1     -13.912  11.581   1.255  1.00  0.00     0.152 C 
ATOM      8  O   UNL     1     -13.033  10.701   1.053  1.00  0.00    -0.295 OA
ATOM      9  C   UNL     1     -14.219  11.987   2.661  1.00  0.00     0.093 C 
ENDBRANCH   6   7
ENDBRANCH   1   5
TORSDOF 4
ENDMDL
MODEL 5
REMARK VINA RESULT:    -4.985      1.549      2.154
REMARK INTER + INTRA:          -6.348
REMARK INTER:                  -6.032
REMARK INTRA:                  -0.316
REMARK UNBOUND:                -0.197
REMARK SMILES CCCCC=CC(C)=O
REMARK SMILES IDX 4 1 3 2 2 3 1 4 5 5 6 6 7 7 9 8 8 9
REMARK H PARENT
REMARK Flexibility Score: inf
ROOT
ATOM      1  C   UNL     1     -13.387  12.934   2.004  1.00  0.00     0.027 C 
ENDROOT
BRANCH   1   2
ATOM      2  C   UNL     1     -13.970  11.566   1.614  1.00  0.00     0.004 C 
BRANCH   2   3
ATOM      3  C   UNL     1     -14.304  11.474   0.117  1.00  0.00    -0.003 C 
ATOM      4  C   UNL     1     -14.684  12.825  -0.488  1.00  0.00     0.004 C 
ENDBRANCH   2   3
ENDBRANCH   1   2
BRANCH   1   5
ATOM      5  C   UNL     1     -14.220  13.601   3.065  1.00  0.00    -0.023 C 
ATOM      6  C   UNL     1     -14.863  14.774   2.941  1.00  0.00     0.042 C 
BRANCH   6   7
ATOM      7  C   UNL     1     -14.911  15.630   1.733  1.00  0.00     0.152 C 
ATOM      8  O   UNL     1     -13.863  16.079   1.195  1.00  0.00    -0.295 OA
ATOM      9  C   UNL     1     -16.232  15.923   1.098  1.00  0.00     0.093 C 
ENDBRANCH   6   7
ENDBRANCH   1   5
TORSDOF 4
ENDMDL
MODEL 6
REMARK VINA RESULT:    -4.924      2.512      3.341
REMARK INTER + INTRA:          -6.272
REMARK INTER:                  -5.856
REMARK INTRA:                  -0.416
REMARK UNBOUND:                -0.197
REMARK SMILES CCCCC=CC(C)=O
REMARK SMILES IDX 4 1 3 2 2 3 1 4 5 5 6 6 7 7 9 8 8 9
REMARK H PARENT
REMARK Flexibility Score: inf
ROOT
ATOM      1  C   UNL     1     -13.653  13.967   0.964  1.00  0.00     0.027 C 
ENDROOT
BRANCH   1   2
ATOM      2  C   UNL     1     -14.487  13.613  -0.278  1.00  0.00     0.004 C 
BRANCH   2   3
ATOM      3  C   UNL     1     -14.742  12.103  -0.406  1.00  0.00    -0.003 C 
ATOM      4  C   UNL     1     -14.091  11.297   0.719  1.00  0.00     0.004 C 
ENDBRANCH   2   3
ENDBRANCH   1   2
BRANCH   1   5
ATOM      5  C   UNL     1     -14.453  14.782   1.945  1.00  0.00    -0.023 C 
ATOM      6  C   UNL     1     -14.709  14.450   3.221  1.00  0.00     0.042 C 
BRANCH   6   7
ATOM      7  C   UNL     1     -14.233  13.241   3.931  1.00  0.00     0.152 C 
ATOM      8  O   UNL     1     -14.952  12.212   4.046  1.00  0.00    -0.295 OA
ATOM      9  C   UNL     1     -12.841  13.215   4.476  1.00  0.00     0.093 C 
ENDBRANCH   6   7
ENDBRANCH   1   5
TORSDOF 4
ENDMDL
MODEL 7
REMARK VINA RESULT:    -4.845      3.204      5.178
REMARK INTER + INTRA:          -6.175
REMARK INTER:                  -5.989
REMARK INTRA:                  -0.186
REMARK UNBOUND:                -0.197
REMARK SMILES CCCCC=CC(C)=O
REMARK SMILES IDX 4 1 3 2 2 3 1 4 5 5 6 6 7 7 9 8 8 9
REMARK H PARENT
REMARK Flexibility Score: inf
ROOT
ATOM      1  C   UNL     1     -14.580  14.500   2.679  1.00  0.00     0.027 C 
ENDROOT
BRANCH   1   2
ATOM      2  C   UNL     1     -14.559  15.518   1.527  1.00  0.00     0.004 C 
BRANCH   2   3
ATOM      3  C   UNL     1     -15.965  16.015   1.157  1.00  0.00    -0.003 C 
ATOM      4  C   UNL     1     -15.979  17.482   0.725  1.00  0.00     0.004 C 
ENDBRANCH   2   3
ENDBRANCH   1   2
BRANCH   1   5
ATOM      5  C   UNL     1     -13.973  13.188   2.259  1.00  0.00    -0.023 C 
ATOM      6  C   UNL     1     -13.435  12.270   3.079  1.00  0.00     0.042 C 
BRANCH   6   7
ATOM      7  C   UNL     1     -13.360  12.343   4.557  1.00  0.00     0.152 C 
ATOM      8  O   UNL     1     -14.242  11.824   5.293  1.00  0.00    -0.295 OA
ATOM      9  C   UNL     1     -12.177  12.997   5.196  1.00  0.00     0.093 C 
ENDBRANCH   6   7
ENDBRANCH   1   5
TORSDOF 4
ENDMDL
MODEL 8
REMARK VINA RESULT:    -4.653      2.091      3.180
REMARK INTER + INTRA:          -5.938
REMARK INTER:                  -5.498
REMARK INTRA:                  -0.440
REMARK UNBOUND:                -0.197
REMARK SMILES CCCCC=CC(C)=O
REMARK SMILES IDX 4 1 3 2 2 3 1 4 5 5 6 6 7 7 9 8 8 9
REMARK H PARENT
REMARK Flexibility Score: inf
ROOT
ATOM      1  C   UNL     1     -13.714  13.476   3.390  1.00  0.00     0.027 C 
ENDROOT
BRANCH   1   2
ATOM      2  C   UNL     1     -14.432  12.118   3.474  1.00  0.00     0.004 C 
BRANCH   2   3
ATOM      3  C   UNL     1     -13.488  10.937   3.204  1.00  0.00    -0.003 C 
ATOM      4  C   UNL     1     -13.336  10.629   1.714  1.00  0.00     0.004 C 
ENDBRANCH   2   3
ENDBRANCH   1   2
BRANCH   1   5
ATOM      5  C   UNL     1     -14.661  14.570   2.975  1.00  0.00    -0.023 C 
ATOM      6  C   UNL     1     -14.814  15.048   1.728  1.00  0.00     0.042 C 
BRANCH   6   7
ATOM      7  C   UNL     1     -14.114  14.578   0.511  1.00  0.00     0.152 C 
ATOM      8  O   UNL     1     -13.023  15.085   0.135  1.00  0.00    -0.295 OA
ATOM      9  C   UNL     1     -14.683  13.432  -0.262  1.00  0.00     0.093 C 
ENDBRANCH   6   7
ENDBRANCH   1   5
TORSDOF 4
ENDMDL
MODEL 9
REMARK VINA RESULT:    -4.644      2.584      3.241
REMARK INTER + INTRA:          -5.926
REMARK INTER:                  -5.680
REMARK INTRA:                  -0.246
REMARK UNBOUND:                -0.197
REMARK SMILES CCCCC=CC(C)=O
REMARK SMILES IDX 4 1 3 2 2 3 1 4 5 5 6 6 7 7 9 8 8 9
REMARK H PARENT
REMARK Flexibility Score: inf
ROOT
ATOM      1  C   UNL     1     -14.386  13.911   3.167  1.00  0.00     0.027 C 
ENDROOT
BRANCH   1   2
ATOM      2  C   UNL     1     -14.534  12.595   3.949  1.00  0.00     0.004 C 
BRANCH   2   3
ATOM      3  C   UNL     1     -13.178  11.976   4.322  1.00  0.00    -0.003 C 
ATOM      4  C   UNL     1     -12.274  12.948   5.080  1.00  0.00     0.004 C 
ENDBRANCH   2   3
ENDBRANCH   1   2
BRANCH   1   5
ATOM      5  C   UNL     1     -14.196  13.654   1.696  1.00  0.00    -0.023 C 
ATOM      6  C   UNL     1     -14.389  14.545   0.709  1.00  0.00     0.042 C 
BRANCH   6   7
ATOM      7  C   UNL     1     -14.792  15.961   0.866  1.00  0.00     0.152 C 
ATOM      8  O   UNL     1     -13.951  16.899   0.821  1.00  0.00    -0.295 OA
ATOM      9  C   UNL     1     -16.241  16.295   1.023  1.00  0.00     0.093 C 
ENDBRANCH   6   7
ENDBRANCH   1   5
TORSDOF 4
ENDMDL
