MODEL 1
REMARK VINA RESULT:    -3.515      0.000      0.000
REMARK INTER + INTRA:          -4.084
REMARK INTER:                  -4.028
REMARK INTRA:                  -0.056
REMARK UNBOUND:                -0.056
REMARK SMILES CC(C)[C@H]([NH3+])C(=O)[O-]
REMARK SMILES IDX 4 1 5 2 6 6 7 7 8 8 2 9 1 10 3 11
REMARK H PARENT 5 3 5 4 5 5
REMARK Flexibility Score: inf
ROOT
ATOM      1  C   UNL     1       2.750  28.138  13.431  1.00  0.00     0.230 C 
ENDROOT
BRANCH   1   2
ATOM      2  N   UNL     1       2.375  26.783  13.000  1.00  0.00    -0.350 N 
ATOM      3  H   UNL     1       2.595  26.657  11.985  1.00  0.00     0.345 HD
ATOM      4  H   UNL     1       2.928  26.079  13.542  1.00  0.00     0.345 HD
ATOM      5  H   UNL     1       1.358  26.599  13.157  1.00  0.00     0.345 HD
ENDBRANCH   1   2
BRANCH   1   6
ATOM      6  C   UNL     1       1.656  28.750  14.273  1.00  0.00     0.099 C 
ATOM      7  O   UNL     1       0.796  29.500  13.740  1.00  0.00    -0.544 OA
ATOM      8  O   UNL     1       1.566  28.471  15.631  1.00  0.00    -0.544 OA
ENDBRANCH   1   6
BRANCH   1   9
ATOM      9  C   UNL     1       3.154  29.036  12.224  1.00  0.00     0.047 C 
ATOM     10  C   UNL     1       3.506  28.189  10.991  1.00  0.00     0.014 C 
ATOM     11  C   UNL     1       4.303  30.011  12.537  1.00  0.00     0.014 C 
ENDBRANCH   1   9
TORSDOF 3
ENDMDL
MODEL 2
REMARK VINA RESULT:    -3.488      1.417      2.162
REMARK INTER + INTRA:          -4.053
REMARK INTER:                  -4.008
REMARK INTRA:                  -0.045
REMARK UNBOUND:                -0.056
REMARK SMILES CC(C)[C@H]([NH3+])C(=O)[O-]
REMARK SMILES IDX 4 1 5 2 6 6 7 7 8 8 2 9 1 10 3 11
REMARK H PARENT 5 3 5 4 5 5
REMARK Flexibility Score: inf
ROOT
ATOM      1  C   UNL     1       2.689  28.169  12.967  1.00  0.00     0.230 C 
ENDROOT
BRANCH   1   2
ATOM      2  N   UNL     1       2.512  27.229  14.083  1.00  0.00    -0.350 N 
ATOM      3  H   UNL     1       2.160  27.737  14.927  1.00  0.00     0.345 HD
ATOM      4  H   UNL     1       1.803  26.505  13.821  1.00  0.00     0.345 HD
ATOM      5  H   UNL     1       3.408  26.745  14.322  1.00  0.00     0.345 HD
ENDBRANCH   1   2
BRANCH   1   6
ATOM      6  C   UNL     1       1.649  29.262  13.022  1.00  0.00     0.099 C 
ATOM      7  O   UNL     1       0.803  29.279  13.954  1.00  0.00    -0.544 OA
ATOM      8  O   UNL     1       1.631  30.273  12.068  1.00  0.00    -0.544 OA
ENDBRANCH   1   6
BRANCH   1   9
ATOM      9  C   UNL     1       2.719  27.435  11.593  1.00  0.00     0.047 C 
ATOM     10  C   UNL     1       2.671  25.910  11.774  1.00  0.00     0.014 C 
ATOM     11  C   UNL     1       3.918  27.823  10.711  1.00  0.00     0.014 C 
ENDBRANCH   1   9
TORSDOF 3
ENDMDL
MODEL 3
REMARK VINA RESULT:    -3.485      2.709      3.244
REMARK INTER + INTRA:          -4.050
REMARK INTER:                  -4.012
REMARK INTRA:                  -0.038
REMARK UNBOUND:                -0.056
REMARK SMILES CC(C)[C@H]([NH3+])C(=O)[O-]
REMARK SMILES IDX 4 1 5 2 6 6 7 7 8 8 2 9 1 10 3 11
REMARK H PARENT 5 3 5 4 5 5
REMARK Flexibility Score: inf
ROOT
ATOM      1  C   UNL     1       2.285  27.667  12.577  1.00  0.00     0.230 C 
ENDROOT
BRANCH   1   2
ATOM      2  N   UNL     1       2.696  27.400  13.964  1.00  0.00    -0.350 N 
ATOM      3  H   UNL     1       3.115  28.260  14.385  1.00  0.00     0.345 HD
ATOM      4  H   UNL     1       1.857  27.136  14.531  1.00  0.00     0.345 HD
ATOM      5  H   UNL     1       3.390  26.619  14.014  1.00  0.00     0.345 HD
ENDBRANCH   1   2
BRANCH   1   6
ATOM      6  C   UNL     1       2.814  26.598  11.651  1.00  0.00     0.099 C 
ATOM      7  O   UNL     1       2.423  25.407  11.775  1.00  0.00    -0.544 OA
ATOM      8  O   UNL     1       3.708  26.918  10.636  1.00  0.00    -0.544 OA
ENDBRANCH   1   6
BRANCH   1   9
ATOM      9  C   UNL     1       2.682  29.105  12.126  1.00  0.00     0.047 C 
ATOM     10  C   UNL     1       3.940  29.593  12.860  1.00  0.00     0.014 C 
ATOM     11  C   UNL     1       1.549  30.135  12.279  1.00  0.00     0.014 C 
ENDBRANCH   1   9
TORSDOF 3
ENDMDL
MODEL 4
REMARK VINA RESULT:    -3.251      2.728      3.555
REMARK INTER + INTRA:          -3.781
REMARK INTER:                  -3.726
REMARK INTRA:                  -0.055
REMARK UNBOUND:                -0.056
REMARK SMILES CC(C)[C@H]([NH3+])C(=O)[O-]
REMARK SMILES IDX 4 1 5 2 6 6 7 7 8 8 2 9 1 10 3 11
REMARK H PARENT 5 3 5 4 5 5
REMARK Flexibility Score: inf
ROOT
ATOM      1  C   UNL     1       2.609  27.665  12.034  1.00  0.00     0.230 C 
ENDROOT
BRANCH   1   2
ATOM      2  N   UNL     1       2.770  26.394  12.756  1.00  0.00    -0.350 N 
ATOM      3  H   UNL     1       2.226  26.419  13.650  1.00  0.00     0.345 HD
ATOM      4  H   UNL     1       2.396  25.611  12.171  1.00  0.00     0.345 HD
ATOM      5  H   UNL     1       3.774  26.200  12.970  1.00  0.00     0.345 HD
ENDBRANCH   1   2
BRANCH   1   6
ATOM      6  C   UNL     1       3.711  27.842  11.017  1.00  0.00     0.099 C 
ATOM      7  O   UNL     1       3.928  26.944  10.161  1.00  0.00    -0.544 OA
ATOM      8  O   UNL     1       4.474  29.003  10.994  1.00  0.00    -0.544 OA
ENDBRANCH   1   6
BRANCH   1   9
ATOM      9  C   UNL     1       2.493  28.873  13.012  1.00  0.00     0.047 C 
ATOM     10  C   UNL     1       2.452  28.405  14.475  1.00  0.00     0.014 C 
ATOM     11  C   UNL     1       1.293  29.791  12.720  1.00  0.00     0.014 C 
ENDBRANCH   1   9
TORSDOF 3
ENDMDL
MODEL 5
REMARK VINA RESULT:    -3.160      5.879      6.882
REMARK INTER + INTRA:          -3.678
REMARK INTER:                  -3.631
REMARK INTRA:                  -0.047
REMARK UNBOUND:                -0.056
REMARK SMILES CC(C)[C@H]([NH3+])C(=O)[O-]
REMARK SMILES IDX 4 1 5 2 6 6 7 7 8 8 2 9 1 10 3 11
REMARK H PARENT 5 3 5 4 5 5
REMARK Flexibility Score: inf
ROOT
ATOM      1  C   UNL     1       5.872  24.302  10.046  1.00  0.00     0.230 C 
ENDROOT
BRANCH   1   2
ATOM      2  N   UNL     1       6.089  24.172  11.495  1.00  0.00    -0.350 N 
ATOM      3  H   UNL     1       6.563  25.028  11.864  1.00  0.00     0.345 HD
ATOM      4  H   UNL     1       5.165  24.079  11.979  1.00  0.00     0.345 HD
ATOM      5  H   UNL     1       6.669  23.333  11.722  1.00  0.00     0.345 HD
ENDBRANCH   1   2
BRANCH   1   6
ATOM      6  C   UNL     1       6.934  25.178   9.426  1.00  0.00     0.099 C 
ATOM      7  O   UNL     1       7.978  24.659   8.948  1.00  0.00    -0.544 OA
ATOM      8  O   UNL     1       6.761  26.554   9.348  1.00  0.00    -0.544 OA
ENDBRANCH   1   6
BRANCH   1   9
ATOM      9  C   UNL     1       4.427  24.785   9.721  1.00  0.00     0.047 C 
ATOM     10  C   UNL     1       3.655  25.141  11.001  1.00  0.00     0.014 C 
ATOM     11  C   UNL     1       3.617  23.785   8.878  1.00  0.00     0.014 C 
ENDBRANCH   1   9
TORSDOF 3
ENDMDL
MODEL 6
REMARK VINA RESULT:    -3.108      3.466      3.994
REMARK INTER + INTRA:          -3.618
REMARK INTER:                  -3.571
REMARK INTRA:                  -0.047
REMARK UNBOUND:                -0.056
REMARK SMILES CC(C)[C@H]([NH3+])C(=O)[O-]
REMARK SMILES IDX 4 1 5 2 6 6 7 7 8 8 2 9 1 10 3 11
REMARK H PARENT 5 3 5 4 5 5
REMARK Flexibility Score: inf
ROOT
ATOM      1  C   UNL     1       2.751  25.795  11.829  1.00  0.00     0.230 C 
ENDROOT
BRANCH   1   2
ATOM      2  N   UNL     1       4.106  25.458  11.367  1.00  0.00    -0.350 N 
ATOM      3  H   UNL     1       4.244  24.421  11.388  1.00  0.00     0.345 HD
ATOM      4  H   UNL     1       4.229  25.782  10.380  1.00  0.00     0.345 HD
ATOM      5  H   UNL     1       4.836  25.913  11.961  1.00  0.00     0.345 HD
ENDBRANCH   1   2
BRANCH   1   6
ATOM      6  C   UNL     1       1.712  25.159  10.937  1.00  0.00     0.099 C 
ATOM      7  O   UNL     1       0.593  24.826  11.410  1.00  0.00    -0.544 OA
ATOM      8  O   UNL     1       1.964  24.961   9.584  1.00  0.00    -0.544 OA
ENDBRANCH   1   6
BRANCH   1   9
ATOM      9  C   UNL     1       2.558  27.334  11.975  1.00  0.00     0.047 C 
ATOM     10  C   UNL     1       3.575  28.108  11.123  1.00  0.00     0.014 C 
ATOM     11  C   UNL     1       2.609  27.827  13.432  1.00  0.00     0.014 C 
ENDBRANCH   1   9
TORSDOF 3
ENDMDL
MODEL 7
REMARK VINA RESULT:    -3.099     20.190     20.894
REMARK INTER + INTRA:          -3.608
REMARK INTER:                  -3.547
REMARK INTRA:                  -0.061
REMARK UNBOUND:                -0.056
REMARK SMILES CC(C)[C@H]([NH3+])C(=O)[O-]
REMARK SMILES IDX 4 1 5 2 6 6 7 7 8 8 2 9 1 10 3 11
REMARK H PARENT 5 3 5 4 5 5
REMARK Flexibility Score: inf
ROOT
ATOM      1  C   UNL     1     -10.028  19.298  25.865  1.00  0.00     0.230 C 
ENDROOT
BRANCH   1   2
ATOM      2  N   UNL     1     -10.733  20.500  25.395  1.00  0.00    -0.350 N 
ATOM      3  H   UNL     1     -11.501  20.231  24.738  1.00  0.00     0.345 HD
ATOM      4  H   UNL     1     -11.163  20.994  26.212  1.00  0.00     0.345 HD
ATOM      5  H   UNL     1     -10.083  21.161  24.912  1.00  0.00     0.345 HD
ENDBRANCH   1   2
BRANCH   1   6
ATOM      6  C   UNL     1     -10.656  18.053  25.284  1.00  0.00     0.099 C 
ATOM      7  O   UNL     1     -11.125  17.169  26.048  1.00  0.00    -0.544 OA
ATOM      8  O   UNL     1     -10.750  17.883  23.908  1.00  0.00    -0.544 OA
ENDBRANCH   1   6
BRANCH   1   9
ATOM      9  C   UNL     1      -9.933  19.255  27.420  1.00  0.00     0.047 C 
ATOM     10  C   UNL     1     -10.504  20.535  28.049  1.00  0.00     0.014 C 
ATOM     11  C   UNL     1      -8.510  19.000  27.944  1.00  0.00     0.014 C 
ENDBRANCH   1   9
TORSDOF 3
ENDMDL
MODEL 8
REMARK VINA RESULT:    -3.064      2.289      2.622
REMARK INTER + INTRA:          -3.568
REMARK INTER:                  -3.573
REMARK INTRA:                   0.006
REMARK UNBOUND:                -0.056
REMARK SMILES CC(C)[C@H]([NH3+])C(=O)[O-]
REMARK SMILES IDX 4 1 5 2 6 6 7 7 8 8 2 9 1 10 3 11
REMARK H PARENT 5 3 5 4 5 5
REMARK Flexibility Score: inf
ROOT
ATOM      1  C   UNL     1       1.624  29.042  12.516  1.00  0.00     0.230 C 
ENDROOT
BRANCH   1   2
ATOM      2  N   UNL     1       0.513  29.257  13.455  1.00  0.00    -0.350 N 
ATOM      3  H   UNL     1      -0.165  28.462  13.395  1.00  0.00     0.345 HD
ATOM      4  H   UNL     1       0.885  29.293  14.433  1.00  0.00     0.345 HD
ATOM      5  H   UNL     1       0.012  30.152  13.257  1.00  0.00     0.345 HD
ENDBRANCH   1   2
BRANCH   1   6
ATOM      6  C   UNL     1       2.567  27.986  13.039  1.00  0.00     0.099 C 
ATOM      7  O   UNL     1       2.912  27.994  14.250  1.00  0.00    -0.544 OA
ATOM      8  O   UNL     1       3.039  26.980  12.204  1.00  0.00    -0.544 OA
ENDBRANCH   1   6
BRANCH   1   9
ATOM      9  C   UNL     1       2.349  30.377  12.166  1.00  0.00     0.047 C 
ATOM     10  C   UNL     1       1.561  31.184  11.124  1.00  0.00     0.014 C 
ATOM     11  C   UNL     1       3.801  30.185  11.695  1.00  0.00     0.014 C 
ENDBRANCH   1   9
TORSDOF 3
ENDMDL
MODEL 9
REMARK VINA RESULT:    -2.896      2.243      2.565
REMARK INTER + INTRA:          -3.375
REMARK INTER:                  -3.299
REMARK INTRA:                  -0.076
REMARK UNBOUND:                -0.056
REMARK SMILES CC(C)[C@H]([NH3+])C(=O)[O-]
REMARK SMILES IDX 4 1 5 2 6 6 7 7 8 8 2 9 1 10 3 11
REMARK H PARENT 5 3 5 4 5 5
REMARK Flexibility Score: inf
ROOT
ATOM      1  C   UNL     1       3.598  29.175  11.919  1.00  0.00     0.230 C 
ENDROOT
BRANCH   1   2
ATOM      2  N   UNL     1       4.580  28.452  11.095  1.00  0.00    -0.350 N 
ATOM      3  H   UNL     1       4.248  27.476  10.917  1.00  0.00     0.345 HD
ATOM      4  H   UNL     1       4.682  28.934  10.172  1.00  0.00     0.345 HD
ATOM      5  H   UNL     1       5.516  28.418  11.558  1.00  0.00     0.345 HD
ENDBRANCH   1   2
BRANCH   1   6
ATOM      6  C   UNL     1       2.811  28.212  12.775  1.00  0.00     0.099 C 
ATOM      7  O   UNL     1       2.185  27.260  12.239  1.00  0.00    -0.544 OA
ATOM      8  O   UNL     1       2.793  28.345  14.158  1.00  0.00    -0.544 OA
ENDBRANCH   1   6
BRANCH   1   9
ATOM      9  C   UNL     1       2.686  30.095  11.053  1.00  0.00     0.047 C 
ATOM     10  C   UNL     1       3.511  31.151  10.302  1.00  0.00     0.014 C 
ATOM     11  C   UNL     1       1.561  30.777  11.852  1.00  0.00     0.014 C 
ENDBRANCH   1   9
TORSDOF 3
ENDMDL
