MODEL 1
REMARK VINA RESULT:    -3.344      0.000      0.000
REMARK INTER + INTRA:          -4.230
REMARK INTER:                  -5.103
REMARK INTRA:                   0.874
REMARK UNBOUND:                 0.874
REMARK SMILES CC1=CCC[C@H](C)C(=O)C[C@@H](C(C)C)C(=O)C1
REMARK SMILES IDX 8 1 9 2 6 3 7 4 5 5 4 6 3 7 2 8 1 9 10 11 11 12 15 13 16 14
REMARK SMILES IDX 17 15 12 17 13 18 14 19
REMARK H PARENT
REMARK Flexibility Score: 70.00
ROOT
ATOM      1  C   UNL     1       2.628 144.127  -8.116  1.00  0.00     0.136 C 
ATOM      2  O   UNL     1       2.476 144.838  -9.097  1.00  0.00    -0.299 OA
ENDROOT
BRANCH   1   3
ATOM      3  C   UNL     1       3.049 142.682  -8.330  1.00  0.00     0.053 C 
ATOM      4  C   UNL     1       1.939 141.881  -9.025  1.00  0.00     0.016 C 
BRANCH   3   5
ATOM      5  C   UNL     1       4.377 142.580  -9.104  1.00  0.00     0.015 C 
BRANCH   5   6
ATOM      6  C   UNL     1       5.499 143.356  -8.390  1.00  0.00     0.028 C 
BRANCH   6   7
ATOM      7  C   UNL     1       5.615 144.797  -8.821  1.00  0.00    -0.028 C 
ATOM      8  C   UNL     1       5.598 145.885  -8.009  1.00  0.00    -0.070 CG0
ATOM      9  C   UNL     1       5.896 147.221  -8.648  1.00  0.00     0.039 C 
ATOM     10  G   UNL     1       5.192 145.869  -6.538  1.00  0.00     0.000 G0
ENDBRANCH   6   7
ENDBRANCH   5   6
ENDBRANCH   3   5
ENDBRANCH   1   3
BRANCH   1  11
ATOM     11  C   UNL     1       2.449 144.721  -6.731  1.00  0.00     0.087 C 
BRANCH  11  12
ATOM     12  C   UNL     1       2.611 146.266  -6.617  1.00  0.00     0.066 C 
BRANCH  12  13
ATOM     13  C   UNL     1       3.995 146.703  -6.155  1.00  0.00     0.140 C 
ATOM     14  O   UNL     1       4.152 147.777  -5.592  1.00  0.00    -0.299 OA
BRANCH  13  15
ATOM     15  C   UNL     1       5.197 145.870  -6.530  1.00  0.00     0.106 CG0
ATOM     16  G   UNL     1       5.585 145.885  -8.005  1.00  0.00     0.000 G0
ENDBRANCH  13  15
ENDBRANCH  12  13
BRANCH  12  17
ATOM     17  C   UNL     1       1.452 147.025  -5.887  1.00  0.00    -0.006 C 
ATOM     18  C   UNL     1       0.069 146.377  -6.042  1.00  0.00     0.008 C 
ATOM     19  C   UNL     1       1.381 148.503  -6.309  1.00  0.00     0.008 C 
ENDBRANCH  12  17
ENDBRANCH  11  12
ENDBRANCH   1  11
TORSDOF 1
ENDMDL
MODEL 2
REMARK VINA RESULT:    -3.229      1.599      3.502
REMARK INTER + INTRA:          -4.055
REMARK INTER:                  -5.794
REMARK INTRA:                   1.739
REMARK UNBOUND:                 0.874
REMARK SMILES CC1=CCC[C@H](C)C(=O)C[C@@H](C(C)C)C(=O)C1
REMARK SMILES IDX 8 1 9 2 6 3 7 4 5 5 4 6 3 7 2 8 1 9 10 11 11 12 15 13 16 14
REMARK SMILES IDX 17 15 12 17 13 18 14 19
REMARK H PARENT
REMARK Flexibility Score: 70.00
ROOT
ATOM      1  C   UNL     1       4.985 146.055  -6.394  1.00  0.00     0.136 C 
ATOM      2  O   UNL     1       5.178 147.257  -6.296  1.00  0.00    -0.299 OA
ENDROOT
BRANCH   1   3
ATOM      3  C   UNL     1       6.122 145.180  -6.898  1.00  0.00     0.053 C 
ATOM      4  C   UNL     1       6.189 143.860  -6.118  1.00  0.00     0.016 C 
BRANCH   3   5
ATOM      5  C   UNL     1       6.023 144.927  -8.414  1.00  0.00     0.015 C 
BRANCH   5   6
ATOM      6  C   UNL     1       5.972 143.421  -8.727  1.00  0.00     0.028 C 
BRANCH   6   7
ATOM      7  C   UNL     1       4.835 142.696  -8.050  1.00  0.00    -0.028 C 
ATOM      8  C   UNL     1       3.510 142.880  -8.284  1.00  0.00    -0.070 CG0
ATOM      9  C   UNL     1       2.557 141.923  -7.607  1.00  0.00     0.039 C 
ATOM     10  G   UNL     1       2.917 144.039  -9.078  1.00  0.00     0.000 G0
ENDBRANCH   6   7
ENDBRANCH   5   6
ENDBRANCH   3   5
ENDBRANCH   1   3
BRANCH   1  11
ATOM     11  C   UNL     1       3.651 145.477  -5.960  1.00  0.00     0.087 C 
BRANCH  11  12
ATOM     12  C   UNL     1       2.489 145.573  -6.994  1.00  0.00     0.066 C 
BRANCH  12  13
ATOM     13  C   UNL     1       2.940 145.399  -8.437  1.00  0.00     0.140 C 
ATOM     14  O   UNL     1       3.231 146.372  -9.119  1.00  0.00    -0.299 OA
BRANCH  13  15
ATOM     15  C   UNL     1       2.883 144.029  -9.071  1.00  0.00     0.106 CG0
ATOM     16  G   UNL     1       3.498 142.893  -8.260  1.00  0.00     0.000 G0
ENDBRANCH  13  15
ENDBRANCH  12  13
BRANCH  12  17
ATOM     17  C   UNL     1       1.496 146.768  -6.800  1.00  0.00    -0.006 C 
ATOM     18  C   UNL     1       1.907 147.768  -5.711  1.00  0.00     0.008 C 
ATOM     19  C   UNL     1       0.059 146.282  -6.541  1.00  0.00     0.008 C 
ENDBRANCH  12  17
ENDBRANCH  11  12
ENDBRANCH   1  11
TORSDOF 1
ENDMDL
MODEL 3
REMARK VINA RESULT:    -2.614      1.421      1.689
REMARK INTER + INTRA:          -3.116
REMARK INTER:                  -4.025
REMARK INTRA:                   0.909
REMARK UNBOUND:                 0.874
REMARK SMILES CC1=CCC[C@H](C)C(=O)C[C@@H](C(C)C)C(=O)C1
REMARK SMILES IDX 8 1 9 2 6 3 7 4 5 5 4 6 3 7 2 8 1 9 10 11 11 12 15 13 16 14
REMARK SMILES IDX 17 15 12 17 13 18 14 19
REMARK H PARENT
REMARK Flexibility Score: 70.00
ROOT
ATOM      1  C   UNL     1       2.707 143.993  -6.810  1.00  0.00     0.136 C 
ATOM      2  O   UNL     1       2.800 144.223  -5.614  1.00  0.00    -0.299 OA
ENDROOT
BRANCH   1   3
ATOM      3  C   UNL     1       3.292 142.694  -7.343  1.00  0.00     0.053 C 
ATOM      4  C   UNL     1       2.462 142.156  -8.516  1.00  0.00     0.016 C 
BRANCH   3   5
ATOM      5  C   UNL     1       4.774 142.850  -7.733  1.00  0.00     0.015 C 
BRANCH   5   6
ATOM      6  C   UNL     1       4.922 143.557  -9.092  1.00  0.00     0.028 C 
BRANCH   6   7
ATOM      7  C   UNL     1       6.018 144.593  -9.125  1.00  0.00    -0.028 C 
ATOM      8  C   UNL     1       5.870 145.929  -8.932  1.00  0.00    -0.070 CG0
ATOM      9  C   UNL     1       7.133 146.752  -8.847  1.00  0.00     0.039 C 
ATOM     10  G   UNL     1       4.533 146.664  -8.910  1.00  0.00     0.000 G0
ENDBRANCH   6   7
ENDBRANCH   5   6
ENDBRANCH   3   5
ENDBRANCH   1   3
BRANCH   1  11
ATOM     11  C   UNL     1       1.969 144.974  -7.702  1.00  0.00     0.087 C 
BRANCH  11  12
ATOM     12  C   UNL     1       2.333 146.478  -7.524  1.00  0.00     0.066 C 
BRANCH  12  13
ATOM     13  C   UNL     1       3.830 146.753  -7.579  1.00  0.00     0.140 C 
ATOM     14  O   UNL     1       4.429 147.128  -6.581  1.00  0.00    -0.299 OA
BRANCH  13  15
ATOM     15  C   UNL     1       4.543 146.707  -8.909  1.00  0.00     0.106 CG0
ATOM     16  G   UNL     1       5.860 145.936  -8.934  1.00  0.00     0.000 G0
ENDBRANCH  13  15
ENDBRANCH  12  13
BRANCH  12  17
ATOM     17  C   UNL     1       1.613 147.224  -6.351  1.00  0.00    -0.006 C 
ATOM     18  C   UNL     1       2.383 147.216  -5.023  1.00  0.00     0.008 C 
ATOM     19  C   UNL     1       0.187 146.693  -6.126  1.00  0.00     0.008 C 
ENDBRANCH  12  17
ENDBRANCH  11  12
ENDBRANCH   1  11
TORSDOF 1
ENDMDL
MODEL 4
REMARK VINA RESULT:    -2.569      1.544      3.087
REMARK INTER + INTRA:          -3.047
REMARK INTER:                  -5.810
REMARK INTRA:                   2.763
REMARK UNBOUND:                 0.874
REMARK SMILES CC1=CCC[C@H](C)C(=O)C[C@@H](C(C)C)C(=O)C1
REMARK SMILES IDX 8 1 9 2 6 3 7 4 5 5 4 6 3 7 2 8 1 9 10 11 11 12 15 13 16 14
REMARK SMILES IDX 17 15 12 17 13 18 14 19
REMARK H PARENT
REMARK Flexibility Score: 70.00
ROOT
ATOM      1  C   UNL     1       5.059 145.274  -6.113  1.00  0.00     0.136 C 
ATOM      2  O   UNL     1       5.278 146.451  -6.354  1.00  0.00    -0.299 OA
ENDROOT
BRANCH   1   3
ATOM      3  C   UNL     1       6.168 144.266  -6.371  1.00  0.00     0.053 C 
ATOM      4  C   UNL     1       6.758 143.746  -5.053  1.00  0.00     0.016 C 
BRANCH   3   5
ATOM      5  C   UNL     1       5.691 143.105  -7.264  1.00  0.00     0.015 C 
BRANCH   5   6
ATOM      6  C   UNL     1       5.737 143.493  -8.753  1.00  0.00     0.028 C 
BRANCH   6   7
ATOM      7  C   UNL     1       5.595 144.974  -9.004  1.00  0.00    -0.028 C 
ATOM      8  C   UNL     1       4.438 145.685  -8.998  1.00  0.00    -0.070 CG0
ATOM      9  C   UNL     1       4.557 147.186  -9.111  1.00  0.00     0.039 C 
ATOM     10  G   UNL     1       3.039 145.075  -9.002  1.00  0.00     0.000 G0
ENDBRANCH   6   7
ENDBRANCH   5   6
ENDBRANCH   3   5
ENDBRANCH   1   3
BRANCH   1  11
ATOM     11  C   UNL     1       3.723 144.872  -5.516  1.00  0.00     0.087 C 
BRANCH  11  12
ATOM     12  C   UNL     1       2.483 145.006  -6.450  1.00  0.00     0.066 C 
BRANCH  12  13
ATOM     13  C   UNL     1       2.644 144.292  -7.785  1.00  0.00     0.140 C 
ATOM     14  O   UNL     1       2.590 143.072  -7.847  1.00  0.00    -0.299 OA
BRANCH  13  15
ATOM     15  C   UNL     1       3.023 145.090  -9.010  1.00  0.00     0.106 CG0
ATOM     16  G   UNL     1       4.426 145.690  -9.007  1.00  0.00     0.000 G0
ENDBRANCH  13  15
ENDBRANCH  12  13
BRANCH  12  17
ATOM     17  C   UNL     1       1.883 146.446  -6.591  1.00  0.00    -0.006 C 
ATOM     18  C   UNL     1       2.421 147.463  -5.575  1.00  0.00     0.008 C 
ATOM     19  C   UNL     1       0.345 146.432  -6.545  1.00  0.00     0.008 C 
ENDBRANCH  12  17
ENDBRANCH  11  12
ENDBRANCH   1  11
TORSDOF 1
ENDMDL
MODEL 5
REMARK VINA RESULT:    -2.289      1.455      4.043
REMARK INTER + INTRA:          -2.620
REMARK INTER:                  -4.431
REMARK INTRA:                   1.810
REMARK UNBOUND:                 0.874
REMARK SMILES CC1=CCC[C@H](C)C(=O)C[C@@H](C(C)C)C(=O)C1
REMARK SMILES IDX 8 1 9 2 6 3 7 4 5 5 4 6 3 7 2 8 1 9 10 11 11 12 15 13 16 14
REMARK SMILES IDX 17 15 12 17 13 18 14 19
REMARK H PARENT
REMARK Flexibility Score: 70.00
ROOT
ATOM      1  C   UNL     1       2.197 145.407  -7.268  1.00  0.00     0.136 C 
ATOM      2  O   UNL     1       2.128 145.343  -8.486  1.00  0.00    -0.299 OA
ENDROOT
BRANCH   1   3
ATOM      3  C   UNL     1       1.878 146.734  -6.596  1.00  0.00     0.053 C 
ATOM      4  C   UNL     1       0.401 146.803  -6.186  1.00  0.00     0.016 C 
BRANCH   3   5
ATOM      5  C   UNL     1       2.804 147.006  -5.395  1.00  0.00     0.015 C 
BRANCH   5   6
ATOM      6  C   UNL     1       3.935 147.980  -5.772  1.00  0.00     0.028 C 
BRANCH   6   7
ATOM      7  C   UNL     1       4.749 147.539  -6.963  1.00  0.00    -0.028 C 
ATOM      8  C   UNL     1       5.245 146.293  -7.183  1.00  0.00    -0.070 CG0
ATOM      9  C   UNL     1       5.890 146.042  -8.525  1.00  0.00     0.039 C 
ATOM     10  G   UNL     1       5.297 145.178  -6.143  1.00  0.00     0.000 G0
ENDBRANCH   6   7
ENDBRANCH   5   6
ENDBRANCH   3   5
ENDBRANCH   1   3
BRANCH   1  11
ATOM     11  C   UNL     1       2.538 144.160  -6.475  1.00  0.00     0.087 C 
BRANCH  11  12
ATOM     12  C   UNL     1       3.686 143.273  -7.043  1.00  0.00     0.066 C 
BRANCH  12  13
ATOM     13  C   UNL     1       5.078 143.764  -6.668  1.00  0.00     0.140 C 
ATOM     14  O   UNL     1       6.029 142.995  -6.671  1.00  0.00    -0.299 OA
BRANCH  13  15
ATOM     15  C   UNL     1       5.252 145.170  -6.146  1.00  0.00     0.106 CG0
ATOM     16  G   UNL     1       5.257 146.276  -7.198  1.00  0.00     0.000 G0
ENDBRANCH  13  15
ENDBRANCH  12  13
BRANCH  12  17
ATOM     17  C   UNL     1       3.561 142.873  -8.551  1.00  0.00    -0.006 C 
ATOM     18  C   UNL     1       2.389 141.933  -8.866  1.00  0.00     0.008 C 
ATOM     19  C   UNL     1       4.868 142.270  -9.094  1.00  0.00     0.008 C 
ENDBRANCH  12  17
ENDBRANCH  11  12
ENDBRANCH   1  11
TORSDOF 1
ENDMDL
MODEL 6
REMARK VINA RESULT:    -2.095      1.756      3.755
REMARK INTER + INTRA:          -2.323
REMARK INTER:                  -5.948
REMARK INTRA:                   3.625
REMARK UNBOUND:                 0.874
REMARK SMILES CC1=CCC[C@H](C)C(=O)C[C@@H](C(C)C)C(=O)C1
REMARK SMILES IDX 8 1 9 2 6 3 7 4 5 5 4 6 3 7 2 8 1 9 10 11 11 12 15 13 16 14
REMARK SMILES IDX 17 15 12 17 13 18 14 19
REMARK H PARENT
REMARK Flexibility Score: 70.00
ROOT
ATOM      1  C   UNL     1       4.769 143.511  -8.055  1.00  0.00     0.136 C 
ATOM      2  O   UNL     1       5.583 142.975  -8.790  1.00  0.00    -0.299 OA
ENDROOT
BRANCH   1   3
ATOM      3  C   UNL     1       3.292 143.365  -8.386  1.00  0.00     0.053 C 
ATOM      4  C   UNL     1       2.918 141.893  -8.606  1.00  0.00     0.016 C 
BRANCH   3   5
ATOM      5  C   UNL     1       2.397 144.013  -7.312  1.00  0.00     0.015 C 
BRANCH   5   6
ATOM      6  C   UNL     1       1.542 145.145  -7.908  1.00  0.00     0.028 C 
BRANCH   6   7
ATOM      7  C   UNL     1       0.958 146.078  -6.876  1.00  0.00    -0.028 C 
ATOM      8  C   UNL     1       1.586 147.133  -6.297  1.00  0.00    -0.070 CG0
ATOM      9  C   UNL     1       0.749 148.026  -5.411  1.00  0.00     0.039 C 
ATOM     10  G   UNL     1       3.084 147.412  -6.384  1.00  0.00     0.000 G0
ENDBRANCH   6   7
ENDBRANCH   5   6
ENDBRANCH   3   5
ENDBRANCH   1   3
BRANCH   1  11
ATOM     11  C   UNL     1       5.252 144.246  -6.818  1.00  0.00     0.087 C 
BRANCH  11  12
ATOM     12  C   UNL     1       5.089 145.795  -6.830  1.00  0.00     0.066 C 
BRANCH  12  13
ATOM     13  C   UNL     1       3.980 146.299  -5.915  1.00  0.00     0.140 C 
ATOM     14  O   UNL     1       3.741 145.730  -4.859  1.00  0.00    -0.299 OA
BRANCH  13  15
ATOM     15  C   UNL     1       3.077 147.412  -6.389  1.00  0.00     0.106 CG0
ATOM     16  G   UNL     1       1.578 147.141  -6.295  1.00  0.00     0.000 G0
ENDBRANCH  13  15
ENDBRANCH  12  13
BRANCH  12  17
ATOM     17  C   UNL     1       5.076 146.473  -8.241  1.00  0.00    -0.006 C 
ATOM     18  C   UNL     1       3.867 146.109  -9.113  1.00  0.00     0.008 C 
ATOM     19  C   UNL     1       6.376 146.200  -9.018  1.00  0.00     0.008 C 
ENDBRANCH  12  17
ENDBRANCH  11  12
ENDBRANCH   1  11
TORSDOF 1
ENDMDL
MODEL 7
REMARK VINA RESULT:    -0.985      1.990      3.496
REMARK INTER + INTRA:          -0.630
REMARK INTER:                  -1.766
REMARK INTRA:                   1.137
REMARK UNBOUND:                 0.874
REMARK SMILES CC1=CCC[C@H](C)C(=O)C[C@@H](C(C)C)C(=O)C1
REMARK SMILES IDX 8 1 9 2 6 3 7 4 5 5 4 6 3 7 2 8 1 9 10 11 11 12 15 13 16 14
REMARK SMILES IDX 17 15 12 17 13 18 14 19
REMARK H PARENT
REMARK Flexibility Score: 70.00
ROOT
ATOM      1  C   UNL     1       5.949 144.617  -6.530  1.00  0.00     0.136 C 
ATOM      2  O   UNL     1       6.326 143.873  -5.637  1.00  0.00    -0.299 OA
ENDROOT
BRANCH   1   3
ATOM      3  C   UNL     1       5.816 144.048  -7.934  1.00  0.00     0.053 C 
ATOM      4  C   UNL     1       7.180 143.975  -8.631  1.00  0.00     0.016 C 
BRANCH   3   5
ATOM      5  C   UNL     1       5.115 142.676  -7.933  1.00  0.00     0.015 C 
BRANCH   5   6
ATOM      6  C   UNL     1       3.800 142.720  -8.730  1.00  0.00     0.028 C 
BRANCH   6   7
ATOM      7  C   UNL     1       2.708 143.520  -8.063  1.00  0.00    -0.028 C 
ATOM      8  C   UNL     1       2.397 144.819  -8.308  1.00  0.00    -0.070 CG0
ATOM      9  C   UNL     1       1.158 145.364  -7.639  1.00  0.00     0.039 C 
ATOM     10  G   UNL     1       3.264 145.788  -9.107  1.00  0.00     0.000 G0
ENDBRANCH   6   7
ENDBRANCH   5   6
ENDBRANCH   3   5
ENDBRANCH   1   3
BRANCH   1  11
ATOM     11  C   UNL     1       5.576 146.050  -6.198  1.00  0.00     0.087 C 
BRANCH  11  12
ATOM     12  C   UNL     1       4.244 146.575  -6.811  1.00  0.00     0.066 C 
BRANCH  12  13
ATOM     13  C   UNL     1       4.257 146.643  -8.332  1.00  0.00     0.140 C 
ATOM     14  O   UNL     1       4.977 147.444  -8.912  1.00  0.00    -0.299 OA
BRANCH  13  15
ATOM     15  C   UNL     1       3.264 145.821  -9.119  1.00  0.00     0.106 CG0
ATOM     16  G   UNL     1       2.429 144.832  -8.311  1.00  0.00     0.000 G0
ENDBRANCH  13  15
ENDBRANCH  12  13
BRANCH  12  17
ATOM     17  C   UNL     1       3.640 147.856  -6.144  1.00  0.00    -0.006 C 
ATOM     18  C   UNL     1       4.429 148.378  -4.935  1.00  0.00     0.008 C 
ATOM     19  C   UNL     1       2.165 147.656  -5.752  1.00  0.00     0.008 C 
ENDBRANCH  12  17
ENDBRANCH  11  12
ENDBRANCH   1  11
TORSDOF 1
ENDMDL
