MODEL 1
REMARK VINA RESULT:    -3.393      0.000      0.000
REMARK INTER + INTRA:          -5.042
REMARK INTER:                  -4.484
REMARK INTRA:                  -0.558
REMARK UNBOUND:                -0.558
REMARK SMILES C=C[C@@H](O)CCCCC
REMARK SMILES IDX 6 1 7 2 8 3 9 4 5 5 3 6 2 7 1 8 4 9
REMARK H PARENT 4 10
REMARK Flexibility Score: inf
ROOT
ATOM      1  C   UNL     1     138.542 141.761 144.597  1.00  0.00     0.003 C 
ENDROOT
BRANCH   1   2
ATOM      2  C   UNL     1     140.003 141.697 144.118  1.00  0.00    -0.000 C 
BRANCH   2   3
ATOM      3  C   UNL     1     141.029 141.359 145.214  1.00  0.00    -0.003 C 
ATOM      4  C   UNL     1     140.650 140.122 146.027  1.00  0.00     0.004 C 
ENDBRANCH   2   3
ENDBRANCH   1   2
BRANCH   1   5
ATOM      5  C   UNL     1     138.267 142.955 145.526  1.00  0.00     0.036 C 
BRANCH   5   6
ATOM      6  C   UNL     1     137.843 142.492 146.930  1.00  0.00     0.136 C 
BRANCH   6   7
ATOM      7  C   UNL     1     138.663 143.186 147.993  1.00  0.00    -0.004 C 
ATOM      8  C   UNL     1     139.794 143.840 147.709  1.00  0.00     0.007 C 
ENDBRANCH   6   7
BRANCH   6   9
ATOM      9  O   UNL     1     136.477 142.750 147.128  1.00  0.00    -0.389 OA
ATOM     10  H   UNL     1     136.412 143.656 147.527  1.00  0.00     0.211 HD
ENDBRANCH   6   9
ENDBRANCH   5   6
ENDBRANCH   1   5
TORSDOF 6
ENDMDL
MODEL 2
REMARK VINA RESULT:    -3.365      1.417      3.347
REMARK INTER + INTRA:          -5.005
REMARK INTER:                  -4.415
REMARK INTRA:                  -0.590
REMARK UNBOUND:                -0.558
REMARK SMILES C=C[C@@H](O)CCCCC
REMARK SMILES IDX 6 1 7 2 8 3 9 4 5 5 3 6 2 7 1 8 4 9
REMARK H PARENT 4 10
REMARK Flexibility Score: inf
ROOT
ATOM      1  C   UNL     1     137.458 142.630 146.703  1.00  0.00     0.003 C 
ENDROOT
BRANCH   1   2
ATOM      2  C   UNL     1     138.109 143.114 148.012  1.00  0.00    -0.000 C 
BRANCH   2   3
ATOM      3  C   UNL     1     139.639 142.957 148.070  1.00  0.00    -0.003 C 
ATOM      4  C   UNL     1     140.080 141.596 148.607  1.00  0.00     0.004 C 
ENDBRANCH   2   3
ENDBRANCH   1   2
BRANCH   1   5
ATOM      5  C   UNL     1     138.335 142.888 145.467  1.00  0.00     0.036 C 
BRANCH   5   6
ATOM      6  C   UNL     1     138.706 141.577 144.754  1.00  0.00     0.136 C 
BRANCH   6   7
ATOM      7  C   UNL     1     140.149 141.602 144.303  1.00  0.00    -0.004 C 
ATOM      8  C   UNL     1     141.149 141.181 145.085  1.00  0.00     0.007 C 
ENDBRANCH   6   7
BRANCH   6   9
ATOM      9  O   UNL     1     138.487 140.487 145.612  1.00  0.00    -0.389 OA
ATOM     10  H   UNL     1     138.836 140.749 146.503  1.00  0.00     0.211 HD
ENDBRANCH   6   9
ENDBRANCH   5   6
ENDBRANCH   1   5
TORSDOF 6
ENDMDL
MODEL 3
REMARK VINA RESULT:    -3.353      2.023      2.963
REMARK INTER + INTRA:          -4.989
REMARK INTER:                  -4.421
REMARK INTRA:                  -0.568
REMARK UNBOUND:                -0.558
REMARK SMILES C=C[C@@H](O)CCCCC
REMARK SMILES IDX 6 1 7 2 8 3 9 4 5 5 3 6 2 7 1 8 4 9
REMARK H PARENT 4 10
REMARK Flexibility Score: inf
ROOT
ATOM      1  C   UNL     1     139.781 140.172 146.032  1.00  0.00     0.003 C 
ENDROOT
BRANCH   1   2
ATOM      2  C   UNL     1     138.796 140.579 144.923  1.00  0.00    -0.000 C 
BRANCH   2   3
ATOM      3  C   UNL     1     139.006 141.995 144.358  1.00  0.00    -0.003 C 
ATOM      4  C   UNL     1     137.708 142.793 144.243  1.00  0.00     0.004 C 
ENDBRANCH   2   3
ENDBRANCH   1   2
BRANCH   1   5
ATOM      5  C   UNL     1     139.318 140.604 147.434  1.00  0.00     0.036 C 
BRANCH   5   6
ATOM      6  C   UNL     1     140.055 141.868 147.907  1.00  0.00     0.136 C 
BRANCH   6   7
ATOM      7  C   UNL     1     139.083 143.007 148.117  1.00  0.00    -0.004 C 
ATOM      8  C   UNL     1     137.763 142.857 147.966  1.00  0.00     0.007 C 
ENDBRANCH   6   7
BRANCH   6   9
ATOM      9  O   UNL     1     140.750 141.600 149.098  1.00  0.00    -0.389 OA
ATOM     10  H   UNL     1     141.165 142.455 149.385  1.00  0.00     0.211 HD
ENDBRANCH   6   9
ENDBRANCH   5   6
ENDBRANCH   1   5
TORSDOF 6
ENDMDL
MODEL 4
REMARK VINA RESULT:    -3.328      1.715      2.838
REMARK INTER + INTRA:          -4.956
REMARK INTER:                  -4.392
REMARK INTRA:                  -0.564
REMARK UNBOUND:                -0.558
REMARK SMILES C=C[C@@H](O)CCCCC
REMARK SMILES IDX 6 1 7 2 8 3 9 4 5 5 3 6 2 7 1 8 4 9
REMARK H PARENT 4 10
REMARK Flexibility Score: inf
ROOT
ATOM      1  C   UNL     1     140.803 141.882 145.429  1.00  0.00     0.003 C 
ENDROOT
BRANCH   1   2
ATOM      2  C   UNL     1     139.843 141.848 144.227  1.00  0.00    -0.000 C 
BRANCH   2   3
ATOM      3  C   UNL     1     138.348 141.852 144.593  1.00  0.00    -0.003 C 
ATOM      4  C   UNL     1     137.631 143.133 144.167  1.00  0.00     0.004 C 
ENDBRANCH   2   3
ENDBRANCH   1   2
BRANCH   1   5
ATOM      5  C   UNL     1     140.776 143.224 146.180  1.00  0.00     0.036 C 
BRANCH   5   6
ATOM      6  C   UNL     1     140.437 143.032 147.667  1.00  0.00     0.136 C 
BRANCH   6   7
ATOM      7  C   UNL     1     139.069 143.593 147.982  1.00  0.00    -0.004 C 
ATOM      8  C   UNL     1     137.981 142.820 148.061  1.00  0.00     0.007 C 
ENDBRANCH   6   7
BRANCH   6   9
ATOM      9  O   UNL     1     140.487 141.668 147.998  1.00  0.00    -0.389 OA
ATOM     10  H   UNL     1     140.307 141.164 147.162  1.00  0.00     0.211 HD
ENDBRANCH   6   9
ENDBRANCH   5   6
ENDBRANCH   1   5
TORSDOF 6
ENDMDL
MODEL 5
REMARK VINA RESULT:    -3.283      1.896      3.913
REMARK INTER + INTRA:          -4.897
REMARK INTER:                  -4.287
REMARK INTRA:                  -0.610
REMARK UNBOUND:                -0.558
REMARK SMILES C=C[C@@H](O)CCCCC
REMARK SMILES IDX 6 1 7 2 8 3 9 4 5 5 3 6 2 7 1 8 4 9
REMARK H PARENT 4 10
REMARK Flexibility Score: inf
ROOT
ATOM      1  C   UNL     1     139.266 140.645 147.251  1.00  0.00     0.003 C 
ENDROOT
BRANCH   1   2
ATOM      2  C   UNL     1     139.592 141.711 148.312  1.00  0.00    -0.000 C 
BRANCH   2   3
ATOM      3  C   UNL     1     138.859 143.052 148.128  1.00  0.00    -0.003 C 
ATOM      4  C   UNL     1     137.338 142.908 148.131  1.00  0.00     0.004 C 
ENDBRANCH   2   3
ENDBRANCH   1   2
BRANCH   1   5
ATOM      5  C   UNL     1     140.370 140.498 146.190  1.00  0.00     0.036 C 
BRANCH   5   6
ATOM      6  C   UNL     1     140.066 141.338 144.939  1.00  0.00     0.136 C 
BRANCH   6   7
ATOM      7  C   UNL     1     138.575 141.436 144.709  1.00  0.00    -0.004 C 
ATOM      8  C   UNL     1     137.971 142.595 144.424  1.00  0.00     0.007 C 
ENDBRANCH   6   7
BRANCH   6   9
ATOM      9  O   UNL     1     140.619 142.622 145.077  1.00  0.00    -0.389 OA
ATOM     10  H   UNL     1     141.270 142.573 145.825  1.00  0.00     0.211 HD
ENDBRANCH   6   9
ENDBRANCH   5   6
ENDBRANCH   1   5
TORSDOF 6
ENDMDL
MODEL 6
REMARK VINA RESULT:    -3.258      1.324      2.077
REMARK INTER + INTRA:          -4.863
REMARK INTER:                  -4.300
REMARK INTRA:                  -0.563
REMARK UNBOUND:                -0.558
REMARK SMILES C=C[C@@H](O)CCCCC
REMARK SMILES IDX 6 1 7 2 8 3 9 4 5 5 3 6 2 7 1 8 4 9
REMARK H PARENT 4 10
REMARK Flexibility Score: inf
ROOT
ATOM      1  C   UNL     1     139.146 140.242 146.992  1.00  0.00     0.003 C 
ENDROOT
BRANCH   1   2
ATOM      2  C   UNL     1     140.582 139.860 146.590  1.00  0.00    -0.000 C 
BRANCH   2   3
ATOM      3  C   UNL     1     141.022 140.368 145.205  1.00  0.00    -0.003 C 
ATOM      4  C   UNL     1     140.438 141.735 144.855  1.00  0.00     0.004 C 
ENDBRANCH   2   3
ENDBRANCH   1   2
BRANCH   1   5
ATOM      5  C   UNL     1     139.088 141.096 148.270  1.00  0.00     0.036 C 
BRANCH   5   6
ATOM      6  C   UNL     1     138.260 142.374 148.057  1.00  0.00     0.136 C 
BRANCH   6   7
ATOM      7  C   UNL     1     139.160 143.585 147.961  1.00  0.00    -0.004 C 
ATOM      8  C   UNL     1     140.487 143.502 148.101  1.00  0.00     0.007 C 
ENDBRANCH   6   7
BRANCH   6   9
ATOM      9  O   UNL     1     137.485 142.255 146.892  1.00  0.00    -0.389 OA
ATOM     10  H   UNL     1     137.806 141.445 146.416  1.00  0.00     0.211 HD
ENDBRANCH   6   9
ENDBRANCH   5   6
ENDBRANCH   1   5
TORSDOF 6
ENDMDL
MODEL 7
REMARK VINA RESULT:    -3.186      1.806      3.135
REMARK INTER + INTRA:          -4.769
REMARK INTER:                  -4.576
REMARK INTRA:                  -0.192
REMARK UNBOUND:                -0.558
REMARK SMILES C=C[C@@H](O)CCCCC
REMARK SMILES IDX 6 1 7 2 8 3 9 4 5 5 3 6 2 7 1 8 4 9
REMARK H PARENT 4 10
REMARK Flexibility Score: inf
ROOT
ATOM      1  C   UNL     1     137.587 143.005 144.685  1.00  0.00     0.003 C 
ENDROOT
BRANCH   1   2
ATOM      2  C   UNL     1     137.722 142.388 143.282  1.00  0.00    -0.000 C 
BRANCH   2   3
ATOM      3  C   UNL     1     136.715 142.915 142.244  1.00  0.00    -0.003 C 
ATOM      4  C   UNL     1     135.982 144.173 142.706  1.00  0.00     0.004 C 
ENDBRANCH   2   3
ENDBRANCH   1   2
BRANCH   1   5
ATOM      5  C   UNL     1     138.528 142.360 145.717  1.00  0.00     0.036 C 
BRANCH   5   6
ATOM      6  C   UNL     1     137.900 142.345 147.120  1.00  0.00     0.136 C 
BRANCH   6   7
ATOM      7  C   UNL     1     138.678 143.234 148.064  1.00  0.00    -0.004 C 
ATOM      8  C   UNL     1     139.803 143.857 147.694  1.00  0.00     0.007 C 
ENDBRANCH   6   7
BRANCH   6   9
ATOM      9  O   UNL     1     136.562 142.767 147.052  1.00  0.00    -0.389 OA
ATOM     10  H   UNL     1     136.158 142.308 146.271  1.00  0.00     0.211 HD
ENDBRANCH   6   9
ENDBRANCH   5   6
ENDBRANCH   1   5
TORSDOF 6
ENDMDL
MODEL 8
REMARK VINA RESULT:    -3.177      2.200      4.258
REMARK INTER + INTRA:          -4.757
REMARK INTER:                  -4.291
REMARK INTRA:                  -0.466
REMARK UNBOUND:                -0.558
REMARK SMILES C=C[C@@H](O)CCCCC
REMARK SMILES IDX 6 1 7 2 8 3 9 4 5 5 3 6 2 7 1 8 4 9
REMARK H PARENT 4 10
REMARK Flexibility Score: inf
ROOT
ATOM      1  C   UNL     1     139.297 142.620 147.918  1.00  0.00     0.003 C 
ENDROOT
BRANCH   1   2
ATOM      2  C   UNL     1     137.785 142.882 148.042  1.00  0.00    -0.000 C 
BRANCH   2   3
ATOM      3  C   UNL     1     137.023 142.916 146.706  1.00  0.00    -0.003 C 
ATOM      4  C   UNL     1     137.942 142.813 145.490  1.00  0.00     0.004 C 
ENDBRANCH   2   3
ENDBRANCH   1   2
BRANCH   1   5
ATOM      5  C   UNL     1     139.699 141.206 148.370  1.00  0.00     0.036 C 
BRANCH   5   6
ATOM      6  C   UNL     1     140.350 140.411 147.226  1.00  0.00     0.136 C 
BRANCH   6   7
ATOM      7  C   UNL     1     139.312 139.617 146.468  1.00  0.00    -0.004 C 
ATOM      8  C   UNL     1     138.860 138.435 146.901  1.00  0.00     0.007 C 
ENDBRANCH   6   7
BRANCH   6   9
ATOM      9  O   UNL     1     141.020 141.286 146.356  1.00  0.00    -0.389 OA
ATOM     10  H   UNL     1     141.577 141.881 146.922  1.00  0.00     0.211 HD
ENDBRANCH   6   9
ENDBRANCH   5   6
ENDBRANCH   1   5
TORSDOF 6
ENDMDL
MODEL 9
REMARK VINA RESULT:    -3.158      2.060      2.870
REMARK INTER + INTRA:          -4.731
REMARK INTER:                  -4.425
REMARK INTRA:                  -0.306
REMARK UNBOUND:                -0.558
REMARK SMILES C=C[C@@H](O)CCCCC
REMARK SMILES IDX 6 1 7 2 8 3 9 4 5 5 3 6 2 7 1 8 4 9
REMARK H PARENT 4 10
REMARK Flexibility Score: inf
ROOT
ATOM      1  C   UNL     1     139.408 140.039 147.189  1.00  0.00     0.003 C 
ENDROOT
BRANCH   1   2
ATOM      2  C   UNL     1     140.756 139.767 146.499  1.00  0.00    -0.000 C 
BRANCH   2   3
ATOM      3  C   UNL     1     140.731 139.880 144.964  1.00  0.00    -0.003 C 
ATOM      4  C   UNL     1     140.577 141.319 144.472  1.00  0.00     0.004 C 
ENDBRANCH   2   3
ENDBRANCH   1   2
BRANCH   1   5
ATOM      5  C   UNL     1     139.522 141.033 148.357  1.00  0.00     0.036 C 
BRANCH   5   6
ATOM      6  C   UNL     1     139.932 142.433 147.869  1.00  0.00     0.136 C 
BRANCH   6   7
ATOM      7  C   UNL     1     138.764 143.389 147.943  1.00  0.00    -0.004 C 
ATOM      8  C   UNL     1     137.504 142.967 148.096  1.00  0.00     0.007 C 
ENDBRANCH   6   7
BRANCH   6   9
ATOM      9  O   UNL     1     141.001 142.915 148.641  1.00  0.00    -0.389 OA
ATOM     10  H   UNL     1     141.357 143.713 148.169  1.00  0.00     0.211 HD
ENDBRANCH   6   9
ENDBRANCH   5   6
ENDBRANCH   1   5
TORSDOF 6
ENDMDL
