MODEL 1
REMARK VINA RESULT:    -5.763      0.000      0.000
REMARK INTER + INTRA:          -7.909
REMARK INTER:                  -7.280
REMARK INTRA:                  -0.629
REMARK UNBOUND:                -0.629
REMARK SMILES O=C(C=Cc1ccc(O)cc1)c1ccc(O)cc1O
REMARK SMILES IDX 4 1 3 2 5 3 6 4 7 5 8 6 11 7 10 8 9 9 2 11 1 12 12 13 18 14
REMARK SMILES IDX 13 15 17 16 14 17 15 18 19 19 16 21
REMARK H PARENT 9 10 19 20 16 22
REMARK Flexibility Score: inf
ROOT
ATOM      1  C   UNL     1      45.627  16.419  -3.939  1.00  0.00     0.012 C 
ATOM      2  C   UNL     1      44.795  17.472  -3.935  1.00  0.00     0.053 C 
ENDROOT
BRANCH   1   3
ATOM      3  C   UNL     1      47.017  16.471  -4.453  1.00  0.00    -0.025 A 
ATOM      4  C   UNL     1      47.311  17.350  -5.509  1.00  0.00     0.012 A 
ATOM      5  C   UNL     1      48.610  17.440  -6.019  1.00  0.00     0.047 A 
ATOM      6  C   UNL     1      49.636  16.659  -5.473  1.00  0.00     0.115 A 
ATOM      7  C   UNL     1      48.059  15.700  -3.900  1.00  0.00     0.012 A 
ATOM      8  C   UNL     1      49.357  15.793  -4.413  1.00  0.00     0.047 A 
BRANCH   6   9
ATOM      9  O   UNL     1      50.933  16.738  -5.975  1.00  0.00    -0.508 OA
ATOM     10  H   UNL     1      51.292  17.594  -6.381  1.00  0.00     0.293 HD
ENDBRANCH   6   9
ENDBRANCH   1   3
BRANCH   2  11
ATOM     11  C   UNL     1      43.418  17.386  -3.402  1.00  0.00     0.189 C 
ATOM     12  O   UNL     1      42.698  16.383  -3.662  1.00  0.00    -0.289 OA
BRANCH  11  13
ATOM     13  C   UNL     1      42.863  18.489  -2.586  1.00  0.00     0.064 A 
ATOM     14  C   UNL     1      42.093  18.245  -1.422  1.00  0.00     0.130 A 
ATOM     15  C   UNL     1      43.072  19.817  -3.001  1.00  0.00     0.020 A 
ATOM     16  C   UNL     1      41.528  19.321  -0.726  1.00  0.00     0.093 A 
ATOM     17  C   UNL     1      42.513  20.882  -2.288  1.00  0.00     0.047 A 
ATOM     18  C   UNL     1      41.736  20.635  -1.151  1.00  0.00     0.119 A 
BRANCH  14  19
ATOM     19  O   UNL     1      41.895  16.960  -0.914  1.00  0.00    -0.507 OA
ATOM     20  H   UNL     1      41.278  16.758  -0.138  1.00  0.00     0.293 HD
ENDBRANCH  14  19
BRANCH  18  21
ATOM     21  O   UNL     1      41.169  21.687  -0.437  1.00  0.00    -0.508 OA
ATOM     22  H   UNL     1      41.514  21.952   0.479  1.00  0.00     0.293 HD
ENDBRANCH  18  21
ENDBRANCH  11  13
ENDBRANCH   2  11
TORSDOF 6
ENDMDL
MODEL 2
REMARK VINA RESULT:    -5.664      1.211      1.823
REMARK INTER + INTRA:          -7.783
REMARK INTER:                  -7.222
REMARK INTRA:                  -0.561
REMARK UNBOUND:                -0.629
REMARK SMILES O=C(C=Cc1ccc(O)cc1)c1ccc(O)cc1O
REMARK SMILES IDX 4 1 3 2 5 3 6 4 7 5 8 6 11 7 10 8 9 9 2 11 1 12 12 13 18 14
REMARK SMILES IDX 13 15 17 16 14 17 15 18 19 19 16 21
REMARK H PARENT 9 10 19 20 16 22
REMARK Flexibility Score: inf
ROOT
ATOM      1  C   UNL     1      45.383  15.558  -3.707  1.00  0.00     0.012 C 
ATOM      2  C   UNL     1      44.919  16.796  -3.479  1.00  0.00     0.053 C 
ENDROOT
BRANCH   1   3
ATOM      3  C   UNL     1      46.826  15.214  -3.744  1.00  0.00    -0.025 A 
ATOM      4  C   UNL     1      47.226  13.946  -3.289  1.00  0.00     0.012 A 
ATOM      5  C   UNL     1      48.574  13.574  -3.315  1.00  0.00     0.047 A 
ATOM      6  C   UNL     1      49.539  14.461  -3.807  1.00  0.00     0.115 A 
ATOM      7  C   UNL     1      47.802  16.094  -4.251  1.00  0.00     0.012 A 
ATOM      8  C   UNL     1      49.149  15.718  -4.276  1.00  0.00     0.047 A 
BRANCH   6   9
ATOM      9  O   UNL     1      50.885  14.103  -3.836  1.00  0.00    -0.508 OA
ATOM     10  H   UNL     1      51.254  13.384  -3.224  1.00  0.00     0.293 HD
ENDBRANCH   6   9
ENDBRANCH   1   3
BRANCH   2  11
ATOM     11  C   UNL     1      43.472  17.099  -3.436  1.00  0.00     0.189 C 
ATOM     12  O   UNL     1      42.659  16.411  -4.112  1.00  0.00    -0.289 OA
BRANCH  11  13
ATOM     13  C   UNL     1      42.969  18.231  -2.625  1.00  0.00     0.064 A 
ATOM     14  C   UNL     1      42.065  18.040  -1.552  1.00  0.00     0.130 A 
ATOM     15  C   UNL     1      43.372  19.538  -2.954  1.00  0.00     0.020 A 
ATOM     16  C   UNL     1      41.561  19.149  -0.863  1.00  0.00     0.093 A 
ATOM     17  C   UNL     1      42.872  20.636  -2.248  1.00  0.00     0.047 A 
ATOM     18  C   UNL     1      41.962  20.443  -1.204  1.00  0.00     0.119 A 
BRANCH  14  19
ATOM     19  O   UNL     1      41.669  16.770  -1.127  1.00  0.00    -0.507 OA
ATOM     20  H   UNL     1      42.183  16.226  -0.447  1.00  0.00     0.293 HD
ENDBRANCH  14  19
BRANCH  18  21
ATOM     21  O   UNL     1      41.452  21.530  -0.497  1.00  0.00    -0.508 OA
ATOM     22  H   UNL     1      42.056  22.144   0.037  1.00  0.00     0.293 HD
ENDBRANCH  18  21
ENDBRANCH  11  13
ENDBRANCH   2  11
TORSDOF 6
ENDMDL
MODEL 3
REMARK VINA RESULT:    -5.458      2.113      7.784
REMARK INTER + INTRA:          -7.523
REMARK INTER:                  -6.918
REMARK INTRA:                  -0.605
REMARK UNBOUND:                -0.629
REMARK SMILES O=C(C=Cc1ccc(O)cc1)c1ccc(O)cc1O
REMARK SMILES IDX 4 1 3 2 5 3 6 4 7 5 8 6 11 7 10 8 9 9 2 11 1 12 12 13 18 14
REMARK SMILES IDX 13 15 17 16 14 17 15 18 19 19 16 21
REMARK H PARENT 9 10 19 20 16 22
REMARK Flexibility Score: inf
ROOT
ATOM      1  C   UNL     1      43.382  18.893  -3.312  1.00  0.00     0.012 C 
ATOM      2  C   UNL     1      43.930  17.682  -3.136  1.00  0.00     0.053 C 
ENDROOT
BRANCH   1   3
ATOM      3  C   UNL     1      42.401  19.496  -2.376  1.00  0.00    -0.025 A 
ATOM      4  C   UNL     1      41.058  19.090  -2.457  1.00  0.00     0.012 A 
ATOM      5  C   UNL     1      40.101  19.624  -1.588  1.00  0.00     0.047 A 
ATOM      6  C   UNL     1      40.475  20.563  -0.620  1.00  0.00     0.115 A 
ATOM      7  C   UNL     1      42.772  20.430  -1.389  1.00  0.00     0.012 A 
ATOM      8  C   UNL     1      41.810  20.961  -0.522  1.00  0.00     0.047 A 
BRANCH   6   9
ATOM      9  O   UNL     1      39.530  21.103   0.249  1.00  0.00    -0.508 OA
ATOM     10  H   UNL     1      38.539  20.932   0.126  1.00  0.00     0.293 HD
ENDBRANCH   6   9
ENDBRANCH   1   3
BRANCH   2  11
ATOM     11  C   UNL     1      44.915  17.118  -4.085  1.00  0.00     0.189 C 
ATOM     12  O   UNL     1      44.930  17.501  -5.287  1.00  0.00    -0.289 OA
BRANCH  11  13
ATOM     13  C   UNL     1      45.871  16.078  -3.640  1.00  0.00     0.064 A 
ATOM     14  C   UNL     1      47.242  16.121  -3.993  1.00  0.00     0.130 A 
ATOM     15  C   UNL     1      45.396  14.995  -2.878  1.00  0.00     0.020 A 
ATOM     16  C   UNL     1      48.090  15.075  -3.611  1.00  0.00     0.093 A 
ATOM     17  C   UNL     1      46.257  13.966  -2.490  1.00  0.00     0.047 A 
ATOM     18  C   UNL     1      47.605  14.002  -2.860  1.00  0.00     0.119 A 
BRANCH  14  19
ATOM     19  O   UNL     1      47.799  17.193  -4.694  1.00  0.00    -0.507 OA
ATOM     20  H   UNL     1      47.308  17.696  -5.422  1.00  0.00     0.293 HD
ENDBRANCH  14  19
BRANCH  18  21
ATOM     21  O   UNL     1      48.472  12.977  -2.485  1.00  0.00    -0.508 OA
ATOM     22  H   UNL     1      48.239  12.003  -2.641  1.00  0.00     0.293 HD
ENDBRANCH  18  21
ENDBRANCH  11  13
ENDBRANCH   2  11
TORSDOF 6
ENDMDL
MODEL 4
REMARK VINA RESULT:    -5.425      1.383      7.423
REMARK INTER + INTRA:          -7.481
REMARK INTER:                  -6.872
REMARK INTRA:                  -0.609
REMARK UNBOUND:                -0.629
REMARK SMILES O=C(C=Cc1ccc(O)cc1)c1ccc(O)cc1O
REMARK SMILES IDX 4 1 3 2 5 3 6 4 7 5 8 6 11 7 10 8 9 9 2 11 1 12 12 13 18 14
REMARK SMILES IDX 13 15 17 16 14 17 15 18 19 19 16 21
REMARK H PARENT 9 10 19 20 16 22
REMARK Flexibility Score: inf
ROOT
ATOM      1  C   UNL     1      43.732  17.655  -3.392  1.00  0.00     0.012 C 
ATOM      2  C   UNL     1      44.661  16.857  -2.844  1.00  0.00     0.053 C 
ENDROOT
BRANCH   1   3
ATOM      3  C   UNL     1      43.007  18.709  -2.641  1.00  0.00    -0.025 A 
ATOM      4  C   UNL     1      42.126  18.320  -1.617  1.00  0.00     0.012 A 
ATOM      5  C   UNL     1      41.429  19.280  -0.877  1.00  0.00     0.047 A 
ATOM      6  C   UNL     1      41.610  20.642  -1.143  1.00  0.00     0.115 A 
ATOM      7  C   UNL     1      43.195  20.083  -2.892  1.00  0.00     0.012 A 
ATOM      8  C   UNL     1      42.495  21.040  -2.148  1.00  0.00     0.047 A 
BRANCH   6   9
ATOM      9  O   UNL     1      40.920  21.607  -0.413  1.00  0.00    -0.508 OA
ATOM     10  H   UNL     1      40.119  22.092  -0.801  1.00  0.00     0.293 HD
ENDBRANCH   6   9
ENDBRANCH   1   3
BRANCH   2  11
ATOM     11  C   UNL     1      45.373  15.824  -3.627  1.00  0.00     0.189 C 
ATOM     12  O   UNL     1      44.902  14.657  -3.714  1.00  0.00    -0.289 OA
BRANCH  11  13
ATOM     13  C   UNL     1      46.658  16.141  -4.289  1.00  0.00     0.064 A 
ATOM     14  C   UNL     1      47.891  15.626  -3.817  1.00  0.00     0.130 A 
ATOM     15  C   UNL     1      46.660  17.010  -5.395  1.00  0.00     0.020 A 
ATOM     16  C   UNL     1      49.087  16.016  -4.432  1.00  0.00     0.093 A 
ATOM     17  C   UNL     1      47.860  17.378  -6.009  1.00  0.00     0.047 A 
ATOM     18  C   UNL     1      49.077  16.885  -5.525  1.00  0.00     0.119 A 
BRANCH  14  19
ATOM     19  O   UNL     1      47.963  14.711  -2.765  1.00  0.00    -0.507 OA
ATOM     20  H   UNL     1      47.158  14.420  -2.225  1.00  0.00     0.293 HD
ENDBRANCH  14  19
BRANCH  18  21
ATOM     21  O   UNL     1      50.280  17.251  -6.125  1.00  0.00    -0.508 OA
ATOM     22  H   UNL     1      51.154  16.805  -5.871  1.00  0.00     0.293 HD
ENDBRANCH  18  21
ENDBRANCH  11  13
ENDBRANCH   2  11
TORSDOF 6
ENDMDL
MODEL 5
REMARK VINA RESULT:    -5.221      2.290      3.100
REMARK INTER + INTRA:          -7.224
REMARK INTER:                  -6.584
REMARK INTRA:                  -0.639
REMARK UNBOUND:                -0.629
REMARK SMILES O=C(C=Cc1ccc(O)cc1)c1ccc(O)cc1O
REMARK SMILES IDX 4 1 3 2 5 3 6 4 7 5 8 6 11 7 10 8 9 9 2 11 1 12 12 13 18 14
REMARK SMILES IDX 13 15 17 16 14 17 15 18 19 19 16 21
REMARK H PARENT 9 10 19 20 16 22
REMARK Flexibility Score: inf
ROOT
ATOM      1  C   UNL     1      45.955  16.521  -4.155  1.00  0.00     0.012 C 
ATOM      2  C   UNL     1      44.744  16.818  -3.660  1.00  0.00     0.053 C 
ENDROOT
BRANCH   1   3
ATOM      3  C   UNL     1      46.796  15.404  -3.660  1.00  0.00    -0.025 A 
ATOM      4  C   UNL     1      46.240  14.503  -2.736  1.00  0.00     0.012 A 
ATOM      5  C   UNL     1      46.992  13.429  -2.250  1.00  0.00     0.047 A 
ATOM      6  C   UNL     1      48.307  13.235  -2.688  1.00  0.00     0.115 A 
ATOM      7  C   UNL     1      48.115  15.193  -4.107  1.00  0.00     0.012 A 
ATOM      8  C   UNL     1      48.864  14.116  -3.618  1.00  0.00     0.047 A 
BRANCH   6   9
ATOM      9  O   UNL     1      49.066  12.170  -2.209  1.00  0.00    -0.508 OA
ATOM     10  H   UNL     1      49.130  11.295  -2.717  1.00  0.00     0.293 HD
ENDBRANCH   6   9
ENDBRANCH   1   3
BRANCH   2  11
ATOM     11  C   UNL     1      43.928  17.933  -4.187  1.00  0.00     0.189 C 
ATOM     12  O   UNL     1      43.844  18.123  -5.432  1.00  0.00    -0.289 OA
BRANCH  11  13
ATOM     13  C   UNL     1      43.229  18.852  -3.261  1.00  0.00     0.064 A 
ATOM     14  C   UNL     1      43.305  20.259  -3.403  1.00  0.00     0.130 A 
ATOM     15  C   UNL     1      42.500  18.313  -2.186  1.00  0.00     0.020 A 
ATOM     16  C   UNL     1      42.687  21.087  -2.458  1.00  0.00     0.093 A 
ATOM     17  C   UNL     1      41.876  19.151  -1.258  1.00  0.00     0.047 A 
ATOM     18  C   UNL     1      41.972  20.540  -1.390  1.00  0.00     0.119 A 
BRANCH  14  19
ATOM     19  O   UNL     1      43.957  20.866  -4.479  1.00  0.00    -0.507 OA
ATOM     20  H   UNL     1      43.940  21.864  -4.647  1.00  0.00     0.293 HD
ENDBRANCH  14  19
BRANCH  18  21
ATOM     21  O   UNL     1      41.360  21.385  -0.467  1.00  0.00    -0.508 OA
ATOM     22  H   UNL     1      41.832  22.207  -0.109  1.00  0.00     0.293 HD
ENDBRANCH  18  21
ENDBRANCH  11  13
ENDBRANCH   2  11
TORSDOF 6
ENDMDL
MODEL 6
REMARK VINA RESULT:    -5.124      1.996      2.595
REMARK INTER + INTRA:          -7.101
REMARK INTER:                  -6.526
REMARK INTRA:                  -0.575
REMARK UNBOUND:                -0.629
REMARK SMILES O=C(C=Cc1ccc(O)cc1)c1ccc(O)cc1O
REMARK SMILES IDX 4 1 3 2 5 3 6 4 7 5 8 6 11 7 10 8 9 9 2 11 1 12 12 13 18 14
REMARK SMILES IDX 13 15 17 16 14 17 15 18 19 19 16 21
REMARK H PARENT 9 10 19 20 16 22
REMARK Flexibility Score: inf
ROOT
ATOM      1  C   UNL     1      44.869  17.038  -4.096  1.00  0.00     0.012 C 
ATOM      2  C   UNL     1      44.116  17.690  -3.198  1.00  0.00     0.053 C 
ENDROOT
BRANCH   1   3
ATOM      3  C   UNL     1      45.951  16.091  -3.731  1.00  0.00    -0.025 A 
ATOM      4  C   UNL     1      45.621  14.951  -2.978  1.00  0.00     0.012 A 
ATOM      5  C   UNL     1      46.606  14.026  -2.619  1.00  0.00     0.047 A 
ATOM      6  C   UNL     1      47.934  14.222  -3.017  1.00  0.00     0.115 A 
ATOM      7  C   UNL     1      47.287  16.272  -4.140  1.00  0.00     0.012 A 
ATOM      8  C   UNL     1      48.270  15.344  -3.779  1.00  0.00     0.047 A 
BRANCH   6   9
ATOM      9  O   UNL     1      48.924  13.308  -2.664  1.00  0.00    -0.508 OA
ATOM     10  H   UNL     1      49.529  12.888  -3.361  1.00  0.00     0.293 HD
ENDBRANCH   6   9
ENDBRANCH   1   3
BRANCH   2  11
ATOM     11  C   UNL     1      43.037  18.618  -3.599  1.00  0.00     0.189 C 
ATOM     12  O   UNL     1      42.867  18.904  -4.816  1.00  0.00    -0.289 OA
BRANCH  11  13
ATOM     13  C   UNL     1      42.168  19.241  -2.576  1.00  0.00     0.064 A 
ATOM     14  C   UNL     1      40.768  19.025  -2.549  1.00  0.00     0.130 A 
ATOM     15  C   UNL     1      42.744  20.105  -1.626  1.00  0.00     0.020 A 
ATOM     16  C   UNL     1      39.980  19.697  -1.607  1.00  0.00     0.093 A 
ATOM     17  C   UNL     1      41.946  20.757  -0.681  1.00  0.00     0.047 A 
ATOM     18  C   UNL     1      40.562  20.557  -0.673  1.00  0.00     0.119 A 
BRANCH  14  19
ATOM     19  O   UNL     1      40.134  18.136  -3.419  1.00  0.00    -0.507 OA
ATOM     20  H   UNL     1      39.529  18.433  -4.173  1.00  0.00     0.293 HD
ENDBRANCH  14  19
BRANCH  18  21
ATOM     21  O   UNL     1      39.756  21.207   0.259  1.00  0.00    -0.508 OA
ATOM     22  H   UNL     1      38.773  20.983   0.356  1.00  0.00     0.293 HD
ENDBRANCH  18  21
ENDBRANCH  11  13
ENDBRANCH   2  11
TORSDOF 6
ENDMDL
MODEL 7
REMARK VINA RESULT:    -5.105      1.729      2.515
REMARK INTER + INTRA:          -7.077
REMARK INTER:                  -6.471
REMARK INTRA:                  -0.605
REMARK UNBOUND:                -0.629
REMARK SMILES O=C(C=Cc1ccc(O)cc1)c1ccc(O)cc1O
REMARK SMILES IDX 4 1 3 2 5 3 6 4 7 5 8 6 11 7 10 8 9 9 2 11 1 12 12 13 18 14
REMARK SMILES IDX 13 15 17 16 14 17 15 18 19 19 16 21
REMARK H PARENT 9 10 19 20 16 22
REMARK Flexibility Score: inf
ROOT
ATOM      1  C   UNL     1      46.581  17.125  -5.056  1.00  0.00     0.012 C 
ATOM      2  C   UNL     1      45.562  17.215  -4.189  1.00  0.00     0.053 C 
ENDROOT
BRANCH   1   3
ATOM      3  C   UNL     1      47.813  16.338  -4.801  1.00  0.00    -0.025 A 
ATOM      4  C   UNL     1      47.724  15.197  -3.986  1.00  0.00     0.012 A 
ATOM      5  C   UNL     1      48.856  14.419  -3.726  1.00  0.00     0.047 A 
ATOM      6  C   UNL     1      50.091  14.765  -4.287  1.00  0.00     0.115 A 
ATOM      7  C   UNL     1      49.057  16.670  -5.374  1.00  0.00     0.012 A 
ATOM      8  C   UNL     1      50.187  15.888  -5.112  1.00  0.00     0.047 A 
BRANCH   6   9
ATOM      9  O   UNL     1      51.227  13.998  -4.034  1.00  0.00    -0.508 OA
ATOM     10  H   UNL     1      51.790  13.622  -4.788  1.00  0.00     0.293 HD
ENDBRANCH   6   9
ENDBRANCH   1   3
BRANCH   2  11
ATOM     11  C   UNL     1      44.344  17.999  -4.483  1.00  0.00     0.189 C 
ATOM     12  O   UNL     1      44.068  18.322  -5.671  1.00  0.00    -0.289 OA
BRANCH  11  13
ATOM     13  C   UNL     1      43.454  18.439  -3.384  1.00  0.00     0.064 A 
ATOM     14  C   UNL     1      43.232  19.809  -3.104  1.00  0.00     0.130 A 
ATOM     15  C   UNL     1      42.843  17.467  -2.571  1.00  0.00     0.020 A 
ATOM     16  C   UNL     1      42.440  20.174  -2.007  1.00  0.00     0.093 A 
ATOM     17  C   UNL     1      42.043  17.846  -1.489  1.00  0.00     0.047 A 
ATOM     18  C   UNL     1      41.845  19.200  -1.202  1.00  0.00     0.119 A 
BRANCH  14  19
ATOM     19  O   UNL     1      43.753  20.829  -3.903  1.00  0.00    -0.507 OA
ATOM     20  H   UNL     1      43.614  21.812  -3.709  1.00  0.00     0.293 HD
ENDBRANCH  14  19
BRANCH  18  21
ATOM     21  O   UNL     1      41.055  19.589  -0.122  1.00  0.00    -0.508 OA
ATOM     22  H   UNL     1      40.787  18.931   0.601  1.00  0.00     0.293 HD
ENDBRANCH  18  21
ENDBRANCH  11  13
ENDBRANCH   2  11
TORSDOF 6
ENDMDL
MODEL 8
REMARK VINA RESULT:    -5.034      3.171      3.905
REMARK INTER + INTRA:          -6.987
REMARK INTER:                  -6.437
REMARK INTRA:                  -0.549
REMARK UNBOUND:                -0.629
REMARK SMILES O=C(C=Cc1ccc(O)cc1)c1ccc(O)cc1O
REMARK SMILES IDX 4 1 3 2 5 3 6 4 7 5 8 6 11 7 10 8 9 9 2 11 1 12 12 13 18 14
REMARK SMILES IDX 13 15 17 16 14 17 15 18 19 19 16 21
REMARK H PARENT 9 10 19 20 16 22
REMARK Flexibility Score: inf
ROOT
ATOM      1  C   UNL     1      44.645  16.553  -3.236  1.00  0.00     0.012 C 
ATOM      2  C   UNL     1      43.530  17.164  -2.810  1.00  0.00     0.053 C 
ENDROOT
BRANCH   1   3
ATOM      3  C   UNL     1      44.931  15.114  -3.016  1.00  0.00    -0.025 A 
ATOM      4  C   UNL     1      43.902  14.183  -3.235  1.00  0.00     0.012 A 
ATOM      5  C   UNL     1      44.129  12.816  -3.049  1.00  0.00     0.047 A 
ATOM      6  C   UNL     1      45.391  12.360  -2.652  1.00  0.00     0.115 A 
ATOM      7  C   UNL     1      46.203  14.645  -2.631  1.00  0.00     0.012 A 
ATOM      8  C   UNL     1      46.425  13.276  -2.447  1.00  0.00     0.047 A 
BRANCH   6   9
ATOM      9  O   UNL     1      45.628  11.000  -2.462  1.00  0.00    -0.508 OA
ATOM     10  H   UNL     1      46.251  10.668  -1.734  1.00  0.00     0.293 HD
ENDBRANCH   6   9
ENDBRANCH   1   3
BRANCH   2  11
ATOM     11  C   UNL     1      43.273  18.599  -3.060  1.00  0.00     0.189 C 
ATOM     12  O   UNL     1      43.914  19.211  -3.957  1.00  0.00    -0.289 OA
BRANCH  11  13
ATOM     13  C   UNL     1      42.285  19.335  -2.239  1.00  0.00     0.064 A 
ATOM     14  C   UNL     1      42.681  20.271  -1.252  1.00  0.00     0.130 A 
ATOM     15  C   UNL     1      40.916  19.070  -2.418  1.00  0.00     0.020 A 
ATOM     16  C   UNL     1      41.712  20.887  -0.451  1.00  0.00     0.093 A 
ATOM     17  C   UNL     1      39.958  19.704  -1.622  1.00  0.00     0.047 A 
ATOM     18  C   UNL     1      40.355  20.610  -0.633  1.00  0.00     0.119 A 
BRANCH  14  19
ATOM     19  O   UNL     1      44.016  20.632  -1.058  1.00  0.00    -0.507 OA
ATOM     20  H   UNL     1      44.465  20.634  -0.151  1.00  0.00     0.293 HD
ENDBRANCH  14  19
BRANCH  18  21
ATOM     21  O   UNL     1      39.409  21.242   0.172  1.00  0.00    -0.508 OA
ATOM     22  H   UNL     1      39.151  22.211   0.023  1.00  0.00     0.293 HD
ENDBRANCH  18  21
ENDBRANCH  11  13
ENDBRANCH   2  11
TORSDOF 6
ENDMDL
MODEL 9
REMARK VINA RESULT:    -4.863      2.271      7.463
REMARK INTER + INTRA:          -6.772
REMARK INTER:                  -6.343
REMARK INTRA:                  -0.428
REMARK UNBOUND:                -0.629
REMARK SMILES O=C(C=Cc1ccc(O)cc1)c1ccc(O)cc1O
REMARK SMILES IDX 4 1 3 2 5 3 6 4 7 5 8 6 11 7 10 8 9 9 2 11 1 12 12 13 18 14
REMARK SMILES IDX 13 15 17 16 14 17 15 18 19 19 16 21
REMARK H PARENT 9 10 19 20 16 22
REMARK Flexibility Score: inf
ROOT
ATOM      1  C   UNL     1      43.680  17.635  -3.720  1.00  0.00     0.012 C 
ATOM      2  C   UNL     1      44.856  17.054  -3.438  1.00  0.00     0.053 C 
ENDROOT
BRANCH   1   3
ATOM      3  C   UNL     1      43.053  18.678  -2.872  1.00  0.00    -0.025 A 
ATOM      4  C   UNL     1      42.180  18.275  -1.848  1.00  0.00     0.012 A 
ATOM      5  C   UNL     1      41.573  19.223  -1.017  1.00  0.00     0.047 A 
ATOM      6  C   UNL     1      41.839  20.586  -1.193  1.00  0.00     0.115 A 
ATOM      7  C   UNL     1      43.327  20.051  -3.032  1.00  0.00     0.012 A 
ATOM      8  C   UNL     1      42.718  20.995  -2.199  1.00  0.00     0.047 A 
BRANCH   6   9
ATOM      9  O   UNL     1      41.240  21.539  -0.373  1.00  0.00    -0.508 OA
ATOM     10  H   UNL     1      41.598  21.741   0.553  1.00  0.00     0.293 HD
ENDBRANCH   6   9
ENDBRANCH   1   3
BRANCH   2  11
ATOM     11  C   UNL     1      45.457  16.026  -4.314  1.00  0.00     0.189 C 
ATOM     12  O   UNL     1      45.187  16.005  -5.546  1.00  0.00    -0.289 OA
BRANCH  11  13
ATOM     13  C   UNL     1      46.356  14.994  -3.749  1.00  0.00     0.064 A 
ATOM     14  C   UNL     1      45.862  13.910  -2.981  1.00  0.00     0.130 A 
ATOM     15  C   UNL     1      47.743  15.114  -3.947  1.00  0.00     0.020 A 
ATOM     16  C   UNL     1      46.759  13.002  -2.406  1.00  0.00     0.093 A 
ATOM     17  C   UNL     1      48.626  14.191  -3.380  1.00  0.00     0.047 A 
ATOM     18  C   UNL     1      48.135  13.136  -2.604  1.00  0.00     0.119 A 
BRANCH  14  19
ATOM     19  O   UNL     1      44.496  13.690  -2.794  1.00  0.00    -0.507 OA
ATOM     20  H   UNL     1      43.797  14.413  -2.902  1.00  0.00     0.293 HD
ENDBRANCH  14  19
BRANCH  18  21
ATOM     21  O   UNL     1      49.006  12.214  -2.027  1.00  0.00    -0.508 OA
ATOM     22  H   UNL     1      49.672  12.489  -1.315  1.00  0.00     0.293 HD
ENDBRANCH  18  21
ENDBRANCH  11  13
ENDBRANCH   2  11
TORSDOF 6
ENDMDL
