MODEL 1
REMARK VINA RESULT:    -6.635      0.000      0.000
REMARK INTER + INTRA:         -10.904
REMARK INTER:                  -9.738
REMARK INTRA:                  -1.166
REMARK UNBOUND:                -1.166
REMARK SMILES O=c1c(OC[C@@H]2O[C@H](O)[C@H](O)[C@@H](O)[C@@H]2O)c(-c2ccc(O)c(O)c2)oc2cc(O)cc(O)c12
REMARK SMILES IDX 4 1 3 2 16 3 25 4 2 5 26 6 1 7 33 8 27 9 31 10 28 11 30 12
REMARK SMILES IDX 17 13 18 14 19 15 20 16 24 17 22 18 21 19 23 21 32 23 29 25
REMARK SMILES IDX 5 27 6 28 14 29 7 30 12 31 8 32 10 33 15 34 13 36 9 38 11 40
REMARK H PARENT 21 20 23 22 32 24 29 26 15 35 13 37 9 39 11 41
REMARK Flexibility Score: inf
ROOT
ATOM      1  O   UNL     1      17.384  40.929  75.762  1.00  0.00    -0.483 OA
ENDROOT
BRANCH   1   2
ATOM      2  C   UNL     1      18.311  39.984  76.218  1.00  0.00     0.211 A 
ATOM      3  C   UNL     1      18.986  40.120  77.456  1.00  0.00     0.180 A 
ATOM      4  O   UNL     1      19.495  39.030  78.025  1.00  0.00    -0.452 OA
ATOM      5  C   UNL     1      18.466  38.808  75.479  1.00  0.00     0.239 A 
ATOM      6  C   UNL     1      19.526  37.841  77.424  1.00  0.00     0.146 A 
ATOM      7  O   UNL     1      17.908  38.710  74.349  1.00  0.00    -0.285 OA
ATOM      8  C   UNL     1      19.140  37.710  76.064  1.00  0.00     0.111 A 
ATOM      9  C   UNL     1      19.863  36.707  78.163  1.00  0.00     0.094 A 
ATOM     10  C   UNL     1      19.254  36.446  75.431  1.00  0.00     0.134 A 
ATOM     11  C   UNL     1      19.787  35.441  77.581  1.00  0.00     0.123 A 
ATOM     12  C   UNL     1      19.511  35.317  76.213  1.00  0.00     0.093 A 
BRANCH   3  13
ATOM     13  C   UNL     1      19.115  41.426  78.159  1.00  0.00     0.025 A 
ATOM     14  C   UNL     1      20.124  42.352  77.798  1.00  0.00     0.016 A 
ATOM     15  C   UNL     1      20.064  43.669  78.259  1.00  0.00     0.051 A 
ATOM     16  C   UNL     1      19.067  44.059  79.165  1.00  0.00     0.157 A 
ATOM     17  C   UNL     1      18.194  41.787  79.157  1.00  0.00     0.062 A 
ATOM     18  C   UNL     1      18.154  43.107  79.648  1.00  0.00     0.158 A 
BRANCH  16  19
ATOM     19  O   UNL     1      19.006  45.381  79.594  1.00  0.00    -0.504 OA
ATOM     20  H   UNL     1      19.839  45.818  79.963  1.00  0.00     0.293 HD
ENDBRANCH  16  19
BRANCH  18  21
ATOM     21  O   UNL     1      17.211  43.475  80.600  1.00  0.00    -0.504 OA
ATOM     22  H   UNL     1      16.310  42.998  80.622  1.00  0.00     0.293 HD
ENDBRANCH  18  21
ENDBRANCH   3  13
BRANCH  10  23
ATOM     23  O   UNL     1      19.109  36.276  74.053  1.00  0.00    -0.507 OA
ATOM     24  H   UNL     1      19.592  35.548  73.548  1.00  0.00     0.293 HD
ENDBRANCH  10  23
BRANCH  11  25
ATOM     25  O   UNL     1      19.955  34.307  78.362  1.00  0.00    -0.508 OA
ATOM     26  H   UNL     1      19.289  34.068  79.088  1.00  0.00     0.293 HD
ENDBRANCH  11  25
ENDBRANCH   1   2
BRANCH   1  27
ATOM     27  C   UNL     1      17.731  41.964  74.830  1.00  0.00     0.265 C 
BRANCH  27  28
ATOM     28  C   UNL     1      17.727  43.353  75.516  1.00  0.00     0.190 C 
ATOM     29  C   UNL     1      18.522  44.442  74.745  1.00  0.00     0.178 C 
ATOM     30  O   UNL     1      16.419  43.768  75.900  1.00  0.00    -0.340 OA
ATOM     31  C   UNL     1      17.698  45.010  73.585  1.00  0.00     0.179 C 
ATOM     32  C   UNL     1      15.621  44.327  74.851  1.00  0.00     0.279 C 
ATOM     33  C   UNL     1      16.335  45.486  74.126  1.00  0.00     0.201 C 
BRANCH  29  34
ATOM     34  O   UNL     1      19.738  43.917  74.274  1.00  0.00    -0.387 OA
ATOM     35  H   UNL     1      20.449  44.233  74.895  1.00  0.00     0.211 HD
ENDBRANCH  29  34
BRANCH  31  36
ATOM     36  O   UNL     1      18.411  46.037  72.929  1.00  0.00    -0.387 OA
ATOM     37  H   UNL     1      19.115  46.342  73.550  1.00  0.00     0.211 HD
ENDBRANCH  31  36
BRANCH  32  38
ATOM     38  O   UNL     1      15.210  43.352  73.932  1.00  0.00    -0.366 OA
ATOM     39  H   UNL     1      15.379  42.457  74.337  1.00  0.00     0.213 HD
ENDBRANCH  32  38
BRANCH  33  40
ATOM     40  O   UNL     1      15.556  45.983  73.073  1.00  0.00    -0.385 OA
ATOM     41  H   UNL     1      16.100  46.692  72.641  1.00  0.00     0.211 HD
ENDBRANCH  33  40
ENDBRANCH  27  28
ENDBRANCH   1  27
TORSDOF 12
ENDMDL
MODEL 2
REMARK VINA RESULT:    -6.477      0.956      1.830
REMARK INTER + INTRA:         -10.672
REMARK INTER:                  -9.972
REMARK INTRA:                  -0.700
REMARK UNBOUND:                -1.166
REMARK SMILES O=c1c(OC[C@@H]2O[C@H](O)[C@H](O)[C@@H](O)[C@@H]2O)c(-c2ccc(O)c(O)c2)oc2cc(O)cc(O)c12
REMARK SMILES IDX 4 1 3 2 16 3 25 4 2 5 26 6 1 7 33 8 27 9 31 10 28 11 30 12
REMARK SMILES IDX 17 13 18 14 19 15 20 16 24 17 22 18 21 19 23 21 32 23 29 25
REMARK SMILES IDX 5 27 6 28 14 29 7 30 12 31 8 32 10 33 15 34 13 36 9 38 11 40
REMARK H PARENT 21 20 23 22 32 24 29 26 15 35 13 37 9 39 11 41
REMARK Flexibility Score: inf
ROOT
ATOM      1  O   UNL     1      17.535  41.294  75.696  1.00  0.00    -0.483 OA
ENDROOT
BRANCH   1   2
ATOM      2  C   UNL     1      18.407  40.315  76.188  1.00  0.00     0.211 A 
ATOM      3  C   UNL     1      19.014  40.412  77.464  1.00  0.00     0.180 A 
ATOM      4  O   UNL     1      19.457  39.298  78.043  1.00  0.00    -0.452 OA
ATOM      5  C   UNL     1      18.570  39.146  75.439  1.00  0.00     0.239 A 
ATOM      6  C   UNL     1      19.489  38.118  77.424  1.00  0.00     0.146 A 
ATOM      7  O   UNL     1      18.076  39.082  74.278  1.00  0.00    -0.285 OA
ATOM      8  C   UNL     1      19.177  38.020  76.043  1.00  0.00     0.111 A 
ATOM      9  C   UNL     1      19.749  36.963  78.162  1.00  0.00     0.094 A 
ATOM     10  C   UNL     1      19.290  36.762  75.396  1.00  0.00     0.134 A 
ATOM     11  C   UNL     1      19.669  35.709  77.555  1.00  0.00     0.123 A 
ATOM     12  C   UNL     1      19.469  35.615  76.172  1.00  0.00     0.093 A 
BRANCH   3  13
ATOM     13  C   UNL     1      19.140  41.702  78.196  1.00  0.00     0.025 A 
ATOM     14  C   UNL     1      20.125  42.652  77.833  1.00  0.00     0.016 A 
ATOM     15  C   UNL     1      20.056  43.957  78.327  1.00  0.00     0.051 A 
ATOM     16  C   UNL     1      19.076  44.308  79.267  1.00  0.00     0.157 A 
ATOM     17  C   UNL     1      18.238  42.024  79.225  1.00  0.00     0.062 A 
ATOM     18  C   UNL     1      18.191  43.331  79.749  1.00  0.00     0.158 A 
BRANCH  16  19
ATOM     19  O   UNL     1      19.006  45.619  79.730  1.00  0.00    -0.504 OA
ATOM     20  H   UNL     1      19.126  46.379  79.076  1.00  0.00     0.293 HD
ENDBRANCH  16  19
BRANCH  18  21
ATOM     21  O   UNL     1      17.266  43.660  80.732  1.00  0.00    -0.504 OA
ATOM     22  H   UNL     1      16.518  43.005  80.955  1.00  0.00     0.293 HD
ENDBRANCH  18  21
ENDBRANCH   3  13
BRANCH  10  23
ATOM     23  O   UNL     1      19.220  36.618  74.009  1.00  0.00    -0.507 OA
ATOM     24  H   UNL     1      18.950  37.379  73.404  1.00  0.00     0.293 HD
ENDBRANCH  10  23
BRANCH  11  25
ATOM     25  O   UNL     1      19.760  34.559  78.326  1.00  0.00    -0.508 OA
ATOM     26  H   UNL     1      19.333  33.691  78.023  1.00  0.00     0.293 HD
ENDBRANCH  11  25
ENDBRANCH   1   2
BRANCH   1  27
ATOM     27  C   UNL     1      17.991  42.582  75.256  1.00  0.00     0.265 C 
BRANCH  27  28
ATOM     28  C   UNL     1      17.327  42.977  73.913  1.00  0.00     0.190 C 
ATOM     29  C   UNL     1      15.829  42.583  73.807  1.00  0.00     0.178 C 
ATOM     30  O   UNL     1      17.587  44.330  73.552  1.00  0.00    -0.340 OA
ATOM     31  C   UNL     1      14.940  43.591  74.544  1.00  0.00     0.179 C 
ATOM     32  C   UNL     1      16.764  45.306  74.201  1.00  0.00     0.279 C 
ATOM     33  C   UNL     1      15.260  45.009  74.030  1.00  0.00     0.201 C 
BRANCH  29  34
ATOM     34  O   UNL     1      15.627  41.287  74.314  1.00  0.00    -0.387 OA
ATOM     35  H   UNL     1      16.489  40.800  74.214  1.00  0.00     0.211 HD
ENDBRANCH  29  34
BRANCH  31  36
ATOM     36  O   UNL     1      13.578  43.252  74.393  1.00  0.00    -0.387 OA
ATOM     37  H   UNL     1      13.053  44.060  74.609  1.00  0.00     0.211 HD
ENDBRANCH  31  36
BRANCH  32  38
ATOM     38  O   UNL     1      17.086  45.442  75.557  1.00  0.00    -0.366 OA
ATOM     39  H   UNL     1      16.525  46.175  75.935  1.00  0.00     0.213 HD
ENDBRANCH  32  38
BRANCH  33  40
ATOM     40  O   UNL     1      14.476  45.947  74.714  1.00  0.00    -0.385 OA
ATOM     41  H   UNL     1      15.112  46.585  75.130  1.00  0.00     0.211 HD
ENDBRANCH  33  40
ENDBRANCH  27  28
ENDBRANCH   1  27
TORSDOF 12
ENDMDL
MODEL 3
REMARK VINA RESULT:    -6.389     15.836     18.349
REMARK INTER + INTRA:         -10.542
REMARK INTER:                  -9.531
REMARK INTRA:                  -1.012
REMARK UNBOUND:                -1.166
REMARK SMILES O=c1c(OC[C@@H]2O[C@H](O)[C@H](O)[C@@H](O)[C@@H]2O)c(-c2ccc(O)c(O)c2)oc2cc(O)cc(O)c12
REMARK SMILES IDX 4 1 3 2 16 3 25 4 2 5 26 6 1 7 33 8 27 9 31 10 28 11 30 12
REMARK SMILES IDX 17 13 18 14 19 15 20 16 24 17 22 18 21 19 23 21 32 23 29 25
REMARK SMILES IDX 5 27 6 28 14 29 7 30 12 31 8 32 10 33 15 34 13 36 9 38 11 40
REMARK H PARENT 21 20 23 22 32 24 29 26 15 35 13 37 9 39 11 41
REMARK Flexibility Score: inf
ROOT
ATOM      1  O   UNL     1       4.688  30.624  69.099  1.00  0.00    -0.483 OA
ENDROOT
BRANCH   1   2
ATOM      2  C   UNL     1       3.720  31.492  69.620  1.00  0.00     0.211 A 
ATOM      3  C   UNL     1       3.935  32.247  70.799  1.00  0.00     0.180 A 
ATOM      4  O   UNL     1       3.199  33.339  70.996  1.00  0.00    -0.452 OA
ATOM      5  C   UNL     1       2.562  31.708  68.869  1.00  0.00     0.239 A 
ATOM      6  C   UNL     1       2.176  33.679  70.213  1.00  0.00     0.146 A 
ATOM      7  O   UNL     1       2.344  30.994  67.849  1.00  0.00    -0.285 OA
ATOM      8  C   UNL     1       1.722  32.799  69.196  1.00  0.00     0.111 A 
ATOM      9  C   UNL     1       1.602  34.944  70.345  1.00  0.00     0.094 A 
ATOM     10  C   UNL     1       0.585  33.157  68.427  1.00  0.00     0.134 A 
ATOM     11  C   UNL     1       0.609  35.361  69.456  1.00  0.00     0.123 A 
ATOM     12  C   UNL     1       0.086  34.459  68.522  1.00  0.00     0.093 A 
BRANCH   3  13
ATOM     13  C   UNL     1       4.973  31.889  71.803  1.00  0.00     0.025 A 
ATOM     14  C   UNL     1       4.974  30.618  72.429  1.00  0.00     0.016 A 
ATOM     15  C   UNL     1       6.095  30.190  73.145  1.00  0.00     0.051 A 
ATOM     16  C   UNL     1       7.183  31.052  73.340  1.00  0.00     0.157 A 
ATOM     17  C   UNL     1       6.010  32.789  72.102  1.00  0.00     0.062 A 
ATOM     18  C   UNL     1       7.125  32.368  72.855  1.00  0.00     0.158 A 
BRANCH  16  19
ATOM     19  O   UNL     1       8.302  30.601  74.034  1.00  0.00    -0.504 OA
ATOM     20  H   UNL     1       8.549  29.623  73.986  1.00  0.00     0.293 HD
ENDBRANCH  16  19
BRANCH  18  21
ATOM     21  O   UNL     1       8.172  33.246  73.108  1.00  0.00    -0.504 OA
ATOM     22  H   UNL     1       8.057  33.971  73.815  1.00  0.00     0.293 HD
ENDBRANCH  18  21
ENDBRANCH   3  13
BRANCH  10  23
ATOM     23  O   UNL     1      -0.056  32.264  67.567  1.00  0.00    -0.507 OA
ATOM     24  H   UNL     1      -1.062  32.220  67.491  1.00  0.00     0.293 HD
ENDBRANCH  10  23
BRANCH  11  25
ATOM     25  O   UNL     1       0.164  36.674  69.481  1.00  0.00    -0.508 OA
ATOM     26  H   UNL     1      -0.769  36.904  69.803  1.00  0.00     0.293 HD
ENDBRANCH  11  25
ENDBRANCH   1   2
BRANCH   1  27
ATOM     27  C   UNL     1       6.059  31.012  68.926  1.00  0.00     0.265 C 
BRANCH  27  28
ATOM     28  C   UNL     1       6.271  31.708  67.559  1.00  0.00     0.190 C 
ATOM     29  C   UNL     1       6.597  33.223  67.663  1.00  0.00     0.178 C 
ATOM     30  O   UNL     1       7.165  30.991  66.713  1.00  0.00    -0.340 OA
ATOM     31  C   UNL     1       8.073  33.447  68.008  1.00  0.00     0.179 C 
ATOM     32  C   UNL     1       8.557  31.188  66.985  1.00  0.00     0.279 C 
ATOM     33  C   UNL     1       8.945  32.681  66.994  1.00  0.00     0.201 C 
BRANCH  29  34
ATOM     34  O   UNL     1       5.770  33.836  68.621  1.00  0.00    -0.387 OA
ATOM     35  H   UNL     1       5.037  33.193  68.824  1.00  0.00     0.211 HD
ENDBRANCH  29  34
BRANCH  31  36
ATOM     36  O   UNL     1       8.367  34.827  68.045  1.00  0.00    -0.387 OA
ATOM     37  H   UNL     1       7.504  35.307  68.061  1.00  0.00     0.211 HD
ENDBRANCH  31  36
BRANCH  32  38
ATOM     38  O   UNL     1       8.948  30.573  68.182  1.00  0.00    -0.366 OA
ATOM     39  H   UNL     1       8.282  30.815  68.884  1.00  0.00     0.213 HD
ENDBRANCH  32  38
BRANCH  33  40
ATOM     40  O   UNL     1      10.300  32.852  67.311  1.00  0.00    -0.385 OA
ATOM     41  H   UNL     1      10.590  33.673  66.835  1.00  0.00     0.211 HD
ENDBRANCH  33  40
ENDBRANCH  27  28
ENDBRANCH   1  27
TORSDOF 12
ENDMDL
MODEL 4
REMARK VINA RESULT:    -6.344      3.711      8.025
REMARK INTER + INTRA:         -10.477
REMARK INTER:                 -10.179
REMARK INTRA:                  -0.298
REMARK UNBOUND:                -1.166
REMARK SMILES O=c1c(OC[C@@H]2O[C@H](O)[C@H](O)[C@@H](O)[C@@H]2O)c(-c2ccc(O)c(O)c2)oc2cc(O)cc(O)c12
REMARK SMILES IDX 4 1 3 2 16 3 25 4 2 5 26 6 1 7 33 8 27 9 31 10 28 11 30 12
REMARK SMILES IDX 17 13 18 14 19 15 20 16 24 17 22 18 21 19 23 21 32 23 29 25
REMARK SMILES IDX 5 27 6 28 14 29 7 30 12 31 8 32 10 33 15 34 13 36 9 38 11 40
REMARK H PARENT 21 20 23 22 32 24 29 26 15 35 13 37 9 39 11 41
REMARK Flexibility Score: inf
ROOT
ATOM      1  O   UNL     1      17.417  45.331  73.949  1.00  0.00    -0.483 OA
ENDROOT
BRANCH   1   2
ATOM      2  C   UNL     1      16.032  45.135  74.012  1.00  0.00     0.211 A 
ATOM      3  C   UNL     1      15.456  43.878  74.321  1.00  0.00     0.180 A 
ATOM      4  O   UNL     1      14.210  43.848  74.788  1.00  0.00    -0.452 OA
ATOM      5  C   UNL     1      15.206  46.257  73.896  1.00  0.00     0.239 A 
ATOM      6  C   UNL     1      13.427  44.924  74.846  1.00  0.00     0.146 A 
ATOM      7  O   UNL     1      15.713  47.366  73.565  1.00  0.00    -0.285 OA
ATOM      8  C   UNL     1      13.845  46.152  74.268  1.00  0.00     0.111 A 
ATOM      9  C   UNL     1      12.226  44.862  75.553  1.00  0.00     0.094 A 
ATOM     10  C   UNL     1      12.959  47.260  74.282  1.00  0.00     0.134 A 
ATOM     11  C   UNL     1      11.451  46.011  75.724  1.00  0.00     0.123 A 
ATOM     12  C   UNL     1      11.805  47.195  75.066  1.00  0.00     0.093 A 
BRANCH   3  13
ATOM     13  C   UNL     1      16.203  42.599  74.179  1.00  0.00     0.025 A 
ATOM     14  C   UNL     1      17.616  42.565  74.274  1.00  0.00     0.016 A 
ATOM     15  C   UNL     1      18.280  41.345  74.422  1.00  0.00     0.051 A 
ATOM     16  C   UNL     1      17.567  40.139  74.371  1.00  0.00     0.157 A 
ATOM     17  C   UNL     1      15.510  41.389  74.008  1.00  0.00     0.062 A 
ATOM     18  C   UNL     1      16.185  40.156  74.122  1.00  0.00     0.158 A 
BRANCH  16  19
ATOM     19  O   UNL     1      18.240  38.933  74.546  1.00  0.00    -0.504 OA
ATOM     20  H   UNL     1      18.373  38.575  75.481  1.00  0.00     0.293 HD
ENDBRANCH  16  19
BRANCH  18  21
ATOM     21  O   UNL     1      15.488  38.960  74.001  1.00  0.00    -0.504 OA
ATOM     22  H   UNL     1      14.852  38.829  73.215  1.00  0.00     0.293 HD
ENDBRANCH  18  21
ENDBRANCH   3  13
BRANCH  10  23
ATOM     23  O   UNL     1      13.196  48.424  73.549  1.00  0.00    -0.507 OA
ATOM     24  H   UNL     1      13.925  49.076  73.798  1.00  0.00     0.293 HD
ENDBRANCH  10  23
BRANCH  11  25
ATOM     25  O   UNL     1      10.351  45.984  76.568  1.00  0.00    -0.508 OA
ATOM     26  H   UNL     1      10.422  46.288  77.532  1.00  0.00     0.293 HD
ENDBRANCH  11  25
ENDBRANCH   1   2
BRANCH   1  27
ATOM     27  C   UNL     1      18.151  45.994  74.988  1.00  0.00     0.265 C 
BRANCH  27  28
ATOM     28  C   UNL     1      19.447  46.636  74.431  1.00  0.00     0.190 C 
ATOM     29  C   UNL     1      19.551  46.608  72.881  1.00  0.00     0.178 C 
ATOM     30  O   UNL     1      19.708  47.917  74.996  1.00  0.00    -0.340 OA
ATOM     31  C   UNL     1      18.721  47.732  72.252  1.00  0.00     0.179 C 
ATOM     32  C   UNL     1      18.971  49.002  74.422  1.00  0.00     0.279 C 
ATOM     33  C   UNL     1      19.133  49.074  72.891  1.00  0.00     0.201 C 
BRANCH  29  34
ATOM     34  O   UNL     1      19.140  45.358  72.386  1.00  0.00    -0.387 OA
ATOM     35  H   UNL     1      19.402  44.678  73.065  1.00  0.00     0.211 HD
ENDBRANCH  29  34
BRANCH  31  36
ATOM     36  O   UNL     1      18.869  47.729  70.849  1.00  0.00    -0.387 OA
ATOM     37  H   UNL     1      19.334  48.566  70.605  1.00  0.00     0.211 HD
ENDBRANCH  31  36
BRANCH  32  38
ATOM     38  O   UNL     1      17.615  48.953  74.771  1.00  0.00    -0.366 OA
ATOM     39  H   UNL     1      17.091  49.372  74.033  1.00  0.00     0.213 HD
ENDBRANCH  32  38
BRANCH  33  40
ATOM     40  O   UNL     1      18.363  50.112  72.346  1.00  0.00    -0.385 OA
ATOM     41  H   UNL     1      18.581  50.921  72.877  1.00  0.00     0.211 HD
ENDBRANCH  33  40
ENDBRANCH  27  28
ENDBRANCH   1  27
TORSDOF 12
ENDMDL
MODEL 5
REMARK VINA RESULT:    -6.086      3.070      5.513
REMARK INTER + INTRA:         -10.098
REMARK INTER:                  -8.808
REMARK INTRA:                  -1.290
REMARK UNBOUND:                -1.166
REMARK SMILES O=c1c(OC[C@@H]2O[C@H](O)[C@H](O)[C@@H](O)[C@@H]2O)c(-c2ccc(O)c(O)c2)oc2cc(O)cc(O)c12
REMARK SMILES IDX 4 1 3 2 16 3 25 4 2 5 26 6 1 7 33 8 27 9 31 10 28 11 30 12
REMARK SMILES IDX 17 13 18 14 19 15 20 16 24 17 22 18 21 19 23 21 32 23 29 25
REMARK SMILES IDX 5 27 6 28 14 29 7 30 12 31 8 32 10 33 15 34 13 36 9 38 11 40
REMARK H PARENT 21 20 23 22 32 24 29 26 15 35 13 37 9 39 11 41
REMARK Flexibility Score: inf
ROOT
ATOM      1  O   UNL     1      15.211  44.900  74.379  1.00  0.00    -0.483 OA
ENDROOT
BRANCH   1   2
ATOM      2  C   UNL     1      16.263  43.976  74.373  1.00  0.00     0.211 A 
ATOM      3  C   UNL     1      17.599  44.345  74.665  1.00  0.00     0.180 A 
ATOM      4  O   UNL     1      18.446  43.400  75.066  1.00  0.00    -0.452 OA
ATOM      5  C   UNL     1      15.948  42.625  74.200  1.00  0.00     0.239 A 
ATOM      6  C   UNL     1      18.141  42.103  75.071  1.00  0.00     0.146 A 
ATOM      7  O   UNL     1      14.768  42.302  73.883  1.00  0.00    -0.285 OA
ATOM      8  C   UNL     1      16.924  41.646  74.501  1.00  0.00     0.111 A 
ATOM      9  C   UNL     1      18.989  41.201  75.714  1.00  0.00     0.094 A 
ATOM     10  C   UNL     1      16.661  40.253  74.456  1.00  0.00     0.134 A 
ATOM     11  C   UNL     1      18.628  39.858  75.831  1.00  0.00     0.123 A 
ATOM     12  C   UNL     1      17.482  39.384  75.179  1.00  0.00     0.093 A 
BRANCH   3  13
ATOM     13  C   UNL     1      18.079  45.752  74.577  1.00  0.00     0.025 A 
ATOM     14  C   UNL     1      18.610  46.267  73.369  1.00  0.00     0.016 A 
ATOM     15  C   UNL     1      18.791  47.643  73.214  1.00  0.00     0.051 A 
ATOM     16  C   UNL     1      18.552  48.515  74.285  1.00  0.00     0.157 A 
ATOM     17  C   UNL     1      17.957  46.612  75.681  1.00  0.00     0.062 A 
ATOM     18  C   UNL     1      18.175  47.997  75.535  1.00  0.00     0.158 A 
BRANCH  16  19
ATOM     19  O   UNL     1      18.714  49.886  74.106  1.00  0.00    -0.504 OA
ATOM     20  H   UNL     1      19.635  50.252  73.913  1.00  0.00     0.293 HD
ENDBRANCH  16  19
BRANCH  18  21
ATOM     21  O   UNL     1      18.006  48.853  76.616  1.00  0.00    -0.504 OA
ATOM     22  H   UNL     1      18.824  49.285  77.044  1.00  0.00     0.293 HD
ENDBRANCH  18  21
ENDBRANCH   3  13
BRANCH  10  23
ATOM     23  O   UNL     1      15.605  39.708  73.723  1.00  0.00    -0.507 OA
ATOM     24  H   UNL     1      14.856  39.195  74.163  1.00  0.00     0.293 HD
ENDBRANCH  10  23
BRANCH  11  25
ATOM     25  O   UNL     1      19.386  39.002  76.616  1.00  0.00    -0.508 OA
ATOM     26  H   UNL     1      19.009  38.120  76.944  1.00  0.00     0.293 HD
ENDBRANCH  11  25
ENDBRANCH   1   2
BRANCH   1  27
ATOM     27  C   UNL     1      14.898  45.722  73.245  1.00  0.00     0.265 C 
BRANCH  27  28
ATOM     28  C   UNL     1      14.583  47.174  73.681  1.00  0.00     0.190 C 
ATOM     29  C   UNL     1      14.096  48.091  72.525  1.00  0.00     0.178 C 
ATOM     30  O   UNL     1      13.756  47.230  74.839  1.00  0.00    -0.340 OA
ATOM     31  C   UNL     1      12.612  47.858  72.225  1.00  0.00     0.179 C 
ATOM     32  C   UNL     1      12.356  47.039  74.601  1.00  0.00     0.279 C 
ATOM     33  C   UNL     1      11.808  48.005  73.532  1.00  0.00     0.201 C 
BRANCH  29  34
ATOM     34  O   UNL     1      14.871  47.877  71.372  1.00  0.00    -0.387 OA
ATOM     35  H   UNL     1      15.589  48.567  71.373  1.00  0.00     0.211 HD
ENDBRANCH  29  34
BRANCH  31  36
ATOM     36  O   UNL     1      12.169  48.735  71.211  1.00  0.00    -0.387 OA
ATOM     37  H   UNL     1      12.960  49.237  70.898  1.00  0.00     0.211 HD
ENDBRANCH  31  36
BRANCH  32  38
ATOM     38  O   UNL     1      12.060  45.712  74.262  1.00  0.00    -0.366 OA
ATOM     39  H   UNL     1      12.918  45.250  74.050  1.00  0.00     0.213 HD
ENDBRANCH  32  38
BRANCH  33  40
ATOM     40  O   UNL     1      10.449  47.767  73.280  1.00  0.00    -0.385 OA
ATOM     41  H   UNL     1       9.949  48.380  73.879  1.00  0.00     0.211 HD
ENDBRANCH  33  40
ENDBRANCH  27  28
ENDBRANCH   1  27
TORSDOF 12
ENDMDL
MODEL 6
REMARK VINA RESULT:    -5.988      3.554      8.206
REMARK INTER + INTRA:          -9.954
REMARK INTER:                  -8.546
REMARK INTRA:                  -1.408
REMARK UNBOUND:                -1.166
REMARK SMILES O=c1c(OC[C@@H]2O[C@H](O)[C@H](O)[C@@H](O)[C@@H]2O)c(-c2ccc(O)c(O)c2)oc2cc(O)cc(O)c12
REMARK SMILES IDX 4 1 3 2 16 3 25 4 2 5 26 6 1 7 33 8 27 9 31 10 28 11 30 12
REMARK SMILES IDX 17 13 18 14 19 15 20 16 24 17 22 18 21 19 23 21 32 23 29 25
REMARK SMILES IDX 5 27 6 28 14 29 7 30 12 31 8 32 10 33 15 34 13 36 9 38 11 40
REMARK H PARENT 21 20 23 22 32 24 29 26 15 35 13 37 9 39 11 41
REMARK Flexibility Score: inf
ROOT
ATOM      1  O   UNL     1      16.977  46.113  74.073  1.00  0.00    -0.483 OA
ENDROOT
BRANCH   1   2
ATOM      2  C   UNL     1      15.623  45.789  74.220  1.00  0.00     0.211 A 
ATOM      3  C   UNL     1      15.193  44.593  74.846  1.00  0.00     0.180 A 
ATOM      4  O   UNL     1      13.958  44.543  75.339  1.00  0.00    -0.452 OA
ATOM      5  C   UNL     1      14.675  46.748  73.851  1.00  0.00     0.239 A 
ATOM      6  C   UNL     1      13.058  45.507  75.149  1.00  0.00     0.146 A 
ATOM      7  O   UNL     1      15.054  47.789  73.242  1.00  0.00    -0.285 OA
ATOM      8  C   UNL     1      13.335  46.590  74.274  1.00  0.00     0.111 A 
ATOM      9  C   UNL     1      11.870  45.491  75.881  1.00  0.00     0.094 A 
ATOM     10  C   UNL     1      12.329  47.562  74.036  1.00  0.00     0.134 A 
ATOM     11  C   UNL     1      10.970  46.554  75.783  1.00  0.00     0.123 A 
ATOM     12  C   UNL     1      11.188  47.568  74.843  1.00  0.00     0.093 A 
BRANCH   3  13
ATOM     13  C   UNL     1      16.080  43.408  75.005  1.00  0.00     0.025 A 
ATOM     14  C   UNL     1      15.994  42.308  74.117  1.00  0.00     0.016 A 
ATOM     15  C   UNL     1      17.002  41.342  74.098  1.00  0.00     0.051 A 
ATOM     16  C   UNL     1      18.051  41.394  75.026  1.00  0.00     0.157 A 
ATOM     17  C   UNL     1      17.064  43.390  76.008  1.00  0.00     0.062 A 
ATOM     18  C   UNL     1      18.062  42.395  76.011  1.00  0.00     0.158 A 
BRANCH  16  19
ATOM     19  O   UNL     1      19.062  40.438  74.977  1.00  0.00    -0.504 OA
ATOM     20  H   UNL     1      18.950  39.577  75.493  1.00  0.00     0.293 HD
ENDBRANCH  16  19
BRANCH  18  21
ATOM     21  O   UNL     1      19.062  42.407  76.975  1.00  0.00    -0.504 OA
ATOM     22  H   UNL     1      20.004  42.108  76.723  1.00  0.00     0.293 HD
ENDBRANCH  18  21
ENDBRANCH   3  13
BRANCH  10  23
ATOM     23  O   UNL     1      12.434  48.526  73.032  1.00  0.00    -0.507 OA
ATOM     24  H   UNL     1      12.042  48.388  72.113  1.00  0.00     0.293 HD
ENDBRANCH  10  23
BRANCH  11  25
ATOM     25  O   UNL     1       9.878  46.617  76.636  1.00  0.00    -0.508 OA
ATOM     26  H   UNL     1       9.200  45.865  76.675  1.00  0.00     0.293 HD
ENDBRANCH  11  25
ENDBRANCH   1   2
BRANCH   1  27
ATOM     27  C   UNL     1      17.826  45.465  73.114  1.00  0.00     0.265 C 
BRANCH  27  28
ATOM     28  C   UNL     1      18.976  46.403  72.667  1.00  0.00     0.190 C 
ATOM     29  C   UNL     1      18.533  47.868  72.407  1.00  0.00     0.178 C 
ATOM     30  O   UNL     1      20.125  46.294  73.501  1.00  0.00    -0.340 OA
ATOM     31  C   UNL     1      18.407  48.647  73.720  1.00  0.00     0.179 C 
ATOM     32  C   UNL     1      20.060  47.026  74.731  1.00  0.00     0.279 C 
ATOM     33  C   UNL     1      19.725  48.514  74.509  1.00  0.00     0.201 C 
BRANCH  29  34
ATOM     34  O   UNL     1      17.317  47.894  71.702  1.00  0.00    -0.387 OA
ATOM     35  H   UNL     1      16.609  47.598  72.336  1.00  0.00     0.211 HD
ENDBRANCH  29  34
BRANCH  31  36
ATOM     36  O   UNL     1      18.058  49.991  73.466  1.00  0.00    -0.387 OA
ATOM     37  H   UNL     1      17.591  50.326  74.270  1.00  0.00     0.211 HD
ENDBRANCH  31  36
BRANCH  32  38
ATOM     38  O   UNL     1      19.157  46.449  75.634  1.00  0.00    -0.366 OA
ATOM     39  H   UNL     1      19.650  45.767  76.170  1.00  0.00     0.213 HD
ENDBRANCH  32  38
BRANCH  33  40
ATOM     40  O   UNL     1      19.618  49.198  75.728  1.00  0.00    -0.385 OA
ATOM     41  H   UNL     1      20.101  50.056  75.604  1.00  0.00     0.211 HD
ENDBRANCH  33  40
ENDBRANCH  27  28
ENDBRANCH   1  27
TORSDOF 12
ENDMDL
MODEL 7
REMARK VINA RESULT:    -5.915      3.074      5.806
REMARK INTER + INTRA:          -9.847
REMARK INTER:                  -8.591
REMARK INTRA:                  -1.257
REMARK UNBOUND:                -1.166
REMARK SMILES O=c1c(OC[C@@H]2O[C@H](O)[C@H](O)[C@@H](O)[C@@H]2O)c(-c2ccc(O)c(O)c2)oc2cc(O)cc(O)c12
REMARK SMILES IDX 4 1 3 2 16 3 25 4 2 5 26 6 1 7 33 8 27 9 31 10 28 11 30 12
REMARK SMILES IDX 17 13 18 14 19 15 20 16 24 17 22 18 21 19 23 21 32 23 29 25
REMARK SMILES IDX 5 27 6 28 14 29 7 30 12 31 8 32 10 33 15 34 13 36 9 38 11 40
REMARK H PARENT 21 20 23 22 32 24 29 26 15 35 13 37 9 39 11 41
REMARK Flexibility Score: inf
ROOT
ATOM      1  O   UNL     1      15.372  44.791  73.732  1.00  0.00    -0.483 OA
ENDROOT
BRANCH   1   2
ATOM      2  C   UNL     1      16.393  43.858  73.950  1.00  0.00     0.211 A 
ATOM      3  C   UNL     1      17.707  44.242  74.314  1.00  0.00     0.180 A 
ATOM      4  O   UNL     1      18.486  43.346  74.918  1.00  0.00    -0.452 OA
ATOM      5  C   UNL     1      16.055  42.502  73.934  1.00  0.00     0.239 A 
ATOM      6  C   UNL     1      18.144  42.068  75.070  1.00  0.00     0.146 A 
ATOM      7  O   UNL     1      14.900  42.157  73.554  1.00  0.00    -0.285 OA
ATOM      8  C   UNL     1      16.970  41.557  74.456  1.00  0.00     0.111 A 
ATOM      9  C   UNL     1      18.903  41.249  75.907  1.00  0.00     0.094 A 
ATOM     10  C   UNL     1      16.671  40.176  74.575  1.00  0.00     0.134 A 
ATOM     11  C   UNL     1      18.492  39.941  76.170  1.00  0.00     0.123 A 
ATOM     12  C   UNL     1      17.397  39.402  75.484  1.00  0.00     0.093 A 
BRANCH   3  13
ATOM     13  C   UNL     1      18.235  45.614  74.082  1.00  0.00     0.025 A 
ATOM     14  C   UNL     1      18.955  45.928  72.903  1.00  0.00     0.016 A 
ATOM     15  C   UNL     1      19.197  47.261  72.564  1.00  0.00     0.051 A 
ATOM     16  C   UNL     1      18.824  48.294  73.436  1.00  0.00     0.157 A 
ATOM     17  C   UNL     1      17.972  46.640  75.005  1.00  0.00     0.062 A 
ATOM     18  C   UNL     1      18.248  47.983  74.679  1.00  0.00     0.158 A 
BRANCH  16  19
ATOM     19  O   UNL     1      19.049  49.618  73.071  1.00  0.00    -0.504 OA
ATOM     20  H   UNL     1      19.258  50.297  73.789  1.00  0.00     0.293 HD
ENDBRANCH  16  19
BRANCH  18  21
ATOM     21  O   UNL     1      17.943  49.000  75.574  1.00  0.00    -0.504 OA
ATOM     22  H   UNL     1      17.443  48.777  76.434  1.00  0.00     0.293 HD
ENDBRANCH  18  21
ENDBRANCH   3  13
BRANCH  10  23
ATOM     23  O   UNL     1      15.670  39.552  73.827  1.00  0.00    -0.507 OA
ATOM     24  H   UNL     1      15.173  40.032  73.092  1.00  0.00     0.293 HD
ENDBRANCH  10  23
BRANCH  11  25
ATOM     25  O   UNL     1      19.151  39.189  77.132  1.00  0.00    -0.508 OA
ATOM     26  H   UNL     1      18.677  38.888  77.976  1.00  0.00     0.293 HD
ENDBRANCH  11  25
ENDBRANCH   1   2
BRANCH   1  27
ATOM     27  C   UNL     1      14.494  45.233  74.779  1.00  0.00     0.265 C 
BRANCH  27  28
ATOM     28  C   UNL     1      13.249  45.946  74.194  1.00  0.00     0.190 C 
ATOM     29  C   UNL     1      12.045  46.021  75.173  1.00  0.00     0.178 C 
ATOM     30  O   UNL     1      13.569  47.194  73.588  1.00  0.00    -0.340 OA
ATOM     31  C   UNL     1      12.226  47.161  76.182  1.00  0.00     0.179 C 
ATOM     32  C   UNL     1      13.725  48.293  74.493  1.00  0.00     0.279 C 
ATOM     33  C   UNL     1      12.502  48.469  75.415  1.00  0.00     0.201 C 
BRANCH  29  34
ATOM     34  O   UNL     1      11.880  44.795  75.841  1.00  0.00    -0.387 OA
ATOM     35  H   UNL     1      11.680  45.009  76.793  1.00  0.00     0.211 HD
ENDBRANCH  29  34
BRANCH  31  36
ATOM     36  O   UNL     1      11.101  47.253  77.030  1.00  0.00    -0.387 OA
ATOM     37  H   UNL     1      11.419  47.091  77.951  1.00  0.00     0.211 HD
ENDBRANCH  31  36
BRANCH  32  38
ATOM     38  O   UNL     1      14.899  48.183  75.249  1.00  0.00    -0.366 OA
ATOM     39  H   UNL     1      14.656  48.283  76.211  1.00  0.00     0.213 HD
ENDBRANCH  32  38
BRANCH  33  40
ATOM     40  O   UNL     1      12.698  49.518  76.324  1.00  0.00    -0.385 OA
ATOM     41  H   UNL     1      11.955  50.157  76.168  1.00  0.00     0.211 HD
ENDBRANCH  33  40
ENDBRANCH  27  28
ENDBRANCH   1  27
TORSDOF 12
ENDMDL
MODEL 8
REMARK VINA RESULT:    -5.696     16.644     18.727
REMARK INTER + INTRA:          -9.525
REMARK INTER:                  -8.536
REMARK INTRA:                  -0.989
REMARK UNBOUND:                -1.166
REMARK SMILES O=c1c(OC[C@@H]2O[C@H](O)[C@H](O)[C@@H](O)[C@@H]2O)c(-c2ccc(O)c(O)c2)oc2cc(O)cc(O)c12
REMARK SMILES IDX 4 1 3 2 16 3 25 4 2 5 26 6 1 7 33 8 27 9 31 10 28 11 30 12
REMARK SMILES IDX 17 13 18 14 19 15 20 16 24 17 22 18 21 19 23 21 32 23 29 25
REMARK SMILES IDX 5 27 6 28 14 29 7 30 12 31 8 32 10 33 15 34 13 36 9 38 11 40
REMARK H PARENT 21 20 23 22 32 24 29 26 15 35 13 37 9 39 11 41
REMARK Flexibility Score: inf
ROOT
ATOM      1  O   UNL     1       4.427  33.707  70.758  1.00  0.00    -0.483 OA
ENDROOT
BRANCH   1   2
ATOM      2  C   UNL     1       5.214  32.718  70.155  1.00  0.00     0.211 A 
ATOM      3  C   UNL     1       4.831  31.354  70.131  1.00  0.00     0.180 A 
ATOM      4  O   UNL     1       5.363  30.562  69.203  1.00  0.00    -0.452 OA
ATOM      5  C   UNL     1       6.345  33.125  69.441  1.00  0.00     0.239 A 
ATOM      6  C   UNL     1       6.341  30.950  68.386  1.00  0.00     0.146 A 
ATOM      7  O   UNL     1       6.718  34.330  69.510  1.00  0.00    -0.285 OA
ATOM      8  C   UNL     1       6.974  32.208  68.566  1.00  0.00     0.111 A 
ATOM      9  C   UNL     1       6.686  30.148  67.298  1.00  0.00     0.094 A 
ATOM     10  C   UNL     1       8.061  32.563  67.727  1.00  0.00     0.134 A 
ATOM     11  C   UNL     1       7.625  30.594  66.366  1.00  0.00     0.123 A 
ATOM     12  C   UNL     1       8.328  31.783  66.599  1.00  0.00     0.093 A 
BRANCH   3  13
ATOM     13  C   UNL     1       3.833  30.785  71.077  1.00  0.00     0.025 A 
ATOM     14  C   UNL     1       4.243  30.158  72.279  1.00  0.00     0.016 A 
ATOM     15  C   UNL     1       3.308  29.884  73.281  1.00  0.00     0.051 A 
ATOM     16  C   UNL     1       1.945  30.129  73.065  1.00  0.00     0.157 A 
ATOM     17  C   UNL     1       2.458  30.916  70.819  1.00  0.00     0.062 A 
ATOM     18  C   UNL     1       1.512  30.607  71.817  1.00  0.00     0.158 A 
BRANCH  16  19
ATOM     19  O   UNL     1       1.031  29.875  74.083  1.00  0.00    -0.504 OA
ATOM     20  H   UNL     1       0.133  30.337  74.065  1.00  0.00     0.293 HD
ENDBRANCH  16  19
BRANCH  18  21
ATOM     21  O   UNL     1       0.155  30.784  71.578  1.00  0.00    -0.504 OA
ATOM     22  H   UNL     1      -0.514  30.126  71.977  1.00  0.00     0.293 HD
ENDBRANCH  18  21
ENDBRANCH   3  13
BRANCH  10  23
ATOM     23  O   UNL     1       8.876  33.669  67.974  1.00  0.00    -0.507 OA
ATOM     24  H   UNL     1       8.511  34.610  67.997  1.00  0.00     0.293 HD
ENDBRANCH  10  23
BRANCH  11  25
ATOM     25  O   UNL     1       7.840  29.875  65.200  1.00  0.00    -0.508 OA
ATOM     26  H   UNL     1       7.067  29.599  64.606  1.00  0.00     0.293 HD
ENDBRANCH  11  25
ENDBRANCH   1   2
BRANCH   1  27
ATOM     27  C   UNL     1       3.667  34.658  69.998  1.00  0.00     0.265 C 
BRANCH  27  28
ATOM     28  C   UNL     1       2.259  34.105  69.665  1.00  0.00     0.190 C 
ATOM     29  C   UNL     1       1.133  35.175  69.705  1.00  0.00     0.178 C 
ATOM     30  O   UNL     1       2.249  33.313  68.482  1.00  0.00    -0.340 OA
ATOM     31  C   UNL     1       1.114  36.004  68.417  1.00  0.00     0.179 C 
ATOM     32  C   UNL     1       2.208  34.047  67.253  1.00  0.00     0.279 C 
ATOM     33  C   UNL     1       1.037  35.049  67.209  1.00  0.00     0.201 C 
BRANCH  29  34
ATOM     34  O   UNL     1       1.292  36.010  70.825  1.00  0.00    -0.387 OA
ATOM     35  H   UNL     1       1.683  36.864  70.495  1.00  0.00     0.211 HD
ENDBRANCH  29  34
BRANCH  31  36
ATOM     36  O   UNL     1       0.052  36.934  68.444  1.00  0.00    -0.387 OA
ATOM     37  H   UNL     1       0.350  37.697  68.995  1.00  0.00     0.211 HD
ENDBRANCH  31  36
BRANCH  32  38
ATOM     38  O   UNL     1       3.422  34.697  66.994  1.00  0.00    -0.366 OA
ATOM     39  H   UNL     1       4.081  34.012  66.694  1.00  0.00     0.213 HD
ENDBRANCH  32  38
BRANCH  33  40
ATOM     40  O   UNL     1       1.047  35.790  66.019  1.00  0.00    -0.385 OA
ATOM     41  H   UNL     1       1.186  36.735  66.287  1.00  0.00     0.211 HD
ENDBRANCH  33  40
ENDBRANCH  27  28
ENDBRANCH   1  27
TORSDOF 12
ENDMDL
MODEL 9
REMARK VINA RESULT:    -5.651     15.748     17.616
REMARK INTER + INTRA:          -9.460
REMARK INTER:                  -8.546
REMARK INTRA:                  -0.914
REMARK UNBOUND:                -1.166
REMARK SMILES O=c1c(OC[C@@H]2O[C@H](O)[C@H](O)[C@@H](O)[C@@H]2O)c(-c2ccc(O)c(O)c2)oc2cc(O)cc(O)c12
REMARK SMILES IDX 4 1 3 2 16 3 25 4 2 5 26 6 1 7 33 8 27 9 31 10 28 11 30 12
REMARK SMILES IDX 17 13 18 14 19 15 20 16 24 17 22 18 21 19 23 21 32 23 29 25
REMARK SMILES IDX 5 27 6 28 14 29 7 30 12 31 8 32 10 33 15 34 13 36 9 38 11 40
REMARK H PARENT 21 20 23 22 32 24 29 26 15 35 13 37 9 39 11 41
REMARK Flexibility Score: inf
ROOT
ATOM      1  O   UNL     1       4.282  33.061  71.165  1.00  0.00    -0.483 OA
ENDROOT
BRANCH   1   2
ATOM      2  C   UNL     1       5.573  32.799  70.689  1.00  0.00     0.211 A 
ATOM      3  C   UNL     1       6.354  31.720  71.169  1.00  0.00     0.180 A 
ATOM      4  O   UNL     1       7.346  31.265  70.406  1.00  0.00    -0.452 OA
ATOM      5  C   UNL     1       6.040  33.557  69.611  1.00  0.00     0.239 A 
ATOM      6  C   UNL     1       7.731  31.864  69.280  1.00  0.00     0.146 A 
ATOM      7  O   UNL     1       5.369  34.555  69.221  1.00  0.00    -0.285 OA
ATOM      8  C   UNL     1       7.186  33.120  68.907  1.00  0.00     0.111 A 
ATOM      9  C   UNL     1       8.616  31.208  68.424  1.00  0.00     0.094 A 
ATOM     10  C   UNL     1       7.670  33.767  67.741  1.00  0.00     0.134 A 
ATOM     11  C   UNL     1       8.939  31.767  67.185  1.00  0.00     0.123 A 
ATOM     12  C   UNL     1       8.489  33.053  66.862  1.00  0.00     0.093 A 
BRANCH   3  13
ATOM     13  C   UNL     1       6.084  31.052  72.472  1.00  0.00     0.025 A 
ATOM     14  C   UNL     1       7.115  30.876  73.427  1.00  0.00     0.016 A 
ATOM     15  C   UNL     1       6.801  30.513  74.739  1.00  0.00     0.051 A 
ATOM     16  C   UNL     1       5.477  30.217  75.095  1.00  0.00     0.157 A 
ATOM     17  C   UNL     1       4.782  30.640  72.801  1.00  0.00     0.062 A 
ATOM     18  C   UNL     1       4.471  30.239  74.116  1.00  0.00     0.158 A 
BRANCH  16  19
ATOM     19  O   UNL     1       5.178  29.881  76.412  1.00  0.00    -0.504 OA
ATOM     20  H   UNL     1       5.786  29.246  76.909  1.00  0.00     0.293 HD
ENDBRANCH  16  19
BRANCH  18  21
ATOM     21  O   UNL     1       3.172  29.877  74.451  1.00  0.00    -0.504 OA
ATOM     22  H   UNL     1       2.758  29.048  74.027  1.00  0.00     0.293 HD
ENDBRANCH  18  21
ENDBRANCH   3  13
BRANCH  10  23
ATOM     23  O   UNL     1       7.355  35.089  67.425  1.00  0.00    -0.507 OA
ATOM     24  H   UNL     1       6.584  35.575  67.858  1.00  0.00     0.293 HD
ENDBRANCH  10  23
BRANCH  11  25
ATOM     25  O   UNL     1       9.680  31.037  66.268  1.00  0.00    -0.508 OA
ATOM     26  H   UNL     1      10.572  31.377  65.927  1.00  0.00     0.293 HD
ENDBRANCH  11  25
ENDBRANCH   1   2
BRANCH   1  27
ATOM     27  C   UNL     1       3.101  32.703  70.430  1.00  0.00     0.265 C 
BRANCH  27  28
ATOM     28  C   UNL     1       1.898  33.584  70.850  1.00  0.00     0.190 C 
ATOM     29  C   UNL     1       2.135  35.108  70.667  1.00  0.00     0.178 C 
ATOM     30  O   UNL     1       0.668  33.128  70.295  1.00  0.00    -0.340 OA
ATOM     31  C   UNL     1       1.933  35.526  69.207  1.00  0.00     0.179 C 
ATOM     32  C   UNL     1       0.428  33.515  68.937  1.00  0.00     0.279 C 
ATOM     33  C   UNL     1       0.550  35.039  68.733  1.00  0.00     0.201 C 
BRANCH  29  34
ATOM     34  O   UNL     1       3.423  35.458  71.106  1.00  0.00    -0.387 OA
ATOM     35  H   UNL     1       3.909  34.608  71.285  1.00  0.00     0.211 HD
ENDBRANCH  29  34
BRANCH  31  36
ATOM     36  O   UNL     1       2.097  36.921  69.065  1.00  0.00    -0.387 OA
ATOM     37  H   UNL     1       2.390  37.268  69.942  1.00  0.00     0.211 HD
ENDBRANCH  31  36
BRANCH  32  38
ATOM     38  O   UNL     1       1.264  32.832  68.044  1.00  0.00    -0.366 OA
ATOM     39  H   UNL     1       2.156  33.275  68.057  1.00  0.00     0.213 HD
ENDBRANCH  32  38
BRANCH  33  40
ATOM     40  O   UNL     1       0.360  35.388  67.389  1.00  0.00    -0.385 OA
ATOM     41  H   UNL     1       1.262  35.591  67.029  1.00  0.00     0.211 HD
ENDBRANCH  33  40
ENDBRANCH  27  28
ENDBRANCH   1  27
TORSDOF 12
ENDMDL
