MODEL 1
REMARK VINA RESULT:    -4.763      0.000      0.000
REMARK INTER + INTRA:          -9.367
REMARK INTER:                  -8.384
REMARK INTRA:                  -0.983
REMARK UNBOUND:                -0.983
REMARK SMILES CCCCCCCCCCCCCCC(=O)[O-]
REMARK SMILES IDX 9 1 10 2 11 3 12 4 13 5 14 6 15 7 16 8 17 9 8 10 7 11 6 12
REMARK SMILES IDX 5 13 4 14 3 15 2 16 1 17
REMARK H PARENT
REMARK Flexibility Score: inf
ROOT
ATOM      1  C   UNL     1      23.627   7.316  13.864  1.00  0.00     0.000 C 
ENDROOT
BRANCH   1   2
ATOM      2  C   UNL     1      22.887   6.003  14.200  1.00  0.00     0.000 C 
BRANCH   2   3
ATOM      3  C   UNL     1      23.569   5.178  15.305  1.00  0.00     0.000 C 
BRANCH   3   4
ATOM      4  C   UNL     1      24.036   3.797  14.816  1.00  0.00     0.000 C 
BRANCH   4   5
ATOM      5  C   UNL     1      25.107   3.892  13.718  1.00  0.00     0.006 C 
BRANCH   5   6
ATOM      6  C   UNL     1      25.881   2.580  13.531  1.00  0.00     0.053 C 
BRANCH   6   7
ATOM      7  C   UNL     1      26.092   2.304  12.076  1.00  0.00     0.041 C 
ATOM      8  O   UNL     1      25.542   1.310  11.533  1.00  0.00    -0.550 OA
ATOM      9  O   UNL     1      26.859   3.171  11.307  1.00  0.00    -0.550 OA
ENDBRANCH   6   7
ENDBRANCH   5   6
ENDBRANCH   4   5
ENDBRANCH   3   4
ENDBRANCH   2   3
ENDBRANCH   1   2
BRANCH   1  10
ATOM     10  C   UNL     1      24.065   8.074  15.129  1.00  0.00     0.000 C 
BRANCH  10  11
ATOM     11  C   UNL     1      22.884   8.696  15.896  1.00  0.00    -0.000 C 
BRANCH  11  12
ATOM     12  C   UNL     1      22.665   8.145  17.317  1.00  0.00    -0.000 C 
BRANCH  12  13
ATOM     13  C   UNL     1      21.557   8.887  18.082  1.00  0.00    -0.000 C 
BRANCH  13  14
ATOM     14  C   UNL     1      21.896  10.368  18.320  1.00  0.00    -0.000 C 
BRANCH  14  15
ATOM     15  C   UNL     1      20.687  11.296  18.106  1.00  0.00    -0.000 C 
BRANCH  15  16
ATOM     16  C   UNL     1      20.311  11.442  16.624  1.00  0.00    -0.003 C 
ATOM     17  C   UNL     1      21.428  12.070  15.792  1.00  0.00     0.004 C 
ENDBRANCH  15  16
ENDBRANCH  14  15
ENDBRANCH  13  14
ENDBRANCH  12  13
ENDBRANCH  11  12
ENDBRANCH  10  11
ENDBRANCH   1  10
TORSDOF 13
ENDMDL
MODEL 2
REMARK VINA RESULT:    -4.644      3.178      4.965
REMARK INTER + INTRA:          -9.157
REMARK INTER:                  -8.176
REMARK INTRA:                  -0.981
REMARK UNBOUND:                -0.983
REMARK SMILES CCCCCCCCCCCCCCC(=O)[O-]
REMARK SMILES IDX 9 1 10 2 11 3 12 4 13 5 14 6 15 7 16 8 17 9 8 10 7 11 6 12
REMARK SMILES IDX 5 13 4 14 3 15 2 16 1 17
REMARK H PARENT
REMARK Flexibility Score: inf
ROOT
ATOM      1  C   UNL     1      23.385   7.311  14.011  1.00  0.00     0.000 C 
ENDROOT
BRANCH   1   2
ATOM      2  C   UNL     1      22.871   5.855  14.033  1.00  0.00     0.000 C 
BRANCH   2   3
ATOM      3  C   UNL     1      23.304   5.068  15.283  1.00  0.00     0.000 C 
BRANCH   3   4
ATOM      4  C   UNL     1      24.016   3.749  14.941  1.00  0.00     0.000 C 
BRANCH   4   5
ATOM      5  C   UNL     1      24.838   3.843  13.645  1.00  0.00     0.006 C 
BRANCH   5   6
ATOM      6  C   UNL     1      25.932   2.770  13.559  1.00  0.00     0.053 C 
BRANCH   6   7
ATOM      7  C   UNL     1      26.178   2.391  12.133  1.00  0.00     0.041 C 
ATOM      8  O   UNL     1      25.600   1.389  11.635  1.00  0.00    -0.550 OA
ATOM      9  O   UNL     1      27.010   3.171  11.340  1.00  0.00    -0.550 OA
ENDBRANCH   6   7
ENDBRANCH   5   6
ENDBRANCH   4   5
ENDBRANCH   3   4
ENDBRANCH   2   3
ENDBRANCH   1   2
BRANCH   1  10
ATOM     10  C   UNL     1      24.693   7.476  14.804  1.00  0.00     0.000 C 
BRANCH  10  11
ATOM     11  C   UNL     1      25.947   7.184  13.961  1.00  0.00    -0.000 C 
BRANCH  11  12
ATOM     12  C   UNL     1      26.953   8.346  13.863  1.00  0.00    -0.000 C 
BRANCH  12  13
ATOM     13  C   UNL     1      27.991   8.146  12.746  1.00  0.00    -0.000 C 
BRANCH  13  14
ATOM     14  C   UNL     1      27.953   9.270  11.699  1.00  0.00    -0.000 C 
BRANCH  14  15
ATOM     15  C   UNL     1      26.979  10.400  12.073  1.00  0.00    -0.000 C 
BRANCH  15  16
ATOM     16  C   UNL     1      27.702  11.656  12.583  1.00  0.00    -0.003 C 
ATOM     17  C   UNL     1      29.221  11.557  12.448  1.00  0.00     0.004 C 
ENDBRANCH  15  16
ENDBRANCH  14  15
ENDBRANCH  13  14
ENDBRANCH  12  13
ENDBRANCH  11  12
ENDBRANCH  10  11
ENDBRANCH   1  10
TORSDOF 13
ENDMDL
MODEL 3
REMARK VINA RESULT:    -4.552      9.646     12.256
REMARK INTER + INTRA:          -8.994
REMARK INTER:                  -7.579
REMARK INTRA:                  -1.415
REMARK UNBOUND:                -0.983
REMARK SMILES CCCCCCCCCCCCCCC(=O)[O-]
REMARK SMILES IDX 9 1 10 2 11 3 12 4 13 5 14 6 15 7 16 8 17 9 8 10 7 11 6 12
REMARK SMILES IDX 5 13 4 14 3 15 2 16 1 17
REMARK H PARENT
REMARK Flexibility Score: inf
ROOT
ATOM      1  C   UNL     1      20.260   6.892   3.040  1.00  0.00     0.000 C 
ENDROOT
BRANCH   1   2
ATOM      2  C   UNL     1      18.871   7.560   2.956  1.00  0.00     0.000 C 
BRANCH   2   3
ATOM      3  C   UNL     1      18.380   8.131   4.298  1.00  0.00     0.000 C 
BRANCH   3   4
ATOM      4  C   UNL     1      17.207   7.333   4.892  1.00  0.00     0.000 C 
BRANCH   4   5
ATOM      5  C   UNL     1      17.470   6.892   6.342  1.00  0.00     0.006 C 
BRANCH   5   6
ATOM      6  C   UNL     1      18.148   7.985   7.179  1.00  0.00     0.053 C 
BRANCH   6   7
ATOM      7  C   UNL     1      17.172   8.583   8.142  1.00  0.00     0.041 C 
ATOM      8  O   UNL     1      17.528   9.518   8.906  1.00  0.00    -0.550 OA
ATOM      9  O   UNL     1      15.855   8.140   8.163  1.00  0.00    -0.550 OA
ENDBRANCH   6   7
ENDBRANCH   5   6
ENDBRANCH   4   5
ENDBRANCH   3   4
ENDBRANCH   2   3
ENDBRANCH   1   2
BRANCH   1  10
ATOM     10  C   UNL     1      20.173   5.359   2.946  1.00  0.00     0.000 C 
BRANCH  10  11
ATOM     11  C   UNL     1      20.808   4.646   4.154  1.00  0.00    -0.000 C 
BRANCH  11  12
ATOM     12  C   UNL     1      20.571   5.330   5.513  1.00  0.00    -0.000 C 
BRANCH  12  13
ATOM     13  C   UNL     1      21.479   4.780   6.626  1.00  0.00    -0.000 C 
BRANCH  13  14
ATOM     14  C   UNL     1      22.433   5.845   7.189  1.00  0.00    -0.000 C 
BRANCH  14  15
ATOM     15  C   UNL     1      23.682   6.049   6.314  1.00  0.00    -0.000 C 
BRANCH  15  16
ATOM     16  C   UNL     1      24.270   4.722   5.811  1.00  0.00    -0.003 C 
ATOM     17  C   UNL     1      25.193   4.061   6.834  1.00  0.00     0.004 C 
ENDBRANCH  15  16
ENDBRANCH  14  15
ENDBRANCH  13  14
ENDBRANCH  12  13
ENDBRANCH  11  12
ENDBRANCH  10  11
ENDBRANCH   1  10
TORSDOF 13
ENDMDL
MODEL 4
REMARK VINA RESULT:    -4.533      3.002      5.019
REMARK INTER + INTRA:          -8.961
REMARK INTER:                  -7.450
REMARK INTRA:                  -1.511
REMARK UNBOUND:                -0.983
REMARK SMILES CCCCCCCCCCCCCCC(=O)[O-]
REMARK SMILES IDX 9 1 10 2 11 3 12 4 13 5 14 6 15 7 16 8 17 9 8 10 7 11 6 12
REMARK SMILES IDX 5 13 4 14 3 15 2 16 1 17
REMARK H PARENT
REMARK Flexibility Score: inf
ROOT
ATOM      1  C   UNL     1      25.011   3.854  13.292  1.00  0.00     0.000 C 
ENDROOT
BRANCH   1   2
ATOM      2  C   UNL     1      26.277   3.025  12.982  1.00  0.00     0.000 C 
BRANCH   2   3
ATOM      3  C   UNL     1      27.584   3.828  13.105  1.00  0.00     0.000 C 
BRANCH   3   4
ATOM      4  C   UNL     1      27.362   5.249  13.650  1.00  0.00     0.000 C 
BRANCH   4   5
ATOM      5  C   UNL     1      27.827   6.335  12.666  1.00  0.00     0.006 C 
BRANCH   5   6
ATOM      6  C   UNL     1      28.099   7.680  13.354  1.00  0.00     0.053 C 
BRANCH   6   7
ATOM      7  C   UNL     1      27.389   8.784  12.637  1.00  0.00     0.041 C 
ATOM      8  O   UNL     1      26.271   9.191  13.050  1.00  0.00    -0.550 OA
ATOM      9  O   UNL     1      27.983   9.396  11.540  1.00  0.00    -0.550 OA
ENDBRANCH   6   7
ENDBRANCH   5   6
ENDBRANCH   4   5
ENDBRANCH   3   4
ENDBRANCH   2   3
ENDBRANCH   1   2
BRANCH   1  10
ATOM     10  C   UNL     1      24.400   3.490  14.657  1.00  0.00     0.000 C 
BRANCH  10  11
ATOM     11  C   UNL     1      23.573   4.635  15.269  1.00  0.00    -0.000 C 
BRANCH  11  12
ATOM     12  C   UNL     1      23.049   5.673  14.259  1.00  0.00    -0.000 C 
BRANCH  12  13
ATOM     13  C   UNL     1      23.606   7.085  14.508  1.00  0.00    -0.000 C 
BRANCH  13  14
ATOM     14  C   UNL     1      24.746   7.095  15.539  1.00  0.00    -0.000 C 
BRANCH  14  15
ATOM     15  C   UNL     1      24.432   7.971  16.764  1.00  0.00    -0.000 C 
BRANCH  15  16
ATOM     16  C   UNL     1      23.109   8.738  16.617  1.00  0.00    -0.003 C 
ATOM     17  C   UNL     1      22.156   8.499  17.787  1.00  0.00     0.004 C 
ENDBRANCH  15  16
ENDBRANCH  14  15
ENDBRANCH  13  14
ENDBRANCH  12  13
ENDBRANCH  11  12
ENDBRANCH  10  11
ENDBRANCH   1  10
TORSDOF 13
ENDMDL
MODEL 5
REMARK VINA RESULT:    -4.508      4.252      6.668
REMARK INTER + INTRA:          -8.918
REMARK INTER:                  -6.945
REMARK INTRA:                  -1.972
REMARK UNBOUND:                -0.983
REMARK SMILES CCCCCCCCCCCCCCC(=O)[O-]
REMARK SMILES IDX 9 1 10 2 11 3 12 4 13 5 14 6 15 7 16 8 17 9 8 10 7 11 6 12
REMARK SMILES IDX 5 13 4 14 3 15 2 16 1 17
REMARK H PARENT
REMARK Flexibility Score: inf
ROOT
ATOM      1  C   UNL     1      26.495   7.352  15.759  1.00  0.00     0.000 C 
ENDROOT
BRANCH   1   2
ATOM      2  C   UNL     1      27.878   7.224  15.085  1.00  0.00     0.000 C 
BRANCH   2   3
ATOM      3  C   UNL     1      27.946   6.110  14.026  1.00  0.00     0.000 C 
BRANCH   3   4
ATOM      4  C   UNL     1      28.064   6.655  12.593  1.00  0.00     0.000 C 
BRANCH   4   5
ATOM      5  C   UNL     1      28.820   7.993  12.533  1.00  0.00     0.006 C 
BRANCH   5   6
ATOM      6  C   UNL     1      28.129   9.023  11.630  1.00  0.00     0.053 C 
BRANCH   6   7
ATOM      7  C   UNL     1      27.646  10.184  12.440  1.00  0.00     0.041 C 
ATOM      8  O   UNL     1      26.632  10.834  12.073  1.00  0.00    -0.550 OA
ATOM      9  O   UNL     1      28.288  10.520  13.625  1.00  0.00    -0.550 OA
ENDBRANCH   6   7
ENDBRANCH   5   6
ENDBRANCH   4   5
ENDBRANCH   3   4
ENDBRANCH   2   3
ENDBRANCH   1   2
BRANCH   1  10
ATOM     10  C   UNL     1      25.670   8.512  15.174  1.00  0.00     0.000 C 
BRANCH  10  11
ATOM     11  C   UNL     1      24.781   8.081  13.993  1.00  0.00    -0.000 C 
BRANCH  11  12
ATOM     12  C   UNL     1      23.416   7.489  14.386  1.00  0.00    -0.000 C 
BRANCH  12  13
ATOM     13  C   UNL     1      23.240   6.032  13.925  1.00  0.00    -0.000 C 
BRANCH  13  14
ATOM     14  C   UNL     1      23.207   5.042  15.100  1.00  0.00    -0.000 C 
BRANCH  14  15
ATOM     15  C   UNL     1      24.167   3.856  14.906  1.00  0.00    -0.000 C 
BRANCH  15  16
ATOM     16  C   UNL     1      25.024   3.993  13.638  1.00  0.00    -0.003 C 
ATOM     17  C   UNL     1      25.867   2.749  13.359  1.00  0.00     0.004 C 
ENDBRANCH  15  16
ENDBRANCH  14  15
ENDBRANCH  13  14
ENDBRANCH  12  13
ENDBRANCH  11  12
ENDBRANCH  10  11
ENDBRANCH   1  10
TORSDOF 13
ENDMDL
MODEL 6
REMARK VINA RESULT:    -4.501      9.224     10.517
REMARK INTER + INTRA:          -8.904
REMARK INTER:                  -7.298
REMARK INTRA:                  -1.606
REMARK UNBOUND:                -0.983
REMARK SMILES CCCCCCCCCCCCCCC(=O)[O-]
REMARK SMILES IDX 9 1 10 2 11 3 12 4 13 5 14 6 15 7 16 8 17 9 8 10 7 11 6 12
REMARK SMILES IDX 5 13 4 14 3 15 2 16 1 17
REMARK H PARENT
REMARK Flexibility Score: inf
ROOT
ATOM      1  C   UNL     1      20.649   6.265   3.221  1.00  0.00     0.000 C 
ENDROOT
BRANCH   1   2
ATOM      2  C   UNL     1      19.767   5.095   3.709  1.00  0.00     0.000 C 
BRANCH   2   3
ATOM      3  C   UNL     1      20.165   4.561   5.097  1.00  0.00     0.000 C 
BRANCH   3   4
ATOM      4  C   UNL     1      20.503   5.682   6.093  1.00  0.00     0.000 C 
BRANCH   4   5
ATOM      5  C   UNL     1      21.569   5.258   7.117  1.00  0.00     0.006 C 
BRANCH   5   6
ATOM      6  C   UNL     1      22.936   5.901   6.849  1.00  0.00     0.053 C 
BRANCH   6   7
ATOM      7  C   UNL     1      23.815   4.958   6.090  1.00  0.00     0.041 C 
ATOM      8  O   UNL     1      24.858   5.379   5.525  1.00  0.00    -0.550 OA
ATOM      9  O   UNL     1      23.508   3.603   6.048  1.00  0.00    -0.550 OA
ENDBRANCH   6   7
ENDBRANCH   5   6
ENDBRANCH   4   5
ENDBRANCH   3   4
ENDBRANCH   2   3
ENDBRANCH   1   2
BRANCH   1  10
ATOM     10  C   UNL     1      19.825   7.532   2.933  1.00  0.00     0.000 C 
BRANCH  10  11
ATOM     11  C   UNL     1      18.344   7.386   3.328  1.00  0.00    -0.000 C 
BRANCH  11  12
ATOM     12  C   UNL     1      17.961   8.027   4.674  1.00  0.00    -0.000 C 
BRANCH  12  13
ATOM     13  C   UNL     1      16.928   7.199   5.458  1.00  0.00    -0.000 C 
BRANCH  13  14
ATOM     14  C   UNL     1      17.172   7.237   6.975  1.00  0.00    -0.000 C 
BRANCH  14  15
ATOM     15  C   UNL     1      18.148   8.351   7.393  1.00  0.00    -0.000 C 
BRANCH  15  16
ATOM     16  C   UNL     1      17.675   9.110   8.642  1.00  0.00    -0.003 C 
ATOM     17  C   UNL     1      16.152   9.162   8.759  1.00  0.00     0.004 C 
ENDBRANCH  15  16
ENDBRANCH  14  15
ENDBRANCH  13  14
ENDBRANCH  12  13
ENDBRANCH  11  12
ENDBRANCH  10  11
ENDBRANCH   1  10
TORSDOF 13
ENDMDL
MODEL 7
REMARK VINA RESULT:    -4.497      8.469     10.307
REMARK INTER + INTRA:          -8.897
REMARK INTER:                  -8.016
REMARK INTRA:                  -0.881
REMARK UNBOUND:                -0.983
REMARK SMILES CCCCCCCCCCCCCCC(=O)[O-]
REMARK SMILES IDX 9 1 10 2 11 3 12 4 13 5 14 6 15 7 16 8 17 9 8 10 7 11 6 12
REMARK SMILES IDX 5 13 4 14 3 15 2 16 1 17
REMARK H PARENT
REMARK Flexibility Score: inf
ROOT
ATOM      1  C   UNL     1      20.949   5.687   5.707  1.00  0.00     0.000 C 
ENDROOT
BRANCH   1   2
ATOM      2  C   UNL     1      22.000   5.062   6.649  1.00  0.00     0.000 C 
BRANCH   2   3
ATOM      3  C   UNL     1      23.311   5.865   6.728  1.00  0.00     0.000 C 
BRANCH   3   4
ATOM      4  C   UNL     1      24.494   5.142   6.063  1.00  0.00     0.000 C 
BRANCH   4   5
ATOM      5  C   UNL     1      24.829   3.808   6.748  1.00  0.00     0.006 C 
BRANCH   5   6
ATOM      6  C   UNL     1      26.339   3.552   6.840  1.00  0.00     0.053 C 
BRANCH   6   7
ATOM      7  C   UNL     1      26.653   2.714   8.039  1.00  0.00     0.041 C 
ATOM      8  O   UNL     1      26.942   1.496   7.902  1.00  0.00    -0.550 OA
ATOM      9  O   UNL     1      26.673   3.289   9.303  1.00  0.00    -0.550 OA
ENDBRANCH   6   7
ENDBRANCH   5   6
ENDBRANCH   4   5
ENDBRANCH   3   4
ENDBRANCH   2   3
ENDBRANCH   1   2
BRANCH   1  10
ATOM     10  C   UNL     1      21.282   5.444   4.224  1.00  0.00     0.000 C 
BRANCH  10  11
ATOM     11  C   UNL     1      20.109   5.777   3.284  1.00  0.00    -0.000 C 
BRANCH  11  12
ATOM     12  C   UNL     1      19.949   7.269   2.942  1.00  0.00    -0.000 C 
BRANCH  12  13
ATOM     13  C   UNL     1      18.723   7.909   3.614  1.00  0.00    -0.000 C 
BRANCH  13  14
ATOM     14  C   UNL     1      17.695   6.866   4.079  1.00  0.00    -0.000 C 
BRANCH  14  15
ATOM     15  C   UNL     1      17.539   6.824   5.609  1.00  0.00    -0.000 C 
BRANCH  15  16
ATOM     16  C   UNL     1      16.983   8.137   6.181  1.00  0.00    -0.003 C 
ATOM     17  C   UNL     1      17.517   8.445   7.579  1.00  0.00     0.004 C 
ENDBRANCH  15  16
ENDBRANCH  14  15
ENDBRANCH  13  14
ENDBRANCH  12  13
ENDBRANCH  11  12
ENDBRANCH  10  11
ENDBRANCH   1  10
TORSDOF 13
ENDMDL
MODEL 8
REMARK VINA RESULT:    -4.415      4.363      7.674
REMARK INTER + INTRA:          -8.752
REMARK INTER:                  -6.980
REMARK INTRA:                  -1.772
REMARK UNBOUND:                -0.983
REMARK SMILES CCCCCCCCCCCCCCC(=O)[O-]
REMARK SMILES IDX 9 1 10 2 11 3 12 4 13 5 14 6 15 7 16 8 17 9 8 10 7 11 6 12
REMARK SMILES IDX 5 13 4 14 3 15 2 16 1 17
REMARK H PARENT
REMARK Flexibility Score: inf
ROOT
ATOM      1  C   UNL     1      21.598  10.565  17.769  1.00  0.00     0.000 C 
ENDROOT
BRANCH   1   2
ATOM      2  C   UNL     1      20.332  10.830  16.926  1.00  0.00     0.000 C 
BRANCH   2   3
ATOM      3  C   UNL     1      20.491  11.987  15.924  1.00  0.00     0.000 C 
BRANCH   3   4
ATOM      4  C   UNL     1      21.899  12.056  15.311  1.00  0.00     0.000 C 
BRANCH   4   5
ATOM      5  C   UNL     1      21.919  11.629  13.834  1.00  0.00     0.006 C 
BRANCH   5   6
ATOM      6  C   UNL     1      20.547  11.159  13.335  1.00  0.00     0.053 C 
BRANCH   6   7
ATOM      7  C   UNL     1      20.076  12.027  12.211  1.00  0.00     0.041 C 
ATOM      8  O   UNL     1      19.264  11.578  11.360  1.00  0.00    -0.550 OA
ATOM      9  O   UNL     1      20.498  13.348  12.130  1.00  0.00    -0.550 OA
ENDBRANCH   6   7
ENDBRANCH   5   6
ENDBRANCH   4   5
ENDBRANCH   3   4
ENDBRANCH   2   3
ENDBRANCH   1   2
BRANCH   1  10
ATOM     10  C   UNL     1      21.753   9.077  18.129  1.00  0.00     0.000 C 
BRANCH  10  11
ATOM     11  C   UNL     1      22.636   8.307  17.130  1.00  0.00    -0.000 C 
BRANCH  11  12
ATOM     12  C   UNL     1      23.804   9.114  16.534  1.00  0.00    -0.000 C 
BRANCH  12  13
ATOM     13  C   UNL     1      24.249   8.594  15.157  1.00  0.00    -0.000 C 
BRANCH  13  14
ATOM     14  C   UNL     1      23.063   8.180  14.272  1.00  0.00    -0.000 C 
BRANCH  14  15
ATOM     15  C   UNL     1      23.187   6.740  13.745  1.00  0.00    -0.000 C 
BRANCH  15  16
ATOM     16  C   UNL     1      24.111   5.872  14.615  1.00  0.00    -0.003 C 
ATOM     17  C   UNL     1      23.376   4.704  15.271  1.00  0.00     0.004 C 
ENDBRANCH  15  16
ENDBRANCH  14  15
ENDBRANCH  13  14
ENDBRANCH  12  13
ENDBRANCH  11  12
ENDBRANCH  10  11
ENDBRANCH   1  10
TORSDOF 13
ENDMDL
MODEL 9
REMARK VINA RESULT:    -4.400      9.604     12.176
REMARK INTER + INTRA:          -8.728
REMARK INTER:                  -7.487
REMARK INTRA:                  -1.241
REMARK UNBOUND:                -0.983
REMARK SMILES CCCCCCCCCCCCCCC(=O)[O-]
REMARK SMILES IDX 9 1 10 2 11 3 12 4 13 5 14 6 15 7 16 8 17 9 8 10 7 11 6 12
REMARK SMILES IDX 5 13 4 14 3 15 2 16 1 17
REMARK H PARENT
REMARK Flexibility Score: inf
ROOT
ATOM      1  C   UNL     1      18.583   7.946   4.041  1.00  0.00     0.000 C 
ENDROOT
BRANCH   1   2
ATOM      2  C   UNL     1      17.143   7.446   4.288  1.00  0.00     0.000 C 
BRANCH   2   3
ATOM      3  C   UNL     1      16.686   7.583   5.751  1.00  0.00     0.000 C 
BRANCH   3   4
ATOM      4  C   UNL     1      17.825   7.997   6.696  1.00  0.00     0.000 C 
BRANCH   4   5
ATOM      5  C   UNL     1      17.308   8.608   8.009  1.00  0.00     0.006 C 
BRANCH   5   6
ATOM      6  C   UNL     1      18.388   9.402   8.757  1.00  0.00     0.053 C 
BRANCH   6   7
ATOM      7  C   UNL     1      17.871   9.858  10.085  1.00  0.00     0.041 C 
ATOM      8  O   UNL     1      16.633   9.870  10.313  1.00  0.00    -0.550 OA
ATOM      9  O   UNL     1      18.760  10.225  11.088  1.00  0.00    -0.550 OA
ENDBRANCH   6   7
ENDBRANCH   5   6
ENDBRANCH   4   5
ENDBRANCH   3   4
ENDBRANCH   2   3
ENDBRANCH   1   2
BRANCH   1  10
ATOM     10  C   UNL     1      19.309   7.115   2.969  1.00  0.00     0.000 C 
BRANCH  10  11
ATOM     11  C   UNL     1      20.643   6.528   3.466  1.00  0.00    -0.000 C 
BRANCH  11  12
ATOM     12  C   UNL     1      20.629   5.012   3.734  1.00  0.00    -0.000 C 
BRANCH  12  13
ATOM     13  C   UNL     1      20.430   4.669   5.219  1.00  0.00    -0.000 C 
BRANCH  13  14
ATOM     14  C   UNL     1      20.882   5.803   6.152  1.00  0.00    -0.000 C 
BRANCH  14  15
ATOM     15  C   UNL     1      22.192   5.479   6.891  1.00  0.00    -0.000 C 
BRANCH  15  16
ATOM     16  C   UNL     1      23.436   5.755   6.033  1.00  0.00    -0.003 C 
ATOM     17  C   UNL     1      24.555   4.743   6.274  1.00  0.00     0.004 C 
ENDBRANCH  15  16
ENDBRANCH  14  15
ENDBRANCH  13  14
ENDBRANCH  12  13
ENDBRANCH  11  12
ENDBRANCH  10  11
ENDBRANCH   1  10
TORSDOF 13
ENDMDL
