MODEL 1
REMARK VINA RESULT:    -6.093      0.000      0.000
REMARK INTER + INTRA:          -7.446
REMARK INTER:                  -7.162
REMARK INTRA:                  -0.285
REMARK UNBOUND:                -0.285
REMARK SMILES O=c1c(O)c(-c2ccc(O)cc2)oc2cc(O)cc(O)c12
REMARK SMILES IDX 5 1 3 2 2 3 1 4 21 5 19 6 18 7 16 8 15 9 14 10 13 11 6 12
REMARK SMILES IDX 7 13 8 14 9 15 12 16 11 17 10 18 4 20 20 22 17 24
REMARK H PARENT 10 19 4 21 20 23 17 25
REMARK Flexibility Score: inf
ROOT
ATOM      1  C   UNL     1      17.614  -0.174 -15.261  1.00  0.00     0.180 A 
ATOM      2  C   UNL     1      18.632   0.620 -14.707  1.00  0.00     0.208 A 
ATOM      3  C   UNL     1      19.766   0.912 -15.483  1.00  0.00     0.238 A 
ATOM      4  O   UNL     1      20.649   1.669 -15.001  1.00  0.00    -0.285 OA
ATOM      5  C   UNL     1      19.875   0.392 -16.795  1.00  0.00     0.111 A 
ATOM      6  C   UNL     1      20.997   0.590 -17.655  1.00  0.00     0.134 A 
ATOM      7  C   UNL     1      20.940   0.138 -18.980  1.00  0.00     0.093 A 
ATOM      8  C   UNL     1      19.831  -0.560 -19.455  1.00  0.00     0.123 A 
ATOM      9  C   UNL     1      18.753  -0.811 -18.605  1.00  0.00     0.094 A 
ATOM     10  C   UNL     1      18.764  -0.342 -17.289  1.00  0.00     0.146 A 
ATOM     11  O   UNL     1      17.714  -0.593 -16.517  1.00  0.00    -0.452 OA
ENDROOT
BRANCH   1  12
ATOM     12  C   UNL     1      16.400  -0.545 -14.497  1.00  0.00     0.021 A 
ATOM     13  C   UNL     1      15.276   0.300 -14.453  1.00  0.00     0.016 A 
ATOM     14  C   UNL     1      14.150  -0.060 -13.705  1.00  0.00     0.047 A 
ATOM     15  C   UNL     1      14.138  -1.259 -12.982  1.00  0.00     0.115 A 
ATOM     16  C   UNL     1      16.388  -1.736 -13.753  1.00  0.00     0.016 A 
ATOM     17  C   UNL     1      15.260  -2.093 -13.007  1.00  0.00     0.047 A 
BRANCH  15  18
ATOM     18  O   UNL     1      13.023  -1.630 -12.236  1.00  0.00    -0.508 OA
ATOM     19  H   UNL     1      12.082  -1.439 -12.561  1.00  0.00     0.293 HD
ENDBRANCH  15  18
ENDBRANCH   1  12
BRANCH   2  20
ATOM     20  O   UNL     1      18.495   1.142 -13.418  1.00  0.00    -0.502 OA
ATOM     21  H   UNL     1      18.011   2.012 -13.232  1.00  0.00     0.293 HD
ENDBRANCH   2  20
BRANCH   6  22
ATOM     22  O   UNL     1      22.191   1.193 -17.252  1.00  0.00    -0.507 OA
ATOM     23  H   UNL     1      22.303   1.745 -16.416  1.00  0.00     0.293 HD
ENDBRANCH   6  22
BRANCH   8  24
ATOM     24  O   UNL     1      19.815  -1.008 -20.774  1.00  0.00    -0.508 OA
ATOM     25  H   UNL     1      20.604  -1.499 -21.177  1.00  0.00     0.293 HD
ENDBRANCH   8  24
TORSDOF 5
ENDMDL
MODEL 2
REMARK VINA RESULT:    -5.967      6.939      8.870
REMARK INTER + INTRA:          -7.298
REMARK INTER:                  -7.021
REMARK INTRA:                  -0.277
REMARK UNBOUND:                -0.285
REMARK SMILES O=c1c(O)c(-c2ccc(O)cc2)oc2cc(O)cc(O)c12
REMARK SMILES IDX 5 1 3 2 2 3 1 4 21 5 19 6 18 7 16 8 15 9 14 10 13 11 6 12
REMARK SMILES IDX 7 13 8 14 9 15 12 16 11 17 10 18 4 20 20 22 17 24
REMARK H PARENT 10 19 4 21 20 23 17 25
REMARK Flexibility Score: inf
ROOT
ATOM      1  C   UNL     1      18.962  -2.590  -8.553  1.00  0.00     0.180 A 
ATOM      2  C   UNL     1      18.900  -2.816  -7.168  1.00  0.00     0.208 A 
ATOM      3  C   UNL     1      20.097  -2.977  -6.450  1.00  0.00     0.238 A 
ATOM      4  O   UNL     1      20.037  -3.124  -5.201  1.00  0.00    -0.285 OA
ATOM      5  C   UNL     1      21.337  -2.928  -7.129  1.00  0.00     0.111 A 
ATOM      6  C   UNL     1      22.609  -3.119  -6.509  1.00  0.00     0.134 A 
ATOM      7  C   UNL     1      23.778  -2.919  -7.255  1.00  0.00     0.093 A 
ATOM      8  C   UNL     1      23.722  -2.600  -8.611  1.00  0.00     0.123 A 
ATOM      9  C   UNL     1      22.483  -2.469  -9.241  1.00  0.00     0.094 A 
ATOM     10  C   UNL     1      21.299  -2.627  -8.516  1.00  0.00     0.146 A 
ATOM     11  O   UNL     1      20.143  -2.483  -9.151  1.00  0.00    -0.452 OA
ENDROOT
BRANCH   1  12
ATOM     12  C   UNL     1      17.744  -2.434  -9.382  1.00  0.00     0.021 A 
ATOM     13  C   UNL     1      17.003  -3.551  -9.811  1.00  0.00     0.016 A 
ATOM     14  C   UNL     1      15.870  -3.381 -10.614  1.00  0.00     0.047 A 
ATOM     15  C   UNL     1      15.472  -2.097 -11.007  1.00  0.00     0.115 A 
ATOM     16  C   UNL     1      17.350  -1.152  -9.798  1.00  0.00     0.016 A 
ATOM     17  C   UNL     1      16.215  -0.986 -10.599  1.00  0.00     0.047 A 
BRANCH  15  18
ATOM     18  O   UNL     1      14.344  -1.915 -11.804  1.00  0.00    -0.508 OA
ATOM     19  H   UNL     1      13.448  -2.316 -11.552  1.00  0.00     0.293 HD
ENDBRANCH  15  18
ENDBRANCH   1  12
BRANCH   2  20
ATOM     20  O   UNL     1      17.666  -2.838  -6.513  1.00  0.00    -0.502 OA
ATOM     21  H   UNL     1      16.786  -2.765  -7.009  1.00  0.00     0.293 HD
ENDBRANCH   2  20
BRANCH   6  22
ATOM     22  O   UNL     1      22.777  -3.529  -5.184  1.00  0.00    -0.507 OA
ATOM     23  H   UNL     1      22.593  -2.954  -4.376  1.00  0.00     0.293 HD
ENDBRANCH   6  22
BRANCH   8  24
ATOM     24  O   UNL     1      24.904  -2.424  -9.325  1.00  0.00    -0.508 OA
ATOM     25  H   UNL     1      25.208  -1.506  -9.628  1.00  0.00     0.293 HD
ENDBRANCH   8  24
TORSDOF 5
ENDMDL
MODEL 3
REMARK VINA RESULT:    -5.942      2.253      6.679
REMARK INTER + INTRA:          -7.268
REMARK INTER:                  -7.117
REMARK INTRA:                  -0.151
REMARK UNBOUND:                -0.285
REMARK SMILES O=c1c(O)c(-c2ccc(O)cc2)oc2cc(O)cc(O)c12
REMARK SMILES IDX 5 1 3 2 2 3 1 4 21 5 19 6 18 7 16 8 15 9 14 10 13 11 6 12
REMARK SMILES IDX 7 13 8 14 9 15 12 16 11 17 10 18 4 20 20 22 17 24
REMARK H PARENT 10 19 4 21 20 23 17 25
REMARK Flexibility Score: inf
ROOT
ATOM      1  C   UNL     1      18.420  -1.206 -16.609  1.00  0.00     0.180 A 
ATOM      2  C   UNL     1      17.775  -0.313 -15.738  1.00  0.00     0.208 A 
ATOM      3  C   UNL     1      17.024  -0.828 -14.668  1.00  0.00     0.238 A 
ATOM      4  O   UNL     1      16.493  -0.022 -13.860  1.00  0.00    -0.285 OA
ATOM      5  C   UNL     1      16.914  -2.228 -14.495  1.00  0.00     0.111 A 
ATOM      6  C   UNL     1      16.146  -2.860 -13.470  1.00  0.00     0.134 A 
ATOM      7  C   UNL     1      16.215  -4.251 -13.314  1.00  0.00     0.093 A 
ATOM      8  C   UNL     1      16.971  -5.036 -14.183  1.00  0.00     0.123 A 
ATOM      9  C   UNL     1      17.678  -4.434 -15.225  1.00  0.00     0.094 A 
ATOM     10  C   UNL     1      17.658  -3.046 -15.385  1.00  0.00     0.146 A 
ATOM     11  O   UNL     1      18.353  -2.513 -16.382  1.00  0.00    -0.452 OA
ENDROOT
BRANCH   1  12
ATOM     12  C   UNL     1      19.210  -0.740 -17.773  1.00  0.00     0.021 A 
ATOM     13  C   UNL     1      20.409  -0.024 -17.605  1.00  0.00     0.016 A 
ATOM     14  C   UNL     1      21.125   0.427 -18.718  1.00  0.00     0.047 A 
ATOM     15  C   UNL     1      20.646   0.180 -20.011  1.00  0.00     0.115 A 
ATOM     16  C   UNL     1      18.726  -0.966 -19.072  1.00  0.00     0.016 A 
ATOM     17  C   UNL     1      19.445  -0.514 -20.183  1.00  0.00     0.047 A 
BRANCH  15  18
ATOM     18  O   UNL     1      21.350   0.622 -21.128  1.00  0.00    -0.508 OA
ATOM     19  H   UNL     1      20.899   0.730 -22.029  1.00  0.00     0.293 HD
ENDBRANCH  15  18
ENDBRANCH   1  12
BRANCH   2  20
ATOM     20  O   UNL     1      17.914   1.066 -15.914  1.00  0.00    -0.502 OA
ATOM     21  H   UNL     1      18.803   1.541 -15.810  1.00  0.00     0.293 HD
ENDBRANCH   2  20
BRANCH   6  22
ATOM     22  O   UNL     1      15.286  -2.177 -12.607  1.00  0.00    -0.507 OA
ATOM     23  H   UNL     1      14.487  -2.587 -12.148  1.00  0.00     0.293 HD
ENDBRANCH   6  22
BRANCH   8  24
ATOM     24  O   UNL     1      17.004  -6.417 -14.007  1.00  0.00    -0.508 OA
ATOM     25  H   UNL     1      17.175  -6.832 -13.099  1.00  0.00     0.293 HD
ENDBRANCH   8  24
TORSDOF 5
ENDMDL
MODEL 4
REMARK VINA RESULT:    -5.877      7.156     12.522
REMARK INTER + INTRA:          -7.192
REMARK INTER:                  -7.077
REMARK INTRA:                  -0.115
REMARK UNBOUND:                -0.285
REMARK SMILES O=c1c(O)c(-c2ccc(O)cc2)oc2cc(O)cc(O)c12
REMARK SMILES IDX 5 1 3 2 2 3 1 4 21 5 19 6 18 7 16 8 15 9 14 10 13 11 6 12
REMARK SMILES IDX 7 13 8 14 9 15 12 16 11 17 10 18 4 20 20 22 17 24
REMARK H PARENT 10 19 4 21 20 23 17 25
REMARK Flexibility Score: inf
ROOT
ATOM      1  C   UNL     1      11.142  -5.958 -10.692  1.00  0.00     0.180 A 
ATOM      2  C   UNL     1      10.976  -6.299  -9.339  1.00  0.00     0.208 A 
ATOM      3  C   UNL     1       9.870  -7.080  -8.965  1.00  0.00     0.238 A 
ATOM      4  O   UNL     1       9.756  -7.429  -7.760  1.00  0.00    -0.285 OA
ATOM      5  C   UNL     1       8.936  -7.495  -9.944  1.00  0.00     0.111 A 
ATOM      6  C   UNL     1       7.758  -8.254  -9.672  1.00  0.00     0.134 A 
ATOM      7  C   UNL     1       6.975  -8.719 -10.736  1.00  0.00     0.093 A 
ATOM      8  C   UNL     1       7.289  -8.399 -12.056  1.00  0.00     0.123 A 
ATOM      9  C   UNL     1       8.406  -7.607 -12.329  1.00  0.00     0.094 A 
ATOM     10  C   UNL     1       9.227  -7.158 -11.292  1.00  0.00     0.146 A 
ATOM     11  O   UNL     1      10.285  -6.417 -11.597  1.00  0.00    -0.452 OA
ENDROOT
BRANCH   1  12
ATOM     12  C   UNL     1      12.268  -5.118 -11.160  1.00  0.00     0.021 A 
ATOM     13  C   UNL     1      12.047  -3.861 -11.754  1.00  0.00     0.016 A 
ATOM     14  C   UNL     1      13.125  -3.097 -12.211  1.00  0.00     0.047 A 
ATOM     15  C   UNL     1      14.434  -3.582 -12.094  1.00  0.00     0.115 A 
ATOM     16  C   UNL     1      13.582  -5.607 -11.066  1.00  0.00     0.016 A 
ATOM     17  C   UNL     1      14.657  -4.838 -11.523  1.00  0.00     0.047 A 
BRANCH  15  18
ATOM     18  O   UNL     1      15.515  -2.829 -12.543  1.00  0.00    -0.508 OA
ATOM     19  H   UNL     1      15.448  -1.824 -12.659  1.00  0.00     0.293 HD
ENDBRANCH  15  18
ENDBRANCH   1  12
BRANCH   2  20
ATOM     20  O   UNL     1      11.921  -5.899  -8.391  1.00  0.00    -0.502 OA
ATOM     21  H   UNL     1      12.910  -6.091  -8.495  1.00  0.00     0.293 HD
ENDBRANCH   2  20
BRANCH   6  22
ATOM     22  O   UNL     1       7.302  -8.551  -8.385  1.00  0.00    -0.507 OA
ATOM     23  H   UNL     1       6.384  -8.325  -8.033  1.00  0.00     0.293 HD
ENDBRANCH   6  22
BRANCH   8  24
ATOM     24  O   UNL     1       6.480  -8.867 -13.088  1.00  0.00    -0.508 OA
ATOM     25  H   UNL     1       5.526  -8.544 -13.200  1.00  0.00     0.293 HD
ENDBRANCH   8  24
TORSDOF 5
ENDMDL
MODEL 5
REMARK VINA RESULT:    -5.718      8.643     14.207
REMARK INTER + INTRA:          -7.005
REMARK INTER:                  -7.421
REMARK INTRA:                   0.416
REMARK UNBOUND:                -0.285
REMARK SMILES O=c1c(O)c(-c2ccc(O)cc2)oc2cc(O)cc(O)c12
REMARK SMILES IDX 5 1 3 2 2 3 1 4 21 5 19 6 18 7 16 8 15 9 14 10 13 11 6 12
REMARK SMILES IDX 7 13 8 14 9 15 12 16 11 17 10 18 4 20 20 22 17 24
REMARK H PARENT 10 19 4 21 20 23 17 25
REMARK Flexibility Score: inf
ROOT
ATOM      1  C   UNL     1      10.738  -6.952  -9.310  1.00  0.00     0.180 A 
ATOM      2  C   UNL     1       9.783  -7.961  -9.527  1.00  0.00     0.208 A 
ATOM      3  C   UNL     1       8.727  -8.106  -8.612  1.00  0.00     0.238 A 
ATOM      4  O   UNL     1       7.845  -8.975  -8.842  1.00  0.00    -0.285 OA
ATOM      5  C   UNL     1       8.649  -7.255  -7.485  1.00  0.00     0.111 A 
ATOM      6  C   UNL     1       7.646  -7.340  -6.473  1.00  0.00     0.134 A 
ATOM      7  C   UNL     1       7.591  -6.362  -5.471  1.00  0.00     0.093 A 
ATOM      8  C   UNL     1       8.540  -5.343  -5.407  1.00  0.00     0.123 A 
ATOM      9  C   UNL     1       9.561  -5.285  -6.357  1.00  0.00     0.094 A 
ATOM     10  C   UNL     1       9.621  -6.224  -7.390  1.00  0.00     0.146 A 
ATOM     11  O   UNL     1      10.602  -6.127  -8.279  1.00  0.00    -0.452 OA
ENDROOT
BRANCH   1  12
ATOM     12  C   UNL     1      11.893  -6.752 -10.216  1.00  0.00     0.021 A 
ATOM     13  C   UNL     1      12.518  -5.497 -10.339  1.00  0.00     0.016 A 
ATOM     14  C   UNL     1      13.591  -5.326 -11.219  1.00  0.00     0.047 A 
ATOM     15  C   UNL     1      14.044  -6.400 -11.995  1.00  0.00     0.115 A 
ATOM     16  C   UNL     1      12.340  -7.818 -11.013  1.00  0.00     0.016 A 
ATOM     17  C   UNL     1      13.414  -7.644 -11.891  1.00  0.00     0.047 A 
BRANCH  15  18
ATOM     18  O   UNL     1      15.113  -6.243 -12.874  1.00  0.00    -0.508 OA
ATOM     19  H   UNL     1      16.065  -6.450 -12.591  1.00  0.00     0.293 HD
ENDBRANCH  15  18
ENDBRANCH   1  12
BRANCH   2  20
ATOM     20  O   UNL     1       9.866  -8.776 -10.659  1.00  0.00    -0.502 OA
ATOM     21  H   UNL     1       9.222  -9.538 -10.829  1.00  0.00     0.293 HD
ENDBRANCH   2  20
BRANCH   6  22
ATOM     22  O   UNL     1       6.706  -8.371  -6.391  1.00  0.00    -0.507 OA
ATOM     23  H   UNL     1       6.532  -9.049  -7.117  1.00  0.00     0.293 HD
ENDBRANCH   6  22
BRANCH   8  24
ATOM     24  O   UNL     1       8.463  -4.396  -4.388  1.00  0.00    -0.508 OA
ATOM     25  H   UNL     1       8.431  -3.404  -4.588  1.00  0.00     0.293 HD
ENDBRANCH   8  24
TORSDOF 5
ENDMDL
MODEL 6
REMARK VINA RESULT:    -5.630      7.267     10.561
REMARK INTER + INTRA:          -6.902
REMARK INTER:                  -6.625
REMARK INTRA:                  -0.277
REMARK UNBOUND:                -0.285
REMARK SMILES O=c1c(O)c(-c2ccc(O)cc2)oc2cc(O)cc(O)c12
REMARK SMILES IDX 5 1 3 2 2 3 1 4 21 5 19 6 18 7 16 8 15 9 14 10 13 11 6 12
REMARK SMILES IDX 7 13 8 14 9 15 12 16 11 17 10 18 4 20 20 22 17 24
REMARK H PARENT 10 19 4 21 20 23 17 25
REMARK Flexibility Score: inf
ROOT
ATOM      1  C   UNL     1      11.366  -6.264  -9.892  1.00  0.00     0.180 A 
ATOM      2  C   UNL     1      11.420  -7.452 -10.640  1.00  0.00     0.208 A 
ATOM      3  C   UNL     1      12.505  -7.661 -11.508  1.00  0.00     0.238 A 
ATOM      4  O   UNL     1      12.576  -8.751 -12.134  1.00  0.00    -0.285 OA
ATOM      5  C   UNL     1      13.510  -6.673 -11.630  1.00  0.00     0.111 A 
ATOM      6  C   UNL     1      14.632  -6.761 -12.508  1.00  0.00     0.134 A 
ATOM      7  C   UNL     1      15.634  -5.783 -12.451  1.00  0.00     0.093 A 
ATOM      8  C   UNL     1      15.522  -4.688 -11.595  1.00  0.00     0.123 A 
ATOM      9  C   UNL     1      14.401  -4.561 -10.774  1.00  0.00     0.094 A 
ATOM     10  C   UNL     1      13.403  -5.539 -10.782  1.00  0.00     0.146 A 
ATOM     11  O   UNL     1      12.358  -5.385  -9.978  1.00  0.00    -0.452 OA
ENDROOT
BRANCH   1  12
ATOM     12  C   UNL     1      10.243  -5.961  -8.974  1.00  0.00     0.021 A 
ATOM     13  C   UNL     1       9.017  -5.465  -9.456  1.00  0.00     0.016 A 
ATOM     14  C   UNL     1       7.980  -5.163  -8.568  1.00  0.00     0.047 A 
ATOM     15  C   UNL     1       8.158  -5.339  -7.190  1.00  0.00     0.115 A 
ATOM     16  C   UNL     1      10.420  -6.114  -7.590  1.00  0.00     0.016 A 
ATOM     17  C   UNL     1       9.380  -5.812  -6.705  1.00  0.00     0.047 A 
BRANCH  15  18
ATOM     18  O   UNL     1       7.132  -5.043  -6.297  1.00  0.00    -0.508 OA
ATOM     19  H   UNL     1       6.302  -5.622  -6.234  1.00  0.00     0.293 HD
ENDBRANCH  15  18
ENDBRANCH   1  12
BRANCH   2  20
ATOM     20  O   UNL     1      10.429  -8.425 -10.488  1.00  0.00    -0.502 OA
ATOM     21  H   UNL     1      10.251  -8.887  -9.605  1.00  0.00     0.293 HD
ENDBRANCH   2  20
BRANCH   6  22
ATOM     22  O   UNL     1      14.794  -7.765 -13.467  1.00  0.00    -0.507 OA
ATOM     23  H   UNL     1      15.682  -8.142 -13.760  1.00  0.00     0.293 HD
ENDBRANCH   6  22
BRANCH   8  24
ATOM     24  O   UNL     1      16.530  -3.727 -11.575  1.00  0.00    -0.508 OA
ATOM     25  H   UNL     1      17.486  -3.956 -11.821  1.00  0.00     0.293 HD
ENDBRANCH   8  24
TORSDOF 5
ENDMDL
MODEL 7
REMARK VINA RESULT:    -5.576      8.396     10.440
REMARK INTER + INTRA:          -6.838
REMARK INTER:                  -6.546
REMARK INTRA:                  -0.292
REMARK UNBOUND:                -0.285
REMARK SMILES O=c1c(O)c(-c2ccc(O)cc2)oc2cc(O)cc(O)c12
REMARK SMILES IDX 5 1 3 2 2 3 1 4 21 5 19 6 18 7 16 8 15 9 14 10 13 11 6 12
REMARK SMILES IDX 7 13 8 14 9 15 12 16 11 17 10 18 4 20 20 22 17 24
REMARK H PARENT 10 19 4 21 20 23 17 25
REMARK Flexibility Score: inf
ROOT
ATOM      1  C   UNL     1      20.716  -1.420  -7.428  1.00  0.00     0.180 A 
ATOM      2  C   UNL     1      19.440  -1.816  -7.863  1.00  0.00     0.208 A 
ATOM      3  C   UNL     1      18.475  -0.830  -8.128  1.00  0.00     0.238 A 
ATOM      4  O   UNL     1      17.351  -1.188  -8.569  1.00  0.00    -0.285 OA
ATOM      5  C   UNL     1      18.792   0.535  -7.937  1.00  0.00     0.111 A 
ATOM      6  C   UNL     1      17.879   1.615  -8.136  1.00  0.00     0.134 A 
ATOM      7  C   UNL     1      18.339   2.935  -8.043  1.00  0.00     0.093 A 
ATOM      8  C   UNL     1      19.661   3.214  -7.696  1.00  0.00     0.123 A 
ATOM      9  C   UNL     1      20.547   2.166  -7.443  1.00  0.00     0.094 A 
ATOM     10  C   UNL     1      20.127   0.839  -7.562  1.00  0.00     0.146 A 
ATOM     11  O   UNL     1      21.004  -0.128  -7.322  1.00  0.00    -0.452 OA
ENDROOT
BRANCH   1  12
ATOM     12  C   UNL     1      21.779  -2.401  -7.106  1.00  0.00     0.021 A 
ATOM     13  C   UNL     1      21.849  -3.015  -5.842  1.00  0.00     0.016 A 
ATOM     14  C   UNL     1      22.876  -3.919  -5.553  1.00  0.00     0.047 A 
ATOM     15  C   UNL     1      23.851  -4.211  -6.515  1.00  0.00     0.115 A 
ATOM     16  C   UNL     1      22.772  -2.682  -8.058  1.00  0.00     0.016 A 
ATOM     17  C   UNL     1      23.797  -3.588  -7.766  1.00  0.00     0.047 A 
BRANCH  15  18
ATOM     18  O   UNL     1      24.877  -5.111  -6.240  1.00  0.00    -0.508 OA
ATOM     19  H   UNL     1      24.873  -5.675  -5.398  1.00  0.00     0.293 HD
ENDBRANCH  15  18
ENDBRANCH   1  12
BRANCH   2  20
ATOM     20  O   UNL     1      19.155  -3.169  -8.067  1.00  0.00    -0.502 OA
ATOM     21  H   UNL     1      18.952  -3.550  -8.982  1.00  0.00     0.293 HD
ENDBRANCH   2  20
BRANCH   6  22
ATOM     22  O   UNL     1      16.516   1.446  -8.394  1.00  0.00    -0.507 OA
ATOM     23  H   UNL     1      16.137   0.857  -9.119  1.00  0.00     0.293 HD
ENDBRANCH   6  22
BRANCH   8  24
ATOM     24  O   UNL     1      20.080   4.538  -7.599  1.00  0.00    -0.508 OA
ATOM     25  H   UNL     1      19.626   5.193  -6.974  1.00  0.00     0.293 HD
ENDBRANCH   8  24
TORSDOF 5
ENDMDL
MODEL 8
REMARK VINA RESULT:    -5.550      6.201      8.275
REMARK INTER + INTRA:          -6.808
REMARK INTER:                  -6.559
REMARK INTRA:                  -0.249
REMARK UNBOUND:                -0.285
REMARK SMILES O=c1c(O)c(-c2ccc(O)cc2)oc2cc(O)cc(O)c12
REMARK SMILES IDX 5 1 3 2 2 3 1 4 21 5 19 6 18 7 16 8 15 9 14 10 13 11 6 12
REMARK SMILES IDX 7 13 8 14 9 15 12 16 11 17 10 18 4 20 20 22 17 24
REMARK H PARENT 10 19 4 21 20 23 17 25
REMARK Flexibility Score: inf
ROOT
ATOM      1  C   UNL     1      18.051  -2.145  -9.046  1.00  0.00     0.180 A 
ATOM      2  C   UNL     1      17.309  -0.952  -9.048  1.00  0.00     0.208 A 
ATOM      3  C   UNL     1      16.271  -0.798  -9.982  1.00  0.00     0.238 A 
ATOM      4  O   UNL     1      15.574   0.250  -9.943  1.00  0.00    -0.285 OA
ATOM      5  C   UNL     1      16.001  -1.829 -10.912  1.00  0.00     0.111 A 
ATOM      6  C   UNL     1      15.000  -1.764 -11.928  1.00  0.00     0.134 A 
ATOM      7  C   UNL     1      14.733  -2.896 -12.709  1.00  0.00     0.093 A 
ATOM      8  C   UNL     1      15.472  -4.068 -12.554  1.00  0.00     0.123 A 
ATOM      9  C   UNL     1      16.493  -4.123 -11.604  1.00  0.00     0.094 A 
ATOM     10  C   UNL     1      16.759  -3.023 -10.785  1.00  0.00     0.146 A 
ATOM     11  O   UNL     1      17.732  -3.121  -9.887  1.00  0.00    -0.452 OA
ENDROOT
BRANCH   1  12
ATOM     12  C   UNL     1      19.176  -2.372  -8.109  1.00  0.00     0.021 A 
ATOM     13  C   UNL     1      20.514  -2.265  -8.531  1.00  0.00     0.016 A 
ATOM     14  C   UNL     1      21.559  -2.509  -7.635  1.00  0.00     0.047 A 
ATOM     15  C   UNL     1      21.282  -2.873  -6.311  1.00  0.00     0.115 A 
ATOM     16  C   UNL     1      18.907  -2.758  -6.786  1.00  0.00     0.016 A 
ATOM     17  C   UNL     1      19.955  -2.999  -5.891  1.00  0.00     0.047 A 
BRANCH  15  18
ATOM     18  O   UNL     1      22.314  -3.115  -5.408  1.00  0.00    -0.508 OA
ATOM     19  H   UNL     1      23.271  -2.850  -5.615  1.00  0.00     0.293 HD
ENDBRANCH  15  18
ENDBRANCH   1  12
BRANCH   2  20
ATOM     20  O   UNL     1      17.578   0.045  -8.107  1.00  0.00    -0.502 OA
ATOM     21  H   UNL     1      18.507   0.420  -7.961  1.00  0.00     0.293 HD
ENDBRANCH   2  20
BRANCH   6  22
ATOM     22  O   UNL     1      14.268  -0.612 -12.227  1.00  0.00    -0.507 OA
ATOM     23  H   UNL     1      14.601   0.331 -12.099  1.00  0.00     0.293 HD
ENDBRANCH   6  22
BRANCH   8  24
ATOM     24  O   UNL     1      15.189  -5.169 -13.358  1.00  0.00    -0.508 OA
ATOM     25  H   UNL     1      14.237  -5.423 -13.593  1.00  0.00     0.293 HD
ENDBRANCH   8  24
TORSDOF 5
ENDMDL
MODEL 9
REMARK VINA RESULT:    -5.463      5.998      8.760
REMARK INTER + INTRA:          -6.706
REMARK INTER:                  -6.529
REMARK INTRA:                  -0.177
REMARK UNBOUND:                -0.285
REMARK SMILES O=c1c(O)c(-c2ccc(O)cc2)oc2cc(O)cc(O)c12
REMARK SMILES IDX 5 1 3 2 2 3 1 4 21 5 19 6 18 7 16 8 15 9 14 10 13 11 6 12
REMARK SMILES IDX 7 13 8 14 9 15 12 16 11 17 10 18 4 20 20 22 17 24
REMARK H PARENT 10 19 4 21 20 23 17 25
REMARK Flexibility Score: inf
ROOT
ATOM      1  C   UNL     1      18.648  -1.991  -8.621  1.00  0.00     0.180 A 
ATOM      2  C   UNL     1      17.613  -2.862  -8.998  1.00  0.00     0.208 A 
ATOM      3  C   UNL     1      16.600  -2.387  -9.848  1.00  0.00     0.238 A 
ATOM      4  O   UNL     1      15.705  -3.187 -10.227  1.00  0.00    -0.285 OA
ATOM      5  C   UNL     1      16.626  -1.044 -10.293  1.00  0.00     0.111 A 
ATOM      6  C   UNL     1      15.630  -0.446 -11.123  1.00  0.00     0.134 A 
ATOM      7  C   UNL     1      15.826   0.854 -11.609  1.00  0.00     0.093 A 
ATOM      8  C   UNL     1      16.947   1.598 -11.244  1.00  0.00     0.123 A 
ATOM      9  C   UNL     1      17.898   1.043 -10.386  1.00  0.00     0.094 A 
ATOM     10  C   UNL     1      17.749  -0.263  -9.913  1.00  0.00     0.146 A 
ATOM     11  O   UNL     1      18.681  -0.756  -9.107  1.00  0.00    -0.452 OA
ENDROOT
BRANCH   1  12
ATOM     12  C   UNL     1      19.738  -2.410  -7.709  1.00  0.00     0.021 A 
ATOM     13  C   UNL     1      19.485  -2.727  -6.362  1.00  0.00     0.016 A 
ATOM     14  C   UNL     1      20.533  -3.097  -5.513  1.00  0.00     0.047 A 
ATOM     15  C   UNL     1      21.847  -3.142  -5.996  1.00  0.00     0.115 A 
ATOM     16  C   UNL     1      21.061  -2.438  -8.179  1.00  0.00     0.016 A 
ATOM     17  C   UNL     1      22.107  -2.810  -7.328  1.00  0.00     0.047 A 
BRANCH  15  18
ATOM     18  O   UNL     1      22.900  -3.511  -5.162  1.00  0.00    -0.508 OA
ATOM     19  H   UNL     1      23.847  -3.193  -5.334  1.00  0.00     0.293 HD
ENDBRANCH  15  18
ENDBRANCH   1  12
BRANCH   2  20
ATOM     20  O   UNL     1      17.618  -4.190  -8.565  1.00  0.00    -0.502 OA
ATOM     21  H   UNL     1      17.928  -4.460  -7.640  1.00  0.00     0.293 HD
ENDBRANCH   2  20
BRANCH   6  22
ATOM     22  O   UNL     1      14.429  -1.068 -11.471  1.00  0.00    -0.507 OA
ATOM     23  H   UNL     1      14.321  -2.056 -11.641  1.00  0.00     0.293 HD
ENDBRANCH   6  22
BRANCH   8  24
ATOM     24  O   UNL     1      17.101   2.892 -11.735  1.00  0.00    -0.508 OA
ATOM     25  H   UNL     1      17.140   3.693 -11.115  1.00  0.00     0.293 HD
ENDBRANCH   8  24
TORSDOF 5
ENDMDL
