MODEL 1
REMARK VINA RESULT:    -6.090      0.000      0.000
REMARK INTER + INTRA:          -7.262
REMARK INTER:                  -7.158
REMARK INTRA:                  -0.104
REMARK UNBOUND:                -0.104
REMARK SMILES O=c1c(O)c(-c2ccc(O)c(O)c2)oc2cc(O)ccc12
REMARK SMILES IDX 5 1 3 2 2 3 1 4 21 5 15 6 14 7 16 8 17 9 19 10 20 11 6 12
REMARK SMILES IDX 7 13 8 14 9 15 13 16 11 17 10 18 12 20 4 22 18 24
REMARK H PARENT 10 19 12 21 4 23 18 25
REMARK Flexibility Score: inf
ROOT
ATOM      1  C   UNL     1     -32.909 -54.802  67.155  1.00  0.00     0.180 A 
ATOM      2  C   UNL     1     -33.163 -54.137  65.937  1.00  0.00     0.208 A 
ATOM      3  C   UNL     1     -33.048 -52.739  65.893  1.00  0.00     0.235 A 
ATOM      4  O   UNL     1     -33.280 -52.120  64.818  1.00  0.00    -0.285 OA
ATOM      5  C   UNL     1     -32.667 -52.040  67.049  1.00  0.00     0.069 A 
ATOM      6  C   UNL     1     -32.408 -52.781  68.222  1.00  0.00     0.142 A 
ATOM      7  O   UNL     1     -32.536 -54.103  68.225  1.00  0.00    -0.452 OA
ATOM      8  C   UNL     1     -32.015 -52.123  69.393  1.00  0.00     0.094 A 
ATOM      9  C   UNL     1     -31.880 -50.728  69.407  1.00  0.00     0.119 A 
ATOM     10  C   UNL     1     -32.138 -49.992  68.245  1.00  0.00     0.047 A 
ATOM     11  C   UNL     1     -32.529 -50.641  67.070  1.00  0.00     0.020 A 
ENDROOT
BRANCH   1  12
ATOM     12  C   UNL     1     -33.028 -56.272  67.287  1.00  0.00     0.025 A 
ATOM     13  C   UNL     1     -33.980 -56.810  68.167  1.00  0.00     0.016 A 
ATOM     14  C   UNL     1     -34.124 -58.194  68.292  1.00  0.00     0.051 A 
ATOM     15  C   UNL     1     -33.330 -59.061  67.528  1.00  0.00     0.157 A 
ATOM     16  C   UNL     1     -32.247 -57.143  66.507  1.00  0.00     0.062 A 
ATOM     17  C   UNL     1     -32.391 -58.530  66.628  1.00  0.00     0.158 A 
BRANCH  15  18
ATOM     18  O   UNL     1     -33.475 -60.440  67.658  1.00  0.00    -0.504 OA
ATOM     19  H   UNL     1     -34.352 -60.858  67.946  1.00  0.00     0.293 HD
ENDBRANCH  15  18
BRANCH  17  20
ATOM     20  O   UNL     1     -31.595 -59.365  65.844  1.00  0.00    -0.504 OA
ATOM     21  H   UNL     1     -31.180 -59.052  64.975  1.00  0.00     0.293 HD
ENDBRANCH  17  20
ENDBRANCH   1  12
BRANCH   2  22
ATOM     22  O   UNL     1     -33.493 -54.863  64.790  1.00  0.00    -0.502 OA
ATOM     23  H   UNL     1     -32.801 -55.128  64.098  1.00  0.00     0.293 HD
ENDBRANCH   2  22
BRANCH   9  24
ATOM     24  O   UNL     1     -31.489 -50.065  70.568  1.00  0.00    -0.508 OA
ATOM     25  H   UNL     1     -32.048 -50.101  71.412  1.00  0.00     0.293 HD
ENDBRANCH   9  24
TORSDOF 5
ENDMDL
MODEL 2
REMARK VINA RESULT:    -5.785     16.496     19.115
REMARK INTER + INTRA:          -6.904
REMARK INTER:                  -6.635
REMARK INTRA:                  -0.269
REMARK UNBOUND:                -0.104
REMARK SMILES O=c1c(O)c(-c2ccc(O)c(O)c2)oc2cc(O)ccc12
REMARK SMILES IDX 5 1 3 2 2 3 1 4 21 5 15 6 14 7 16 8 17 9 19 10 20 11 6 12
REMARK SMILES IDX 7 13 8 14 9 15 13 16 11 17 10 18 12 20 4 22 18 24
REMARK H PARENT 10 19 12 21 4 23 18 25
REMARK Flexibility Score: inf
ROOT
ATOM      1  C   UNL     1     -21.077 -64.706  57.898  1.00  0.00     0.180 A 
ATOM      2  C   UNL     1     -20.296 -65.865  58.085  1.00  0.00     0.208 A 
ATOM      3  C   UNL     1     -20.921 -67.120  58.021  1.00  0.00     0.235 A 
ATOM      4  O   UNL     1     -20.246 -68.172  58.197  1.00  0.00    -0.285 OA
ATOM      5  C   UNL     1     -22.297 -67.194  57.754  1.00  0.00     0.069 A 
ATOM      6  C   UNL     1     -23.004 -65.988  57.555  1.00  0.00     0.142 A 
ATOM      7  O   UNL     1     -22.377 -64.820  57.632  1.00  0.00    -0.452 OA
ATOM      8  C   UNL     1     -24.375 -66.019  57.276  1.00  0.00     0.094 A 
ATOM      9  C   UNL     1     -25.051 -67.244  57.196  1.00  0.00     0.119 A 
ATOM     10  C   UNL     1     -24.353 -68.439  57.395  1.00  0.00     0.047 A 
ATOM     11  C   UNL     1     -22.983 -68.419  57.673  1.00  0.00     0.020 A 
ENDROOT
BRANCH   1  12
ATOM     12  C   UNL     1     -20.495 -63.346  57.969  1.00  0.00     0.025 A 
ATOM     13  C   UNL     1     -19.776 -62.846  56.871  1.00  0.00     0.016 A 
ATOM     14  C   UNL     1     -19.236 -61.558  56.908  1.00  0.00     0.051 A 
ATOM     15  C   UNL     1     -19.419 -60.746  58.035  1.00  0.00     0.157 A 
ATOM     16  C   UNL     1     -20.695 -62.521  59.089  1.00  0.00     0.062 A 
ATOM     17  C   UNL     1     -20.157 -61.229  59.128  1.00  0.00     0.158 A 
BRANCH  15  18
ATOM     18  O   UNL     1     -18.877 -59.463  58.068  1.00  0.00    -0.504 OA
ATOM     19  H   UNL     1     -18.650 -58.959  57.218  1.00  0.00     0.293 HD
ENDBRANCH  15  18
BRANCH  17  20
ATOM     20  O   UNL     1     -20.370 -60.440  60.258  1.00  0.00    -0.504 OA
ATOM     21  H   UNL     1     -20.651 -59.470  60.192  1.00  0.00     0.293 HD
ENDBRANCH  17  20
ENDBRANCH   1  12
BRANCH   2  22
ATOM     22  O   UNL     1     -18.919 -65.763  58.302  1.00  0.00    -0.502 OA
ATOM     23  H   UNL     1     -18.452 -66.254  59.055  1.00  0.00     0.293 HD
ENDBRANCH   2  22
BRANCH   9  24
ATOM     24  O   UNL     1     -26.416 -67.284  56.919  1.00  0.00    -0.508 OA
ATOM     25  H   UNL     1     -26.763 -67.302  55.967  1.00  0.00     0.293 HD
ENDBRANCH   9  24
TORSDOF 5
ENDMDL
MODEL 3
REMARK VINA RESULT:    -5.734      2.903      5.535
REMARK INTER + INTRA:          -6.844
REMARK INTER:                  -6.593
REMARK INTRA:                  -0.251
REMARK UNBOUND:                -0.104
REMARK SMILES O=c1c(O)c(-c2ccc(O)c(O)c2)oc2cc(O)ccc12
REMARK SMILES IDX 5 1 3 2 2 3 1 4 21 5 15 6 14 7 16 8 17 9 19 10 20 11 6 12
REMARK SMILES IDX 7 13 8 14 9 15 13 16 11 17 10 18 12 20 4 22 18 24
REMARK H PARENT 10 19 12 21 4 23 18 25
REMARK Flexibility Score: inf
ROOT
ATOM      1  C   UNL     1     -33.021 -59.004  65.537  1.00  0.00     0.180 A 
ATOM      2  C   UNL     1     -33.378 -59.479  66.817  1.00  0.00     0.208 A 
ATOM      3  C   UNL     1     -33.701 -58.549  67.817  1.00  0.00     0.235 A 
ATOM      4  O   UNL     1     -34.012 -58.948  68.973  1.00  0.00    -0.285 OA
ATOM      5  C   UNL     1     -33.680 -57.178  67.518  1.00  0.00     0.069 A 
ATOM      6  C   UNL     1     -33.335 -56.785  66.207  1.00  0.00     0.142 A 
ATOM      7  O   UNL     1     -33.028 -57.696  65.290  1.00  0.00    -0.452 OA
ATOM      8  C   UNL     1     -33.314 -55.428  65.866  1.00  0.00     0.094 A 
ATOM      9  C   UNL     1     -33.631 -54.454  66.823  1.00  0.00     0.119 A 
ATOM     10  C   UNL     1     -33.971 -54.842  68.123  1.00  0.00     0.047 A 
ATOM     11  C   UNL     1     -33.997 -56.195  68.473  1.00  0.00     0.020 A 
ENDROOT
BRANCH   1  12
ATOM     12  C   UNL     1     -32.650 -59.921  64.435  1.00  0.00     0.025 A 
ATOM     13  C   UNL     1     -33.511 -60.060  63.334  1.00  0.00     0.016 A 
ATOM     14  C   UNL     1     -33.171 -60.902  62.273  1.00  0.00     0.051 A 
ATOM     15  C   UNL     1     -31.960 -61.607  62.288  1.00  0.00     0.157 A 
ATOM     16  C   UNL     1     -31.426 -60.612  64.437  1.00  0.00     0.062 A 
ATOM     17  C   UNL     1     -31.082 -61.456  63.375  1.00  0.00     0.158 A 
BRANCH  15  18
ATOM     18  O   UNL     1     -31.626 -62.448  61.229  1.00  0.00    -0.504 OA
ATOM     19  H   UNL     1     -30.673 -62.532  60.896  1.00  0.00     0.293 HD
ENDBRANCH  15  18
BRANCH  17  20
ATOM     20  O   UNL     1     -29.862 -62.131  63.413  1.00  0.00    -0.504 OA
ATOM     21  H   UNL     1     -28.985 -61.671  63.206  1.00  0.00     0.293 HD
ENDBRANCH  17  20
ENDBRANCH   1  12
BRANCH   2  22
ATOM     22  O   UNL     1     -33.436 -60.851  67.071  1.00  0.00    -0.502 OA
ATOM     23  H   UNL     1     -32.945 -61.279  67.848  1.00  0.00     0.293 HD
ENDBRANCH   2  22
BRANCH   9  24
ATOM     24  O   UNL     1     -33.612 -53.101  66.492  1.00  0.00    -0.508 OA
ATOM     25  H   UNL     1     -34.238 -52.717  65.794  1.00  0.00     0.293 HD
ENDBRANCH   9  24
TORSDOF 5
ENDMDL
MODEL 4
REMARK VINA RESULT:    -5.645     12.225     14.803
REMARK INTER + INTRA:          -6.739
REMARK INTER:                  -6.427
REMARK INTRA:                  -0.312
REMARK UNBOUND:                -0.104
REMARK SMILES O=c1c(O)c(-c2ccc(O)c(O)c2)oc2cc(O)ccc12
REMARK SMILES IDX 5 1 3 2 2 3 1 4 21 5 15 6 14 7 16 8 17 9 19 10 20 11 6 12
REMARK SMILES IDX 7 13 8 14 9 15 13 16 11 17 10 18 12 20 4 22 18 24
REMARK H PARENT 10 19 12 21 4 23 18 25
REMARK Flexibility Score: inf
ROOT
ATOM      1  C   UNL     1     -27.151 -55.467  55.311  1.00  0.00     0.180 A 
ATOM      2  C   UNL     1     -26.231 -56.496  55.019  1.00  0.00     0.208 A 
ATOM      3  C   UNL     1     -26.665 -57.829  55.081  1.00  0.00     0.235 A 
ATOM      4  O   UNL     1     -25.858 -58.767  54.835  1.00  0.00    -0.285 OA
ATOM      5  C   UNL     1     -28.000 -58.106  55.412  1.00  0.00     0.069 A 
ATOM      6  C   UNL     1     -28.865 -57.020  55.668  1.00  0.00     0.142 A 
ATOM      7  O   UNL     1     -28.413 -55.772  55.607  1.00  0.00    -0.452 OA
ATOM      8  C   UNL     1     -30.206 -57.254  55.990  1.00  0.00     0.094 A 
ATOM      9  C   UNL     1     -30.696 -58.565  56.063  1.00  0.00     0.119 A 
ATOM     10  C   UNL     1     -29.840 -59.642  55.812  1.00  0.00     0.047 A 
ATOM     11  C   UNL     1     -28.499 -59.419  55.487  1.00  0.00     0.020 A 
ENDROOT
BRANCH   1  12
ATOM     12  C   UNL     1     -26.766 -54.038  55.285  1.00  0.00     0.025 A 
ATOM     13  C   UNL     1     -26.312 -53.425  56.465  1.00  0.00     0.016 A 
ATOM     14  C   UNL     1     -25.922 -52.083  56.459  1.00  0.00     0.051 A 
ATOM     15  C   UNL     1     -25.966 -51.338  55.273  1.00  0.00     0.157 A 
ATOM     16  C   UNL     1     -26.789 -53.294  54.093  1.00  0.00     0.062 A 
ATOM     17  C   UNL     1     -26.397 -51.950  54.084  1.00  0.00     0.158 A 
BRANCH  15  18
ATOM     18  O   UNL     1     -25.579 -50.000  55.273  1.00  0.00    -0.504 OA
ATOM     19  H   UNL     1     -25.034 -49.604  56.029  1.00  0.00     0.293 HD
ENDBRANCH  15  18
BRANCH  17  20
ATOM     20  O   UNL     1     -26.439 -51.240  52.884  1.00  0.00    -0.504 OA
ATOM     21  H   UNL     1     -26.755 -50.279  52.838  1.00  0.00     0.293 HD
ENDBRANCH  17  20
ENDBRANCH   1  12
BRANCH   2  22
ATOM     22  O   UNL     1     -24.921 -56.188  54.645  1.00  0.00    -0.502 OA
ATOM     23  H   UNL     1     -24.519 -56.503  53.770  1.00  0.00     0.293 HD
ENDBRANCH   2  22
BRANCH   9  24
ATOM     24  O   UNL     1     -32.030 -58.807  56.384  1.00  0.00    -0.508 OA
ATOM     25  H   UNL     1     -32.739 -58.900  55.667  1.00  0.00     0.293 HD
ENDBRANCH   9  24
TORSDOF 5
ENDMDL
MODEL 5
REMARK VINA RESULT:    -5.642     15.280     18.608
REMARK INTER + INTRA:          -6.735
REMARK INTER:                  -6.465
REMARK INTRA:                  -0.270
REMARK UNBOUND:                -0.104
REMARK SMILES O=c1c(O)c(-c2ccc(O)c(O)c2)oc2cc(O)ccc12
REMARK SMILES IDX 5 1 3 2 2 3 1 4 21 5 15 6 14 7 16 8 17 9 19 10 20 11 6 12
REMARK SMILES IDX 7 13 8 14 9 15 13 16 11 17 10 18 12 20 4 22 18 24
REMARK H PARENT 10 19 12 21 4 23 18 25
REMARK Flexibility Score: inf
ROOT
ATOM      1  C   UNL     1     -23.127 -64.998  57.267  1.00  0.00     0.180 A 
ATOM      2  C   UNL     1     -24.200 -65.912  57.202  1.00  0.00     0.208 A 
ATOM      3  C   UNL     1     -24.020 -67.204  57.721  1.00  0.00     0.235 A 
ATOM      4  O   UNL     1     -24.961 -68.043  57.666  1.00  0.00    -0.285 OA
ATOM      5  C   UNL     1     -22.792 -67.548  58.306  1.00  0.00     0.069 A 
ATOM      6  C   UNL     1     -21.776 -66.569  58.353  1.00  0.00     0.142 A 
ATOM      7  O   UNL     1     -21.983 -65.360  57.843  1.00  0.00    -0.452 OA
ATOM      8  C   UNL     1     -20.541 -66.870  58.937  1.00  0.00     0.094 A 
ATOM      9  C   UNL     1     -20.306 -68.143  59.475  1.00  0.00     0.119 A 
ATOM     10  C   UNL     1     -21.310 -69.114  59.428  1.00  0.00     0.047 A 
ATOM     11  C   UNL     1     -22.548 -68.823  58.848  1.00  0.00     0.020 A 
ENDROOT
BRANCH   1  12
ATOM     12  C   UNL     1     -23.233 -63.624  56.725  1.00  0.00     0.025 A 
ATOM     13  C   UNL     1     -22.689 -63.338  55.462  1.00  0.00     0.016 A 
ATOM     14  C   UNL     1     -22.795 -62.054  54.921  1.00  0.00     0.051 A 
ATOM     15  C   UNL     1     -23.459 -61.042  55.627  1.00  0.00     0.157 A 
ATOM     16  C   UNL     1     -23.916 -62.612  57.421  1.00  0.00     0.062 A 
ATOM     17  C   UNL     1     -24.026 -61.325  56.881  1.00  0.00     0.158 A 
BRANCH  15  18
ATOM     18  O   UNL     1     -23.560 -59.762  55.085  1.00  0.00    -0.504 OA
ATOM     19  H   UNL     1     -22.790 -59.104  55.127  1.00  0.00     0.293 HD
ENDBRANCH  15  18
BRANCH  17  20
ATOM     20  O   UNL     1     -24.705 -60.343  57.602  1.00  0.00    -0.504 OA
ATOM     21  H   UNL     1     -25.123 -60.530  58.504  1.00  0.00     0.293 HD
ENDBRANCH  17  20
ENDBRANCH   1  12
BRANCH   2  22
ATOM     22  O   UNL     1     -25.427 -65.525  56.658  1.00  0.00    -0.502 OA
ATOM     23  H   UNL     1     -25.525 -65.243  55.689  1.00  0.00     0.293 HD
ENDBRANCH   2  22
BRANCH   9  24
ATOM     24  O   UNL     1     -19.078 -68.450  60.058  1.00  0.00    -0.508 OA
ATOM     25  H   UNL     1     -18.269 -68.689  59.497  1.00  0.00     0.293 HD
ENDBRANCH   9  24
TORSDOF 5
ENDMDL
MODEL 6
REMARK VINA RESULT:    -5.547     14.531     17.481
REMARK INTER + INTRA:          -6.624
REMARK INTER:                  -6.318
REMARK INTRA:                  -0.305
REMARK UNBOUND:                -0.104
REMARK SMILES O=c1c(O)c(-c2ccc(O)c(O)c2)oc2cc(O)ccc12
REMARK SMILES IDX 5 1 3 2 2 3 1 4 21 5 15 6 14 7 16 8 17 9 19 10 20 11 6 12
REMARK SMILES IDX 7 13 8 14 9 15 13 16 11 17 10 18 12 20 4 22 18 24
REMARK H PARENT 10 19 12 21 4 23 18 25
REMARK Flexibility Score: inf
ROOT
ATOM      1  C   UNL     1     -25.917 -64.478  56.161  1.00  0.00     0.180 A 
ATOM      2  C   UNL     1     -26.304 -64.114  54.854  1.00  0.00     0.208 A 
ATOM      3  C   UNL     1     -27.299 -64.866  54.210  1.00  0.00     0.235 A 
ATOM      4  O   UNL     1     -27.655 -64.568  53.037  1.00  0.00    -0.285 OA
ATOM      5  C   UNL     1     -27.896 -65.943  54.883  1.00  0.00     0.069 A 
ATOM      6  C   UNL     1     -27.470 -66.228  56.198  1.00  0.00     0.142 A 
ATOM      7  O   UNL     1     -26.519 -65.498  56.770  1.00  0.00    -0.452 OA
ATOM      8  C   UNL     1     -28.048 -67.286  56.908  1.00  0.00     0.094 A 
ATOM      9  C   UNL     1     -29.049 -68.069  56.316  1.00  0.00     0.119 A 
ATOM     10  C   UNL     1     -29.472 -67.789  55.012  1.00  0.00     0.047 A 
ATOM     11  C   UNL     1     -28.901 -66.732  54.296  1.00  0.00     0.020 A 
ENDROOT
BRANCH   1  12
ATOM     12  C   UNL     1     -24.862 -63.747  56.900  1.00  0.00     0.025 A 
ATOM     13  C   UNL     1     -23.513 -64.060  56.665  1.00  0.00     0.016 A 
ATOM     14  C   UNL     1     -22.501 -63.369  57.334  1.00  0.00     0.051 A 
ATOM     15  C   UNL     1     -22.820 -62.345  58.237  1.00  0.00     0.157 A 
ATOM     16  C   UNL     1     -25.178 -62.706  57.790  1.00  0.00     0.062 A 
ATOM     17  C   UNL     1     -24.166 -62.010  58.461  1.00  0.00     0.158 A 
BRANCH  15  18
ATOM     18  O   UNL     1     -21.806 -61.660  58.905  1.00  0.00    -0.504 OA
ATOM     19  H   UNL     1     -21.836 -60.655  59.028  1.00  0.00     0.293 HD
ENDBRANCH  15  18
BRANCH  17  20
ATOM     20  O   UNL     1     -24.515 -60.987  59.342  1.00  0.00    -0.504 OA
ATOM     21  H   UNL     1     -25.427 -60.548  59.322  1.00  0.00     0.293 HD
ENDBRANCH  17  20
ENDBRANCH   1  12
BRANCH   2  22
ATOM     22  O   UNL     1     -25.726 -63.008  54.227  1.00  0.00    -0.502 OA
ATOM     23  H   UNL     1     -25.083 -62.389  54.707  1.00  0.00     0.293 HD
ENDBRANCH   2  22
BRANCH   9  24
ATOM     24  O   UNL     1     -29.630 -69.125  57.015  1.00  0.00    -0.508 OA
ATOM     25  H   UNL     1     -29.708 -70.050  56.609  1.00  0.00     0.293 HD
ENDBRANCH   9  24
TORSDOF 5
ENDMDL
MODEL 7
REMARK VINA RESULT:    -5.421     16.764     19.158
REMARK INTER + INTRA:          -6.476
REMARK INTER:                  -6.164
REMARK INTRA:                  -0.312
REMARK UNBOUND:                -0.104
REMARK SMILES O=c1c(O)c(-c2ccc(O)c(O)c2)oc2cc(O)ccc12
REMARK SMILES IDX 5 1 3 2 2 3 1 4 21 5 15 6 14 7 16 8 17 9 19 10 20 11 6 12
REMARK SMILES IDX 7 13 8 14 9 15 13 16 11 17 10 18 12 20 4 22 18 24
REMARK H PARENT 10 19 12 21 4 23 18 25
REMARK Flexibility Score: inf
ROOT
ATOM      1  C   UNL     1     -23.752 -66.394  56.686  1.00  0.00     0.180 A 
ATOM      2  C   UNL     1     -24.676 -65.457  57.195  1.00  0.00     0.208 A 
ATOM      3  C   UNL     1     -25.566 -64.834  56.306  1.00  0.00     0.235 A 
ATOM      4  O   UNL     1     -26.394 -63.984  56.735  1.00  0.00    -0.285 OA
ATOM      5  C   UNL     1     -25.531 -65.170  54.944  1.00  0.00     0.069 A 
ATOM      6  C   UNL     1     -24.593 -66.135  54.518  1.00  0.00     0.142 A 
ATOM      7  O   UNL     1     -23.761 -66.695  55.389  1.00  0.00    -0.452 OA
ATOM      8  C   UNL     1     -24.533 -66.506  53.170  1.00  0.00     0.094 A 
ATOM      9  C   UNL     1     -25.401 -65.920  52.238  1.00  0.00     0.119 A 
ATOM     10  C   UNL     1     -26.329 -64.962  52.658  1.00  0.00     0.047 A 
ATOM     11  C   UNL     1     -26.398 -64.587  54.003  1.00  0.00     0.020 A 
ENDROOT
BRANCH   1  12
ATOM     12  C   UNL     1     -22.769 -67.079  57.556  1.00  0.00     0.025 A 
ATOM     13  C   UNL     1     -23.020 -68.395  57.977  1.00  0.00     0.016 A 
ATOM     14  C   UNL     1     -22.097 -69.068  58.780  1.00  0.00     0.051 A 
ATOM     15  C   UNL     1     -20.902 -68.443  59.162  1.00  0.00     0.157 A 
ATOM     16  C   UNL     1     -21.560 -66.462  57.923  1.00  0.00     0.062 A 
ATOM     17  C   UNL     1     -20.632 -67.135  58.726  1.00  0.00     0.158 A 
BRANCH  15  18
ATOM     18  O   UNL     1     -19.985 -69.117  59.965  1.00  0.00    -0.504 OA
ATOM     19  H   UNL     1     -20.268 -69.584  60.819  1.00  0.00     0.293 HD
ENDBRANCH  15  18
BRANCH  17  20
ATOM     20  O   UNL     1     -19.446 -66.491  59.076  1.00  0.00    -0.504 OA
ATOM     21  H   UNL     1     -19.436 -65.648  59.637  1.00  0.00     0.293 HD
ENDBRANCH  17  20
ENDBRANCH   1  12
BRANCH   2  22
ATOM     22  O   UNL     1     -24.720 -65.178  58.563  1.00  0.00    -0.502 OA
ATOM     23  H   UNL     1     -24.551 -64.249  58.931  1.00  0.00     0.293 HD
ENDBRANCH   2  22
BRANCH   9  24
ATOM     24  O   UNL     1     -25.348 -66.283  50.894  1.00  0.00    -0.508 OA
ATOM     25  H   UNL     1     -25.909 -67.043  50.528  1.00  0.00     0.293 HD
ENDBRANCH   9  24
TORSDOF 5
ENDMDL
MODEL 8
REMARK VINA RESULT:    -5.365     12.688     14.951
REMARK INTER + INTRA:          -6.411
REMARK INTER:                  -6.116
REMARK INTRA:                  -0.295
REMARK UNBOUND:                -0.104
REMARK SMILES O=c1c(O)c(-c2ccc(O)c(O)c2)oc2cc(O)ccc12
REMARK SMILES IDX 5 1 3 2 2 3 1 4 21 5 15 6 14 7 16 8 17 9 19 10 20 11 6 12
REMARK SMILES IDX 7 13 8 14 9 15 13 16 11 17 10 18 12 20 4 22 18 24
REMARK H PARENT 10 19 12 21 4 23 18 25
REMARK Flexibility Score: inf
ROOT
ATOM      1  C   UNL     1     -27.548 -55.680  55.342  1.00  0.00     0.180 A 
ATOM      2  C   UNL     1     -28.928 -55.973  55.357  1.00  0.00     0.208 A 
ATOM      3  C   UNL     1     -29.334 -57.316  55.367  1.00  0.00     0.235 A 
ATOM      4  O   UNL     1     -30.562 -57.605  55.370  1.00  0.00    -0.285 OA
ATOM      5  C   UNL     1     -28.364 -58.331  55.382  1.00  0.00     0.069 A 
ATOM      6  C   UNL     1     -27.004 -57.955  55.390  1.00  0.00     0.142 A 
ATOM      7  O   UNL     1     -26.661 -56.672  55.371  1.00  0.00    -0.452 OA
ATOM      8  C   UNL     1     -26.006 -58.936  55.416  1.00  0.00     0.094 A 
ATOM      9  C   UNL     1     -26.353 -60.294  55.431  1.00  0.00     0.119 A 
ATOM     10  C   UNL     1     -27.700 -60.668  55.422  1.00  0.00     0.047 A 
ATOM     11  C   UNL     1     -28.704 -59.696  55.398  1.00  0.00     0.020 A 
ENDROOT
BRANCH   1  12
ATOM     12  C   UNL     1     -27.041 -54.289  55.311  1.00  0.00     0.025 A 
ATOM     13  C   UNL     1     -26.523 -53.718  56.485  1.00  0.00     0.016 A 
ATOM     14  C   UNL     1     -26.020 -52.415  56.475  1.00  0.00     0.051 A 
ATOM     15  C   UNL     1     -26.012 -51.669  55.289  1.00  0.00     0.157 A 
ATOM     16  C   UNL     1     -27.013 -53.545  54.119  1.00  0.00     0.062 A 
ATOM     17  C   UNL     1     -26.507 -52.240  54.105  1.00  0.00     0.158 A 
BRANCH  15  18
ATOM     18  O   UNL     1     -25.511 -50.368  55.284  1.00  0.00    -0.504 OA
ATOM     19  H   UNL     1     -24.754 -50.088  55.896  1.00  0.00     0.293 HD
ENDBRANCH  15  18
BRANCH  17  20
ATOM     20  O   UNL     1     -26.500 -51.528  52.905  1.00  0.00    -0.504 OA
ATOM     21  H   UNL     1     -25.836 -50.786  52.724  1.00  0.00     0.293 HD
ENDBRANCH  17  20
ENDBRANCH   1  12
BRANCH   2  22
ATOM     22  O   UNL     1     -29.870 -54.942  55.390  1.00  0.00    -0.502 OA
ATOM     23  H   UNL     1     -30.695 -54.943  54.801  1.00  0.00     0.293 HD
ENDBRANCH   2  22
BRANCH   9  24
ATOM     24  O   UNL     1     -25.366 -61.277  55.456  1.00  0.00    -0.508 OA
ATOM     25  H   UNL     1     -24.792 -61.431  56.277  1.00  0.00     0.293 HD
ENDBRANCH   9  24
TORSDOF 5
ENDMDL
MODEL 9
REMARK VINA RESULT:    -5.208      1.765      3.604
REMARK INTER + INTRA:          -6.226
REMARK INTER:                  -6.157
REMARK INTRA:                  -0.069
REMARK UNBOUND:                -0.104
REMARK SMILES O=c1c(O)c(-c2ccc(O)c(O)c2)oc2cc(O)ccc12
REMARK SMILES IDX 5 1 3 2 2 3 1 4 21 5 15 6 14 7 16 8 17 9 19 10 20 11 6 12
REMARK SMILES IDX 7 13 8 14 9 15 13 16 11 17 10 18 12 20 4 22 18 24
REMARK H PARENT 10 19 12 21 4 23 18 25
REMARK Flexibility Score: inf
ROOT
ATOM      1  C   UNL     1     -32.956 -54.564  66.444  1.00  0.00     0.180 A 
ATOM      2  C   UNL     1     -32.442 -53.516  67.236  1.00  0.00     0.208 A 
ATOM      3  C   UNL     1     -32.343 -52.232  66.677  1.00  0.00     0.235 A 
ATOM      4  O   UNL     1     -31.876 -51.280  67.362  1.00  0.00    -0.285 OA
ATOM      5  C   UNL     1     -32.774 -52.017  65.359  1.00  0.00     0.069 A 
ATOM      6  C   UNL     1     -33.299 -53.113  64.641  1.00  0.00     0.142 A 
ATOM      7  O   UNL     1     -33.367 -54.315  65.202  1.00  0.00    -0.452 OA
ATOM      8  C   UNL     1     -33.749 -52.938  63.328  1.00  0.00     0.094 A 
ATOM      9  C   UNL     1     -33.679 -51.677  62.720  1.00  0.00     0.119 A 
ATOM     10  C   UNL     1     -33.158 -50.590  63.429  1.00  0.00     0.047 A 
ATOM     11  C   UNL     1     -32.707 -50.755  64.742  1.00  0.00     0.020 A 
ENDROOT
BRANCH   1  12
ATOM     12  C   UNL     1     -33.074 -55.949  66.954  1.00  0.00     0.025 A 
ATOM     13  C   UNL     1     -33.859 -56.200  68.091  1.00  0.00     0.016 A 
ATOM     14  C   UNL     1     -34.001 -57.501  68.578  1.00  0.00     0.051 A 
ATOM     15  C   UNL     1     -33.375 -58.573  67.928  1.00  0.00     0.157 A 
ATOM     16  C   UNL     1     -32.464 -57.029  66.292  1.00  0.00     0.062 A 
ATOM     17  C   UNL     1     -32.606 -58.334  66.776  1.00  0.00     0.158 A 
BRANCH  15  18
ATOM     18  O   UNL     1     -33.518 -59.869  68.419  1.00  0.00    -0.504 OA
ATOM     19  H   UNL     1     -33.997 -60.588  67.889  1.00  0.00     0.293 HD
ENDBRANCH  15  18
BRANCH  17  20
ATOM     20  O   UNL     1     -31.982 -59.381  66.098  1.00  0.00    -0.504 OA
ATOM     21  H   UNL     1     -30.977 -59.428  65.989  1.00  0.00     0.293 HD
ENDBRANCH  17  20
ENDBRANCH   1  12
BRANCH   2  22
ATOM     22  O   UNL     1     -32.065 -53.749  68.561  1.00  0.00    -0.502 OA
ATOM     23  H   UNL     1     -31.412 -53.150  69.052  1.00  0.00     0.293 HD
ENDBRANCH   2  22
BRANCH   9  24
ATOM     24  O   UNL     1     -34.125 -51.494  61.412  1.00  0.00    -0.508 OA
ATOM     25  H   UNL     1     -34.029 -52.221  60.713  1.00  0.00     0.293 HD
ENDBRANCH   9  24
TORSDOF 5
ENDMDL
