MODEL 1
REMARK VINA RESULT:    -3.716      0.000      0.000
REMARK INTER + INTRA:          -5.408
REMARK INTER:                  -5.020
REMARK INTRA:                  -0.387
REMARK UNBOUND:                -0.387
REMARK SMILES CCCCCCCC(=O)[O-]
REMARK SMILES IDX 5 1 6 2 7 3 8 4 9 5 10 6 4 7 3 8 2 9 1 10
REMARK H PARENT
REMARK Flexibility Score: inf
ROOT
ATOM      1  C   UNL     1      34.936  44.844  21.250  1.00  0.00     0.000 C 
ENDROOT
BRANCH   1   2
ATOM      2  C   UNL     1      33.638  45.324  21.922  1.00  0.00     0.006 C 
BRANCH   2   3
ATOM      3  C   UNL     1      32.411  44.538  21.439  1.00  0.00     0.053 C 
BRANCH   3   4
ATOM      4  C   UNL     1      31.797  43.729  22.541  1.00  0.00     0.041 C 
ATOM      5  O   UNL     1      30.768  43.037  22.320  1.00  0.00    -0.550 OA
ATOM      6  O   UNL     1      32.377  43.717  23.803  1.00  0.00    -0.550 OA
ENDBRANCH   3   4
ENDBRANCH   2   3
ENDBRANCH   1   2
BRANCH   1   7
ATOM      7  C   UNL     1      36.122  44.790  22.226  1.00  0.00     0.000 C 
BRANCH   7   8
ATOM      8  C   UNL     1      36.073  45.904  23.283  1.00  0.00    -0.000 C 
BRANCH   8   9
ATOM      9  C   UNL     1      36.459  45.365  24.665  1.00  0.00    -0.003 C 
ATOM     10  C   UNL     1      35.570  44.193  25.069  1.00  0.00     0.004 C 
ENDBRANCH   8   9
ENDBRANCH   7   8
ENDBRANCH   1   7
TORSDOF 6
ENDMDL
MODEL 2
REMARK VINA RESULT:    -3.440      2.897      4.946
REMARK INTER + INTRA:          -5.034
REMARK INTER:                  -4.742
REMARK INTRA:                  -0.293
REMARK UNBOUND:                -0.387
REMARK SMILES CCCCCCCC(=O)[O-]
REMARK SMILES IDX 5 1 6 2 7 3 8 4 9 5 10 6 4 7 3 8 2 9 1 10
REMARK H PARENT
REMARK Flexibility Score: inf
ROOT
ATOM      1  C   UNL     1      33.513  44.521  21.525  1.00  0.00     0.000 C 
ENDROOT
BRANCH   1   2
ATOM      2  C   UNL     1      34.338  44.735  22.805  1.00  0.00     0.006 C 
BRANCH   2   3
ATOM      3  C   UNL     1      35.596  45.576  22.549  1.00  0.00     0.053 C 
BRANCH   3   4
ATOM      4  C   UNL     1      36.616  44.826  21.746  1.00  0.00     0.041 C 
ATOM      5  O   UNL     1      37.125  43.768  22.200  1.00  0.00    -0.550 OA
ATOM      6  O   UNL     1      36.981  45.281  20.485  1.00  0.00    -0.550 OA
ENDBRANCH   3   4
ENDBRANCH   2   3
ENDBRANCH   1   2
BRANCH   1   7
ATOM      7  C   UNL     1      32.135  43.902  21.806  1.00  0.00     0.000 C 
BRANCH   7   8
ATOM      8  C   UNL     1      31.161  44.893  22.460  1.00  0.00    -0.000 C 
BRANCH   8   9
ATOM      9  C   UNL     1      31.196  46.249  21.746  1.00  0.00    -0.003 C 
ATOM     10  C   UNL     1      30.008  47.117  22.148  1.00  0.00     0.004 C 
ENDBRANCH   8   9
ENDBRANCH   7   8
ENDBRANCH   1   7
TORSDOF 6
ENDMDL
MODEL 3
REMARK VINA RESULT:    -3.279     17.574     18.322
REMARK INTER + INTRA:          -4.817
REMARK INTER:                  -4.397
REMARK INTRA:                  -0.420
REMARK UNBOUND:                -0.387
REMARK SMILES CCCCCCCC(=O)[O-]
REMARK SMILES IDX 5 1 6 2 7 3 8 4 9 5 10 6 4 7 3 8 2 9 1 10
REMARK H PARENT
REMARK Flexibility Score: inf
ROOT
ATOM      1  C   UNL     1      36.161  27.876  14.876  1.00  0.00     0.000 C 
ENDROOT
BRANCH   1   2
ATOM      2  C   UNL     1      34.993  26.898  14.662  1.00  0.00     0.006 C 
BRANCH   2   3
ATOM      3  C   UNL     1      34.431  26.970  13.236  1.00  0.00     0.053 C 
BRANCH   3   4
ATOM      4  C   UNL     1      33.754  28.280  12.968  1.00  0.00     0.041 C 
ATOM      5  O   UNL     1      34.146  29.014  12.023  1.00  0.00    -0.550 OA
ATOM      6  O   UNL     1      32.671  28.676  13.743  1.00  0.00    -0.550 OA
ENDBRANCH   3   4
ENDBRANCH   2   3
ENDBRANCH   1   2
BRANCH   1   7
ATOM      7  C   UNL     1      36.260  28.371  16.327  1.00  0.00     0.000 C 
BRANCH   7   8
ATOM      8  C   UNL     1      34.948  28.989  16.835  1.00  0.00    -0.000 C 
BRANCH   8   9
ATOM      9  C   UNL     1      34.797  28.788  18.346  1.00  0.00    -0.003 C 
ATOM     10  C   UNL     1      34.836  27.307  18.714  1.00  0.00     0.004 C 
ENDBRANCH   8   9
ENDBRANCH   7   8
ENDBRANCH   1   7
TORSDOF 6
ENDMDL
MODEL 4
REMARK VINA RESULT:    -3.234      2.119      4.192
REMARK INTER + INTRA:          -4.756
REMARK INTER:                  -4.447
REMARK INTRA:                  -0.309
REMARK UNBOUND:                -0.387
REMARK SMILES CCCCCCCC(=O)[O-]
REMARK SMILES IDX 5 1 6 2 7 3 8 4 9 5 10 6 4 7 3 8 2 9 1 10
REMARK H PARENT
REMARK Flexibility Score: inf
ROOT
ATOM      1  C   UNL     1      34.474  44.879  21.411  1.00  0.00     0.000 C 
ENDROOT
BRANCH   1   2
ATOM      2  C   UNL     1      35.716  45.781  21.515  1.00  0.00     0.006 C 
BRANCH   2   3
ATOM      3  C   UNL     1      36.150  46.001  22.970  1.00  0.00     0.053 C 
BRANCH   3   4
ATOM      4  C   UNL     1      36.207  44.715  23.737  1.00  0.00     0.041 C 
ATOM      5  O   UNL     1      37.107  43.870  23.490  1.00  0.00    -0.550 OA
ATOM      6  O   UNL     1      35.285  44.463  24.746  1.00  0.00    -0.550 OA
ENDBRANCH   3   4
ENDBRANCH   2   3
ENDBRANCH   1   2
BRANCH   1   7
ATOM      7  C   UNL     1      33.173  45.621  21.751  1.00  0.00     0.000 C 
BRANCH   7   8
ATOM      8  C   UNL     1      31.917  44.821  21.375  1.00  0.00    -0.000 C 
BRANCH   8   9
ATOM      9  C   UNL     1      31.873  43.485  22.124  1.00  0.00    -0.003 C 
ATOM     10  C   UNL     1      31.921  43.696  23.634  1.00  0.00     0.004 C 
ENDBRANCH   8   9
ENDBRANCH   7   8
ENDBRANCH   1   7
TORSDOF 6
ENDMDL
MODEL 5
REMARK VINA RESULT:    -3.212     17.486     18.484
REMARK INTER + INTRA:          -4.726
REMARK INTER:                  -4.326
REMARK INTRA:                  -0.400
REMARK UNBOUND:                -0.387
REMARK SMILES CCCCCCCC(=O)[O-]
REMARK SMILES IDX 5 1 6 2 7 3 8 4 9 5 10 6 4 7 3 8 2 9 1 10
REMARK H PARENT
REMARK Flexibility Score: inf
ROOT
ATOM      1  C   UNL     1      35.834  27.157  14.348  1.00  0.00     0.000 C 
ENDROOT
BRANCH   1   2
ATOM      2  C   UNL     1      35.643  27.288  15.869  1.00  0.00     0.006 C 
BRANCH   2   3
ATOM      3  C   UNL     1      35.145  28.683  16.272  1.00  0.00     0.053 C 
BRANCH   3   4
ATOM      4  C   UNL     1      35.430  28.983  17.712  1.00  0.00     0.041 C 
ATOM      5  O   UNL     1      36.605  29.233  18.087  1.00  0.00    -0.550 OA
ATOM      6  O   UNL     1      34.391  29.016  18.635  1.00  0.00    -0.550 OA
ENDBRANCH   3   4
ENDBRANCH   2   3
ENDBRANCH   1   2
BRANCH   1   7
ATOM      7  C   UNL     1      34.512  26.903  13.607  1.00  0.00     0.000 C 
BRANCH   7   8
ATOM      8  C   UNL     1      34.476  27.557  12.217  1.00  0.00    -0.000 C 
BRANCH   8   9
ATOM      9  C   UNL     1      33.888  28.970  12.292  1.00  0.00    -0.003 C 
ATOM     10  C   UNL     1      32.807  29.064  13.365  1.00  0.00     0.004 C 
ENDBRANCH   8   9
ENDBRANCH   7   8
ENDBRANCH   1   7
TORSDOF 6
ENDMDL
MODEL 6
REMARK VINA RESULT:    -3.160     17.217     18.231
REMARK INTER + INTRA:          -4.656
REMARK INTER:                  -4.396
REMARK INTRA:                  -0.260
REMARK UNBOUND:                -0.387
REMARK SMILES CCCCCCCC(=O)[O-]
REMARK SMILES IDX 5 1 6 2 7 3 8 4 9 5 10 6 4 7 3 8 2 9 1 10
REMARK H PARENT
REMARK Flexibility Score: inf
ROOT
ATOM      1  C   UNL     1      35.649  27.897  15.419  1.00  0.00     0.000 C 
ENDROOT
BRANCH   1   2
ATOM      2  C   UNL     1      34.804  28.783  16.350  1.00  0.00     0.006 C 
BRANCH   2   3
ATOM      3  C   UNL     1      35.482  29.007  17.708  1.00  0.00     0.053 C 
BRANCH   3   4
ATOM      4  C   UNL     1      34.730  28.346  18.823  1.00  0.00     0.041 C 
ATOM      5  O   UNL     1      34.394  27.136  18.731  1.00  0.00    -0.550 OA
ATOM      6  O   UNL     1      34.427  29.058  19.977  1.00  0.00    -0.550 OA
ENDBRANCH   3   4
ENDBRANCH   2   3
ENDBRANCH   1   2
BRANCH   1   7
ATOM      7  C   UNL     1      34.878  27.449  14.167  1.00  0.00     0.000 C 
BRANCH   7   8
ATOM      8  C   UNL     1      33.657  28.334  13.874  1.00  0.00    -0.000 C 
BRANCH   8   9
ATOM      9  C   UNL     1      33.689  28.852  12.433  1.00  0.00    -0.003 C 
ATOM     10  C   UNL     1      33.969  27.724  11.445  1.00  0.00     0.004 C 
ENDBRANCH   8   9
ENDBRANCH   7   8
ENDBRANCH   1   7
TORSDOF 6
ENDMDL
MODEL 7
REMARK VINA RESULT:    -3.142     17.352     18.125
REMARK INTER + INTRA:          -4.632
REMARK INTER:                  -4.251
REMARK INTRA:                  -0.381
REMARK UNBOUND:                -0.387
REMARK SMILES CCCCCCCC(=O)[O-]
REMARK SMILES IDX 5 1 6 2 7 3 8 4 9 5 10 6 4 7 3 8 2 9 1 10
REMARK H PARENT
REMARK Flexibility Score: inf
ROOT
ATOM      1  C   UNL     1      34.932  26.920  14.634  1.00  0.00     0.000 C 
ENDROOT
BRANCH   1   2
ATOM      2  C   UNL     1      34.173  27.297  13.351  1.00  0.00     0.006 C 
BRANCH   2   3
ATOM      3  C   UNL     1      33.076  28.339  13.612  1.00  0.00     0.053 C 
BRANCH   3   4
ATOM      4  C   UNL     1      33.285  29.584  12.804  1.00  0.00     0.041 C 
ATOM      5  O   UNL     1      34.191  29.628  11.932  1.00  0.00    -0.550 OA
ATOM      6  O   UNL     1      32.460  30.686  12.996  1.00  0.00    -0.550 OA
ENDBRANCH   3   4
ENDBRANCH   2   3
ENDBRANCH   1   2
BRANCH   1   7
ATOM      7  C   UNL     1      36.189  27.777  14.851  1.00  0.00     0.000 C 
BRANCH   7   8
ATOM      8  C   UNL     1      36.335  28.260  16.302  1.00  0.00    -0.000 C 
BRANCH   8   9
ATOM      9  C   UNL     1      35.056  28.955  16.780  1.00  0.00    -0.003 C 
ATOM     10  C   UNL     1      34.993  29.011  18.304  1.00  0.00     0.004 C 
ENDBRANCH   8   9
ENDBRANCH   7   8
ENDBRANCH   1   7
TORSDOF 6
ENDMDL
MODEL 8
REMARK VINA RESULT:    -3.074     17.560     18.574
REMARK INTER + INTRA:          -4.540
REMARK INTER:                  -4.159
REMARK INTRA:                  -0.380
REMARK UNBOUND:                -0.387
REMARK SMILES CCCCCCCC(=O)[O-]
REMARK SMILES IDX 5 1 6 2 7 3 8 4 9 5 10 6 4 7 3 8 2 9 1 10
REMARK H PARENT
REMARK Flexibility Score: inf
ROOT
ATOM      1  C   UNL     1      34.813  27.013  14.531  1.00  0.00     0.000 C 
ENDROOT
BRANCH   1   2
ATOM      2  C   UNL     1      35.988  27.572  15.351  1.00  0.00     0.006 C 
BRANCH   2   3
ATOM      3  C   UNL     1      35.548  28.690  16.305  1.00  0.00     0.053 C 
BRANCH   3   4
ATOM      4  C   UNL     1      35.186  28.159  17.659  1.00  0.00     0.041 C 
ATOM      5  O   UNL     1      35.581  27.019  18.019  1.00  0.00    -0.550 OA
ATOM      6  O   UNL     1      34.437  28.936  18.535  1.00  0.00    -0.550 OA
ENDBRANCH   3   4
ENDBRANCH   2   3
ENDBRANCH   1   2
BRANCH   1   7
ATOM      7  C   UNL     1      35.018  27.175  13.017  1.00  0.00     0.000 C 
BRANCH   7   8
ATOM      8  C   UNL     1      33.913  28.011  12.354  1.00  0.00    -0.000 C 
BRANCH   8   9
ATOM      9  C   UNL     1      33.025  28.681  13.408  1.00  0.00    -0.003 C 
ATOM     10  C   UNL     1      32.685  30.116  13.014  1.00  0.00     0.004 C 
ENDBRANCH   8   9
ENDBRANCH   7   8
ENDBRANCH   1   7
TORSDOF 6
ENDMDL
MODEL 9
REMARK VINA RESULT:    -2.635     17.930     18.694
REMARK INTER + INTRA:          -3.947
REMARK INTER:                  -3.719
REMARK INTRA:                  -0.228
REMARK UNBOUND:                -0.387
REMARK SMILES CCCCCCCC(=O)[O-]
REMARK SMILES IDX 5 1 6 2 7 3 8 4 9 5 10 6 4 7 3 8 2 9 1 10
REMARK H PARENT
REMARK Flexibility Score: inf
ROOT
ATOM      1  C   UNL     1      34.253  28.823  14.952  1.00  0.00     0.000 C 
ENDROOT
BRANCH   1   2
ATOM      2  C   UNL     1      33.388  28.245  13.819  1.00  0.00     0.006 C 
BRANCH   2   3
ATOM      3  C   UNL     1      33.868  28.699  12.434  1.00  0.00     0.053 C 
BRANCH   3   4
ATOM      4  C   UNL     1      34.506  27.579  11.669  1.00  0.00     0.041 C 
ATOM      5  O   UNL     1      34.100  27.290  10.513  1.00  0.00    -0.550 OA
ATOM      6  O   UNL     1      35.569  26.875  12.222  1.00  0.00    -0.550 OA
ENDBRANCH   3   4
ENDBRANCH   2   3
ENDBRANCH   1   2
BRANCH   1   7
ATOM      7  C   UNL     1      35.342  27.846  15.422  1.00  0.00     0.000 C 
BRANCH   7   8
ATOM      8  C   UNL     1      35.346  27.650  16.945  1.00  0.00    -0.000 C 
BRANCH   8   9
ATOM      9  C   UNL     1      35.490  28.992  17.670  1.00  0.00    -0.003 C 
ATOM     10  C   UNL     1      34.483  29.116  18.810  1.00  0.00     0.004 C 
ENDBRANCH   8   9
ENDBRANCH   7   8
ENDBRANCH   1   7
TORSDOF 6
ENDMDL
