MODEL 1
REMARK VINA RESULT:    -5.713      0.000      0.000
REMARK INTER + INTRA:          -5.713
REMARK INTER:                  -5.713
REMARK INTRA:                   0.000
REMARK UNBOUND:                 0.000
REMARK SMILES Cc1cc2cc3c(C)cc(=O)oc3c(C)c2o1
REMARK SMILES IDX 8 1 7 2 9 3 10 4 11 5 12 6 13 7 6 8 5 9 4 10 3 11 2 12 17 13
REMARK SMILES IDX 16 14 14 15 15 16 1 17
REMARK H PARENT
REMARK Flexibility Score: inf
ROOT
ATOM      1  C   UNL     1      54.111 -40.744 -33.244  1.00  0.00     0.045 C 
ATOM      2  C   UNL     1      54.509 -40.995 -31.812  1.00  0.00    -0.033 A 
ATOM      3  C   UNL     1      55.867 -41.121 -31.492  1.00  0.00     0.098 A 
ATOM      4  C   UNL     1      56.245 -41.356 -30.168  1.00  0.00     0.336 A 
ATOM      5  O   UNL     1      57.463 -41.470 -29.875  1.00  0.00    -0.246 OA
ATOM      6  O   UNL     1      55.328 -41.461 -29.214  1.00  0.00    -0.422 OA
ATOM      7  C   UNL     1      54.023 -41.351 -29.447  1.00  0.00     0.145 A 
ATOM      8  C   UNL     1      53.553 -41.112 -30.779  1.00  0.00     0.022 A 
ATOM      9  C   UNL     1      52.162 -41.007 -31.020  1.00  0.00     0.024 A 
ATOM     10  C   UNL     1      51.298 -41.145 -29.940  1.00  0.00     0.022 A 
ATOM     11  C   UNL     1      49.924 -41.102 -29.885  1.00  0.00     0.054 A 
ATOM     12  C   UNL     1      49.630 -41.311 -28.541  1.00  0.00     0.102 A 
ATOM     13  O   UNL     1      50.736 -41.472 -27.839  1.00  0.00    -0.461 OA
ATOM     14  C   UNL     1      51.748 -41.372 -28.668  1.00  0.00     0.140 A 
ATOM     15  C   UNL     1      53.109 -41.472 -28.373  1.00  0.00     0.036 A 
ATOM     16  C   UNL     1      53.584 -41.752 -26.975  1.00  0.00     0.052 C 
ATOM     17  C   UNL     1      48.258 -41.371 -27.960  1.00  0.00     0.087 C 
ENDROOT
TORSDOF 0
ENDMDL
MODEL 2
REMARK VINA RESULT:    -5.688      6.082      7.794
REMARK INTER + INTRA:          -5.688
REMARK INTER:                  -5.688
REMARK INTRA:                   0.000
REMARK UNBOUND:                 0.000
REMARK SMILES Cc1cc2cc3c(C)cc(=O)oc3c(C)c2o1
REMARK SMILES IDX 8 1 7 2 9 3 10 4 11 5 12 6 13 7 6 8 5 9 4 10 3 11 2 12 17 13
REMARK SMILES IDX 16 14 14 15 15 16 1 17
REMARK H PARENT
REMARK Flexibility Score: inf
ROOT
ATOM      1  C   UNL     1      54.419 -41.768 -25.216  1.00  0.00     0.045 C 
ATOM      2  C   UNL     1      55.061 -40.628 -24.468  1.00  0.00    -0.033 A 
ATOM      3  C   UNL     1      56.339 -40.196 -24.845  1.00  0.00     0.098 A 
ATOM      4  C   UNL     1      56.942 -39.142 -24.156  1.00  0.00     0.336 A 
ATOM      5  O   UNL     1      58.091 -38.750 -24.489  1.00  0.00    -0.246 OA
ATOM      6  O   UNL     1      56.314 -38.547 -23.148  1.00  0.00    -0.422 OA
ATOM      7  C   UNL     1      55.100 -38.906 -22.739  1.00  0.00     0.145 A 
ATOM      8  C   UNL     1      54.414 -39.980 -23.392  1.00  0.00     0.022 A 
ATOM      9  C   UNL     1      53.126 -40.361 -22.943  1.00  0.00     0.024 A 
ATOM     10  C   UNL     1      52.575 -39.669 -21.871  1.00  0.00     0.022 A 
ATOM     11  C   UNL     1      51.369 -39.832 -21.229  1.00  0.00     0.054 A 
ATOM     12  C   UNL     1      51.379 -38.860 -20.234  1.00  0.00     0.102 A 
ATOM     13  O   UNL     1      52.503 -38.167 -20.266  1.00  0.00    -0.461 OA
ATOM     14  C   UNL     1      53.231 -38.643 -21.249  1.00  0.00     0.140 A 
ATOM     15  C   UNL     1      54.497 -38.219 -21.658  1.00  0.00     0.036 A 
ATOM     16  C   UNL     1      55.214 -37.109 -20.944  1.00  0.00     0.052 C 
ATOM     17  C   UNL     1      50.288 -38.632 -19.243  1.00  0.00     0.087 C 
ENDROOT
TORSDOF 0
ENDMDL
MODEL 3
REMARK VINA RESULT:    -5.610      2.421      4.381
REMARK INTER + INTRA:          -5.610
REMARK INTER:                  -5.610
REMARK INTRA:                   0.000
REMARK UNBOUND:                 0.000
REMARK SMILES Cc1cc2cc3c(C)cc(=O)oc3c(C)c2o1
REMARK SMILES IDX 8 1 7 2 9 3 10 4 11 5 12 6 13 7 6 8 5 9 4 10 3 11 2 12 17 13
REMARK SMILES IDX 16 14 14 15 15 16 1 17
REMARK H PARENT
REMARK Flexibility Score: inf
ROOT
ATOM      1  C   UNL     1      51.701 -41.608 -31.090  1.00  0.00     0.045 C 
ATOM      2  C   UNL     1      53.138 -41.177 -31.234  1.00  0.00    -0.033 A 
ATOM      3  C   UNL     1      53.605 -40.759 -32.487  1.00  0.00     0.098 A 
ATOM      4  C   UNL     1      54.935 -40.360 -32.629  1.00  0.00     0.336 A 
ATOM      5  O   UNL     1      55.360 -39.984 -33.753  1.00  0.00    -0.246 OA
ATOM      6  O   UNL     1      55.759 -40.372 -31.588  1.00  0.00    -0.422 OA
ATOM      7  C   UNL     1      55.382 -40.755 -30.371  1.00  0.00     0.145 A 
ATOM      8  C   UNL     1      54.034 -41.182 -30.142  1.00  0.00     0.022 A 
ATOM      9  C   UNL     1      53.645 -41.598 -28.845  1.00  0.00     0.024 A 
ATOM     10  C   UNL     1      54.600 -41.577 -27.836  1.00  0.00     0.022 A 
ATOM     11  C   UNL     1      54.506 -41.933 -26.510  1.00  0.00     0.054 A 
ATOM     12  C   UNL     1      55.782 -41.705 -26.005  1.00  0.00     0.102 A 
ATOM     13  O   UNL     1      56.587 -41.252 -26.949  1.00  0.00    -0.461 OA
ATOM     14  C   UNL     1      55.887 -41.168 -28.056  1.00  0.00     0.140 A 
ATOM     15  C   UNL     1      56.321 -40.737 -29.312  1.00  0.00     0.036 A 
ATOM     16  C   UNL     1      57.746 -40.320 -29.541  1.00  0.00     0.052 C 
ATOM     17  C   UNL     1      56.207 -41.953 -24.598  1.00  0.00     0.087 C 
ENDROOT
TORSDOF 0
ENDMDL
MODEL 4
REMARK VINA RESULT:    -5.541      5.888      7.960
REMARK INTER + INTRA:          -5.541
REMARK INTER:                  -5.541
REMARK INTRA:                   0.000
REMARK UNBOUND:                 0.000
REMARK SMILES Cc1cc2cc3c(C)cc(=O)oc3c(C)c2o1
REMARK SMILES IDX 8 1 7 2 9 3 10 4 11 5 12 6 13 7 6 8 5 9 4 10 3 11 2 12 17 13
REMARK SMILES IDX 16 14 14 15 15 16 1 17
REMARK H PARENT
REMARK Flexibility Score: inf
ROOT
ATOM      1  C   UNL     1      57.787 -39.038 -24.266  1.00  0.00     0.045 C 
ATOM      2  C   UNL     1      56.473 -39.776 -24.240  1.00  0.00    -0.033 A 
ATOM      3  C   UNL     1      56.270 -40.843 -25.124  1.00  0.00     0.098 A 
ATOM      4  C   UNL     1      55.054 -41.530 -25.108  1.00  0.00     0.336 A 
ATOM      5  O   UNL     1      54.866 -42.490 -25.901  1.00  0.00    -0.246 OA
ATOM      6  O   UNL     1      54.093 -41.181 -24.263  1.00  0.00    -0.422 OA
ATOM      7  C   UNL     1      54.219 -40.179 -23.396  1.00  0.00     0.145 A 
ATOM      8  C   UNL     1      55.434 -39.422 -23.351  1.00  0.00     0.022 A 
ATOM      9  C   UNL     1      55.555 -38.352 -22.433  1.00  0.00     0.024 A 
ATOM     10  C   UNL     1      54.474 -38.074 -21.604  1.00  0.00     0.022 A 
ATOM     11  C   UNL     1      54.312 -37.102 -20.644  1.00  0.00     0.054 A 
ATOM     12  C   UNL     1      53.026 -37.314 -20.157  1.00  0.00     0.102 A 
ATOM     13  O   UNL     1      52.453 -38.330 -20.775  1.00  0.00    -0.461 OA
ATOM     14  C   UNL     1      53.315 -38.798 -21.647  1.00  0.00     0.140 A 
ATOM     15  C   UNL     1      53.146 -39.871 -22.525  1.00  0.00     0.036 A 
ATOM     16  C   UNL     1      51.855 -40.637 -22.579  1.00  0.00     0.052 C 
ATOM     17  C   UNL     1      52.362 -36.501 -19.098  1.00  0.00     0.087 C 
ENDROOT
TORSDOF 0
ENDMDL
MODEL 5
REMARK VINA RESULT:    -5.518      6.742      9.359
REMARK INTER + INTRA:          -5.518
REMARK INTER:                  -5.518
REMARK INTRA:                   0.000
REMARK UNBOUND:                 0.000
REMARK SMILES Cc1cc2cc3c(C)cc(=O)oc3c(C)c2o1
REMARK SMILES IDX 8 1 7 2 9 3 10 4 11 5 12 6 13 7 6 8 5 9 4 10 3 11 2 12 17 13
REMARK SMILES IDX 16 14 14 15 15 16 1 17
REMARK H PARENT
REMARK Flexibility Score: inf
ROOT
ATOM      1  C   UNL     1      50.976 -41.963 -23.143  1.00  0.00     0.045 C 
ATOM      2  C   UNL     1      51.390 -40.814 -22.260  1.00  0.00    -0.033 A 
ATOM      3  C   UNL     1      50.510 -40.363 -21.268  1.00  0.00     0.098 A 
ATOM      4  C   UNL     1      50.885 -39.298 -20.446  1.00  0.00     0.336 A 
ATOM      5  O   UNL     1      50.098 -38.888 -19.553  1.00  0.00    -0.246 OA
ATOM      6  O   UNL     1      52.066 -38.713 -20.597  1.00  0.00    -0.422 OA
ATOM      7  C   UNL     1      52.950 -39.091 -21.517  1.00  0.00     0.145 A 
ATOM      8  C   UNL     1      52.641 -40.174 -22.402  1.00  0.00     0.022 A 
ATOM      9  C   UNL     1      53.583 -40.563 -23.384  1.00  0.00     0.024 A 
ATOM     10  C   UNL     1      54.784 -39.866 -23.452  1.00  0.00     0.022 A 
ATOM     11  C   UNL     1      55.856 -40.017 -24.301  1.00  0.00     0.054 A 
ATOM     12  C   UNL     1      56.753 -39.035 -23.895  1.00  0.00     0.102 A 
ATOM     13  O   UNL     1      56.263 -38.341 -22.884  1.00  0.00    -0.461 OA
ATOM     14  C   UNL     1      55.079 -38.833 -22.606  1.00  0.00     0.140 A 
ATOM     15  C   UNL     1      54.191 -38.416 -21.612  1.00  0.00     0.036 A 
ATOM     16  C   UNL     1      54.519 -37.260 -20.711  1.00  0.00     0.052 C 
ATOM     17  C   UNL     1      58.083 -38.772 -24.518  1.00  0.00     0.087 C 
ENDROOT
TORSDOF 0
ENDMDL
MODEL 6
REMARK VINA RESULT:    -5.517      4.471      6.692
REMARK INTER + INTRA:          -5.517
REMARK INTER:                  -5.517
REMARK INTRA:                   0.000
REMARK UNBOUND:                 0.000
REMARK SMILES Cc1cc2cc3c(C)cc(=O)oc3c(C)c2o1
REMARK SMILES IDX 8 1 7 2 9 3 10 4 11 5 12 6 13 7 6 8 5 9 4 10 3 11 2 12 17 13
REMARK SMILES IDX 16 14 14 15 15 16 1 17
REMARK H PARENT
REMARK Flexibility Score: inf
ROOT
ATOM      1  C   UNL     1      52.202 -42.772 -25.697  1.00  0.00     0.045 C 
ATOM      2  C   UNL     1      53.627 -42.283 -25.735  1.00  0.00    -0.033 A 
ATOM      3  C   UNL     1      54.518 -42.844 -26.659  1.00  0.00     0.098 A 
ATOM      4  C   UNL     1      55.841 -42.399 -26.700  1.00  0.00     0.336 A 
ATOM      5  O   UNL     1      56.646 -42.901 -27.528  1.00  0.00    -0.246 OA
ATOM      6  O   UNL     1      56.259 -41.450 -25.872  1.00  0.00    -0.422 OA
ATOM      7  C   UNL     1      55.467 -40.874 -24.972  1.00  0.00     0.145 A 
ATOM      8  C   UNL     1      54.097 -41.276 -24.864  1.00  0.00     0.022 A 
ATOM      9  C   UNL     1      53.264 -40.664 -23.896  1.00  0.00     0.024 A 
ATOM     10  C   UNL     1      53.820 -39.687 -23.078  1.00  0.00     0.022 A 
ATOM     11  C   UNL     1      53.258 -38.949 -22.061  1.00  0.00     0.054 A 
ATOM     12  C   UNL     1      54.298 -38.144 -21.609  1.00  0.00     0.102 A 
ATOM     13  O   UNL     1      55.403 -38.377 -22.293  1.00  0.00    -0.461 OA
ATOM     14  C   UNL     1      55.128 -39.303 -23.182  1.00  0.00     0.140 A 
ATOM     15  C   UNL     1      55.990 -39.865 -24.127  1.00  0.00     0.036 A 
ATOM     16  C   UNL     1      57.432 -39.452 -24.207  1.00  0.00     0.052 C 
ATOM     17  C   UNL     1      54.203 -37.161 -20.492  1.00  0.00     0.087 C 
ENDROOT
TORSDOF 0
ENDMDL
MODEL 7
REMARK VINA RESULT:    -5.488      5.494      7.500
REMARK INTER + INTRA:          -5.488
REMARK INTER:                  -5.488
REMARK INTRA:                   0.000
REMARK UNBOUND:                 0.000
REMARK SMILES Cc1cc2cc3c(C)cc(=O)oc3c(C)c2o1
REMARK SMILES IDX 8 1 7 2 9 3 10 4 11 5 12 6 13 7 6 8 5 9 4 10 3 11 2 12 17 13
REMARK SMILES IDX 16 14 14 15 15 16 1 17
REMARK H PARENT
REMARK Flexibility Score: inf
ROOT
ATOM      1  C   UNL     1      50.252 -43.801 -24.819  1.00  0.00     0.045 C 
ATOM      2  C   UNL     1      51.385 -42.813 -24.714  1.00  0.00    -0.033 A 
ATOM      3  C   UNL     1      52.386 -42.815 -25.694  1.00  0.00     0.098 A 
ATOM      4  C   UNL     1      53.441 -41.905 -25.604  1.00  0.00     0.336 A 
ATOM      5  O   UNL     1      54.344 -41.902 -26.481  1.00  0.00    -0.246 OA
ATOM      6  O   UNL     1      53.502 -41.040 -24.598  1.00  0.00    -0.422 OA
ATOM      7  C   UNL     1      52.586 -40.983 -23.635  1.00  0.00     0.145 A 
ATOM      8  C   UNL     1      51.473 -41.884 -23.654  1.00  0.00     0.022 A 
ATOM      9  C   UNL     1      50.509 -41.824 -22.619  1.00  0.00     0.024 A 
ATOM     10  C   UNL     1      50.686 -40.881 -21.613  1.00  0.00     0.022 A 
ATOM     11  C   UNL     1      49.926 -40.612 -20.498  1.00  0.00     0.054 A 
ATOM     12  C   UNL     1      50.603 -39.574 -19.866  1.00  0.00     0.102 A 
ATOM     13  O   UNL     1      51.688 -39.242 -20.542  1.00  0.00    -0.461 OA
ATOM     14  C   UNL     1      51.748 -40.019 -21.597  1.00  0.00     0.140 A 
ATOM     15  C   UNL     1      52.722 -40.029 -22.598  1.00  0.00     0.036 A 
ATOM     16  C   UNL     1      53.898 -39.095 -22.548  1.00  0.00     0.052 C 
ATOM     17  C   UNL     1      50.187 -38.926 -18.589  1.00  0.00     0.087 C 
ENDROOT
TORSDOF 0
ENDMDL
MODEL 8
REMARK VINA RESULT:    -5.438      4.654      8.082
REMARK INTER + INTRA:          -5.438
REMARK INTER:                  -5.438
REMARK INTRA:                   0.000
REMARK UNBOUND:                 0.000
REMARK SMILES Cc1cc2cc3c(C)cc(=O)oc3c(C)c2o1
REMARK SMILES IDX 8 1 7 2 9 3 10 4 11 5 12 6 13 7 6 8 5 9 4 10 3 11 2 12 17 13
REMARK SMILES IDX 16 14 14 15 15 16 1 17
REMARK H PARENT
REMARK Flexibility Score: inf
ROOT
ATOM      1  C   UNL     1      51.063 -40.281 -21.216  1.00  0.00     0.045 C 
ATOM      2  C   UNL     1      51.425 -40.986 -22.498  1.00  0.00    -0.033 A 
ATOM      3  C   UNL     1      50.521 -41.900 -23.054  1.00  0.00     0.098 A 
ATOM      4  C   UNL     1      50.848 -42.559 -24.241  1.00  0.00     0.336 A 
ATOM      5  O   UNL     1      50.040 -43.382 -24.744  1.00  0.00    -0.246 OA
ATOM      6  O   UNL     1      52.007 -42.326 -24.844  1.00  0.00    -0.422 OA
ATOM      7  C   UNL     1      52.910 -41.470 -24.373  1.00  0.00     0.145 A 
ATOM      8  C   UNL     1      52.652 -40.756 -23.159  1.00  0.00     0.022 A 
ATOM      9  C   UNL     1      53.623 -39.855 -22.659  1.00  0.00     0.024 A 
ATOM     10  C   UNL     1      54.805 -39.702 -23.375  1.00  0.00     0.022 A 
ATOM     11  C   UNL     1      55.908 -38.920 -23.120  1.00  0.00     0.054 A 
ATOM     12  C   UNL     1      56.769 -39.191 -24.179  1.00  0.00     0.102 A 
ATOM     13  O   UNL     1      56.234 -40.070 -25.006  1.00  0.00    -0.461 OA
ATOM     14  C   UNL     1      55.050 -40.384 -24.535  1.00  0.00     0.140 A 
ATOM     15  C   UNL     1      54.122 -41.275 -25.078  1.00  0.00     0.036 A 
ATOM     16  C   UNL     1      54.421 -42.038 -26.337  1.00  0.00     0.052 C 
ATOM     17  C   UNL     1      58.125 -38.596 -24.359  1.00  0.00     0.087 C 
ENDROOT
TORSDOF 0
ENDMDL
MODEL 9
REMARK VINA RESULT:    -5.378      5.024      6.386
REMARK INTER + INTRA:          -5.378
REMARK INTER:                  -5.378
REMARK INTRA:                   0.000
REMARK UNBOUND:                 0.000
REMARK SMILES Cc1cc2cc3c(C)cc(=O)oc3c(C)c2o1
REMARK SMILES IDX 8 1 7 2 9 3 10 4 11 5 12 6 13 7 6 8 5 9 4 10 3 11 2 12 17 13
REMARK SMILES IDX 16 14 14 15 15 16 1 17
REMARK H PARENT
REMARK Flexibility Score: inf
ROOT
ATOM      1  C   UNL     1      55.763 -43.779 -26.134  1.00  0.00     0.045 C 
ATOM      2  C   UNL     1      56.268 -42.479 -26.705  1.00  0.00    -0.033 A 
ATOM      3  C   UNL     1      56.824 -42.468 -27.991  1.00  0.00     0.098 A 
ATOM      4  C   UNL     1      57.297 -41.268 -28.527  1.00  0.00     0.336 A 
ATOM      5  O   UNL     1      57.799 -41.252 -29.682  1.00  0.00    -0.246 OA
ATOM      6  O   UNL     1      57.223 -40.142 -27.830  1.00  0.00    -0.422 OA
ATOM      7  C   UNL     1      56.707 -40.081 -26.605  1.00  0.00     0.145 A 
ATOM      8  C   UNL     1      56.202 -41.268 -25.983  1.00  0.00     0.022 A 
ATOM      9  C   UNL     1      55.663 -41.195 -24.675  1.00  0.00     0.024 A 
ATOM     10  C   UNL     1      55.649 -39.959 -24.040  1.00  0.00     0.022 A 
ATOM     11  C   UNL     1      55.205 -39.604 -22.787  1.00  0.00     0.054 A 
ATOM     12  C   UNL     1      55.456 -38.238 -22.711  1.00  0.00     0.102 A 
ATOM     13  O   UNL     1      56.010 -37.799 -23.826  1.00  0.00    -0.461 OA
ATOM     14  C   UNL     1      56.130 -38.825 -24.636  1.00  0.00     0.140 A 
ATOM     15  C   UNL     1      56.661 -38.838 -25.928  1.00  0.00     0.036 A 
ATOM     16  C   UNL     1      57.212 -37.589 -26.555  1.00  0.00     0.052 C 
ATOM     17  C   UNL     1      55.164 -37.374 -21.531  1.00  0.00     0.087 C 
ENDROOT
TORSDOF 0
ENDMDL
