MODEL 1
REMARK VINA RESULT:    -5.211      0.000      0.000
REMARK INTER + INTRA:         -15.618
REMARK INTER:                 -13.588
REMARK INTRA:                  -2.030
REMARK UNBOUND:                -2.030
REMARK SMILES CCCCCCCCCCCCCCCCCCCCCCCCCCCCCO
REMARK SMILES IDX 16 1 15 2 14 3 13 4 12 5 11 6 10 7 9 8 8 9 7 10 6 11 5 12
REMARK SMILES IDX 4 13 3 14 2 15 1 16 17 17 18 18 19 19 20 20 21 21 22 22
REMARK SMILES IDX 23 23 24 24 25 25 26 26 27 27 28 28 29 29 30 30
REMARK H PARENT 30 31
REMARK Flexibility Score: inf
ROOT
ATOM      1  C   UNL     1       6.705   5.732  -0.112  1.00  0.00     0.000 C 
ENDROOT
BRANCH   1   2
ATOM      2  C   UNL     1       6.248   4.357  -0.642  1.00  0.00     0.000 C 
BRANCH   2   3
ATOM      3  C   UNL     1       6.990   3.863  -1.897  1.00  0.00     0.000 C 
BRANCH   3   4
ATOM      4  C   UNL     1       6.250   4.095  -3.229  1.00  0.00     0.000 C 
BRANCH   4   5
ATOM      5  C   UNL     1       7.022   4.977  -4.234  1.00  0.00     0.000 C 
BRANCH   5   6
ATOM      6  C   UNL     1       8.019   5.924  -3.539  1.00  0.00     0.000 C 
BRANCH   6   7
ATOM      7  C   UNL     1       8.048   7.322  -4.173  1.00  0.00     0.000 C 
BRANCH   7   8
ATOM      8  C   UNL     1       9.459   7.751  -4.614  1.00  0.00    -0.000 C 
BRANCH   8   9
ATOM      9  C   UNL     1       9.960   6.927  -5.814  1.00  0.00    -0.000 C 
BRANCH   9  10
ATOM     10  C   UNL     1       8.925   6.811  -6.952  1.00  0.00    -0.000 C 
BRANCH  10  11
ATOM     11  C   UNL     1       9.226   5.700  -7.980  1.00  0.00    -0.000 C 
BRANCH  11  12
ATOM     12  C   UNL     1       9.130   4.279  -7.388  1.00  0.00    -0.000 C 
BRANCH  12  13
ATOM     13  C   UNL     1       8.414   3.294  -8.336  1.00  0.00    -0.000 C 
BRANCH  13  14
ATOM     14  C   UNL     1       9.176   3.157  -9.665  1.00  0.00    -0.000 C 
BRANCH  14  15
ATOM     15  C   UNL     1       8.524   2.151 -10.628  1.00  0.00    -0.003 C 
ATOM     16  C   UNL     1       8.389   0.753 -10.030  1.00  0.00     0.004 C 
ENDBRANCH  14  15
ENDBRANCH  13  14
ENDBRANCH  12  13
ENDBRANCH  11  12
ENDBRANCH  10  11
ENDBRANCH   9  10
ENDBRANCH   8   9
ENDBRANCH   7   8
ENDBRANCH   6   7
ENDBRANCH   5   6
ENDBRANCH   4   5
ENDBRANCH   3   4
ENDBRANCH   2   3
ENDBRANCH   1   2
BRANCH   1  17
ATOM     17  C   UNL     1       6.189   6.923  -0.948  1.00  0.00     0.000 C 
BRANCH  17  18
ATOM     18  C   UNL     1       6.954   8.224  -0.651  1.00  0.00     0.000 C 
BRANCH  18  19
ATOM     19  C   UNL     1       6.267   9.455  -1.285  1.00  0.00     0.000 C 
BRANCH  19  20
ATOM     20  C   UNL     1       4.904   9.784  -0.659  1.00  0.00     0.000 C 
BRANCH  20  21
ATOM     21  C   UNL     1       3.772   9.810  -1.698  1.00  0.00     0.000 C 
BRANCH  21  22
ATOM     22  C   UNL     1       2.379   9.708  -1.057  1.00  0.00     0.000 C 
BRANCH  22  23
ATOM     23  C   UNL     1       1.358   8.972  -1.941  1.00  0.00     0.000 C 
BRANCH  23  24
ATOM     24  C   UNL     1       0.084   8.649  -1.146  1.00  0.00     0.000 C 
BRANCH  24  25
ATOM     25  C   UNL     1      -1.204   9.003  -1.907  1.00  0.00     0.000 C 
BRANCH  25  26
ATOM     26  C   UNL     1      -2.475   8.632  -1.128  1.00  0.00     0.000 C 
BRANCH  26  27
ATOM     27  C   UNL     1      -3.656   9.557  -1.469  1.00  0.00     0.002 C 
BRANCH  27  28
ATOM     28  C   UNL     1      -4.823   8.802  -2.128  1.00  0.00     0.028 C 
BRANCH  28  29
ATOM     29  C   UNL     1      -4.342   7.867  -3.241  1.00  0.00     0.156 C 
BRANCH  29  30
ATOM     30  O   UNL     1      -5.410   7.495  -4.070  1.00  0.00    -0.396 OA
ATOM     31  H   UNL     1      -5.223   6.571  -4.386  1.00  0.00     0.210 HD
ENDBRANCH  29  30
ENDBRANCH  28  29
ENDBRANCH  27  28
ENDBRANCH  26  27
ENDBRANCH  25  26
ENDBRANCH  24  25
ENDBRANCH  23  24
ENDBRANCH  22  23
ENDBRANCH  21  22
ENDBRANCH  20  21
ENDBRANCH  19  20
ENDBRANCH  18  19
ENDBRANCH  17  18
ENDBRANCH   1  17
TORSDOF 28
ENDMDL
MODEL 2
REMARK VINA RESULT:    -4.790      5.800      9.502
REMARK INTER + INTRA:         -14.522
REMARK INTER:                 -12.279
REMARK INTRA:                  -2.243
REMARK UNBOUND:                -2.030
REMARK SMILES CCCCCCCCCCCCCCCCCCCCCCCCCCCCCO
REMARK SMILES IDX 16 1 15 2 14 3 13 4 12 5 11 6 10 7 9 8 8 9 7 10 6 11 5 12
REMARK SMILES IDX 4 13 3 14 2 15 1 16 17 17 18 18 19 19 20 20 21 21 22 22
REMARK SMILES IDX 23 23 24 24 25 25 26 26 27 27 28 28 29 29 30 30
REMARK H PARENT 30 31
REMARK Flexibility Score: inf
ROOT
ATOM      1  C   UNL     1       8.868   3.585  -7.752  1.00  0.00     0.000 C 
ENDROOT
BRANCH   1   2
ATOM      2  C   UNL     1       8.501   2.654  -8.925  1.00  0.00     0.000 C 
BRANCH   2   3
ATOM      3  C   UNL     1       8.919   3.162 -10.316  1.00  0.00     0.000 C 
BRANCH   3   4
ATOM      4  C   UNL     1       9.855   2.223 -11.103  1.00  0.00     0.000 C 
BRANCH   4   5
ATOM      5  C   UNL     1      10.509   1.119 -10.244  1.00  0.00     0.000 C 
BRANCH   5   6
ATOM      6  C   UNL     1      10.057  -0.294 -10.660  1.00  0.00     0.000 C 
BRANCH   6   7
ATOM      7  C   UNL     1       8.748  -0.722  -9.981  1.00  0.00     0.000 C 
BRANCH   7   8
ATOM      8  C   UNL     1       8.970  -1.703  -8.816  1.00  0.00    -0.000 C 
BRANCH   8   9
ATOM      9  C   UNL     1       9.529  -3.052  -9.301  1.00  0.00    -0.000 C 
BRANCH   9  10
ATOM     10  C   UNL     1       8.507  -4.204  -9.222  1.00  0.00    -0.000 C 
BRANCH  10  11
ATOM     11  C   UNL     1       7.109  -3.787  -8.719  1.00  0.00    -0.000 C 
BRANCH  11  12
ATOM     12  C   UNL     1       6.883  -4.095  -7.224  1.00  0.00    -0.000 C 
BRANCH  12  13
ATOM     13  C   UNL     1       5.410  -4.432  -6.910  1.00  0.00    -0.000 C 
BRANCH  13  14
ATOM     14  C   UNL     1       5.173  -5.951  -6.947  1.00  0.00    -0.000 C 
BRANCH  14  15
ATOM     15  C   UNL     1       4.246  -6.384  -8.095  1.00  0.00    -0.003 C 
ATOM     16  C   UNL     1       3.569  -5.207  -8.793  1.00  0.00     0.004 C 
ENDBRANCH  14  15
ENDBRANCH  13  14
ENDBRANCH  12  13
ENDBRANCH  11  12
ENDBRANCH  10  11
ENDBRANCH   9  10
ENDBRANCH   8   9
ENDBRANCH   7   8
ENDBRANCH   6   7
ENDBRANCH   5   6
ENDBRANCH   4   5
ENDBRANCH   3   4
ENDBRANCH   2   3
ENDBRANCH   1   2
BRANCH   1  17
ATOM     17  C   UNL     1       9.113   5.050  -8.174  1.00  0.00     0.000 C 
BRANCH  17  18
ATOM     18  C   UNL     1       9.248   5.994  -6.968  1.00  0.00     0.000 C 
BRANCH  18  19
ATOM     19  C   UNL     1       9.331   7.475  -7.401  1.00  0.00     0.000 C 
BRANCH  19  20
ATOM     20  C   UNL     1      10.663   8.146  -7.033  1.00  0.00     0.000 C 
BRANCH  20  21
ATOM     21  C   UNL     1      10.643   8.755  -5.621  1.00  0.00     0.000 C 
BRANCH  21  22
ATOM     22  C   UNL     1       9.231   9.168  -5.177  1.00  0.00     0.000 C 
BRANCH  22  23
ATOM     23  C   UNL     1       9.098   9.324  -3.653  1.00  0.00     0.000 C 
BRANCH  23  24
ATOM     24  C   UNL     1       8.162   8.251  -3.076  1.00  0.00     0.000 C 
BRANCH  24  25
ATOM     25  C   UNL     1       7.423   7.453  -4.163  1.00  0.00     0.000 C 
BRANCH  25  26
ATOM     26  C   UNL     1       7.288   5.962  -3.816  1.00  0.00     0.000 C 
BRANCH  26  27
ATOM     27  C   UNL     1       7.301   5.714  -2.299  1.00  0.00     0.002 C 
BRANCH  27  28
ATOM     28  C   UNL     1       6.595   4.403  -1.911  1.00  0.00     0.028 C 
BRANCH  28  29
ATOM     29  C   UNL     1       6.446   4.263  -0.393  1.00  0.00     0.156 C 
BRANCH  29  30
ATOM     30  O   UNL     1       7.381   5.070   0.272  1.00  0.00    -0.396 OA
ATOM     31  H   UNL     1       7.639   5.794  -0.358  1.00  0.00     0.210 HD
ENDBRANCH  29  30
ENDBRANCH  28  29
ENDBRANCH  27  28
ENDBRANCH  26  27
ENDBRANCH  25  26
ENDBRANCH  24  25
ENDBRANCH  23  24
ENDBRANCH  22  23
ENDBRANCH  21  22
ENDBRANCH  20  21
ENDBRANCH  19  20
ENDBRANCH  18  19
ENDBRANCH  17  18
ENDBRANCH   1  17
TORSDOF 28
ENDMDL
MODEL 3
REMARK VINA RESULT:    -4.724      1.437      2.666
REMARK INTER + INTRA:         -14.350
REMARK INTER:                 -11.789
REMARK INTRA:                  -2.561
REMARK UNBOUND:                -2.030
REMARK SMILES CCCCCCCCCCCCCCCCCCCCCCCCCCCCCO
REMARK SMILES IDX 16 1 15 2 14 3 13 4 12 5 11 6 10 7 9 8 8 9 7 10 6 11 5 12
REMARK SMILES IDX 4 13 3 14 2 15 1 16 17 17 18 18 19 19 20 20 21 21 22 22
REMARK SMILES IDX 23 23 24 24 25 25 26 26 27 27 28 28 29 29 30 30
REMARK H PARENT 30 31
REMARK Flexibility Score: inf
ROOT
ATOM      1  C   UNL     1       6.977   6.330  -3.414  1.00  0.00     0.000 C 
ENDROOT
BRANCH   1   2
ATOM      2  C   UNL     1       7.682   5.657  -4.610  1.00  0.00     0.000 C 
BRANCH   2   3
ATOM      3  C   UNL     1       8.769   6.509  -5.289  1.00  0.00     0.000 C 
BRANCH   3   4
ATOM      4  C   UNL     1       9.689   7.286  -4.327  1.00  0.00     0.000 C 
BRANCH   4   5
ATOM      5  C   UNL     1       9.601   8.821  -4.470  1.00  0.00     0.000 C 
BRANCH   5   6
ATOM      6  C   UNL     1       8.354   9.266  -5.258  1.00  0.00     0.000 C 
BRANCH   6   7
ATOM      7  C   UNL     1       8.704  10.092  -6.504  1.00  0.00     0.000 C 
BRANCH   7   8
ATOM      8  C   UNL     1       8.768   9.244  -7.787  1.00  0.00    -0.000 C 
BRANCH   8   9
ATOM      9  C   UNL     1      10.214   8.863  -8.152  1.00  0.00    -0.000 C 
BRANCH   9  10
ATOM     10  C   UNL     1      10.379   7.379  -8.538  1.00  0.00    -0.000 C 
BRANCH  10  11
ATOM     11  C   UNL     1       9.532   6.933  -9.748  1.00  0.00    -0.000 C 
BRANCH  11  12
ATOM     12  C   UNL     1       9.187   5.430  -9.730  1.00  0.00    -0.000 C 
BRANCH  12  13
ATOM     13  C   UNL     1       9.084   4.868  -8.296  1.00  0.00    -0.000 C 
BRANCH  13  14
ATOM     14  C   UNL     1       8.645   3.394  -8.313  1.00  0.00    -0.000 C 
BRANCH  14  15
ATOM     15  C   UNL     1       9.274   2.595  -9.467  1.00  0.00    -0.003 C 
ATOM     16  C   UNL     1       8.779   1.152  -9.533  1.00  0.00     0.004 C 
ENDBRANCH  14  15
ENDBRANCH  13  14
ENDBRANCH  12  13
ENDBRANCH  11  12
ENDBRANCH  10  11
ENDBRANCH   9  10
ENDBRANCH   8   9
ENDBRANCH   7   8
ENDBRANCH   6   7
ENDBRANCH   5   6
ENDBRANCH   4   5
ENDBRANCH   3   4
ENDBRANCH   2   3
ENDBRANCH   1   2
BRANCH   1  17
ATOM     17  C   UNL     1       6.960   5.465  -2.135  1.00  0.00     0.000 C 
BRANCH  17  18
ATOM     18  C   UNL     1       6.600   6.279  -0.881  1.00  0.00     0.000 C 
BRANCH  18  19
ATOM     19  C   UNL     1       6.745   7.799  -1.118  1.00  0.00     0.000 C 
BRANCH  19  20
ATOM     20  C   UNL     1       5.438   8.579  -0.910  1.00  0.00     0.000 C 
BRANCH  20  21
ATOM     21  C   UNL     1       5.261   9.711  -1.934  1.00  0.00     0.000 C 
BRANCH  21  22
ATOM     22  C   UNL     1       3.786   9.972  -2.278  1.00  0.00     0.000 C 
BRANCH  22  23
ATOM     23  C   UNL     1       2.810   9.348  -1.267  1.00  0.00     0.000 C 
BRANCH  23  24
ATOM     24  C   UNL     1       1.369   9.405  -1.797  1.00  0.00     0.000 C 
BRANCH  24  25
ATOM     25  C   UNL     1       0.487   8.267  -1.260  1.00  0.00     0.000 C 
BRANCH  25  26
ATOM     26  C   UNL     1      -0.864   8.765  -0.722  1.00  0.00     0.000 C 
BRANCH  26  27
ATOM     27  C   UNL     1      -1.953   8.774  -1.807  1.00  0.00     0.002 C 
BRANCH  27  28
ATOM     28  C   UNL     1      -3.373   8.715  -1.215  1.00  0.00     0.028 C 
BRANCH  28  29
ATOM     29  C   UNL     1      -4.412   8.313  -2.265  1.00  0.00     0.156 C 
BRANCH  29  30
ATOM     30  O   UNL     1      -4.189   6.999  -2.703  1.00  0.00    -0.396 OA
ATOM     31  H   UNL     1      -5.081   6.594  -2.870  1.00  0.00     0.210 HD
ENDBRANCH  29  30
ENDBRANCH  28  29
ENDBRANCH  27  28
ENDBRANCH  26  27
ENDBRANCH  25  26
ENDBRANCH  24  25
ENDBRANCH  23  24
ENDBRANCH  22  23
ENDBRANCH  21  22
ENDBRANCH  20  21
ENDBRANCH  19  20
ENDBRANCH  18  19
ENDBRANCH  17  18
ENDBRANCH   1  17
TORSDOF 28
ENDMDL
MODEL 4
REMARK VINA RESULT:    -4.724      1.946      2.874
REMARK INTER + INTRA:         -14.348
REMARK INTER:                 -11.415
REMARK INTRA:                  -2.933
REMARK UNBOUND:                -2.030
REMARK SMILES CCCCCCCCCCCCCCCCCCCCCCCCCCCCCO
REMARK SMILES IDX 16 1 15 2 14 3 13 4 12 5 11 6 10 7 9 8 8 9 7 10 6 11 5 12
REMARK SMILES IDX 4 13 3 14 2 15 1 16 17 17 18 18 19 19 20 20 21 21 22 22
REMARK SMILES IDX 23 23 24 24 25 25 26 26 27 27 28 28 29 29 30 30
REMARK H PARENT 30 31
REMARK Flexibility Score: inf
ROOT
ATOM      1  C   UNL     1       6.625   5.930  -0.110  1.00  0.00     0.000 C 
ENDROOT
BRANCH   1   2
ATOM      2  C   UNL     1       6.296   4.523  -0.651  1.00  0.00     0.000 C 
BRANCH   2   3
ATOM      3  C   UNL     1       7.123   4.085  -1.873  1.00  0.00     0.000 C 
BRANCH   3   4
ATOM      4  C   UNL     1       6.379   4.135  -3.221  1.00  0.00     0.000 C 
BRANCH   4   5
ATOM      5  C   UNL     1       6.997   5.110  -4.247  1.00  0.00     0.000 C 
BRANCH   5   6
ATOM      6  C   UNL     1       7.942   6.133  -3.589  1.00  0.00     0.000 C 
BRANCH   6   7
ATOM      7  C   UNL     1       7.635   7.578  -4.007  1.00  0.00     0.000 C 
BRANCH   7   8
ATOM      8  C   UNL     1       8.788   8.550  -3.696  1.00  0.00    -0.000 C 
BRANCH   8   9
ATOM      9  C   UNL     1       9.715   8.746  -4.909  1.00  0.00    -0.000 C 
BRANCH   9  10
ATOM     10  C   UNL     1       8.960   8.828  -6.251  1.00  0.00    -0.000 C 
BRANCH  10  11
ATOM     11  C   UNL     1       9.688   8.161  -7.437  1.00  0.00    -0.000 C 
BRANCH  11  12
ATOM     12  C   UNL     1      10.177   6.731  -7.126  1.00  0.00    -0.000 C 
BRANCH  12  13
ATOM     13  C   UNL     1       9.015   5.719  -7.038  1.00  0.00    -0.000 C 
BRANCH  13  14
ATOM     14  C   UNL     1       8.875   4.925  -8.346  1.00  0.00    -0.000 C 
BRANCH  14  15
ATOM     15  C   UNL     1       8.875   3.403  -8.126  1.00  0.00    -0.003 C 
ATOM     16  C   UNL     1       9.192   2.616  -9.395  1.00  0.00     0.004 C 
ENDBRANCH  14  15
ENDBRANCH  13  14
ENDBRANCH  12  13
ENDBRANCH  11  12
ENDBRANCH  10  11
ENDBRANCH   9  10
ENDBRANCH   8   9
ENDBRANCH   7   8
ENDBRANCH   6   7
ENDBRANCH   5   6
ENDBRANCH   4   5
ENDBRANCH   3   4
ENDBRANCH   2   3
ENDBRANCH   1   2
BRANCH   1  17
ATOM     17  C   UNL     1       6.036   7.077  -0.959  1.00  0.00     0.000 C 
BRANCH  17  18
ATOM     18  C   UNL     1       6.695   8.432  -0.653  1.00  0.00     0.000 C 
BRANCH  18  19
ATOM     19  C   UNL     1       5.884   9.612  -1.234  1.00  0.00     0.000 C 
BRANCH  19  20
ATOM     20  C   UNL     1       4.482   9.750  -0.623  1.00  0.00     0.000 C 
BRANCH  20  21
ATOM     21  C   UNL     1       3.367   9.557  -1.664  1.00  0.00     0.000 C 
BRANCH  21  22
ATOM     22  C   UNL     1       1.978   9.919  -1.115  1.00  0.00     0.000 C 
BRANCH  22  23
ATOM     23  C   UNL     1       0.919   8.838  -1.388  1.00  0.00     0.000 C 
BRANCH  23  24
ATOM     24  C   UNL     1      -0.475   9.468  -1.531  1.00  0.00     0.000 C 
BRANCH  24  25
ATOM     25  C   UNL     1      -1.123   9.186  -2.896  1.00  0.00     0.000 C 
BRANCH  25  26
ATOM     26  C   UNL     1      -0.120   8.654  -3.932  1.00  0.00     0.000 C 
BRANCH  26  27
ATOM     27  C   UNL     1       0.528   9.785  -4.747  1.00  0.00     0.002 C 
BRANCH  27  28
ATOM     28  C   UNL     1       1.896   9.383  -5.325  1.00  0.00     0.028 C 
BRANCH  28  29
ATOM     29  C   UNL     1       1.773   8.250  -6.348  1.00  0.00     0.156 C 
BRANCH  29  30
ATOM     30  O   UNL     1       0.753   8.526  -7.270  1.00  0.00    -0.396 OA
ATOM     31  H   UNL     1      -0.033   7.979  -7.004  1.00  0.00     0.210 HD
ENDBRANCH  29  30
ENDBRANCH  28  29
ENDBRANCH  27  28
ENDBRANCH  26  27
ENDBRANCH  25  26
ENDBRANCH  24  25
ENDBRANCH  23  24
ENDBRANCH  22  23
ENDBRANCH  21  22
ENDBRANCH  20  21
ENDBRANCH  19  20
ENDBRANCH  18  19
ENDBRANCH  17  18
ENDBRANCH   1  17
TORSDOF 28
ENDMDL
MODEL 5
REMARK VINA RESULT:    -4.698      6.238     13.028
REMARK INTER + INTRA:         -14.280
REMARK INTER:                 -12.664
REMARK INTRA:                  -1.617
REMARK UNBOUND:                -2.030
REMARK SMILES CCCCCCCCCCCCCCCCCCCCCCCCCCCCCO
REMARK SMILES IDX 16 1 15 2 14 3 13 4 12 5 11 6 10 7 9 8 8 9 7 10 6 11 5 12
REMARK SMILES IDX 4 13 3 14 2 15 1 16 17 17 18 18 19 19 20 20 21 21 22 22
REMARK SMILES IDX 23 23 24 24 25 25 26 26 27 27 28 28 29 29 30 30
REMARK H PARENT 30 31
REMARK Flexibility Score: inf
ROOT
ATOM      1  C   UNL     1       8.396  -0.769 -10.247  1.00  0.00     0.000 C 
ENDROOT
BRANCH   1   2
ATOM      2  C   UNL     1       8.543   0.633  -9.620  1.00  0.00     0.000 C 
BRANCH   2   3
ATOM      3  C   UNL     1       9.230   1.679 -10.516  1.00  0.00     0.000 C 
BRANCH   3   4
ATOM      4  C   UNL     1       9.342   3.091  -9.907  1.00  0.00     0.000 C 
BRANCH   4   5
ATOM      5  C   UNL     1       8.290   3.394  -8.819  1.00  0.00     0.000 C 
BRANCH   5   6
ATOM      6  C   UNL     1       8.898   4.109  -7.597  1.00  0.00     0.000 C 
BRANCH   6   7
ATOM      7  C   UNL     1       9.476   5.488  -7.945  1.00  0.00     0.000 C 
BRANCH   7   8
ATOM      8  C   UNL     1       8.980   6.600  -7.003  1.00  0.00    -0.000 C 
BRANCH   8   9
ATOM      9  C   UNL     1       9.988   6.888  -5.876  1.00  0.00    -0.000 C 
BRANCH   9  10
ATOM     10  C   UNL     1       9.327   7.075  -4.494  1.00  0.00    -0.000 C 
BRANCH  10  11
ATOM     11  C   UNL     1       8.018   6.282  -4.297  1.00  0.00    -0.000 C 
BRANCH  11  12
ATOM     12  C   UNL     1       7.373   6.505  -2.913  1.00  0.00    -0.000 C 
BRANCH  12  13
ATOM     13  C   UNL     1       7.009   5.178  -2.215  1.00  0.00    -0.000 C 
BRANCH  13  14
ATOM     14  C   UNL     1       6.620   5.417  -0.747  1.00  0.00    -0.000 C 
BRANCH  14  15
ATOM     15  C   UNL     1       5.901   4.213  -0.115  1.00  0.00    -0.003 C 
ATOM     16  C   UNL     1       6.835   3.037   0.161  1.00  0.00     0.004 C 
ENDBRANCH  14  15
ENDBRANCH  13  14
ENDBRANCH  12  13
ENDBRANCH  11  12
ENDBRANCH  10  11
ENDBRANCH   9  10
ENDBRANCH   8   9
ENDBRANCH   7   8
ENDBRANCH   6   7
ENDBRANCH   5   6
ENDBRANCH   4   5
ENDBRANCH   3   4
ENDBRANCH   2   3
ENDBRANCH   1   2
BRANCH   1  17
ATOM     17  C   UNL     1       8.817  -1.919  -9.307  1.00  0.00     0.000 C 
BRANCH  17  18
ATOM     18  C   UNL     1      10.281  -2.341  -9.517  1.00  0.00     0.000 C 
BRANCH  18  19
ATOM     19  C   UNL     1      10.496  -3.842  -9.219  1.00  0.00     0.000 C 
BRANCH  19  20
ATOM     20  C   UNL     1       9.340  -4.482  -8.436  1.00  0.00     0.000 C 
BRANCH  20  21
ATOM     21  C   UNL     1       8.567  -5.516  -9.272  1.00  0.00     0.000 C 
BRANCH  21  22
ATOM     22  C   UNL     1       7.134  -5.734  -8.764  1.00  0.00     0.000 C 
BRANCH  22  23
ATOM     23  C   UNL     1       6.645  -4.612  -7.833  1.00  0.00     0.000 C 
BRANCH  23  24
ATOM     24  C   UNL     1       5.350  -5.026  -7.116  1.00  0.00     0.000 C 
BRANCH  24  25
ATOM     25  C   UNL     1       5.145  -6.548  -7.082  1.00  0.00     0.000 C 
BRANCH  25  26
ATOM     26  C   UNL     1       3.748  -6.971  -7.566  1.00  0.00     0.000 C 
BRANCH  26  27
ATOM     27  C   UNL     1       3.405  -8.414  -7.161  1.00  0.00     0.002 C 
BRANCH  27  28
ATOM     28  C   UNL     1       4.484  -9.045  -6.263  1.00  0.00     0.028 C 
BRANCH  28  29
ATOM     29  C   UNL     1       3.897  -9.569  -4.949  1.00  0.00     0.156 C 
BRANCH  29  30
ATOM     30  O   UNL     1       4.065  -8.627  -3.923  1.00  0.00    -0.396 OA
ATOM     31  H   UNL     1       3.176  -8.503  -3.497  1.00  0.00     0.210 HD
ENDBRANCH  29  30
ENDBRANCH  28  29
ENDBRANCH  27  28
ENDBRANCH  26  27
ENDBRANCH  25  26
ENDBRANCH  24  25
ENDBRANCH  23  24
ENDBRANCH  22  23
ENDBRANCH  21  22
ENDBRANCH  20  21
ENDBRANCH  19  20
ENDBRANCH  18  19
ENDBRANCH  17  18
ENDBRANCH   1  17
TORSDOF 28
ENDMDL
MODEL 6
REMARK VINA RESULT:    -4.588      5.090      7.837
REMARK INTER + INTRA:         -13.995
REMARK INTER:                 -12.020
REMARK INTRA:                  -1.975
REMARK UNBOUND:                -2.030
REMARK SMILES CCCCCCCCCCCCCCCCCCCCCCCCCCCCCO
REMARK SMILES IDX 16 1 15 2 14 3 13 4 12 5 11 6 10 7 9 8 8 9 7 10 6 11 5 12
REMARK SMILES IDX 4 13 3 14 2 15 1 16 17 17 18 18 19 19 20 20 21 21 22 22
REMARK SMILES IDX 23 23 24 24 25 25 26 26 27 27 28 28 29 29 30 30
REMARK H PARENT 30 31
REMARK Flexibility Score: inf
ROOT
ATOM      1  C   UNL     1       8.264   7.220  -5.177  1.00  0.00     0.000 C 
ENDROOT
BRANCH   1   2
ATOM      2  C   UNL     1       9.097   6.009  -5.646  1.00  0.00     0.000 C 
BRANCH   2   3
ATOM      3  C   UNL     1       9.032   5.719  -7.156  1.00  0.00     0.000 C 
BRANCH   3   4
ATOM      4  C   UNL     1       9.041   4.226  -7.538  1.00  0.00     0.000 C 
BRANCH   4   5
ATOM      5  C   UNL     1       8.722   3.952  -9.024  1.00  0.00     0.000 C 
BRANCH   5   6
ATOM      6  C   UNL     1       8.610   2.447  -9.332  1.00  0.00     0.000 C 
BRANCH   6   7
ATOM      7  C   UNL     1       9.489   2.018 -10.515  1.00  0.00     0.000 C 
BRANCH   7   8
ATOM      8  C   UNL     1      10.812   1.366 -10.072  1.00  0.00    -0.000 C 
BRANCH   8   9
ATOM      9  C   UNL     1      10.884  -0.117 -10.475  1.00  0.00    -0.000 C 
BRANCH   9  10
ATOM     10  C   UNL     1      10.298  -1.071  -9.413  1.00  0.00    -0.000 C 
BRANCH  10  11
ATOM     11  C   UNL     1       9.346  -2.148  -9.973  1.00  0.00    -0.000 C 
BRANCH  11  12
ATOM     12  C   UNL     1       8.228  -2.546  -8.987  1.00  0.00    -0.000 C 
BRANCH  12  13
ATOM     13  C   UNL     1       8.516  -3.889  -8.284  1.00  0.00    -0.000 C 
BRANCH  13  14
ATOM     14  C   UNL     1       7.885  -5.061  -9.055  1.00  0.00    -0.000 C 
BRANCH  14  15
ATOM     15  C   UNL     1       6.352  -5.097  -8.939  1.00  0.00    -0.003 C 
ATOM     16  C   UNL     1       5.866  -5.747  -7.646  1.00  0.00     0.004 C 
ENDBRANCH  14  15
ENDBRANCH  13  14
ENDBRANCH  12  13
ENDBRANCH  11  12
ENDBRANCH  10  11
ENDBRANCH   9  10
ENDBRANCH   8   9
ENDBRANCH   7   8
ENDBRANCH   6   7
ENDBRANCH   5   6
ENDBRANCH   4   5
ENDBRANCH   3   4
ENDBRANCH   2   3
ENDBRANCH   1   2
BRANCH   1  17
ATOM     17  C   UNL     1       8.610   8.534  -5.910  1.00  0.00     0.000 C 
BRANCH  17  18
ATOM     18  C   UNL     1       9.049   9.647  -4.944  1.00  0.00     0.000 C 
BRANCH  18  19
ATOM     19  C   UNL     1       9.503   9.082  -3.579  1.00  0.00     0.000 C 
BRANCH  19  20
ATOM     20  C   UNL     1       8.712   9.647  -2.390  1.00  0.00     0.000 C 
BRANCH  20  21
ATOM     21  C   UNL     1       7.229   9.873  -2.726  1.00  0.00     0.000 C 
BRANCH  21  22
ATOM     22  C   UNL     1       6.296   9.493  -1.566  1.00  0.00     0.000 C 
BRANCH  22  23
ATOM     23  C   UNL     1       6.832   8.331  -0.714  1.00  0.00     0.000 C 
BRANCH  23  24
ATOM     24  C   UNL     1       6.249   6.992  -1.194  1.00  0.00     0.000 C 
BRANCH  24  25
ATOM     25  C   UNL     1       7.200   6.221  -2.122  1.00  0.00     0.000 C 
BRANCH  25  26
ATOM     26  C   UNL     1       6.631   4.863  -2.562  1.00  0.00     0.000 C 
BRANCH  26  27
ATOM     27  C   UNL     1       6.912   3.755  -1.534  1.00  0.00     0.002 C 
BRANCH  27  28
ATOM     28  C   UNL     1       5.925   3.782  -0.354  1.00  0.00     0.028 C 
BRANCH  28  29
ATOM     29  C   UNL     1       6.635   3.588   0.989  1.00  0.00     0.156 C 
BRANCH  29  30
ATOM     30  O   UNL     1       6.834   4.822   1.624  1.00  0.00    -0.396 OA
ATOM     31  H   UNL     1       6.448   4.744   2.536  1.00  0.00     0.210 HD
ENDBRANCH  29  30
ENDBRANCH  28  29
ENDBRANCH  27  28
ENDBRANCH  26  27
ENDBRANCH  25  26
ENDBRANCH  24  25
ENDBRANCH  23  24
ENDBRANCH  22  23
ENDBRANCH  21  22
ENDBRANCH  20  21
ENDBRANCH  19  20
ENDBRANCH  18  19
ENDBRANCH  17  18
ENDBRANCH   1  17
TORSDOF 28
ENDMDL
MODEL 7
REMARK VINA RESULT:    -4.572      3.605     10.137
REMARK INTER + INTRA:         -13.954
REMARK INTER:                 -11.010
REMARK INTRA:                  -2.944
REMARK UNBOUND:                -2.030
REMARK SMILES CCCCCCCCCCCCCCCCCCCCCCCCCCCCCO
REMARK SMILES IDX 16 1 15 2 14 3 13 4 12 5 11 6 10 7 9 8 8 9 7 10 6 11 5 12
REMARK SMILES IDX 4 13 3 14 2 15 1 16 17 17 18 18 19 19 20 20 21 21 22 22
REMARK SMILES IDX 23 23 24 24 25 25 26 26 27 27 28 28 29 29 30 30
REMARK H PARENT 30 31
REMARK Flexibility Score: inf
ROOT
ATOM      1  C   UNL     1       8.120   8.079  -4.143  1.00  0.00     0.000 C 
ENDROOT
BRANCH   1   2
ATOM      2  C   UNL     1       8.401   6.594  -3.833  1.00  0.00     0.000 C 
BRANCH   2   3
ATOM      3  C   UNL     1       7.280   5.621  -4.241  1.00  0.00     0.000 C 
BRANCH   3   4
ATOM      4  C   UNL     1       6.607   4.871  -3.075  1.00  0.00     0.000 C 
BRANCH   4   5
ATOM      5  C   UNL     1       7.408   4.906  -1.755  1.00  0.00     0.000 C 
BRANCH   5   6
ATOM      6  C   UNL     1       6.609   5.537  -0.599  1.00  0.00     0.000 C 
BRANCH   6   7
ATOM      7  C   UNL     1       5.983   6.886  -0.980  1.00  0.00     0.000 C 
BRANCH   7   8
ATOM      8  C   UNL     1       6.876   8.086  -0.613  1.00  0.00    -0.000 C 
BRANCH   8   9
ATOM      9  C   UNL     1       6.331   9.404  -1.192  1.00  0.00    -0.000 C 
BRANCH   9  10
ATOM     10  C   UNL     1       4.933   9.777  -0.659  1.00  0.00    -0.000 C 
BRANCH  10  11
ATOM     11  C   UNL     1       3.827   9.819  -1.735  1.00  0.00    -0.000 C 
BRANCH  11  12
ATOM     12  C   UNL     1       2.549   9.058  -1.325  1.00  0.00    -0.000 C 
BRANCH  12  13
ATOM     13  C   UNL     1       1.326   9.464  -2.174  1.00  0.00    -0.000 C 
BRANCH  13  14
ATOM     14  C   UNL     1       1.707   9.601  -3.657  1.00  0.00    -0.000 C 
BRANCH  14  15
ATOM     15  C   UNL     1       0.486   9.788  -4.574  1.00  0.00    -0.003 C 
ATOM     16  C   UNL     1      -0.625   8.776  -4.304  1.00  0.00     0.004 C 
ENDBRANCH  14  15
ENDBRANCH  13  14
ENDBRANCH  12  13
ENDBRANCH  11  12
ENDBRANCH  10  11
ENDBRANCH   9  10
ENDBRANCH   8   9
ENDBRANCH   7   8
ENDBRANCH   6   7
ENDBRANCH   5   6
ENDBRANCH   4   5
ENDBRANCH   3   4
ENDBRANCH   2   3
ENDBRANCH   1   2
BRANCH   1  17
ATOM     17  C   UNL     1       9.176   9.045  -3.563  1.00  0.00     0.000 C 
BRANCH  17  18
ATOM     18  C   UNL     1       9.922   9.826  -4.659  1.00  0.00     0.000 C 
BRANCH  18  19
ATOM     19  C   UNL     1       9.088   9.940  -5.955  1.00  0.00     0.000 C 
BRANCH  19  20
ATOM     20  C   UNL     1       9.871   9.565  -7.221  1.00  0.00     0.000 C 
BRANCH  20  21
ATOM     21  C   UNL     1      10.939   8.491  -6.954  1.00  0.00     0.000 C 
BRANCH  21  22
ATOM     22  C   UNL     1      10.354   7.070  -6.933  1.00  0.00     0.000 C 
BRANCH  22  23
ATOM     23  C   UNL     1       9.167   6.890  -7.893  1.00  0.00     0.000 C 
BRANCH  23  24
ATOM     24  C   UNL     1       9.624   7.024  -9.353  1.00  0.00     0.000 C 
BRANCH  24  25
ATOM     25  C   UNL     1       9.482   5.717 -10.149  1.00  0.00     0.000 C 
BRANCH  25  26
ATOM     26  C   UNL     1       8.774   4.610  -9.352  1.00  0.00     0.000 C 
BRANCH  26  27
ATOM     27  C   UNL     1       9.094   3.208  -9.897  1.00  0.00     0.002 C 
BRANCH  27  28
ATOM     28  C   UNL     1       8.134   2.134  -9.355  1.00  0.00     0.028 C 
BRANCH  28  29
ATOM     29  C   UNL     1       8.521   0.731  -9.831  1.00  0.00     0.156 C 
BRANCH  29  30
ATOM     30  O   UNL     1       9.145   0.014  -8.800  1.00  0.00    -0.396 OA
ATOM     31  H   UNL     1       8.605   0.159  -7.978  1.00  0.00     0.210 HD
ENDBRANCH  29  30
ENDBRANCH  28  29
ENDBRANCH  27  28
ENDBRANCH  26  27
ENDBRANCH  25  26
ENDBRANCH  24  25
ENDBRANCH  23  24
ENDBRANCH  22  23
ENDBRANCH  21  22
ENDBRANCH  20  21
ENDBRANCH  19  20
ENDBRANCH  18  19
ENDBRANCH  17  18
ENDBRANCH   1  17
TORSDOF 28
ENDMDL
MODEL 8
REMARK VINA RESULT:    -4.533      6.053     13.090
REMARK INTER + INTRA:         -13.852
REMARK INTER:                 -11.477
REMARK INTRA:                  -2.375
REMARK UNBOUND:                -2.030
REMARK SMILES CCCCCCCCCCCCCCCCCCCCCCCCCCCCCO
REMARK SMILES IDX 16 1 15 2 14 3 13 4 12 5 11 6 10 7 9 8 8 9 7 10 6 11 5 12
REMARK SMILES IDX 4 13 3 14 2 15 1 16 17 17 18 18 19 19 20 20 21 21 22 22
REMARK SMILES IDX 23 23 24 24 25 25 26 26 27 27 28 28 29 29 30 30
REMARK H PARENT 30 31
REMARK Flexibility Score: inf
ROOT
ATOM      1  C   UNL     1       8.042  -1.751 -10.244  1.00  0.00     0.000 C 
ENDROOT
BRANCH   1   2
ATOM      2  C   UNL     1       8.519  -0.284 -10.255  1.00  0.00     0.000 C 
BRANCH   2   3
ATOM      3  C   UNL     1      10.046  -0.095 -10.275  1.00  0.00     0.000 C 
BRANCH   3   4
ATOM      4  C   UNL     1      10.526   1.370 -10.272  1.00  0.00     0.000 C 
BRANCH   4   5
ATOM      5  C   UNL     1       9.508   2.369 -10.864  1.00  0.00     0.000 C 
BRANCH   5   6
ATOM      6  C   UNL     1       9.153   3.498  -9.879  1.00  0.00     0.000 C 
BRANCH   6   7
ATOM      7  C   UNL     1       8.618   2.970  -8.541  1.00  0.00     0.000 C 
BRANCH   7   8
ATOM      8  C   UNL     1       8.774   3.982  -7.391  1.00  0.00    -0.000 C 
BRANCH   8   9
ATOM      9  C   UNL     1       9.160   5.380  -7.907  1.00  0.00    -0.000 C 
BRANCH   9  10
ATOM     10  C   UNL     1       9.237   6.445  -6.795  1.00  0.00    -0.000 C 
BRANCH  10  11
ATOM     11  C   UNL     1       8.368   6.143  -5.556  1.00  0.00    -0.000 C 
BRANCH  11  12
ATOM     12  C   UNL     1       8.828   6.896  -4.290  1.00  0.00    -0.000 C 
BRANCH  12  13
ATOM     13  C   UNL     1       7.662   7.181  -3.320  1.00  0.00    -0.000 C 
BRANCH  13  14
ATOM     14  C   UNL     1       7.117   5.877  -2.715  1.00  0.00    -0.000 C 
BRANCH  14  15
ATOM     15  C   UNL     1       6.634   6.046  -1.265  1.00  0.00    -0.003 C 
ATOM     16  C   UNL     1       6.240   4.724  -0.609  1.00  0.00     0.004 C 
ENDBRANCH  14  15
ENDBRANCH  13  14
ENDBRANCH  12  13
ENDBRANCH  11  12
ENDBRANCH  10  11
ENDBRANCH   9  10
ENDBRANCH   8   9
ENDBRANCH   7   8
ENDBRANCH   6   7
ENDBRANCH   5   6
ENDBRANCH   4   5
ENDBRANCH   3   4
ENDBRANCH   2   3
ENDBRANCH   1   2
BRANCH   1  17
ATOM     17  C   UNL     1       8.380  -2.504  -8.939  1.00  0.00     0.000 C 
BRANCH  17  18
ATOM     18  C   UNL     1       8.515  -4.021  -9.155  1.00  0.00     0.000 C 
BRANCH  18  19
ATOM     19  C   UNL     1       8.480  -4.396 -10.654  1.00  0.00     0.000 C 
BRANCH  19  20
ATOM     20  C   UNL     1       7.110  -4.905 -11.125  1.00  0.00     0.000 C 
BRANCH  20  21
ATOM     21  C   UNL     1       6.794  -6.313 -10.595  1.00  0.00     0.000 C 
BRANCH  21  22
ATOM     22  C   UNL     1       5.690  -6.308  -9.526  1.00  0.00     0.000 C 
BRANCH  22  23
ATOM     23  C   UNL     1       5.048  -4.926  -9.327  1.00  0.00     0.000 C 
BRANCH  23  24
ATOM     24  C   UNL     1       4.792  -4.656  -7.836  1.00  0.00     0.000 C 
BRANCH  24  25
ATOM     25  C   UNL     1       5.601  -5.578  -6.911  1.00  0.00     0.000 C 
BRANCH  25  26
ATOM     26  C   UNL     1       4.811  -6.016  -5.668  1.00  0.00     0.000 C 
BRANCH  26  27
ATOM     27  C   UNL     1       4.823  -7.542  -5.480  1.00  0.00     0.002 C 
BRANCH  27  28
ATOM     28  C   UNL     1       4.416  -8.296  -6.758  1.00  0.00     0.028 C 
BRANCH  28  29
ATOM     29  C   UNL     1       2.895  -8.337  -6.936  1.00  0.00     0.156 C 
BRANCH  29  30
ATOM     30  O   UNL     1       2.513  -7.638  -8.090  1.00  0.00    -0.396 OA
ATOM     31  H   UNL     1       1.975  -6.858  -7.791  1.00  0.00     0.210 HD
ENDBRANCH  29  30
ENDBRANCH  28  29
ENDBRANCH  27  28
ENDBRANCH  26  27
ENDBRANCH  25  26
ENDBRANCH  24  25
ENDBRANCH  23  24
ENDBRANCH  22  23
ENDBRANCH  21  22
ENDBRANCH  20  21
ENDBRANCH  19  20
ENDBRANCH  18  19
ENDBRANCH  17  18
ENDBRANCH   1  17
TORSDOF 28
ENDMDL
MODEL 9
REMARK VINA RESULT:    -4.474      6.194     11.616
REMARK INTER + INTRA:         -13.698
REMARK INTER:                 -12.212
REMARK INTRA:                  -1.486
REMARK UNBOUND:                -2.030
REMARK SMILES CCCCCCCCCCCCCCCCCCCCCCCCCCCCCO
REMARK SMILES IDX 16 1 15 2 14 3 13 4 12 5 11 6 10 7 9 8 8 9 7 10 6 11 5 12
REMARK SMILES IDX 4 13 3 14 2 15 1 16 17 17 18 18 19 19 20 20 21 21 22 22
REMARK SMILES IDX 23 23 24 24 25 25 26 26 27 27 28 28 29 29 30 30
REMARK H PARENT 30 31
REMARK Flexibility Score: inf
ROOT
ATOM      1  C   UNL     1       8.117  -1.918  -9.816  1.00  0.00     0.000 C 
ENDROOT
BRANCH   1   2
ATOM      2  C   UNL     1       8.558  -0.487 -10.186  1.00  0.00     0.000 C 
BRANCH   2   3
ATOM      3  C   UNL     1      10.079  -0.250 -10.174  1.00  0.00     0.000 C 
BRANCH   3   4
ATOM      4  C   UNL     1      10.518   1.202 -10.443  1.00  0.00     0.000 C 
BRANCH   4   5
ATOM      5  C   UNL     1       9.396   2.110 -10.993  1.00  0.00     0.000 C 
BRANCH   5   6
ATOM      6  C   UNL     1       9.189   3.372 -10.136  1.00  0.00     0.000 C 
BRANCH   6   7
ATOM      7  C   UNL     1       8.670   3.053  -8.727  1.00  0.00     0.000 C 
BRANCH   7   8
ATOM      8  C   UNL     1       8.876   4.213  -7.735  1.00  0.00    -0.000 C 
BRANCH   8   9
ATOM      9  C   UNL     1       9.265   5.518  -8.453  1.00  0.00    -0.000 C 
BRANCH   9  10
ATOM     10  C   UNL     1       9.642   6.660  -7.487  1.00  0.00    -0.000 C 
BRANCH  10  11
ATOM     11  C   UNL     1       8.693   6.819  -6.281  1.00  0.00    -0.000 C 
BRANCH  11  12
ATOM     12  C   UNL     1       9.436   6.993  -4.940  1.00  0.00    -0.000 C 
BRANCH  12  13
ATOM     13  C   UNL     1       8.469   7.130  -3.745  1.00  0.00    -0.000 C 
BRANCH  13  14
ATOM     14  C   UNL     1       7.346   6.083  -3.823  1.00  0.00    -0.000 C 
BRANCH  14  15
ATOM     15  C   UNL     1       7.164   5.302  -2.511  1.00  0.00    -0.003 C 
ATOM     16  C   UNL     1       6.374   4.008  -2.691  1.00  0.00     0.004 C 
ENDBRANCH  14  15
ENDBRANCH  13  14
ENDBRANCH  12  13
ENDBRANCH  11  12
ENDBRANCH  10  11
ENDBRANCH   9  10
ENDBRANCH   8   9
ENDBRANCH   7   8
ENDBRANCH   6   7
ENDBRANCH   5   6
ENDBRANCH   4   5
ENDBRANCH   3   4
ENDBRANCH   2   3
ENDBRANCH   1   2
BRANCH   1  17
ATOM     17  C   UNL     1       8.818  -2.480  -8.560  1.00  0.00     0.000 C 
BRANCH  17  18
ATOM     18  C   UNL     1       7.911  -3.424  -7.754  1.00  0.00     0.000 C 
BRANCH  18  19
ATOM     19  C   UNL     1       7.491  -4.663  -8.576  1.00  0.00     0.000 C 
BRANCH  19  20
ATOM     20  C   UNL     1       6.198  -5.322  -8.072  1.00  0.00     0.000 C 
BRANCH  20  21
ATOM     21  C   UNL     1       4.948  -4.491  -8.406  1.00  0.00     0.000 C 
BRANCH  21  22
ATOM     22  C   UNL     1       3.755  -5.363  -8.827  1.00  0.00     0.000 C 
BRANCH  22  23
ATOM     23  C   UNL     1       2.973  -4.785 -10.018  1.00  0.00     0.000 C 
BRANCH  23  24
ATOM     24  C   UNL     1       2.028  -3.665  -9.555  1.00  0.00     0.000 C 
BRANCH  24  25
ATOM     25  C   UNL     1       0.551  -4.089  -9.554  1.00  0.00     0.000 C 
BRANCH  25  26
ATOM     26  C   UNL     1      -0.350  -3.104  -8.792  1.00  0.00     0.000 C 
BRANCH  26  27
ATOM     27  C   UNL     1      -1.812  -3.577  -8.738  1.00  0.00     0.002 C 
BRANCH  27  28
ATOM     28  C   UNL     1      -1.945  -5.016  -8.208  1.00  0.00     0.028 C 
BRANCH  28  29
ATOM     29  C   UNL     1      -3.384  -5.530  -8.308  1.00  0.00     0.156 C 
BRANCH  29  30
ATOM     30  O   UNL     1      -4.240  -4.763  -7.504  1.00  0.00    -0.396 OA
ATOM     31  H   UNL     1      -5.168  -5.052  -7.709  1.00  0.00     0.210 HD
ENDBRANCH  29  30
ENDBRANCH  28  29
ENDBRANCH  27  28
ENDBRANCH  26  27
ENDBRANCH  25  26
ENDBRANCH  24  25
ENDBRANCH  23  24
ENDBRANCH  22  23
ENDBRANCH  21  22
ENDBRANCH  20  21
ENDBRANCH  19  20
ENDBRANCH  18  19
ENDBRANCH  17  18
ENDBRANCH   1  17
TORSDOF 28
ENDMDL
