MODEL 1
REMARK VINA RESULT:    -4.198      0.000      0.000
REMARK INTER + INTRA:          -5.763
REMARK INTER:                  -5.426
REMARK INTRA:                  -0.337
REMARK UNBOUND:                -0.337
REMARK SMILES CCCCCCC(=O)[O-]
REMARK SMILES IDX 5 1 6 2 7 3 8 4 9 5 4 6 3 7 2 8 1 9
REMARK H PARENT
REMARK Flexibility Score: inf
ROOT
ATOM      1  C   UNL     1      -7.502  -4.897 -14.065  1.00  0.00     0.006 C 
ENDROOT
BRANCH   1   2
ATOM      2  C   UNL     1      -6.310  -4.059 -13.575  1.00  0.00     0.053 C 
BRANCH   2   3
ATOM      3  C   UNL     1      -6.608  -3.361 -12.283  1.00  0.00     0.041 C 
ATOM      4  O   UNL     1      -6.440  -3.958 -11.188  1.00  0.00    -0.550 OA
ATOM      5  O   UNL     1      -7.101  -2.061 -12.292  1.00  0.00    -0.550 OA
ENDBRANCH   2   3
ENDBRANCH   1   2
BRANCH   1   6
ATOM      6  C   UNL     1      -7.181  -6.385 -14.298  1.00  0.00     0.000 C 
BRANCH   6   7
ATOM      7  C   UNL     1      -6.323  -6.991 -13.174  1.00  0.00    -0.000 C 
BRANCH   7   8
ATOM      8  C   UNL     1      -7.123  -7.945 -12.272  1.00  0.00    -0.003 C 
ATOM      9  C   UNL     1      -7.629  -7.271 -10.997  1.00  0.00     0.004 C 
ENDBRANCH   7   8
ENDBRANCH   6   7
ENDBRANCH   1   6
TORSDOF 5
ENDMDL
MODEL 2
REMARK VINA RESULT:    -4.185      0.298      1.118
REMARK INTER + INTRA:          -5.746
REMARK INTER:                  -5.430
REMARK INTRA:                  -0.316
REMARK UNBOUND:                -0.337
REMARK SMILES CCCCCCC(=O)[O-]
REMARK SMILES IDX 5 1 6 2 7 3 8 4 9 5 4 6 3 7 2 8 1 9
REMARK H PARENT
REMARK Flexibility Score: inf
ROOT
ATOM      1  C   UNL     1      -7.450  -4.843 -14.034  1.00  0.00     0.006 C 
ENDROOT
BRANCH   1   2
ATOM      2  C   UNL     1      -6.279  -4.016 -13.479  1.00  0.00     0.053 C 
BRANCH   2   3
ATOM      3  C   UNL     1      -6.655  -3.277 -12.231  1.00  0.00     0.041 C 
ATOM      4  O   UNL     1      -7.101  -2.102 -12.301  1.00  0.00    -0.550 OA
ATOM      5  O   UNL     1      -6.483  -3.876 -10.989  1.00  0.00    -0.550 OA
ENDBRANCH   2   3
ENDBRANCH   1   2
BRANCH   1   6
ATOM      6  C   UNL     1      -7.123  -6.329 -14.272  1.00  0.00     0.000 C 
BRANCH   6   7
ATOM      7  C   UNL     1      -6.590  -7.030 -13.010  1.00  0.00    -0.000 C 
BRANCH   7   8
ATOM      8  C   UNL     1      -7.717  -7.598 -12.133  1.00  0.00    -0.003 C 
ATOM      9  C   UNL     1      -7.631  -7.132 -10.680  1.00  0.00     0.004 C 
ENDBRANCH   7   8
ENDBRANCH   6   7
ENDBRANCH   1   6
TORSDOF 5
ENDMDL
MODEL 3
REMARK VINA RESULT:    -4.148      0.885      1.724
REMARK INTER + INTRA:          -5.698
REMARK INTER:                  -5.354
REMARK INTRA:                  -0.344
REMARK UNBOUND:                -0.337
REMARK SMILES CCCCCCC(=O)[O-]
REMARK SMILES IDX 5 1 6 2 7 3 8 4 9 5 4 6 3 7 2 8 1 9
REMARK H PARENT
REMARK Flexibility Score: inf
ROOT
ATOM      1  C   UNL     1      -6.283  -5.850 -13.239  1.00  0.00     0.006 C 
ENDROOT
BRANCH   1   2
ATOM      2  C   UNL     1      -6.628  -4.413 -13.662  1.00  0.00     0.053 C 
BRANCH   2   3
ATOM      3  C   UNL     1      -6.738  -3.492 -12.485  1.00  0.00     0.041 C 
ATOM      4  O   UNL     1      -7.112  -2.301 -12.646  1.00  0.00    -0.550 OA
ATOM      5  O   UNL     1      -6.396  -3.942 -11.216  1.00  0.00    -0.550 OA
ENDBRANCH   2   3
ENDBRANCH   1   2
BRANCH   1   6
ATOM      6  C   UNL     1      -7.506  -6.740 -12.949  1.00  0.00     0.000 C 
BRANCH   6   7
ATOM      7  C   UNL     1      -7.268  -7.717 -11.785  1.00  0.00    -0.000 C 
BRANCH   7   8
ATOM      8  C   UNL     1      -7.809  -7.183 -10.449  1.00  0.00    -0.003 C 
ATOM      9  C   UNL     1      -9.001  -6.242 -10.625  1.00  0.00     0.004 C 
ENDBRANCH   7   8
ENDBRANCH   6   7
ENDBRANCH   1   6
TORSDOF 5
ENDMDL
MODEL 4
REMARK VINA RESULT:    -3.879      1.262      2.767
REMARK INTER + INTRA:          -5.350
REMARK INTER:                  -5.018
REMARK INTRA:                  -0.332
REMARK UNBOUND:                -0.337
REMARK SMILES CCCCCCC(=O)[O-]
REMARK SMILES IDX 5 1 6 2 7 3 8 4 9 5 4 6 3 7 2 8 1 9
REMARK H PARENT
REMARK Flexibility Score: inf
ROOT
ATOM      1  C   UNL     1      -7.465  -6.915 -10.535  1.00  0.00     0.006 C 
ENDROOT
BRANCH   1   2
ATOM      2  C   UNL     1      -7.946  -5.467 -10.723  1.00  0.00     0.053 C 
BRANCH   2   3
ATOM      3  C   UNL     1      -6.833  -4.479 -10.556  1.00  0.00     0.041 C 
ATOM      4  O   UNL     1      -6.188  -4.428  -9.476  1.00  0.00    -0.550 OA
ATOM      5  O   UNL     1      -6.530  -3.593 -11.582  1.00  0.00    -0.550 OA
ENDBRANCH   2   3
ENDBRANCH   1   2
BRANCH   1   6
ATOM      6  C   UNL     1      -7.694  -7.826 -11.755  1.00  0.00     0.000 C 
BRANCH   6   7
ATOM      7  C   UNL     1      -6.649  -7.608 -12.863  1.00  0.00    -0.000 C 
BRANCH   7   8
ATOM      8  C   UNL     1      -7.272  -7.067 -14.160  1.00  0.00    -0.003 C 
ATOM      9  C   UNL     1      -6.893  -5.613 -14.439  1.00  0.00     0.004 C 
ENDBRANCH   7   8
ENDBRANCH   6   7
ENDBRANCH   1   6
TORSDOF 5
ENDMDL
MODEL 5
REMARK VINA RESULT:    -3.839      1.392      2.522
REMARK INTER + INTRA:          -5.298
REMARK INTER:                  -4.962
REMARK INTRA:                  -0.336
REMARK UNBOUND:                -0.337
REMARK SMILES CCCCCCC(=O)[O-]
REMARK SMILES IDX 5 1 6 2 7 3 8 4 9 5 4 6 3 7 2 8 1 9
REMARK H PARENT
REMARK Flexibility Score: inf
ROOT
ATOM      1  C   UNL     1      -8.048  -5.562 -10.686  1.00  0.00     0.006 C 
ENDROOT
BRANCH   1   2
ATOM      2  C   UNL     1      -6.947  -4.501 -10.520  1.00  0.00     0.053 C 
BRANCH   2   3
ATOM      3  C   UNL     1      -6.553  -3.891 -11.830  1.00  0.00     0.041 C 
ATOM      4  O   UNL     1      -5.915  -4.569 -12.678  1.00  0.00    -0.550 OA
ATOM      5  O   UNL     1      -6.864  -2.564 -12.102  1.00  0.00    -0.550 OA
ENDBRANCH   2   3
ENDBRANCH   1   2
BRANCH   1   6
ATOM      6  C   UNL     1      -7.601  -6.999 -10.362  1.00  0.00     0.000 C 
BRANCH   6   7
ATOM      7  C   UNL     1      -7.941  -7.994 -11.486  1.00  0.00    -0.000 C 
BRANCH   7   8
ATOM      8  C   UNL     1      -6.884  -8.004 -12.602  1.00  0.00    -0.003 C 
ATOM      9  C   UNL     1      -7.431  -7.509 -13.941  1.00  0.00     0.004 C 
ENDBRANCH   7   8
ENDBRANCH   6   7
ENDBRANCH   1   6
TORSDOF 5
ENDMDL
MODEL 6
REMARK VINA RESULT:    -3.835      1.903      3.571
REMARK INTER + INTRA:          -5.294
REMARK INTER:                  -4.943
REMARK INTRA:                  -0.350
REMARK UNBOUND:                -0.337
REMARK SMILES CCCCCCC(=O)[O-]
REMARK SMILES IDX 5 1 6 2 7 3 8 4 9 5 4 6 3 7 2 8 1 9
REMARK H PARENT
REMARK Flexibility Score: inf
ROOT
ATOM      1  C   UNL     1      -6.273  -6.647 -13.228  1.00  0.00     0.006 C 
ENDROOT
BRANCH   1   2
ATOM      2  C   UNL     1      -7.143  -7.565 -12.353  1.00  0.00     0.053 C 
BRANCH   2   3
ATOM      3  C   UNL     1      -7.917  -6.795 -11.327  1.00  0.00     0.041 C 
ATOM      4  O   UNL     1      -7.365  -6.439 -10.253  1.00  0.00    -0.550 OA
ATOM      5  O   UNL     1      -9.257  -6.499 -11.545  1.00  0.00    -0.550 OA
ENDBRANCH   2   3
ENDBRANCH   1   2
BRANCH   1   6
ATOM      6  C   UNL     1      -7.029  -5.968 -14.385  1.00  0.00     0.000 C 
BRANCH   6   7
ATOM      7  C   UNL     1      -7.436  -4.520 -14.060  1.00  0.00    -0.000 C 
BRANCH   7   8
ATOM      8  C   UNL     1      -6.293  -3.718 -13.418  1.00  0.00    -0.003 C 
ATOM      9  C   UNL     1      -6.690  -3.082 -12.086  1.00  0.00     0.004 C 
ENDBRANCH   7   8
ENDBRANCH   6   7
ENDBRANCH   1   6
TORSDOF 5
ENDMDL
MODEL 7
REMARK VINA RESULT:    -3.804      2.132      3.264
REMARK INTER + INTRA:          -5.254
REMARK INTER:                  -4.913
REMARK INTRA:                  -0.340
REMARK UNBOUND:                -0.337
REMARK SMILES CCCCCCC(=O)[O-]
REMARK SMILES IDX 5 1 6 2 7 3 8 4 9 5 4 6 3 7 2 8 1 9
REMARK H PARENT
REMARK Flexibility Score: inf
ROOT
ATOM      1  C   UNL     1      -6.710  -7.557 -12.837  1.00  0.00     0.006 C 
ENDROOT
BRANCH   1   2
ATOM      2  C   UNL     1      -7.250  -7.214 -14.235  1.00  0.00     0.053 C 
BRANCH   2   3
ATOM      3  C   UNL     1      -7.624  -5.768 -14.353  1.00  0.00     0.041 C 
ATOM      4  O   UNL     1      -8.831  -5.419 -14.284  1.00  0.00    -0.550 OA
ATOM      5  O   UNL     1      -6.641  -4.811 -14.573  1.00  0.00    -0.550 OA
ENDBRANCH   2   3
ENDBRANCH   1   2
BRANCH   1   6
ATOM      6  C   UNL     1      -7.790  -7.970 -11.820  1.00  0.00     0.000 C 
BRANCH   6   7
ATOM      7  C   UNL     1      -7.658  -7.228 -10.479  1.00  0.00    -0.000 C 
BRANCH   7   8
ATOM      8  C   UNL     1      -8.146  -5.773 -10.561  1.00  0.00    -0.003 C 
ATOM      9  C   UNL     1      -7.018  -4.757 -10.377  1.00  0.00     0.004 C 
ENDBRANCH   7   8
ENDBRANCH   6   7
ENDBRANCH   1   6
TORSDOF 5
ENDMDL
MODEL 8
REMARK VINA RESULT:    -3.788      2.129      2.943
REMARK INTER + INTRA:          -5.232
REMARK INTER:                  -4.774
REMARK INTRA:                  -0.458
REMARK UNBOUND:                -0.337
REMARK SMILES CCCCCCC(=O)[O-]
REMARK SMILES IDX 5 1 6 2 7 3 8 4 9 5 4 6 3 7 2 8 1 9
REMARK H PARENT
REMARK Flexibility Score: inf
ROOT
ATOM      1  C   UNL     1      -6.995  -4.134 -11.725  1.00  0.00     0.006 C 
ENDROOT
BRANCH   1   2
ATOM      2  C   UNL     1      -6.268  -4.418 -13.049  1.00  0.00     0.053 C 
BRANCH   2   3
ATOM      3  C   UNL     1      -7.191  -4.977 -14.088  1.00  0.00     0.041 C 
ATOM      4  O   UNL     1      -8.431  -4.771 -14.011  1.00  0.00    -0.550 OA
ATOM      5  O   UNL     1      -6.686  -5.752 -15.125  1.00  0.00    -0.550 OA
ENDBRANCH   2   3
ENDBRANCH   1   2
BRANCH   1   6
ATOM      6  C   UNL     1      -7.030  -5.324 -10.749  1.00  0.00     0.000 C 
BRANCH   6   7
ATOM      7  C   UNL     1      -8.438  -5.926 -10.595  1.00  0.00    -0.000 C 
BRANCH   7   8
ATOM      8  C   UNL     1      -8.638  -7.182 -11.457  1.00  0.00    -0.003 C 
ATOM      9  C   UNL     1      -7.329  -7.917 -11.749  1.00  0.00     0.004 C 
ENDBRANCH   7   8
ENDBRANCH   6   7
ENDBRANCH   1   6
TORSDOF 5
ENDMDL
MODEL 9
REMARK VINA RESULT:    -3.783      2.277      3.207
REMARK INTER + INTRA:          -5.226
REMARK INTER:                  -4.991
REMARK INTRA:                  -0.236
REMARK UNBOUND:                -0.337
REMARK SMILES CCCCCCC(=O)[O-]
REMARK SMILES IDX 5 1 6 2 7 3 8 4 9 5 4 6 3 7 2 8 1 9
REMARK H PARENT
REMARK Flexibility Score: inf
ROOT
ATOM      1  C   UNL     1      -7.281  -5.435 -11.124  1.00  0.00     0.006 C 
ENDROOT
BRANCH   1   2
ATOM      2  C   UNL     1      -7.742  -5.364 -12.589  1.00  0.00     0.053 C 
BRANCH   2   3
ATOM      3  C   UNL     1      -6.710  -4.730 -13.472  1.00  0.00     0.041 C 
ATOM      4  O   UNL     1      -6.707  -4.963 -14.709  1.00  0.00    -0.550 OA
ATOM      5  O   UNL     1      -5.734  -3.909 -12.922  1.00  0.00    -0.550 OA
ENDBRANCH   2   3
ENDBRANCH   1   2
BRANCH   1   6
ATOM      6  C   UNL     1      -7.670  -6.736 -10.397  1.00  0.00     0.000 C 
BRANCH   6   7
ATOM      7  C   UNL     1      -9.005  -7.318 -10.894  1.00  0.00    -0.000 C 
BRANCH   7   8
ATOM      8  C   UNL     1     -10.080  -7.345  -9.795  1.00  0.00    -0.003 C 
ATOM      9  C   UNL     1     -10.640  -5.958  -9.479  1.00  0.00     0.004 C 
ENDBRANCH   7   8
ENDBRANCH   6   7
ENDBRANCH   1   6
TORSDOF 5
ENDMDL
