MODEL 1
REMARK VINA RESULT:    -4.776      0.000      0.000
REMARK INTER + INTRA:          -5.995
REMARK INTER:                  -5.753
REMARK INTRA:                  -0.243
REMARK UNBOUND:                -0.243
REMARK SMILES O=c1c(O)c(-c2ccc(O)c(O)c2)oc2cc(O)cc(O)c12
REMARK SMILES IDX 5 1 3 2 2 3 1 4 22 5 20 6 19 7 17 8 16 9 15 10 14 11 6 12
REMARK SMILES IDX 7 13 8 14 9 15 13 16 11 17 10 18 12 20 4 22 21 24 18 26
REMARK H PARENT 10 19 12 21 4 23 21 25 18 27
REMARK Flexibility Score: inf
ROOT
ATOM      1  C   UNL     1     119.406 105.648 122.367  1.00  0.00     0.180 A 
ATOM      2  C   UNL     1     120.003 104.747 121.468  1.00  0.00     0.208 A 
ATOM      3  C   UNL     1     121.342 104.942 121.096  1.00  0.00     0.238 A 
ATOM      4  O   UNL     1     121.892 104.091 120.351  1.00  0.00    -0.285 OA
ATOM      5  C   UNL     1     122.052 106.068 121.582  1.00  0.00     0.111 A 
ATOM      6  C   UNL     1     123.399 106.390 121.236  1.00  0.00     0.134 A 
ATOM      7  C   UNL     1     124.034 107.470 121.863  1.00  0.00     0.093 A 
ATOM      8  C   UNL     1     123.350 108.279 122.774  1.00  0.00     0.123 A 
ATOM      9  C   UNL     1     122.018 108.005 123.076  1.00  0.00     0.094 A 
ATOM     10  C   UNL     1     121.369 106.912 122.498  1.00  0.00     0.146 A 
ATOM     11  O   UNL     1     120.107 106.676 122.832  1.00  0.00    -0.452 OA
ENDROOT
BRANCH   1  12
ATOM     12  C   UNL     1     118.003 105.500 122.816  1.00  0.00     0.025 A 
ATOM     13  C   UNL     1     117.617 104.465 123.686  1.00  0.00     0.016 A 
ATOM     14  C   UNL     1     116.292 104.360 124.116  1.00  0.00     0.051 A 
ATOM     15  C   UNL     1     115.336 105.295 123.696  1.00  0.00     0.157 A 
ATOM     16  C   UNL     1     117.045 106.447 122.415  1.00  0.00     0.062 A 
ATOM     17  C   UNL     1     115.718 106.344 122.844  1.00  0.00     0.158 A 
BRANCH  15  18
ATOM     18  O   UNL     1     114.015 105.186 124.125  1.00  0.00    -0.504 OA
ATOM     19  H   UNL     1     113.775 104.719 124.992  1.00  0.00     0.293 HD
ENDBRANCH  15  18
BRANCH  17  20
ATOM     20  O   UNL     1     114.792 107.296 122.414  1.00  0.00    -0.504 OA
ATOM     21  H   UNL     1     114.560 108.111 122.970  1.00  0.00     0.293 HD
ENDBRANCH  17  20
ENDBRANCH   1  12
BRANCH   2  22
ATOM     22  O   UNL     1     119.262 103.687 120.940  1.00  0.00    -0.502 OA
ATOM     23  H   UNL     1     118.257 103.618 121.048  1.00  0.00     0.293 HD
ENDBRANCH   2  22
BRANCH   6  24
ATOM     24  O   UNL     1     124.147 105.704 120.275  1.00  0.00    -0.507 OA
ATOM     25  H   UNL     1     124.012 105.778 119.278  1.00  0.00     0.293 HD
ENDBRANCH   6  24
BRANCH   8  26
ATOM     26  O   UNL     1     123.984 109.362 123.379  1.00  0.00    -0.508 OA
ATOM     27  H   UNL     1     123.466 110.182 123.674  1.00  0.00     0.293 HD
ENDBRANCH   8  26
TORSDOF 6
ENDMDL
MODEL 2
REMARK VINA RESULT:    -4.564      1.887      6.823
REMARK INTER + INTRA:          -5.741
REMARK INTER:                  -5.520
REMARK INTRA:                  -0.221
REMARK UNBOUND:                -0.243
REMARK SMILES O=c1c(O)c(-c2ccc(O)c(O)c2)oc2cc(O)cc(O)c12
REMARK SMILES IDX 5 1 3 2 2 3 1 4 22 5 20 6 19 7 17 8 16 9 15 10 14 11 6 12
REMARK SMILES IDX 7 13 8 14 9 15 13 16 11 17 10 18 12 20 4 22 21 24 18 26
REMARK H PARENT 10 19 12 21 4 23 21 25 18 27
REMARK Flexibility Score: inf
ROOT
ATOM      1  C   UNL     1     118.884 106.293 122.311  1.00  0.00     0.180 A 
ATOM      2  C   UNL     1     119.105 104.909 122.193  1.00  0.00     0.208 A 
ATOM      3  C   UNL     1     118.040 104.027 122.432  1.00  0.00     0.238 A 
ATOM      4  O   UNL     1     118.225 102.795 122.252  1.00  0.00    -0.285 OA
ATOM      5  C   UNL     1     116.782 104.534 122.843  1.00  0.00     0.111 A 
ATOM      6  C   UNL     1     115.645 103.729 123.156  1.00  0.00     0.134 A 
ATOM      7  C   UNL     1     114.421 104.345 123.447  1.00  0.00     0.093 A 
ATOM      8  C   UNL     1     114.310 105.737 123.499  1.00  0.00     0.123 A 
ATOM      9  C   UNL     1     115.428 106.529 123.249  1.00  0.00     0.094 A 
ATOM     10  C   UNL     1     116.652 105.946 122.918  1.00  0.00     0.146 A 
ATOM     11  O   UNL     1     117.685 106.740 122.665  1.00  0.00    -0.452 OA
ENDROOT
BRANCH   1  12
ATOM     12  C   UNL     1     119.953 107.285 122.061  1.00  0.00     0.025 A 
ATOM     13  C   UNL     1     119.916 108.138 120.943  1.00  0.00     0.016 A 
ATOM     14  C   UNL     1     120.923 109.084 120.741  1.00  0.00     0.051 A 
ATOM     15  C   UNL     1     121.976 109.203 121.659  1.00  0.00     0.157 A 
ATOM     16  C   UNL     1     120.999 107.424 122.989  1.00  0.00     0.062 A 
ATOM     17  C   UNL     1     122.010 108.370 122.790  1.00  0.00     0.158 A 
BRANCH  15  18
ATOM     18  O   UNL     1     122.981 110.146 121.454  1.00  0.00    -0.504 OA
ATOM     19  H   UNL     1     122.998 111.023 121.962  1.00  0.00     0.293 HD
ENDBRANCH  15  18
BRANCH  17  20
ATOM     20  O   UNL     1     123.039 108.469 123.727  1.00  0.00    -0.504 OA
ATOM     21  H   UNL     1     123.603 107.670 123.993  1.00  0.00     0.293 HD
ENDBRANCH  17  20
ENDBRANCH   1  12
BRANCH   2  22
ATOM     22  O   UNL     1     120.373 104.426 121.862  1.00  0.00    -0.502 OA
ATOM     23  H   UNL     1     120.510 103.647 121.229  1.00  0.00     0.293 HD
ENDBRANCH   2  22
BRANCH   6  24
ATOM     24  O   UNL     1     115.667 102.333 123.220  1.00  0.00    -0.507 OA
ATOM     25  H   UNL     1     116.367 101.746 122.793  1.00  0.00     0.293 HD
ENDBRANCH   6  24
BRANCH   8  26
ATOM     26  O   UNL     1     113.093 106.342 123.807  1.00  0.00    -0.508 OA
ATOM     27  H   UNL     1     112.640 106.979 123.163  1.00  0.00     0.293 HD
ENDBRANCH   8  26
TORSDOF 6
ENDMDL
MODEL 3
REMARK VINA RESULT:    -4.445      2.386      3.752
REMARK INTER + INTRA:          -5.598
REMARK INTER:                  -5.279
REMARK INTRA:                  -0.318
REMARK UNBOUND:                -0.243
REMARK SMILES O=c1c(O)c(-c2ccc(O)c(O)c2)oc2cc(O)cc(O)c12
REMARK SMILES IDX 5 1 3 2 2 3 1 4 22 5 20 6 19 7 17 8 16 9 15 10 14 11 6 12
REMARK SMILES IDX 7 13 8 14 9 15 13 16 11 17 10 18 12 20 4 22 21 24 18 26
REMARK H PARENT 10 19 12 21 4 23 21 25 18 27
REMARK Flexibility Score: inf
ROOT
ATOM      1  C   UNL     1     119.858 106.372 122.295  1.00  0.00     0.180 A 
ATOM      2  C   UNL     1     119.073 107.340 121.645  1.00  0.00     0.208 A 
ATOM      3  C   UNL     1     119.625 108.605 121.389  1.00  0.00     0.238 A 
ATOM      4  O   UNL     1     118.943 109.441 120.741  1.00  0.00    -0.285 OA
ATOM      5  C   UNL     1     120.934 108.907 121.838  1.00  0.00     0.111 A 
ATOM      6  C   UNL     1     121.577 110.171 121.675  1.00  0.00     0.134 A 
ATOM      7  C   UNL     1     122.915 110.321 122.063  1.00  0.00     0.093 A 
ATOM      8  C   UNL     1     123.611 109.272 122.669  1.00  0.00     0.123 A 
ATOM      9  C   UNL     1     122.974 108.053 122.882  1.00  0.00     0.094 A 
ATOM     10  C   UNL     1     121.654 107.859 122.470  1.00  0.00     0.146 A 
ATOM     11  O   UNL     1     121.095 106.673 122.674  1.00  0.00    -0.452 OA
ENDROOT
BRANCH   1  12
ATOM     12  C   UNL     1     119.351 105.012 122.586  1.00  0.00     0.025 A 
ATOM     13  C   UNL     1     118.601 104.740 123.744  1.00  0.00     0.016 A 
ATOM     14  C   UNL     1     118.112 103.454 123.984  1.00  0.00     0.051 A 
ATOM     15  C   UNL     1     118.352 102.423 123.065  1.00  0.00     0.157 A 
ATOM     16  C   UNL     1     119.571 103.980 121.658  1.00  0.00     0.062 A 
ATOM     17  C   UNL     1     119.083 102.690 121.896  1.00  0.00     0.158 A 
BRANCH  15  18
ATOM     18  O   UNL     1     117.865 101.141 123.309  1.00  0.00    -0.504 OA
ATOM     19  H   UNL     1     118.414 100.449 123.806  1.00  0.00     0.293 HD
ENDBRANCH  15  18
BRANCH  17  20
ATOM     20  O   UNL     1     119.332 101.688 120.957  1.00  0.00    -0.504 OA
ATOM     21  H   UNL     1     118.799 100.827 120.936  1.00  0.00     0.293 HD
ENDBRANCH  17  20
ENDBRANCH   1  12
BRANCH   2  22
ATOM     22  O   UNL     1     117.757 107.047 121.279  1.00  0.00    -0.502 OA
ATOM     23  H   UNL     1     117.186 106.382 121.786  1.00  0.00     0.293 HD
ENDBRANCH   2  22
BRANCH   6  24
ATOM     24  O   UNL     1     120.948 111.310 121.163  1.00  0.00    -0.507 OA
ATOM     25  H   UNL     1     121.272 112.256 121.293  1.00  0.00     0.293 HD
ENDBRANCH   6  24
BRANCH   8  26
ATOM     26  O   UNL     1     124.936 109.436 123.069  1.00  0.00    -0.508 OA
ATOM     27  H   UNL     1     125.687 109.515 122.394  1.00  0.00     0.293 HD
ENDBRANCH   8  26
TORSDOF 6
ENDMDL
MODEL 4
REMARK VINA RESULT:    -4.433      2.133      6.837
REMARK INTER + INTRA:          -5.583
REMARK INTER:                  -5.259
REMARK INTRA:                  -0.323
REMARK UNBOUND:                -0.243
REMARK SMILES O=c1c(O)c(-c2ccc(O)c(O)c2)oc2cc(O)cc(O)c12
REMARK SMILES IDX 5 1 3 2 2 3 1 4 22 5 20 6 19 7 17 8 16 9 15 10 14 11 6 12
REMARK SMILES IDX 7 13 8 14 9 15 13 16 11 17 10 18 12 20 4 22 21 24 18 26
REMARK H PARENT 10 19 12 21 4 23 21 25 18 27
REMARK Flexibility Score: inf
ROOT
ATOM      1  C   UNL     1     118.719 106.893 121.533  1.00  0.00     0.180 A 
ATOM      2  C   UNL     1     118.520 106.345 120.253  1.00  0.00     0.208 A 
ATOM      3  C   UNL     1     117.247 105.868 119.906  1.00  0.00     0.238 A 
ATOM      4  O   UNL     1     117.058 105.449 118.735  1.00  0.00    -0.285 OA
ATOM      5  C   UNL     1     116.200 105.892 120.860  1.00  0.00     0.111 A 
ATOM      6  C   UNL     1     114.882 105.393 120.633  1.00  0.00     0.134 A 
ATOM      7  C   UNL     1     113.898 105.567 121.614  1.00  0.00     0.093 A 
ATOM      8  C   UNL     1     114.202 106.163 122.842  1.00  0.00     0.123 A 
ATOM      9  C   UNL     1     115.499 106.602 123.094  1.00  0.00     0.094 A 
ATOM     10  C   UNL     1     116.493 106.479 122.120  1.00  0.00     0.146 A 
ATOM     11  O   UNL     1     117.710 106.931 122.396  1.00  0.00    -0.452 OA
ENDROOT
BRANCH   1  12
ATOM     12  C   UNL     1     120.028 107.428 121.967  1.00  0.00     0.025 A 
ATOM     13  C   UNL     1     120.991 106.606 122.578  1.00  0.00     0.016 A 
ATOM     14  C   UNL     1     122.230 107.128 122.956  1.00  0.00     0.051 A 
ATOM     15  C   UNL     1     122.532 108.476 122.718  1.00  0.00     0.157 A 
ATOM     16  C   UNL     1     120.344 108.773 121.711  1.00  0.00     0.062 A 
ATOM     17  C   UNL     1     121.584 109.300 122.089  1.00  0.00     0.158 A 
BRANCH  15  18
ATOM     18  O   UNL     1     123.768 108.995 123.098  1.00  0.00    -0.504 OA
ATOM     19  H   UNL     1     124.043 109.941 122.860  1.00  0.00     0.293 HD
ENDBRANCH  15  18
BRANCH  17  20
ATOM     20  O   UNL     1     121.856 110.643 121.829  1.00  0.00    -0.504 OA
ATOM     21  H   UNL     1     121.245 111.216 121.258  1.00  0.00     0.293 HD
ENDBRANCH  17  20
ENDBRANCH   1  12
BRANCH   2  22
ATOM     22  O   UNL     1     119.585 106.261 119.352  1.00  0.00    -0.502 OA
ATOM     23  H   UNL     1     120.234 105.483 119.349  1.00  0.00     0.293 HD
ENDBRANCH   2  22
BRANCH   6  24
ATOM     24  O   UNL     1     114.493 104.704 119.480  1.00  0.00    -0.507 OA
ATOM     25  H   UNL     1     114.269 105.136 118.597  1.00  0.00     0.293 HD
ENDBRANCH   6  24
BRANCH   8  26
ATOM     26  O   UNL     1     113.222 106.315 123.820  1.00  0.00    -0.508 OA
ATOM     27  H   UNL     1     112.296 105.919 123.709  1.00  0.00     0.293 HD
ENDBRANCH   8  26
TORSDOF 6
ENDMDL
MODEL 5
REMARK VINA RESULT:    -4.388     14.244     16.281
REMARK INTER + INTRA:          -5.528
REMARK INTER:                  -5.936
REMARK INTRA:                   0.408
REMARK UNBOUND:                -0.243
REMARK SMILES O=c1c(O)c(-c2ccc(O)c(O)c2)oc2cc(O)cc(O)c12
REMARK SMILES IDX 5 1 3 2 2 3 1 4 22 5 20 6 19 7 17 8 16 9 15 10 14 11 6 12
REMARK SMILES IDX 7 13 8 14 9 15 13 16 11 17 10 18 12 20 4 22 21 24 18 26
REMARK H PARENT 10 19 12 21 4 23 21 25 18 27
REMARK Flexibility Score: inf
ROOT
ATOM      1  C   UNL     1     123.677 110.697 108.413  1.00  0.00     0.180 A 
ATOM      2  C   UNL     1     122.360 110.315 108.724  1.00  0.00     0.208 A 
ATOM      3  C   UNL     1     122.056 108.950 108.846  1.00  0.00     0.238 A 
ATOM      4  O   UNL     1     120.895 108.619 109.197  1.00  0.00    -0.285 OA
ATOM      5  C   UNL     1     123.059 107.980 108.600  1.00  0.00     0.111 A 
ATOM      6  C   UNL     1     122.853 106.568 108.651  1.00  0.00     0.134 A 
ATOM      7  C   UNL     1     123.945 105.705 108.495  1.00  0.00     0.093 A 
ATOM      8  C   UNL     1     125.224 106.200 108.226  1.00  0.00     0.123 A 
ATOM      9  C   UNL     1     125.423 107.574 108.120  1.00  0.00     0.094 A 
ATOM     10  C   UNL     1     124.363 108.463 108.309  1.00  0.00     0.146 A 
ATOM     11  O   UNL     1     124.604 109.765 108.221  1.00  0.00    -0.452 OA
ENDROOT
BRANCH   1  12
ATOM     12  C   UNL     1     124.076 112.116 108.282  1.00  0.00     0.025 A 
ATOM     13  C   UNL     1     123.121 113.135 108.122  1.00  0.00     0.016 A 
ATOM     14  C   UNL     1     123.520 114.470 108.025  1.00  0.00     0.051 A 
ATOM     15  C   UNL     1     124.879 114.809 108.101  1.00  0.00     0.157 A 
ATOM     16  C   UNL     1     125.434 112.463 108.379  1.00  0.00     0.062 A 
ATOM     17  C   UNL     1     125.838 113.799 108.282  1.00  0.00     0.158 A 
BRANCH  15  18
ATOM     18  O   UNL     1     125.274 116.141 108.002  1.00  0.00    -0.504 OA
ATOM     19  H   UNL     1     124.947 116.842 108.656  1.00  0.00     0.293 HD
ENDBRANCH  15  18
BRANCH  17  20
ATOM     20  O   UNL     1     127.197 114.104 108.370  1.00  0.00    -0.504 OA
ATOM     21  H   UNL     1     127.880 113.428 108.692  1.00  0.00     0.293 HD
ENDBRANCH  17  20
ENDBRANCH   1  12
BRANCH   2  22
ATOM     22  O   UNL     1     121.368 111.285 108.887  1.00  0.00    -0.502 OA
ATOM     23  H   UNL     1     120.480 111.242 108.400  1.00  0.00     0.293 HD
ENDBRANCH   2  22
BRANCH   6  24
ATOM     24  O   UNL     1     121.605 105.964 108.825  1.00  0.00    -0.507 OA
ATOM     25  H   UNL     1     121.135 105.399 108.135  1.00  0.00     0.293 HD
ENDBRANCH   6  24
BRANCH   8  26
ATOM     26  O   UNL     1     126.301 105.333 108.055  1.00  0.00    -0.508 OA
ATOM     27  H   UNL     1     126.170 104.330 108.003  1.00  0.00     0.293 HD
ENDBRANCH   8  26
TORSDOF 6
ENDMDL
MODEL 6
REMARK VINA RESULT:    -4.364     13.168     15.950
REMARK INTER + INTRA:          -5.499
REMARK INTER:                  -5.291
REMARK INTRA:                  -0.208
REMARK UNBOUND:                -0.243
REMARK SMILES O=c1c(O)c(-c2ccc(O)c(O)c2)oc2cc(O)cc(O)c12
REMARK SMILES IDX 5 1 3 2 2 3 1 4 22 5 20 6 19 7 17 8 16 9 15 10 14 11 6 12
REMARK SMILES IDX 7 13 8 14 9 15 13 16 11 17 10 18 12 20 4 22 21 24 18 26
REMARK H PARENT 10 19 12 21 4 23 21 25 18 27
REMARK Flexibility Score: inf
ROOT
ATOM      1  C   UNL     1     124.173 110.302 109.000  1.00  0.00     0.180 A 
ATOM      2  C   UNL     1     124.424 109.830 110.301  1.00  0.00     0.208 A 
ATOM      3  C   UNL     1     124.253 108.464 110.575  1.00  0.00     0.238 A 
ATOM      4  O   UNL     1     124.550 108.037 111.720  1.00  0.00    -0.285 OA
ATOM      5  C   UNL     1     123.779 107.595 109.561  1.00  0.00     0.111 A 
ATOM      6  C   UNL     1     123.525 106.202 109.739  1.00  0.00     0.134 A 
ATOM      7  C   UNL     1     123.161 105.419 108.636  1.00  0.00     0.093 A 
ATOM      8  C   UNL     1     122.977 105.992 107.375  1.00  0.00     0.123 A 
ATOM      9  C   UNL     1     123.168 107.361 107.204  1.00  0.00     0.094 A 
ATOM     10  C   UNL     1     123.570 108.161 108.276  1.00  0.00     0.146 A 
ATOM     11  O   UNL     1     123.762 109.457 108.062  1.00  0.00    -0.452 OA
ENDROOT
BRANCH   1  12
ATOM     12  C   UNL     1     124.345 111.725 108.631  1.00  0.00     0.025 A 
ATOM     13  C   UNL     1     123.239 112.555 108.377  1.00  0.00     0.016 A 
ATOM     14  C   UNL     1     123.425 113.902 108.055  1.00  0.00     0.051 A 
ATOM     15  C   UNL     1     124.717 114.443 107.996  1.00  0.00     0.157 A 
ATOM     16  C   UNL     1     125.636 112.277 108.591  1.00  0.00     0.062 A 
ATOM     17  C   UNL     1     125.827 113.625 108.269  1.00  0.00     0.158 A 
BRANCH  15  18
ATOM     18  O   UNL     1     124.900 115.786 107.672  1.00  0.00    -0.504 OA
ATOM     19  H   UNL     1     125.669 116.324 108.052  1.00  0.00     0.293 HD
ENDBRANCH  15  18
BRANCH  17  20
ATOM     20  O   UNL     1     127.125 114.134 108.226  1.00  0.00    -0.504 OA
ATOM     21  H   UNL     1     127.569 114.544 109.039  1.00  0.00     0.293 HD
ENDBRANCH  17  20
ENDBRANCH   1  12
BRANCH   2  22
ATOM     22  O   UNL     1     124.816 110.717 111.306  1.00  0.00    -0.502 OA
ATOM     23  H   UNL     1     125.578 110.514 111.944  1.00  0.00     0.293 HD
ENDBRANCH   2  22
BRANCH   6  24
ATOM     24  O   UNL     1     123.593 105.544 110.971  1.00  0.00    -0.507 OA
ATOM     25  H   UNL     1     122.831 105.041 111.400  1.00  0.00     0.293 HD
ENDBRANCH   6  24
BRANCH   8  26
ATOM     26  O   UNL     1     122.596 105.210 106.287  1.00  0.00    -0.508 OA
ATOM     27  H   UNL     1     123.262 104.932 105.576  1.00  0.00     0.293 HD
ENDBRANCH   8  26
TORSDOF 6
ENDMDL
MODEL 7
REMARK VINA RESULT:    -4.328      2.288      3.484
REMARK INTER + INTRA:          -5.456
REMARK INTER:                  -5.330
REMARK INTRA:                  -0.126
REMARK UNBOUND:                -0.243
REMARK SMILES O=c1c(O)c(-c2ccc(O)c(O)c2)oc2cc(O)cc(O)c12
REMARK SMILES IDX 5 1 3 2 2 3 1 4 22 5 20 6 19 7 17 8 16 9 15 10 14 11 6 12
REMARK SMILES IDX 7 13 8 14 9 15 13 16 11 17 10 18 12 20 4 22 21 24 18 26
REMARK H PARENT 10 19 12 21 4 23 21 25 18 27
REMARK Flexibility Score: inf
ROOT
ATOM      1  C   UNL     1     117.519 107.221 121.789  1.00  0.00     0.180 A 
ATOM      2  C   UNL     1     117.399 108.477 121.167  1.00  0.00     0.208 A 
ATOM      3  C   UNL     1     118.544 109.274 121.016  1.00  0.00     0.238 A 
ATOM      4  O   UNL     1     118.443 110.363 120.393  1.00  0.00    -0.285 OA
ATOM      5  C   UNL     1     119.785 108.833 121.538  1.00  0.00     0.111 A 
ATOM      6  C   UNL     1     121.001 109.579 121.483  1.00  0.00     0.134 A 
ATOM      7  C   UNL     1     122.191 108.996 121.937  1.00  0.00     0.093 A 
ATOM      8  C   UNL     1     122.197 107.719 122.505  1.00  0.00     0.123 A 
ATOM      9  C   UNL     1     121.005 107.006 122.614  1.00  0.00     0.094 A 
ATOM     10  C   UNL     1     119.809 107.544 122.134  1.00  0.00     0.146 A 
ATOM     11  O   UNL     1     118.702 106.820 122.239  1.00  0.00    -0.452 OA
ENDROOT
BRANCH   1  12
ATOM     12  C   UNL     1     116.360 106.319 121.971  1.00  0.00     0.025 A 
ATOM     13  C   UNL     1     116.334 105.034 121.400  1.00  0.00     0.016 A 
ATOM     14  C   UNL     1     115.241 104.190 121.607  1.00  0.00     0.051 A 
ATOM     15  C   UNL     1     114.163 104.611 122.399  1.00  0.00     0.157 A 
ATOM     16  C   UNL     1     115.287 106.727 122.781  1.00  0.00     0.062 A 
ATOM     17  C   UNL     1     114.190 105.884 122.990  1.00  0.00     0.158 A 
BRANCH  15  18
ATOM     18  O   UNL     1     113.072 103.767 122.601  1.00  0.00    -0.504 OA
ATOM     19  H   UNL     1     112.144 104.013 122.278  1.00  0.00     0.293 HD
ENDBRANCH  15  18
BRANCH  17  20
ATOM     20  O   UNL     1     113.137 106.330 123.790  1.00  0.00    -0.504 OA
ATOM     21  H   UNL     1     113.105 107.272 124.162  1.00  0.00     0.293 HD
ENDBRANCH  17  20
ENDBRANCH   1  12
BRANCH   2  22
ATOM     22  O   UNL     1     116.152 108.927 120.727  1.00  0.00    -0.502 OA
ATOM     23  H   UNL     1     115.899 109.908 120.721  1.00  0.00     0.293 HD
ENDBRANCH   2  22
BRANCH   6  24
ATOM     24  O   UNL     1     121.093 110.894 121.017  1.00  0.00    -0.507 OA
ATOM     25  H   UNL     1     121.934 111.451 121.022  1.00  0.00     0.293 HD
ENDBRANCH   6  24
BRANCH   8  26
ATOM     26  O   UNL     1     123.382 107.154 122.971  1.00  0.00    -0.508 OA
ATOM     27  H   UNL     1     124.151 106.944 122.346  1.00  0.00     0.293 HD
ENDBRANCH   8  26
TORSDOF 6
ENDMDL
MODEL 8
REMARK VINA RESULT:    -4.216     14.463     16.092
REMARK INTER + INTRA:          -5.321
REMARK INTER:                  -4.998
REMARK INTRA:                  -0.324
REMARK UNBOUND:                -0.243
REMARK SMILES O=c1c(O)c(-c2ccc(O)c(O)c2)oc2cc(O)cc(O)c12
REMARK SMILES IDX 5 1 3 2 2 3 1 4 22 5 20 6 19 7 17 8 16 9 15 10 14 11 6 12
REMARK SMILES IDX 7 13 8 14 9 15 13 16 11 17 10 18 12 20 4 22 21 24 18 26
REMARK H PARENT 10 19 12 21 4 23 21 25 18 27
REMARK Flexibility Score: inf
ROOT
ATOM      1  C   UNL     1     123.990 110.905 108.832  1.00  0.00     0.180 A 
ATOM      2  C   UNL     1     125.029 110.000 108.551  1.00  0.00     0.208 A 
ATOM      3  C   UNL     1     124.707 108.686 108.178  1.00  0.00     0.238 A 
ATOM      4  O   UNL     1     125.638 107.904 107.855  1.00  0.00    -0.285 OA
ATOM      5  C   UNL     1     123.351 108.275 108.144  1.00  0.00     0.111 A 
ATOM      6  C   UNL     1     122.911 106.955 107.824  1.00  0.00     0.134 A 
ATOM      7  C   UNL     1     121.539 106.692 107.717  1.00  0.00     0.093 A 
ATOM      8  C   UNL     1     120.592 107.684 107.984  1.00  0.00     0.123 A 
ATOM      9  C   UNL     1     121.012 108.960 108.351  1.00  0.00     0.094 A 
ATOM     10  C   UNL     1     122.373 109.264 108.428  1.00  0.00     0.146 A 
ATOM     11  O   UNL     1     122.727 110.499 108.760  1.00  0.00    -0.452 OA
ENDROOT
BRANCH   1  12
ATOM     12  C   UNL     1     124.251 112.310 109.217  1.00  0.00     0.025 A 
ATOM     13  C   UNL     1     124.432 112.679 110.562  1.00  0.00     0.016 A 
ATOM     14  C   UNL     1     124.702 114.008 110.900  1.00  0.00     0.051 A 
ATOM     15  C   UNL     1     124.809 114.984 109.900  1.00  0.00     0.157 A 
ATOM     16  C   UNL     1     124.380 113.288 108.218  1.00  0.00     0.062 A 
ATOM     17  C   UNL     1     124.650 114.619 108.552  1.00  0.00     0.158 A 
BRANCH  15  18
ATOM     18  O   UNL     1     125.076 116.309 110.240  1.00  0.00    -0.504 OA
ATOM     19  H   UNL     1     124.573 117.078 109.814  1.00  0.00     0.293 HD
ENDBRANCH  15  18
BRANCH  17  20
ATOM     20  O   UNL     1     124.758 115.565 107.532  1.00  0.00    -0.504 OA
ATOM     21  H   UNL     1     125.579 116.151 107.426  1.00  0.00     0.293 HD
ENDBRANCH  17  20
ENDBRANCH   1  12
BRANCH   2  22
ATOM     22  O   UNL     1     126.362 110.404 108.664  1.00  0.00    -0.502 OA
ATOM     23  H   UNL     1     126.631 111.379 108.733  1.00  0.00     0.293 HD
ENDBRANCH   2  22
BRANCH   6  24
ATOM     24  O   UNL     1     123.768 105.869 107.626  1.00  0.00    -0.507 OA
ATOM     25  H   UNL     1     124.588 105.672 108.179  1.00  0.00     0.293 HD
ENDBRANCH   6  24
BRANCH   8  26
ATOM     26  O   UNL     1     119.229 107.408 107.894  1.00  0.00    -0.508 OA
ATOM     27  H   UNL     1     118.728 107.494 107.017  1.00  0.00     0.293 HD
ENDBRANCH   8  26
TORSDOF 6
ENDMDL
MODEL 9
REMARK VINA RESULT:    -4.215     15.242     17.700
REMARK INTER + INTRA:          -5.321
REMARK INTER:                  -5.079
REMARK INTRA:                  -0.242
REMARK UNBOUND:                -0.243
REMARK SMILES O=c1c(O)c(-c2ccc(O)c(O)c2)oc2cc(O)cc(O)c12
REMARK SMILES IDX 5 1 3 2 2 3 1 4 22 5 20 6 19 7 17 8 16 9 15 10 14 11 6 12
REMARK SMILES IDX 7 13 8 14 9 15 13 16 11 17 10 18 12 20 4 22 21 24 18 26
REMARK H PARENT 10 19 12 21 4 23 21 25 18 27
REMARK Flexibility Score: inf
ROOT
ATOM      1  C   UNL     1     126.785 115.121 109.625  1.00  0.00     0.180 A 
ATOM      2  C   UNL     1     126.704 116.464 110.034  1.00  0.00     0.208 A 
ATOM      3  C   UNL     1     127.890 117.186 110.240  1.00  0.00     0.238 A 
ATOM      4  O   UNL     1     127.811 118.407 110.533  1.00  0.00    -0.285 OA
ATOM      5  C   UNL     1     129.143 116.541 110.091  1.00  0.00     0.111 A 
ATOM      6  C   UNL     1     130.408 117.162 110.319  1.00  0.00     0.134 A 
ATOM      7  C   UNL     1     131.585 116.457 110.036  1.00  0.00     0.093 A 
ATOM      8  C   UNL     1     131.543 115.132 109.596  1.00  0.00     0.123 A 
ATOM      9  C   UNL     1     130.314 114.500 109.424  1.00  0.00     0.094 A 
ATOM     10  C   UNL     1     129.122 115.188 109.660  1.00  0.00     0.146 A 
ATOM     11  O   UNL     1     127.974 114.553 109.461  1.00  0.00    -0.452 OA
ENDROOT
BRANCH   1  12
ATOM     12  C   UNL     1     125.579 114.301 109.373  1.00  0.00     0.025 A 
ATOM     13  C   UNL     1     125.160 113.315 110.284  1.00  0.00     0.016 A 
ATOM     14  C   UNL     1     124.004 112.570 110.038  1.00  0.00     0.051 A 
ATOM     15  C   UNL     1     123.242 112.807 108.885  1.00  0.00     0.157 A 
ATOM     16  C   UNL     1     124.800 114.549 108.231  1.00  0.00     0.062 A 
ATOM     17  C   UNL     1     123.642 113.805 107.981  1.00  0.00     0.158 A 
BRANCH  15  18
ATOM     18  O   UNL     1     122.091 112.061 108.641  1.00  0.00    -0.504 OA
ATOM     19  H   UNL     1     121.316 112.051 109.293  1.00  0.00     0.293 HD
ENDBRANCH  15  18
BRANCH  17  20
ATOM     20  O   UNL     1     122.901 114.072 106.829  1.00  0.00    -0.504 OA
ATOM     21  H   UNL     1     123.075 113.591 105.954  1.00  0.00     0.293 HD
ENDBRANCH  17  20
ENDBRANCH   1  12
BRANCH   2  22
ATOM     22  O   UNL     1     125.459 117.060 110.249  1.00  0.00    -0.502 OA
ATOM     23  H   UNL     1     125.111 117.273 111.177  1.00  0.00     0.293 HD
ENDBRANCH   2  22
BRANCH   6  24
ATOM     24  O   UNL     1     130.567 118.450 110.840  1.00  0.00    -0.507 OA
ATOM     25  H   UNL     1     130.861 119.255 110.310  1.00  0.00     0.293 HD
ENDBRANCH   6  24
BRANCH   8  26
ATOM     26  O   UNL     1     132.719 114.432 109.334  1.00  0.00    -0.508 OA
ATOM     27  H   UNL     1     132.711 113.438 109.138  1.00  0.00     0.293 HD
ENDBRANCH   8  26
TORSDOF 6
ENDMDL
