MODEL 1
REMARK VINA RESULT:    -5.162      0.000      0.000
REMARK INTER + INTRA:          -5.961
REMARK INTER:                  -5.917
REMARK INTRA:                  -0.045
REMARK UNBOUND:                -0.045
REMARK SMILES O=C([O-])c1cc(O)c(O)c(O)c1
REMARK SMILES IDX 4 1 5 2 12 3 6 4 10 5 8 6 2 7 1 8 3 9 7 10 11 12 9 14
REMARK H PARENT 7 11 11 13 9 15
REMARK Flexibility Score: inf
ROOT
ATOM      1  C   UNL     1      54.217  58.541   7.644  1.00  0.00     0.005 A 
ATOM      2  C   UNL     1      52.819  58.423   7.682  1.00  0.00     0.060 A 
ATOM      3  C   UNL     1      54.823  59.658   8.237  1.00  0.00     0.060 A 
ATOM      4  C   UNL     1      52.038  59.404   8.301  1.00  0.00     0.162 A 
ATOM      5  C   UNL     1      54.056  60.649   8.861  1.00  0.00     0.162 A 
ATOM      6  C   UNL     1      52.646  60.524   8.895  1.00  0.00     0.200 A 
ENDROOT
BRANCH   1   7
ATOM      7  C   UNL     1      55.043  57.502   6.989  1.00  0.00     0.072 C 
ATOM      8  O   UNL     1      55.554  56.569   7.664  1.00  0.00    -0.545 OA
ATOM      9  O   UNL     1      55.267  57.541   5.617  1.00  0.00    -0.545 OA
ENDBRANCH   1   7
BRANCH   4  10
ATOM     10  O   UNL     1      50.652  59.244   8.315  1.00  0.00    -0.504 OA
ATOM     11  H   UNL     1      50.129  58.976   7.490  1.00  0.00     0.293 HD
ENDBRANCH   4  10
BRANCH   5  12
ATOM     12  O   UNL     1      54.732  61.731   9.428  1.00  0.00    -0.504 OA
ATOM     13  H   UNL     1      55.656  62.029   9.154  1.00  0.00     0.293 HD
ENDBRANCH   5  12
BRANCH   6  14
ATOM     14  O   UNL     1      51.828  61.480   9.502  1.00  0.00    -0.502 OA
ATOM     15  H   UNL     1      51.068  61.261  10.131  1.00  0.00     0.293 HD
ENDBRANCH   6  14
TORSDOF 4
ENDMDL
MODEL 2
REMARK VINA RESULT:    -5.109      1.658      2.741
REMARK INTER + INTRA:          -5.900
REMARK INTER:                  -5.855
REMARK INTRA:                  -0.045
REMARK UNBOUND:                -0.045
REMARK SMILES O=C([O-])c1cc(O)c(O)c(O)c1
REMARK SMILES IDX 4 1 5 2 12 3 6 4 10 5 8 6 2 7 1 8 3 9 7 10 11 12 9 14
REMARK H PARENT 7 11 11 13 9 15
REMARK Flexibility Score: inf
ROOT
ATOM      1  C   UNL     1      53.829  59.112   7.848  1.00  0.00     0.005 A 
ATOM      2  C   UNL     1      53.848  60.387   7.261  1.00  0.00     0.060 A 
ATOM      3  C   UNL     1      52.617  58.610   8.346  1.00  0.00     0.060 A 
ATOM      4  C   UNL     1      52.679  61.149   7.172  1.00  0.00     0.162 A 
ATOM      5  C   UNL     1      51.438  59.360   8.266  1.00  0.00     0.162 A 
ATOM      6  C   UNL     1      51.465  60.645   7.673  1.00  0.00     0.200 A 
ENDROOT
BRANCH   1   7
ATOM      7  C   UNL     1      55.067  58.306   7.940  1.00  0.00     0.072 C 
ATOM      8  O   UNL     1      55.991  58.638   8.730  1.00  0.00    -0.545 OA
ATOM      9  O   UNL     1      55.228  57.170   7.156  1.00  0.00    -0.545 OA
ENDBRANCH   1   7
BRANCH   4  10
ATOM     10  O   UNL     1      52.746  62.411   6.580  1.00  0.00    -0.504 OA
ATOM     11  H   UNL     1      51.921  62.905   6.265  1.00  0.00     0.293 HD
ENDBRANCH   4  10
BRANCH   5  12
ATOM     12  O   UNL     1      50.272  58.792   8.785  1.00  0.00    -0.504 OA
ATOM     13  H   UNL     1      50.212  57.852   9.146  1.00  0.00     0.293 HD
ENDBRANCH   5  12
BRANCH   6  14
ATOM     14  O   UNL     1      50.321  61.440   7.564  1.00  0.00    -0.502 OA
ATOM     15  H   UNL     1      49.901  61.938   8.336  1.00  0.00     0.293 HD
ENDBRANCH   6  14
TORSDOF 4
ENDMDL
MODEL 3
REMARK VINA RESULT:    -5.087      1.685      1.866
REMARK INTER + INTRA:          -5.875
REMARK INTER:                  -5.829
REMARK INTRA:                  -0.045
REMARK UNBOUND:                -0.045
REMARK SMILES O=C([O-])c1cc(O)c(O)c(O)c1
REMARK SMILES IDX 4 1 5 2 12 3 6 4 10 5 8 6 2 7 1 8 3 9 7 10 11 12 9 14
REMARK H PARENT 7 11 11 13 9 15
REMARK Flexibility Score: inf
ROOT
ATOM      1  C   UNL     1      53.831  59.108   7.818  1.00  0.00     0.005 A 
ATOM      2  C   UNL     1      52.617  58.634   8.337  1.00  0.00     0.060 A 
ATOM      3  C   UNL     1      53.860  60.362   7.190  1.00  0.00     0.060 A 
ATOM      4  C   UNL     1      51.450  59.396   8.232  1.00  0.00     0.162 A 
ATOM      5  C   UNL     1      52.701  61.139   7.076  1.00  0.00     0.162 A 
ATOM      6  C   UNL     1      51.479  60.654   7.602  1.00  0.00     0.200 A 
ENDROOT
BRANCH   1   7
ATOM      7  C   UNL     1      55.066  58.299   7.930  1.00  0.00     0.072 C 
ATOM      8  O   UNL     1      55.995  58.651   8.706  1.00  0.00    -0.545 OA
ATOM      9  O   UNL     1      55.219  57.139   7.180  1.00  0.00    -0.545 OA
ENDBRANCH   1   7
BRANCH   4  10
ATOM     10  O   UNL     1      50.266  58.884   8.764  1.00  0.00    -0.504 OA
ATOM     11  H   UNL     1      49.468  59.471   8.972  1.00  0.00     0.293 HD
ENDBRANCH   4  10
BRANCH   5  12
ATOM     12  O   UNL     1      52.810  62.376   6.438  1.00  0.00    -0.504 OA
ATOM     13  H   UNL     1      52.796  63.264   6.916  1.00  0.00     0.293 HD
ENDBRANCH   5  12
BRANCH   6  14
ATOM     14  O   UNL     1      50.290  61.383   7.519  1.00  0.00    -0.502 OA
ATOM     15  H   UNL     1      49.554  61.349   8.209  1.00  0.00     0.293 HD
ENDBRANCH   6  14
TORSDOF 4
ENDMDL
MODEL 4
REMARK VINA RESULT:    -5.064      5.629      7.670
REMARK INTER + INTRA:          -5.849
REMARK INTER:                  -5.805
REMARK INTRA:                  -0.045
REMARK UNBOUND:                -0.045
REMARK SMILES O=C([O-])c1cc(O)c(O)c(O)c1
REMARK SMILES IDX 4 1 5 2 12 3 6 4 10 5 8 6 2 7 1 8 3 9 7 10 11 12 9 14
REMARK H PARENT 7 11 11 13 9 15
REMARK Flexibility Score: inf
ROOT
ATOM      1  C   UNL     1      48.442  57.970   5.933  1.00  0.00     0.005 A 
ATOM      2  C   UNL     1      49.011  57.359   4.805  1.00  0.00     0.060 A 
ATOM      3  C   UNL     1      47.069  58.259   5.931  1.00  0.00     0.060 A 
ATOM      4  C   UNL     1      48.226  57.042   3.693  1.00  0.00     0.162 A 
ATOM      5  C   UNL     1      46.268  57.949   4.826  1.00  0.00     0.162 A 
ATOM      6  C   UNL     1      46.849  57.333   3.691  1.00  0.00     0.200 A 
ENDROOT
BRANCH   1   7
ATOM      7  C   UNL     1      49.274  58.304   7.110  1.00  0.00     0.072 C 
ATOM      8  O   UNL     1      49.382  57.495   8.070  1.00  0.00    -0.545 OA
ATOM      9  O   UNL     1      49.951  59.517   7.173  1.00  0.00    -0.545 OA
ENDBRANCH   1   7
BRANCH   4  10
ATOM     10  O   UNL     1      48.835  56.435   2.594  1.00  0.00    -0.504 OA
ATOM     11  H   UNL     1      48.312  55.905   1.909  1.00  0.00     0.293 HD
ENDBRANCH   4  10
BRANCH   5  12
ATOM     12  O   UNL     1      44.911  58.269   4.898  1.00  0.00    -0.504 OA
ATOM     13  H   UNL     1      44.201  57.648   5.260  1.00  0.00     0.293 HD
ENDBRANCH   5  12
BRANCH   6  14
ATOM     14  O   UNL     1      46.102  57.000   2.558  1.00  0.00    -0.502 OA
ATOM     15  H   UNL     1      45.816  57.663   1.852  1.00  0.00     0.293 HD
ENDBRANCH   6  14
TORSDOF 4
ENDMDL
MODEL 5
REMARK VINA RESULT:    -5.047      5.666      7.573
REMARK INTER + INTRA:          -5.829
REMARK INTER:                  -5.777
REMARK INTRA:                  -0.052
REMARK UNBOUND:                -0.045
REMARK SMILES O=C([O-])c1cc(O)c(O)c(O)c1
REMARK SMILES IDX 4 1 5 2 12 3 6 4 10 5 8 6 2 7 1 8 3 9 7 10 11 12 9 14
REMARK H PARENT 7 11 11 13 9 15
REMARK Flexibility Score: inf
ROOT
ATOM      1  C   UNL     1      48.341  57.913   5.988  1.00  0.00     0.005 A 
ATOM      2  C   UNL     1      46.962  58.167   5.939  1.00  0.00     0.060 A 
ATOM      3  C   UNL     1      48.973  57.369   4.860  1.00  0.00     0.060 A 
ATOM      4  C   UNL     1      46.224  57.883   4.786  1.00  0.00     0.162 A 
ATOM      5  C   UNL     1      48.250  57.078   3.697  1.00  0.00     0.162 A 
ATOM      6  C   UNL     1      46.859  57.337   3.656  1.00  0.00     0.200 A 
ENDROOT
BRANCH   1   7
ATOM      7  C   UNL     1      49.121  58.215   7.209  1.00  0.00     0.072 C 
ATOM      8  O   UNL     1      48.537  58.458   8.299  1.00  0.00    -0.545 OA
ATOM      9  O   UNL     1      50.510  58.236   7.171  1.00  0.00    -0.545 OA
ENDBRANCH   1   7
BRANCH   4  10
ATOM     10  O   UNL     1      44.855  58.152   4.784  1.00  0.00    -0.504 OA
ATOM     11  H   UNL     1      44.166  57.456   5.039  1.00  0.00     0.293 HD
ENDBRANCH   4  10
BRANCH   5  12
ATOM     12  O   UNL     1      48.950  56.537   2.617  1.00  0.00    -0.504 OA
ATOM     13  H   UNL     1      49.953  56.429   2.588  1.00  0.00     0.293 HD
ENDBRANCH   5  12
BRANCH   6  14
ATOM     14  O   UNL     1      46.084  57.067   2.524  1.00  0.00    -0.502 OA
ATOM     15  H   UNL     1      45.638  57.776   1.960  1.00  0.00     0.293 HD
ENDBRANCH   6  14
TORSDOF 4
ENDMDL
MODEL 6
REMARK VINA RESULT:    -5.044      1.887      3.756
REMARK INTER + INTRA:          -5.826
REMARK INTER:                  -5.781
REMARK INTRA:                  -0.045
REMARK UNBOUND:                -0.045
REMARK SMILES O=C([O-])c1cc(O)c(O)c(O)c1
REMARK SMILES IDX 4 1 5 2 12 3 6 4 10 5 8 6 2 7 1 8 3 9 7 10 11 12 9 14
REMARK H PARENT 7 11 11 13 9 15
REMARK Flexibility Score: inf
ROOT
ATOM      1  C   UNL     1      51.330  58.223   7.698  1.00  0.00     0.005 A 
ATOM      2  C   UNL     1      52.158  58.088   6.573  1.00  0.00     0.060 A 
ATOM      3  C   UNL     1      51.679  59.149   8.693  1.00  0.00     0.060 A 
ATOM      4  C   UNL     1      53.315  58.861   6.442  1.00  0.00     0.162 A 
ATOM      5  C   UNL     1      52.834  59.931   8.578  1.00  0.00     0.162 A 
ATOM      6  C   UNL     1      53.665  59.788   7.440  1.00  0.00     0.200 A 
ENDROOT
BRANCH   1   7
ATOM      7  C   UNL     1      50.105  57.404   7.836  1.00  0.00     0.072 C 
ATOM      8  O   UNL     1      50.061  56.447   8.654  1.00  0.00    -0.545 OA
ATOM      9  O   UNL     1      48.982  57.680   7.063  1.00  0.00    -0.545 OA
ENDBRANCH   1   7
BRANCH   4  10
ATOM     10  O   UNL     1      54.108  58.692   5.306  1.00  0.00    -0.504 OA
ATOM     11  H   UNL     1      54.407  59.471   4.734  1.00  0.00     0.293 HD
ENDBRANCH   4  10
BRANCH   5  12
ATOM     12  O   UNL     1      53.115  60.829   9.610  1.00  0.00    -0.504 OA
ATOM     13  H   UNL     1      53.574  60.576  10.472  1.00  0.00     0.293 HD
ENDBRANCH   5  12
BRANCH   6  14
ATOM     14  O   UNL     1      54.830  60.540   7.269  1.00  0.00    -0.502 OA
ATOM     15  H   UNL     1      55.247  60.744   6.373  1.00  0.00     0.293 HD
ENDBRANCH   6  14
TORSDOF 4
ENDMDL
MODEL 7
REMARK VINA RESULT:    -5.044      8.643      9.981
REMARK INTER + INTRA:          -5.825
REMARK INTER:                  -5.781
REMARK INTRA:                  -0.045
REMARK UNBOUND:                -0.045
REMARK SMILES O=C([O-])c1cc(O)c(O)c(O)c1
REMARK SMILES IDX 4 1 5 2 12 3 6 4 10 5 8 6 2 7 1 8 3 9 7 10 11 12 9 14
REMARK H PARENT 7 11 11 13 9 15
REMARK Flexibility Score: inf
ROOT
ATOM      1  C   UNL     1      53.393  61.330  -1.277  1.00  0.00     0.005 A 
ATOM      2  C   UNL     1      52.616  60.610  -2.197  1.00  0.00     0.060 A 
ATOM      3  C   UNL     1      53.844  60.686  -0.115  1.00  0.00     0.060 A 
ATOM      4  C   UNL     1      52.292  59.270  -1.963  1.00  0.00     0.162 A 
ATOM      5  C   UNL     1      53.529  59.345   0.135  1.00  0.00     0.162 A 
ATOM      6  C   UNL     1      52.744  58.625  -0.797  1.00  0.00     0.200 A 
ENDROOT
BRANCH   1   7
ATOM      7  C   UNL     1      53.735  62.748  -1.526  1.00  0.00     0.072 C 
ATOM      8  O   UNL     1      54.735  63.053  -2.231  1.00  0.00    -0.545 OA
ATOM      9  O   UNL     1      52.958  63.767  -0.986  1.00  0.00    -0.545 OA
ENDBRANCH   1   7
BRANCH   4  10
ATOM     10  O   UNL     1      51.516  58.595  -2.905  1.00  0.00    -0.504 OA
ATOM     11  H   UNL     1      50.804  57.926  -2.641  1.00  0.00     0.293 HD
ENDBRANCH   4  10
BRANCH   5  12
ATOM     12  O   UNL     1      54.013  58.774   1.314  1.00  0.00    -0.504 OA
ATOM     13  H   UNL     1      54.127  59.276   2.183  1.00  0.00     0.293 HD
ENDBRANCH   5  12
BRANCH   6  14
ATOM     14  O   UNL     1      52.396  57.286  -0.602  1.00  0.00    -0.502 OA
ATOM     15  H   UNL     1      52.451  56.809   0.286  1.00  0.00     0.293 HD
ENDBRANCH   6  14
TORSDOF 4
ENDMDL
MODEL 8
REMARK VINA RESULT:    -5.023      1.876      3.951
REMARK INTER + INTRA:          -5.802
REMARK INTER:                  -5.757
REMARK INTRA:                  -0.045
REMARK UNBOUND:                -0.045
REMARK SMILES O=C([O-])c1cc(O)c(O)c(O)c1
REMARK SMILES IDX 4 1 5 2 12 3 6 4 10 5 8 6 2 7 1 8 3 9 7 10 11 12 9 14
REMARK H PARENT 7 11 11 13 9 15
REMARK Flexibility Score: inf
ROOT
ATOM      1  C   UNL     1      51.314  58.248   7.652  1.00  0.00     0.005 A 
ATOM      2  C   UNL     1      51.648  59.177   8.649  1.00  0.00     0.060 A 
ATOM      3  C   UNL     1      52.164  58.102   6.546  1.00  0.00     0.060 A 
ATOM      4  C   UNL     1      52.810  59.949   8.545  1.00  0.00     0.162 A 
ATOM      5  C   UNL     1      53.330  58.866   6.425  1.00  0.00     0.162 A 
ATOM      6  C   UNL     1      53.661  59.802   7.435  1.00  0.00     0.200 A 
ENDROOT
BRANCH   1   7
ATOM      7  C   UNL     1      50.085  57.431   7.764  1.00  0.00     0.072 C 
ATOM      8  O   UNL     1      50.023  56.474   8.581  1.00  0.00    -0.545 OA
ATOM      9  O   UNL     1      48.979  57.710   6.968  1.00  0.00    -0.545 OA
ENDBRANCH   1   7
BRANCH   4  10
ATOM     10  O   UNL     1      53.101  60.860   9.561  1.00  0.00    -0.504 OA
ATOM     11  H   UNL     1      53.947  61.416   9.562  1.00  0.00     0.293 HD
ENDBRANCH   4  10
BRANCH   5  12
ATOM     12  O   UNL     1      54.124  58.664   5.294  1.00  0.00    -0.504 OA
ATOM     13  H   UNL     1      54.098  57.831   4.724  1.00  0.00     0.293 HD
ENDBRANCH   5  12
BRANCH   6  14
ATOM     14  O   UNL     1      54.810  60.593   7.370  1.00  0.00    -0.502 OA
ATOM     15  H   UNL     1      54.962  61.319   6.684  1.00  0.00     0.293 HD
ENDBRANCH   6  14
TORSDOF 4
ENDMDL
MODEL 9
REMARK VINA RESULT:    -5.022      8.662     10.172
REMARK INTER + INTRA:          -5.801
REMARK INTER:                  -5.756
REMARK INTRA:                  -0.045
REMARK UNBOUND:                -0.045
REMARK SMILES O=C([O-])c1cc(O)c(O)c(O)c1
REMARK SMILES IDX 4 1 5 2 12 3 6 4 10 5 8 6 2 7 1 8 3 9 7 10 11 12 9 14
REMARK H PARENT 7 11 11 13 9 15
REMARK Flexibility Score: inf
ROOT
ATOM      1  C   UNL     1      53.380  61.361  -1.272  1.00  0.00     0.005 A 
ATOM      2  C   UNL     1      53.799  60.710  -0.102  1.00  0.00     0.060 A 
ATOM      3  C   UNL     1      52.616  60.651  -2.210  1.00  0.00     0.060 A 
ATOM      4  C   UNL     1      53.464  59.372   0.129  1.00  0.00     0.162 A 
ATOM      5  C   UNL     1      52.271  59.312  -1.995  1.00  0.00     0.162 A 
ATOM      6  C   UNL     1      52.698  58.661  -0.813  1.00  0.00     0.200 A 
ENDROOT
BRANCH   1   7
ATOM      7  C   UNL     1      53.736  62.777  -1.515  1.00  0.00     0.072 C 
ATOM      8  O   UNL     1      54.729  63.075  -2.231  1.00  0.00    -0.545 OA
ATOM      9  O   UNL     1      52.978  63.800  -0.956  1.00  0.00    -0.545 OA
ENDBRANCH   1   7
BRANCH   4  10
ATOM     10  O   UNL     1      53.902  58.766   1.306  1.00  0.00    -0.504 OA
ATOM     11  H   UNL     1      54.481  57.936   1.304  1.00  0.00     0.293 HD
ENDBRANCH   4  10
BRANCH   5  12
ATOM     12  O   UNL     1      51.509  58.673  -2.976  1.00  0.00    -0.504 OA
ATOM     13  H   UNL     1      50.536  58.871  -3.156  1.00  0.00     0.293 HD
ENDBRANCH   5  12
BRANCH   6  14
ATOM     14  O   UNL     1      52.385  57.326  -0.542  1.00  0.00    -0.502 OA
ATOM     15  H   UNL     1      52.666  56.549  -1.123  1.00  0.00     0.293 HD
ENDBRANCH   6  14
TORSDOF 4
ENDMDL
