MODEL 1
REMARK VINA RESULT:    -4.166      0.000      0.000
REMARK INTER + INTRA:          -6.152
REMARK INTER:                  -5.870
REMARK INTRA:                  -0.282
REMARK UNBOUND:                -0.282
REMARK SMILES CCCCCCCCC(=O)[O-]
REMARK SMILES IDX 6 1 7 2 8 3 9 4 10 5 11 6 5 7 4 8 3 9 2 10 1 11
REMARK H PARENT
REMARK Flexibility Score: inf
ROOT
ATOM      1  C   UNL     1      17.888  22.994  46.788  1.00  0.00     0.000 C 
ENDROOT
BRANCH   1   2
ATOM      2  C   UNL     1      18.891  21.928  47.245  1.00  0.00     0.006 C 
BRANCH   2   3
ATOM      3  C   UNL     1      19.342  22.180  48.687  1.00  0.00     0.053 C 
BRANCH   3   4
ATOM      4  C   UNL     1      20.269  23.352  48.749  1.00  0.00     0.041 C 
ATOM      5  O   UNL     1      21.275  23.405  47.994  1.00  0.00    -0.550 OA
ATOM      6  O   UNL     1      19.995  24.410  49.607  1.00  0.00    -0.550 OA
ENDBRANCH   3   4
ENDBRANCH   2   3
ENDBRANCH   1   2
BRANCH   1   7
ATOM      7  C   UNL     1      16.702  23.089  47.758  1.00  0.00     0.000 C 
BRANCH   7   8
ATOM      8  C   UNL     1      15.344  22.955  47.038  1.00  0.00    -0.000 C 
BRANCH   8   9
ATOM      9  C   UNL     1      14.140  23.378  47.901  1.00  0.00    -0.000 C 
BRANCH   9  10
ATOM     10  C   UNL     1      12.766  23.074  47.281  1.00  0.00    -0.003 C 
ATOM     11  C   UNL     1      12.696  21.686  46.645  1.00  0.00     0.004 C 
ENDBRANCH   9  10
ENDBRANCH   8   9
ENDBRANCH   7   8
ENDBRANCH   1   7
TORSDOF 7
ENDMDL
MODEL 2
REMARK VINA RESULT:    -4.151      3.636      6.270
REMARK INTER + INTRA:          -6.131
REMARK INTER:                  -5.836
REMARK INTRA:                  -0.295
REMARK UNBOUND:                -0.282
REMARK SMILES CCCCCCCCC(=O)[O-]
REMARK SMILES IDX 6 1 7 2 8 3 9 4 10 5 11 6 5 7 4 8 3 9 2 10 1 11
REMARK H PARENT
REMARK Flexibility Score: inf
ROOT
ATOM      1  C   UNL     1      16.005  23.292  47.745  1.00  0.00     0.000 C 
ENDROOT
BRANCH   1   2
ATOM      2  C   UNL     1      15.415  22.733  46.445  1.00  0.00     0.006 C 
BRANCH   2   3
ATOM      3  C   UNL     1      14.078  23.404  46.114  1.00  0.00     0.053 C 
BRANCH   3   4
ATOM      4  C   UNL     1      13.014  22.947  47.061  1.00  0.00     0.041 C 
ATOM      5  O   UNL     1      12.446  23.772  47.823  1.00  0.00    -0.550 OA
ATOM      6  O   UNL     1      12.614  21.616  47.066  1.00  0.00    -0.550 OA
ENDBRANCH   3   4
ENDBRANCH   2   3
ENDBRANCH   1   2
BRANCH   1   7
ATOM      7  C   UNL     1      17.514  23.538  47.605  1.00  0.00     0.000 C 
BRANCH   7   8
ATOM      8  C   UNL     1      18.322  22.222  47.591  1.00  0.00    -0.000 C 
BRANCH   8   9
ATOM      9  C   UNL     1      19.359  22.120  48.726  1.00  0.00    -0.000 C 
BRANCH   9  10
ATOM     10  C   UNL     1      20.303  23.328  48.845  1.00  0.00    -0.003 C 
ATOM     11  C   UNL     1      21.219  23.487  47.631  1.00  0.00     0.004 C 
ENDBRANCH   9  10
ENDBRANCH   8   9
ENDBRANCH   7   8
ENDBRANCH   1   7
TORSDOF 7
ENDMDL
MODEL 3
REMARK VINA RESULT:    -4.147     10.592     12.378
REMARK INTER + INTRA:          -6.125
REMARK INTER:                  -5.884
REMARK INTRA:                  -0.242
REMARK UNBOUND:                -0.282
REMARK SMILES CCCCCCCCC(=O)[O-]
REMARK SMILES IDX 6 1 7 2 8 3 9 4 10 5 11 6 5 7 4 8 3 9 2 10 1 11
REMARK H PARENT
REMARK Flexibility Score: inf
ROOT
ATOM      1  C   UNL     1      12.144  22.158  37.202  1.00  0.00     0.000 C 
ENDROOT
BRANCH   1   2
ATOM      2  C   UNL     1      11.588  22.086  35.775  1.00  0.00     0.006 C 
BRANCH   2   3
ATOM      3  C   UNL     1      12.684  22.365  34.742  1.00  0.00     0.053 C 
BRANCH   3   4
ATOM      4  C   UNL     1      13.556  21.162  34.565  1.00  0.00     0.041 C 
ATOM      5  O   UNL     1      13.043  20.016  34.475  1.00  0.00    -0.550 OA
ATOM      6  O   UNL     1      14.932  21.312  34.451  1.00  0.00    -0.550 OA
ENDBRANCH   3   4
ENDBRANCH   2   3
ENDBRANCH   1   2
BRANCH   1   7
ATOM      7  C   UNL     1      11.009  22.254  38.233  1.00  0.00     0.000 C 
BRANCH   7   8
ATOM      8  C   UNL     1      11.351  21.523  39.549  1.00  0.00    -0.000 C 
BRANCH   8   9
ATOM      9  C   UNL     1      10.112  21.067  40.343  1.00  0.00    -0.000 C 
BRANCH   9  10
ATOM     10  C   UNL     1       9.314  22.207  40.998  1.00  0.00    -0.003 C 
ATOM     11  C   UNL     1      10.113  22.954  42.066  1.00  0.00     0.004 C 
ENDBRANCH   9  10
ENDBRANCH   8   9
ENDBRANCH   7   8
ENDBRANCH   1   7
TORSDOF 7
ENDMDL
MODEL 4
REMARK VINA RESULT:    -4.128     12.535     13.618
REMARK INTER + INTRA:          -6.099
REMARK INTER:                  -5.769
REMARK INTRA:                  -0.330
REMARK UNBOUND:                -0.282
REMARK SMILES CCCCCCCCC(=O)[O-]
REMARK SMILES IDX 6 1 7 2 8 3 9 4 10 5 11 6 5 7 4 8 3 9 2 10 1 11
REMARK H PARENT
REMARK Flexibility Score: inf
ROOT
ATOM      1  C   UNL     1      21.735  22.070  36.480  1.00  0.00     0.000 C 
ENDROOT
BRANCH   1   2
ATOM      2  C   UNL     1      23.066  22.075  35.719  1.00  0.00     0.006 C 
BRANCH   2   3
ATOM      3  C   UNL     1      24.229  21.696  36.641  1.00  0.00     0.053 C 
BRANCH   3   4
ATOM      4  C   UNL     1      24.877  22.924  37.198  1.00  0.00     0.041 C 
ATOM      5  O   UNL     1      25.910  23.397  36.656  1.00  0.00    -0.550 OA
ATOM      6  O   UNL     1      24.312  23.574  38.288  1.00  0.00    -0.550 OA
ENDBRANCH   3   4
ENDBRANCH   2   3
ENDBRANCH   1   2
BRANCH   1   7
ATOM      7  C   UNL     1      20.570  21.698  35.552  1.00  0.00     0.000 C 
BRANCH   7   8
ATOM      8  C   UNL     1      21.044  21.362  34.122  1.00  0.00    -0.000 C 
BRANCH   8   9
ATOM      9  C   UNL     1      19.932  20.798  33.217  1.00  0.00    -0.000 C 
BRANCH   9  10
ATOM     10  C   UNL     1      19.152  21.859  32.423  1.00  0.00    -0.003 C 
ATOM     11  C   UNL     1      19.899  23.187  32.313  1.00  0.00     0.004 C 
ENDBRANCH   9  10
ENDBRANCH   8   9
ENDBRANCH   7   8
ENDBRANCH   1   7
TORSDOF 7
ENDMDL
MODEL 5
REMARK VINA RESULT:    -4.089     10.658     12.558
REMARK INTER + INTRA:          -6.045
REMARK INTER:                  -5.821
REMARK INTRA:                  -0.224
REMARK UNBOUND:                -0.282
REMARK SMILES CCCCCCCCC(=O)[O-]
REMARK SMILES IDX 6 1 7 2 8 3 9 4 10 5 11 6 5 7 4 8 3 9 2 10 1 11
REMARK H PARENT
REMARK Flexibility Score: inf
ROOT
ATOM      1  C   UNL     1      10.882  22.067  37.938  1.00  0.00     0.000 C 
ENDROOT
BRANCH   1   2
ATOM      2  C   UNL     1      11.043  22.516  39.395  1.00  0.00     0.006 C 
BRANCH   2   3
ATOM      3  C   UNL     1       9.950  21.911  40.281  1.00  0.00     0.053 C 
BRANCH   3   4
ATOM      4  C   UNL     1       9.290  22.976  41.098  1.00  0.00     0.041 C 
ATOM      5  O   UNL     1       8.594  23.864  40.539  1.00  0.00    -0.550 OA
ATOM      6  O   UNL     1       9.403  22.960  42.482  1.00  0.00    -0.550 OA
ENDBRANCH   3   4
ENDBRANCH   2   3
ENDBRANCH   1   2
BRANCH   1   7
ATOM      7  C   UNL     1      12.249  21.880  37.263  1.00  0.00     0.000 C 
BRANCH   7   8
ATOM      8  C   UNL     1      12.324  22.579  35.889  1.00  0.00    -0.000 C 
BRANCH   8   9
ATOM      9  C   UNL     1      12.299  21.605  34.696  1.00  0.00    -0.000 C 
BRANCH   9  10
ATOM     10  C   UNL     1      13.496  20.642  34.627  1.00  0.00    -0.003 C 
ATOM     11  C   UNL     1      14.839  21.370  34.566  1.00  0.00     0.004 C 
ENDBRANCH   9  10
ENDBRANCH   8   9
ENDBRANCH   7   8
ENDBRANCH   1   7
TORSDOF 7
ENDMDL
MODEL 6
REMARK VINA RESULT:    -4.078     12.315     13.464
REMARK INTER + INTRA:          -6.029
REMARK INTER:                  -5.662
REMARK INTRA:                  -0.367
REMARK UNBOUND:                -0.282
REMARK SMILES CCCCCCCCC(=O)[O-]
REMARK SMILES IDX 6 1 7 2 8 3 9 4 10 5 11 6 5 7 4 8 3 9 2 10 1 11
REMARK H PARENT
REMARK Flexibility Score: inf
ROOT
ATOM      1  C   UNL     1      21.921  21.797  36.649  1.00  0.00     0.000 C 
ENDROOT
BRANCH   1   2
ATOM      2  C   UNL     1      23.226  21.977  35.865  1.00  0.00     0.006 C 
BRANCH   2   3
ATOM      3  C   UNL     1      24.299  22.647  36.730  1.00  0.00     0.053 C 
BRANCH   3   4
ATOM      4  C   UNL     1      24.749  21.723  37.817  1.00  0.00     0.041 C 
ATOM      5  O   UNL     1      24.662  22.073  39.023  1.00  0.00    -0.550 OA
ATOM      6  O   UNL     1      25.219  20.454  37.500  1.00  0.00    -0.550 OA
ENDBRANCH   3   4
ENDBRANCH   2   3
ENDBRANCH   1   2
BRANCH   1   7
ATOM      7  C   UNL     1      20.729  21.606  35.700  1.00  0.00     0.000 C 
BRANCH   7   8
ATOM      8  C   UNL     1      21.173  21.404  34.236  1.00  0.00    -0.000 C 
BRANCH   8   9
ATOM      9  C   UNL     1      20.075  20.814  33.331  1.00  0.00    -0.000 C 
BRANCH   9  10
ATOM     10  C   UNL     1      19.218  21.859  32.596  1.00  0.00    -0.003 C 
ATOM     11  C   UNL     1      19.911  23.216  32.477  1.00  0.00     0.004 C 
ENDBRANCH   9  10
ENDBRANCH   8   9
ENDBRANCH   7   8
ENDBRANCH   1   7
TORSDOF 7
ENDMDL
MODEL 7
REMARK VINA RESULT:    -4.043     13.406     14.883
REMARK INTER + INTRA:          -5.979
REMARK INTER:                  -5.659
REMARK INTRA:                  -0.320
REMARK UNBOUND:                -0.282
REMARK SMILES CCCCCCCCC(=O)[O-]
REMARK SMILES IDX 6 1 7 2 8 3 9 4 10 5 11 6 5 7 4 8 3 9 2 10 1 11
REMARK H PARENT
REMARK Flexibility Score: inf
ROOT
ATOM      1  C   UNL     1      20.368  21.188  35.391  1.00  0.00     0.000 C 
ENDROOT
BRANCH   1   2
ATOM      2  C   UNL     1      20.926  20.942  33.984  1.00  0.00     0.006 C 
BRANCH   2   3
ATOM      3  C   UNL     1      19.797  20.674  32.984  1.00  0.00     0.053 C 
BRANCH   3   4
ATOM      4  C   UNL     1      19.099  21.949  32.628  1.00  0.00     0.041 C 
ATOM      5  O   UNL     1      17.849  22.040  32.744  1.00  0.00    -0.550 OA
ATOM      6  O   UNL     1      19.835  23.052  32.215  1.00  0.00    -0.550 OA
ENDBRANCH   3   4
ENDBRANCH   2   3
ENDBRANCH   1   2
BRANCH   1   7
ATOM      7  C   UNL     1      21.224  22.210  36.153  1.00  0.00     0.000 C 
BRANCH   7   8
ATOM      8  C   UNL     1      22.545  21.601  36.667  1.00  0.00    -0.000 C 
BRANCH   8   9
ATOM      9  C   UNL     1      23.799  22.167  35.973  1.00  0.00    -0.000 C 
BRANCH   9  10
ATOM     10  C   UNL     1      25.116  21.929  36.731  1.00  0.00    -0.003 C 
ATOM     11  C   UNL     1      25.049  20.725  37.672  1.00  0.00     0.004 C 
ENDBRANCH   9  10
ENDBRANCH   8   9
ENDBRANCH   7   8
ENDBRANCH   1   7
TORSDOF 7
ENDMDL
MODEL 8
REMARK VINA RESULT:    -3.986     13.449     14.895
REMARK INTER + INTRA:          -5.900
REMARK INTER:                  -5.623
REMARK INTRA:                  -0.277
REMARK UNBOUND:                -0.282
REMARK SMILES CCCCCCCCC(=O)[O-]
REMARK SMILES IDX 6 1 7 2 8 3 9 4 10 5 11 6 5 7 4 8 3 9 2 10 1 11
REMARK H PARENT
REMARK Flexibility Score: inf
ROOT
ATOM      1  C   UNL     1      15.407  21.436  35.724  1.00  0.00     0.000 C 
ENDROOT
BRANCH   1   2
ATOM      2  C   UNL     1      14.583  21.232  34.447  1.00  0.00     0.006 C 
BRANCH   2   3
ATOM      3  C   UNL     1      13.174  20.730  34.776  1.00  0.00     0.053 C 
BRANCH   3   4
ATOM      4  C   UNL     1      12.214  21.874  34.853  1.00  0.00     0.041 C 
ATOM      5  O   UNL     1      11.989  22.581  33.836  1.00  0.00    -0.550 OA
ATOM      6  O   UNL     1      11.531  22.130  36.035  1.00  0.00    -0.550 OA
ENDBRANCH   3   4
ENDBRANCH   2   3
ENDBRANCH   1   2
BRANCH   1   7
ATOM      7  C   UNL     1      16.842  21.872  35.392  1.00  0.00     0.000 C 
BRANCH   7   8
ATOM      8  C   UNL     1      17.119  21.864  33.873  1.00  0.00    -0.000 C 
BRANCH   8   9
ATOM      9  C   UNL     1      18.543  21.405  33.506  1.00  0.00    -0.000 C 
BRANCH   9  10
ATOM     10  C   UNL     1      19.118  22.049  32.234  1.00  0.00    -0.003 C 
ATOM     11  C   UNL     1      19.879  23.344  32.516  1.00  0.00     0.004 C 
ENDBRANCH   9  10
ENDBRANCH   8   9
ENDBRANCH   7   8
ENDBRANCH   1   7
TORSDOF 7
ENDMDL
MODEL 9
REMARK VINA RESULT:    -3.953      4.802      6.751
REMARK INTER + INTRA:          -5.853
REMARK INTER:                  -5.515
REMARK INTRA:                  -0.338
REMARK UNBOUND:                -0.282
REMARK SMILES CCCCCCCCC(=O)[O-]
REMARK SMILES IDX 6 1 7 2 8 3 9 4 10 5 11 6 5 7 4 8 3 9 2 10 1 11
REMARK H PARENT
REMARK Flexibility Score: inf
ROOT
ATOM      1  C   UNL     1      12.843  22.223  44.362  1.00  0.00     0.000 C 
ENDROOT
BRANCH   1   2
ATOM      2  C   UNL     1      12.065  21.849  45.628  1.00  0.00     0.006 C 
BRANCH   2   3
ATOM      3  C   UNL     1      13.005  21.702  46.829  1.00  0.00     0.053 C 
BRANCH   3   4
ATOM      4  C   UNL     1      13.367  23.046  47.378  1.00  0.00     0.041 C 
ATOM      5  O   UNL     1      14.566  23.318  47.647  1.00  0.00    -0.550 OA
ATOM      6  O   UNL     1      12.386  24.015  47.545  1.00  0.00    -0.550 OA
ENDBRANCH   3   4
ENDBRANCH   2   3
ENDBRANCH   1   2
BRANCH   1   7
ATOM      7  C   UNL     1      12.157  23.374  43.612  1.00  0.00     0.000 C 
BRANCH   7   8
ATOM      8  C   UNL     1      11.492  22.904  42.301  1.00  0.00    -0.000 C 
BRANCH   8   9
ATOM      9  C   UNL     1       9.954  22.986  42.322  1.00  0.00    -0.000 C 
BRANCH   9  10
ATOM     10  C   UNL     1       9.259  22.358  41.102  1.00  0.00    -0.003 C 
ATOM     11  C   UNL     1       9.975  21.108  40.591  1.00  0.00     0.004 C 
ENDBRANCH   9  10
ENDBRANCH   8   9
ENDBRANCH   7   8
ENDBRANCH   1   7
TORSDOF 7
ENDMDL
