MODEL 1
REMARK VINA RESULT:    -6.876      0.000      0.000
REMARK INTER + INTRA:          -7.077
REMARK INTER:                  -7.077
REMARK INTRA:                   0.000
REMARK UNBOUND:                 0.000
REMARK SMILES C[C@@H]1CC[C@]2(OC1)O[C@H]1C[C@H]3[C@@H]4CC=C5C[C@@H](O)CC[C@]5(C)[C@@H]4CC[C@]3(C)[C@H]1[C@@H]2C
REMARK SMILES IDX 1 1 2 2 3 3 4 4 5 5 29 6 28 7 9 8 8 9 10 10 11 11 26 12
REMARK SMILES IDX 25 13 24 14 23 15 12 16 13 17 14 18 15 19 21 20 20 21 19 22
REMARK SMILES IDX 17 23 16 24 22 25 27 26 30 27 6 28 7 29 18 30
REMARK H PARENT 18 31
REMARK Flexibility Score: inf
ROOT
ATOM      1  C   UNL     1     139.124 127.500 110.944  1.00  0.00     0.010 C 
ATOM      2  C   UNL     1     138.552 126.550 109.879  1.00  0.00     0.012 C 
ATOM      3  C   UNL     1     137.675 127.291 108.857  1.00  0.00     0.011 C 
ATOM      4  C   UNL     1     136.315 127.666 109.458  1.00  0.00     0.066 C 
ATOM      5  C   UNL     1     135.651 126.435 110.136  1.00  0.00     0.171 C 
ATOM      6  C   UNL     1     134.307 126.755 110.869  1.00  0.00     0.052 C 
ATOM      7  C   UNL     1     133.265 125.955 110.096  1.00  0.00     0.033 C 
ATOM      8  C   UNL     1     134.003 125.514 108.844  1.00  0.00     0.126 C 
ATOM      9  O   UNL     1     135.378 125.465 109.133  1.00  0.00    -0.346 OA
ATOM     10  C   UNL     1     133.468 124.117 108.481  1.00  0.00     0.037 C 
ATOM     11  C   UNL     1     132.298 123.900 109.443  1.00  0.00     0.002 C 
ATOM     12  C   UNL     1     132.717 124.634 110.720  1.00  0.00    -0.024 C 
ATOM     13  C   UNL     1     131.461 124.839 111.607  1.00  0.00     0.008 C 
ATOM     14  C   UNL     1     130.364 123.753 111.419  1.00  0.00     0.005 C 
ATOM     15  C   UNL     1     130.884 122.344 110.969  1.00  0.00     0.003 C 
ATOM     16  C   UNL     1     131.822 122.445 109.689  1.00  0.00     0.000 C 
ATOM     17  C   UNL     1     131.204 121.868 108.387  1.00  0.00     0.031 C 
ATOM     18  C   UNL     1     129.708 121.787 108.392  1.00  0.00    -0.027 C 
ATOM     19  C   UNL     1     129.022 121.414 109.485  1.00  0.00    -0.065 C 
ATOM     20  C   UNL     1     129.749 121.242 110.818  1.00  0.00    -0.008 C 
ATOM     21  C   UNL     1     128.716 121.309 111.993  1.00  0.00     0.014 C 
ATOM     22  C   UNL     1     127.480 120.435 111.760  1.00  0.00     0.033 C 
ATOM     23  C   UNL     1     126.733 120.928 110.516  1.00  0.00     0.118 C 
ATOM     24  C   UNL     1     127.626 120.843 109.274  1.00  0.00     0.063 C 
ATOM     25  C   UNL     1     130.413 119.836 110.853  1.00  0.00     0.016 C 
ATOM     26  C   UNL     1     133.818 123.855 111.517  1.00  0.00     0.012 C 
ATOM     27  C   UNL     1     133.910 128.243 110.953  1.00  0.00     0.014 C 
ATOM     28  O   UNL     1     136.540 125.890 111.107  1.00  0.00    -0.349 OA
ATOM     29  C   UNL     1     137.743 125.413 110.525  1.00  0.00     0.167 C 
ENDROOT
BRANCH  23  30
ATOM     30  O   UNL     1     125.586 120.148 110.308  1.00  0.00    -0.393 OA
ATOM     31  H   UNL     1     125.399 120.165 109.332  1.00  0.00     0.210 HD
ENDBRANCH  23  30
TORSDOF 1
ENDMDL
MODEL 2
REMARK VINA RESULT:    -6.605      8.631     10.137
REMARK INTER + INTRA:          -6.798
REMARK INTER:                  -6.798
REMARK INTRA:                   0.000
REMARK UNBOUND:                 0.000
REMARK SMILES C[C@@H]1CC[C@]2(OC1)O[C@H]1C[C@H]3[C@@H]4CC=C5C[C@@H](O)CC[C@]5(C)[C@@H]4CC[C@]3(C)[C@H]1[C@@H]2C
REMARK SMILES IDX 1 1 2 2 3 3 4 4 5 5 29 6 28 7 9 8 8 9 10 10 11 11 26 12
REMARK SMILES IDX 25 13 24 14 23 15 12 16 13 17 14 18 15 19 21 20 20 21 19 22
REMARK SMILES IDX 17 23 16 24 22 25 27 26 30 27 6 28 7 29 18 30
REMARK H PARENT 18 31
REMARK Flexibility Score: inf
ROOT
ATOM      1  C   UNL     1     133.310 128.079 108.169  1.00  0.00     0.010 C 
ATOM      2  C   UNL     1     132.737 128.503 109.530  1.00  0.00     0.012 C 
ATOM      3  C   UNL     1     132.013 127.345 110.236  1.00  0.00     0.011 C 
ATOM      4  C   UNL     1     130.651 127.063 109.590  1.00  0.00     0.066 C 
ATOM      5  C   UNL     1     129.826 128.373 109.443  1.00  0.00     0.171 C 
ATOM      6  C   UNL     1     128.466 128.192 108.694  1.00  0.00     0.052 C 
ATOM      7  C   UNL     1     127.417 128.530 109.747  1.00  0.00     0.033 C 
ATOM      8  C   UNL     1     128.205 128.565 111.045  1.00  0.00     0.126 C 
ATOM      9  O   UNL     1     129.543 128.872 110.744  1.00  0.00    -0.346 OA
ATOM     10  C   UNL     1     127.573 129.662 111.920  1.00  0.00     0.037 C 
ATOM     11  C   UNL     1     126.317 130.080 111.152  1.00  0.00     0.002 C 
ATOM     12  C   UNL     1     126.703 129.916 109.679  1.00  0.00    -0.024 C 
ATOM     13  C   UNL     1     125.408 129.907 108.827  1.00  0.00     0.008 C 
ATOM     14  C   UNL     1     124.233 130.718 109.445  1.00  0.00     0.005 C 
ATOM     15  C   UNL     1     124.654 131.915 110.366  1.00  0.00     0.003 C 
ATOM     16  C   UNL     1     125.692 131.461 111.481  1.00  0.00     0.000 C 
ATOM     17  C   UNL     1     125.125 131.449 112.927  1.00  0.00     0.031 C 
ATOM     18  C   UNL     1     123.632 131.355 113.008  1.00  0.00    -0.027 C 
ATOM     19  C   UNL     1     122.833 132.021 112.158  1.00  0.00    -0.065 C 
ATOM     20  C   UNL     1     123.437 132.748 110.957  1.00  0.00    -0.008 C 
ATOM     21  C   UNL     1     122.328 132.998 109.881  1.00  0.00     0.014 C 
ATOM     22  C   UNL     1     121.038 133.580 110.467  1.00  0.00     0.033 C 
ATOM     23  C   UNL     1     120.437 132.585 111.466  1.00  0.00     0.118 C 
ATOM     24  C   UNL     1     121.411 132.312 112.617  1.00  0.00     0.063 C 
ATOM     25  C   UNL     1     123.965 134.136 111.422  1.00  0.00     0.016 C 
ATOM     26  C   UNL     1     127.664 131.053 109.187  1.00  0.00     0.012 C 
ATOM     27  C   UNL     1     128.202 126.802 108.079  1.00  0.00     0.014 C 
ATOM     28  O   UNL     1     130.584 129.332 108.711  1.00  0.00    -0.349 OA
ATOM     29  C   UNL     1     131.779 129.697 109.383  1.00  0.00     0.167 C 
ENDROOT
BRANCH  23  30
ATOM     30  O   UNL     1     119.242 133.100 111.991  1.00  0.00    -0.393 OA
ATOM     31  H   UNL     1     119.462 133.490 112.878  1.00  0.00     0.210 HD
ENDBRANCH  23  30
TORSDOF 1
ENDMDL
MODEL 3
REMARK VINA RESULT:    -6.435     10.133     14.086
REMARK INTER + INTRA:          -6.623
REMARK INTER:                  -6.623
REMARK INTRA:                   0.000
REMARK UNBOUND:                 0.000
REMARK SMILES C[C@@H]1CC[C@]2(OC1)O[C@H]1C[C@H]3[C@@H]4CC=C5C[C@@H](O)CC[C@]5(C)[C@@H]4CC[C@]3(C)[C@H]1[C@@H]2C
REMARK SMILES IDX 1 1 2 2 3 3 4 4 5 5 29 6 28 7 9 8 8 9 10 10 11 11 26 12
REMARK SMILES IDX 25 13 24 14 23 15 12 16 13 17 14 18 15 19 21 20 20 21 19 22
REMARK SMILES IDX 17 23 16 24 22 25 27 26 30 27 6 28 7 29 18 30
REMARK H PARENT 18 31
REMARK Flexibility Score: inf
ROOT
ATOM      1  C   UNL     1     118.875 131.137 111.998  1.00  0.00     0.010 C 
ATOM      2  C   UNL     1     119.740 132.391 112.197  1.00  0.00     0.012 C 
ATOM      3  C   UNL     1     119.682 133.331 110.982  1.00  0.00     0.011 C 
ATOM      4  C   UNL     1     120.502 132.778 109.811  1.00  0.00     0.066 C 
ATOM      5  C   UNL     1     121.931 132.378 110.275  1.00  0.00     0.171 C 
ATOM      6  C   UNL     1     122.800 131.704 109.164  1.00  0.00     0.052 C 
ATOM      7  C   UNL     1     123.950 132.681 108.950  1.00  0.00     0.033 C 
ATOM      8  C   UNL     1     123.504 133.932 109.687  1.00  0.00     0.126 C 
ATOM      9  O   UNL     1     122.608 133.553 110.702  1.00  0.00    -0.346 OA
ATOM     10  C   UNL     1     124.770 134.573 110.283  1.00  0.00     0.037 C 
ATOM     11  C   UNL     1     125.920 133.755 109.692  1.00  0.00     0.002 C 
ATOM     12  C   UNL     1     125.348 132.342 109.555  1.00  0.00    -0.024 C 
ATOM     13  C   UNL     1     126.259 131.530 108.599  1.00  0.00     0.008 C 
ATOM     14  C   UNL     1     127.746 131.987 108.595  1.00  0.00     0.005 C 
ATOM     15  C   UNL     1     128.253 132.636 109.928  1.00  0.00     0.003 C 
ATOM     16  C   UNL     1     127.291 133.804 110.416  1.00  0.00     0.000 C 
ATOM     17  C   UNL     1     127.894 135.230 110.301  1.00  0.00     0.031 C 
ATOM     18  C   UNL     1     129.016 135.352 109.315  1.00  0.00    -0.027 C 
ATOM     19  C   UNL     1     129.951 134.397 109.183  1.00  0.00    -0.065 C 
ATOM     20  C   UNL     1     129.783 133.063 109.911  1.00  0.00    -0.008 C 
ATOM     21  C   UNL     1     130.681 131.976 109.230  1.00  0.00     0.014 C 
ATOM     22  C   UNL     1     132.114 132.450 108.973  1.00  0.00     0.033 C 
ATOM     23  C   UNL     1     132.093 133.642 108.009  1.00  0.00     0.118 C 
ATOM     24  C   UNL     1     131.296 134.808 108.601  1.00  0.00     0.063 C 
ATOM     25  C   UNL     1     130.271 133.225 111.379  1.00  0.00     0.016 C 
ATOM     26  C   UNL     1     125.232 131.612 110.938  1.00  0.00     0.012 C 
ATOM     27  C   UNL     1     122.088 131.391 107.832  1.00  0.00     0.014 C 
ATOM     28  O   UNL     1     121.838 131.454 111.355  1.00  0.00    -0.349 OA
ATOM     29  C   UNL     1     121.203 132.018 112.491  1.00  0.00     0.167 C 
ENDROOT
BRANCH  23  30
ATOM     30  O   UNL     1     133.404 134.069 107.750  1.00  0.00    -0.393 OA
ATOM     31  H   UNL     1     133.789 133.433 107.091  1.00  0.00     0.210 HD
ENDBRANCH  23  30
TORSDOF 1
ENDMDL
MODEL 4
REMARK VINA RESULT:    -6.390      7.591      9.332
REMARK INTER + INTRA:          -6.577
REMARK INTER:                  -6.577
REMARK INTRA:                   0.000
REMARK UNBOUND:                 0.000
REMARK SMILES C[C@@H]1CC[C@]2(OC1)O[C@H]1C[C@H]3[C@@H]4CC=C5C[C@@H](O)CC[C@]5(C)[C@@H]4CC[C@]3(C)[C@H]1[C@@H]2C
REMARK SMILES IDX 1 1 2 2 3 3 4 4 5 5 29 6 28 7 9 8 8 9 10 10 11 11 26 12
REMARK SMILES IDX 25 13 24 14 23 15 12 16 13 17 14 18 15 19 21 20 20 21 19 22
REMARK SMILES IDX 17 23 16 24 22 25 27 26 30 27 6 28 7 29 18 30
REMARK H PARENT 18 31
REMARK Flexibility Score: inf
ROOT
ATOM      1  C   UNL     1     134.164 126.028 110.213  1.00  0.00     0.010 C 
ATOM      2  C   UNL     1     133.469 126.688 111.415  1.00  0.00     0.012 C 
ATOM      3  C   UNL     1     132.462 125.743 112.089  1.00  0.00     0.011 C 
ATOM      4  C   UNL     1     131.187 125.597 111.251  1.00  0.00     0.066 C 
ATOM      5  C   UNL     1     130.626 126.991 110.849  1.00  0.00     0.171 C 
ATOM      6  C   UNL     1     129.384 126.932 109.900  1.00  0.00     0.052 C 
ATOM      7  C   UNL     1     128.260 127.545 110.726  1.00  0.00     0.033 C 
ATOM      8  C   UNL     1     128.835 127.610 112.130  1.00  0.00     0.126 C 
ATOM      9  O   UNL     1     130.236 127.675 112.032  1.00  0.00    -0.346 OA
ATOM     10  C   UNL     1     128.271 128.885 112.783  1.00  0.00     0.037 C 
ATOM     11  C   UNL     1     127.235 129.396 111.780  1.00  0.00     0.002 C 
ATOM     12  C   UNL     1     127.807 129.006 110.414  1.00  0.00    -0.024 C 
ATOM     13  C   UNL     1     126.674 129.095 109.359  1.00  0.00     0.008 C 
ATOM     14  C   UNL     1     125.572 130.140 109.695  1.00  0.00     0.005 C 
ATOM     15  C   UNL     1     126.043 131.358 110.562  1.00  0.00     0.003 C 
ATOM     16  C   UNL     1     126.808 130.884 111.873  1.00  0.00     0.000 C 
ATOM     17  C   UNL     1     126.034 131.126 113.197  1.00  0.00     0.031 C 
ATOM     18  C   UNL     1     124.552 131.269 113.033  1.00  0.00    -0.027 C 
ATOM     19  C   UNL     1     124.015 131.945 112.004  1.00  0.00    -0.065 C 
ATOM     20  C   UNL     1     124.909 132.429 110.862  1.00  0.00    -0.008 C 
ATOM     21  C   UNL     1     124.034 132.717 109.596  1.00  0.00     0.014 C 
ATOM     22  C   UNL     1     122.786 133.551 109.901  1.00  0.00     0.033 C 
ATOM     23  C   UNL     1     121.881 132.782 110.870  1.00  0.00     0.118 C 
ATOM     24  C   UNL     1     122.609 132.499 112.188  1.00  0.00     0.063 C 
ATOM     25  C   UNL     1     125.585 133.765 111.283  1.00  0.00     0.016 C 
ATOM     26  C   UNL     1     129.009 129.919 109.991  1.00  0.00     0.012 C 
ATOM     27  C   UNL     1     128.987 125.537 109.377  1.00  0.00     0.014 C 
ATOM     28  O   UNL     1     131.637 127.733 110.172  1.00  0.00    -0.349 OA
ATOM     29  C   UNL     1     132.760 127.989 111.001  1.00  0.00     0.167 C 
ENDROOT
BRANCH  23  30
ATOM     30  O   UNL     1     120.725 133.528 111.137  1.00  0.00    -0.393 OA
ATOM     31  H   UNL     1     119.974 132.881 111.207  1.00  0.00     0.210 HD
ENDBRANCH  23  30
TORSDOF 1
ENDMDL
MODEL 5
REMARK VINA RESULT:    -6.347     10.083     11.674
REMARK INTER + INTRA:          -6.532
REMARK INTER:                  -6.532
REMARK INTRA:                   0.000
REMARK UNBOUND:                 0.000
REMARK SMILES C[C@@H]1CC[C@]2(OC1)O[C@H]1C[C@H]3[C@@H]4CC=C5C[C@@H](O)CC[C@]5(C)[C@@H]4CC[C@]3(C)[C@H]1[C@@H]2C
REMARK SMILES IDX 1 1 2 2 3 3 4 4 5 5 29 6 28 7 9 8 8 9 10 10 11 11 26 12
REMARK SMILES IDX 25 13 24 14 23 15 12 16 13 17 14 18 15 19 21 20 20 21 19 22
REMARK SMILES IDX 17 23 16 24 22 25 27 26 30 27 6 28 7 29 18 30
REMARK H PARENT 18 31
REMARK Flexibility Score: inf
ROOT
ATOM      1  C   UNL     1     132.507 134.630 106.085  1.00  0.00     0.010 C 
ATOM      2  C   UNL     1     131.775 135.221 107.300  1.00  0.00     0.012 C 
ATOM      3  C   UNL     1     132.058 134.428 108.586  1.00  0.00     0.011 C 
ATOM      4  C   UNL     1     131.298 133.096 108.597  1.00  0.00     0.066 C 
ATOM      5  C   UNL     1     129.795 133.313 108.265  1.00  0.00     0.171 C 
ATOM      6  C   UNL     1     128.967 131.991 108.150  1.00  0.00     0.052 C 
ATOM      7  C   UNL     1     127.962 132.084 109.292  1.00  0.00     0.033 C 
ATOM      8  C   UNL     1     128.473 133.241 110.131  1.00  0.00     0.126 C 
ATOM      9  O   UNL     1     129.217 134.097 109.301  1.00  0.00    -0.346 OA
ATOM     10  C   UNL     1     127.236 133.962 110.696  1.00  0.00     0.037 C 
ATOM     11  C   UNL     1     126.064 133.060 110.306  1.00  0.00     0.002 C 
ATOM     12  C   UNL     1     126.483 132.455 108.963  1.00  0.00    -0.024 C 
ATOM     13  C   UNL     1     125.582 131.226 108.672  1.00  0.00     0.008 C 
ATOM     14  C   UNL     1     124.165 131.311 109.306  1.00  0.00     0.005 C 
ATOM     15  C   UNL     1     123.607 132.760 109.515  1.00  0.00     0.003 C 
ATOM     16  C   UNL     1     124.643 133.682 110.292  1.00  0.00     0.000 C 
ATOM     17  C   UNL     1     124.219 134.055 111.739  1.00  0.00     0.031 C 
ATOM     18  C   UNL     1     123.220 133.122 112.353  1.00  0.00    -0.027 C 
ATOM     19  C   UNL     1     122.200 132.610 111.645  1.00  0.00    -0.065 C 
ATOM     20  C   UNL     1     122.144 132.819 110.131  1.00  0.00    -0.008 C 
ATOM     21  C   UNL     1     121.200 131.749 109.488  1.00  0.00     0.014 C 
ATOM     22  C   UNL     1     119.861 131.607 110.218  1.00  0.00     0.033 C 
ATOM     23  C   UNL     1     120.111 131.136 111.655  1.00  0.00     0.118 C 
ATOM     24  C   UNL     1     120.974 132.146 112.418  1.00  0.00     0.063 C 
ATOM     25  C   UNL     1     121.537 134.221 109.838  1.00  0.00     0.016 C 
ATOM     26  C   UNL     1     126.379 133.489 107.789  1.00  0.00     0.012 C 
ATOM     27  C   UNL     1     129.766 130.674 108.223  1.00  0.00     0.014 C 
ATOM     28  O   UNL     1     129.676 133.993 107.019  1.00  0.00    -0.349 OA
ATOM     29  C   UNL     1     130.258 135.287 107.056  1.00  0.00     0.167 C 
ENDROOT
BRANCH  23  30
ATOM     30  O   UNL     1     118.889 130.980 112.326  1.00  0.00    -0.393 OA
ATOM     31  H   UNL     1     118.336 130.364 111.776  1.00  0.00     0.210 HD
ENDBRANCH  23  30
TORSDOF 1
ENDMDL
MODEL 6
REMARK VINA RESULT:    -6.140      6.949      9.605
REMARK INTER + INTRA:          -6.320
REMARK INTER:                  -6.320
REMARK INTRA:                   0.000
REMARK UNBOUND:                 0.000
REMARK SMILES C[C@@H]1CC[C@]2(OC1)O[C@H]1C[C@H]3[C@@H]4CC=C5C[C@@H](O)CC[C@]5(C)[C@@H]4CC[C@]3(C)[C@H]1[C@@H]2C
REMARK SMILES IDX 1 1 2 2 3 3 4 4 5 5 29 6 28 7 9 8 8 9 10 10 11 11 26 12
REMARK SMILES IDX 25 13 24 14 23 15 12 16 13 17 14 18 15 19 21 20 20 21 19 22
REMARK SMILES IDX 17 23 16 24 22 25 27 26 30 27 6 28 7 29 18 30
REMARK H PARENT 18 31
REMARK Flexibility Score: inf
ROOT
ATOM      1  C   UNL     1     124.125 135.376 111.248  1.00  0.00     0.010 C 
ATOM      2  C   UNL     1     124.531 134.383 110.148  1.00  0.00     0.012 C 
ATOM      3  C   UNL     1     123.717 133.081 110.218  1.00  0.00     0.011 C 
ATOM      4  C   UNL     1     124.178 132.198 111.383  1.00  0.00     0.066 C 
ATOM      5  C   UNL     1     125.722 132.017 111.364  1.00  0.00     0.171 C 
ATOM      6  C   UNL     1     126.289 131.217 112.581  1.00  0.00     0.052 C 
ATOM      7  C   UNL     1     126.881 129.960 111.955  1.00  0.00     0.033 C 
ATOM      8  C   UNL     1     126.350 129.980 110.532  1.00  0.00     0.126 C 
ATOM      9  O   UNL     1     126.076 131.313 110.180  1.00  0.00    -0.346 OA
ATOM     10  C   UNL     1     127.455 129.391 109.637  1.00  0.00     0.037 C 
ATOM     11  C   UNL     1     128.506 128.878 110.623  1.00  0.00     0.002 C 
ATOM     12  C   UNL     1     128.430 129.855 111.799  1.00  0.00    -0.024 C 
ATOM     13  C   UNL     1     129.137 129.214 113.021  1.00  0.00     0.008 C 
ATOM     14  C   UNL     1     130.271 128.217 112.650  1.00  0.00     0.005 C 
ATOM     15  C   UNL     1     130.989 128.494 111.284  1.00  0.00     0.003 C 
ATOM     16  C   UNL     1     129.946 128.650 110.094  1.00  0.00     0.000 C 
ATOM     17  C   UNL     1     129.951 127.482 109.071  1.00  0.00     0.031 C 
ATOM     18  C   UNL     1     130.518 126.199 109.596  1.00  0.00    -0.027 C 
ATOM     19  C   UNL     1     131.598 126.175 110.394  1.00  0.00    -0.065 C 
ATOM     20  C   UNL     1     132.167 127.483 110.944  1.00  0.00    -0.008 C 
ATOM     21  C   UNL     1     133.055 127.184 112.198  1.00  0.00     0.014 C 
ATOM     22  C   UNL     1     134.044 126.036 111.978  1.00  0.00     0.033 C 
ATOM     23  C   UNL     1     133.272 124.744 111.693  1.00  0.00     0.118 C 
ATOM     24  C   UNL     1     132.411 124.888 110.434  1.00  0.00     0.063 C 
ATOM     25  C   UNL     1     133.079 128.130 109.863  1.00  0.00     0.016 C 
ATOM     26  C   UNL     1     129.086 131.239 111.463  1.00  0.00     0.012 C 
ATOM     27  C   UNL     1     125.283 130.857 113.693  1.00  0.00     0.014 C 
ATOM     28  O   UNL     1     126.351 133.296 111.372  1.00  0.00    -0.349 OA
ATOM     29  C   UNL     1     126.032 134.057 110.218  1.00  0.00     0.167 C 
ENDROOT
BRANCH  23  30
ATOM     30  O   UNL     1     134.170 123.681 111.513  1.00  0.00    -0.393 OA
ATOM     31  H   UNL     1     135.083 124.071 111.527  1.00  0.00     0.210 HD
ENDBRANCH  23  30
TORSDOF 1
ENDMDL
MODEL 7
REMARK VINA RESULT:    -6.080      4.649      6.130
REMARK INTER + INTRA:          -6.258
REMARK INTER:                  -6.258
REMARK INTRA:                   0.000
REMARK UNBOUND:                 0.000
REMARK SMILES C[C@@H]1CC[C@]2(OC1)O[C@H]1C[C@H]3[C@@H]4CC=C5C[C@@H](O)CC[C@]5(C)[C@@H]4CC[C@]3(C)[C@H]1[C@@H]2C
REMARK SMILES IDX 1 1 2 2 3 3 4 4 5 5 29 6 28 7 9 8 8 9 10 10 11 11 26 12
REMARK SMILES IDX 25 13 24 14 23 15 12 16 13 17 14 18 15 19 21 20 20 21 19 22
REMARK SMILES IDX 17 23 16 24 22 25 27 26 30 27 6 28 7 29 18 30
REMARK H PARENT 18 31
REMARK Flexibility Score: inf
ROOT
ATOM      1  C   UNL     1     139.026 123.534 109.754  1.00  0.00     0.010 C 
ATOM      2  C   UNL     1     138.559 124.788 108.999  1.00  0.00     0.012 C 
ATOM      3  C   UNL     1     138.913 126.080 109.753  1.00  0.00     0.011 C 
ATOM      4  C   UNL     1     137.992 126.290 110.960  1.00  0.00     0.066 C 
ATOM      5  C   UNL     1     136.499 126.147 110.550  1.00  0.00     0.171 C 
ATOM      6  C   UNL     1     135.495 126.240 111.744  1.00  0.00     0.052 C 
ATOM      7  C   UNL     1     134.683 127.495 111.446  1.00  0.00     0.033 C 
ATOM      8  C   UNL     1     135.458 128.172 110.330  1.00  0.00     0.126 C 
ATOM      9  O   UNL     1     136.184 127.188 109.635  1.00  0.00    -0.346 OA
ATOM     10  C   UNL     1     134.421 128.841 109.410  1.00  0.00     0.037 C 
ATOM     11  C   UNL     1     133.096 128.678 110.155  1.00  0.00     0.002 C 
ATOM     12  C   UNL     1     133.235 127.340 110.887  1.00  0.00    -0.024 C 
ATOM     13  C   UNL     1     132.147 127.263 111.988  1.00  0.00     0.008 C 
ATOM     14  C   UNL     1     130.858 128.072 111.668  1.00  0.00     0.005 C 
ATOM     15  C   UNL     1     130.534 128.245 110.144  1.00  0.00     0.003 C 
ATOM     16  C   UNL     1     131.784 128.807 109.338  1.00  0.00     0.000 C 
ATOM     17  C   UNL     1     131.623 130.266 108.831  1.00  0.00     0.031 C 
ATOM     18  C   UNL     1     130.606 131.075 109.576  1.00  0.00    -0.027 C 
ATOM     19  C   UNL     1     129.436 130.548 109.976  1.00  0.00    -0.065 C 
ATOM     20  C   UNL     1     129.194 129.045 109.844  1.00  0.00    -0.008 C 
ATOM     21  C   UNL     1     128.034 128.613 110.802  1.00  0.00     0.014 C 
ATOM     22  C   UNL     1     126.806 129.524 110.712  1.00  0.00     0.033 C 
ATOM     23  C   UNL     1     127.192 130.946 111.134  1.00  0.00     0.118 C 
ATOM     24  C   UNL     1     128.282 131.510 110.217  1.00  0.00     0.063 C 
ATOM     25  C   UNL     1     128.745 128.732 108.388  1.00  0.00     0.016 C 
ATOM     26  C   UNL     1     133.105 126.117 109.915  1.00  0.00     0.012 C 
ATOM     27  C   UNL     1     136.112 126.304 113.155  1.00  0.00     0.014 C 
ATOM     28  O   UNL     1     136.297 124.880 109.929  1.00  0.00    -0.349 OA
ATOM     29  C   UNL     1     137.045 124.744 108.731  1.00  0.00     0.167 C 
ENDROOT
BRANCH  23  30
ATOM     30  O   UNL     1     126.067 131.782 111.077  1.00  0.00    -0.393 OA
ATOM     31  H   UNL     1     125.804 131.845 110.120  1.00  0.00     0.210 HD
ENDBRANCH  23  30
TORSDOF 1
ENDMDL
MODEL 8
REMARK VINA RESULT:    -6.035      2.344      8.836
REMARK INTER + INTRA:          -6.211
REMARK INTER:                  -6.211
REMARK INTRA:                   0.000
REMARK UNBOUND:                 0.000
REMARK SMILES C[C@@H]1CC[C@]2(OC1)O[C@H]1C[C@H]3[C@@H]4CC=C5C[C@@H](O)CC[C@]5(C)[C@@H]4CC[C@]3(C)[C@H]1[C@@H]2C
REMARK SMILES IDX 1 1 2 2 3 3 4 4 5 5 29 6 28 7 9 8 8 9 10 10 11 11 26 12
REMARK SMILES IDX 25 13 24 14 23 15 12 16 13 17 14 18 15 19 21 20 20 21 19 22
REMARK SMILES IDX 17 23 16 24 22 25 27 26 30 27 6 28 7 29 18 30
REMARK H PARENT 18 31
REMARK Flexibility Score: inf
ROOT
ATOM      1  C   UNL     1     124.443 119.953 105.895  1.00  0.00     0.010 C 
ATOM      2  C   UNL     1     125.962 119.960 105.661  1.00  0.00     0.012 C 
ATOM      3  C   UNL     1     126.679 118.888 106.497  1.00  0.00     0.011 C 
ATOM      4  C   UNL     1     126.762 119.296 107.973  1.00  0.00     0.066 C 
ATOM      5  C   UNL     1     127.323 120.739 108.118  1.00  0.00     0.171 C 
ATOM      6  C   UNL     1     127.340 121.275 109.586  1.00  0.00     0.052 C 
ATOM      7  C   UNL     1     128.820 121.468 109.892  1.00  0.00     0.033 C 
ATOM      8  C   UNL     1     129.522 120.759 108.747  1.00  0.00     0.126 C 
ATOM      9  O   UNL     1     128.661 120.750 107.637  1.00  0.00    -0.346 OA
ATOM     10  C   UNL     1     130.801 121.560 108.444  1.00  0.00     0.037 C 
ATOM     11  C   UNL     1     130.872 122.595 109.569  1.00  0.00     0.002 C 
ATOM     12  C   UNL     1     129.408 122.913 109.883  1.00  0.00    -0.024 C 
ATOM     13  C   UNL     1     129.341 123.621 111.262  1.00  0.00     0.008 C 
ATOM     14  C   UNL     1     130.617 124.433 111.624  1.00  0.00     0.005 C 
ATOM     15  C   UNL     1     131.427 124.992 110.404  1.00  0.00     0.003 C 
ATOM     16  C   UNL     1     131.748 123.855 109.340  1.00  0.00     0.000 C 
ATOM     17  C   UNL     1     133.244 123.446 109.262  1.00  0.00     0.031 C 
ATOM     18  C   UNL     1     134.042 123.773 110.487  1.00  0.00    -0.027 C 
ATOM     19  C   UNL     1     133.867 124.921 111.161  1.00  0.00    -0.065 C 
ATOM     20  C   UNL     1     132.706 125.847 110.800  1.00  0.00    -0.008 C 
ATOM     21  C   UNL     1     132.411 126.812 111.996  1.00  0.00     0.014 C 
ATOM     22  C   UNL     1     133.670 127.471 112.566  1.00  0.00     0.033 C 
ATOM     23  C   UNL     1     134.606 126.390 113.120  1.00  0.00     0.118 C 
ATOM     24  C   UNL     1     135.027 125.415 112.016  1.00  0.00     0.063 C 
ATOM     25  C   UNL     1     133.118 126.720 109.580  1.00  0.00     0.016 C 
ATOM     26  C   UNL     1     128.747 123.814 108.783  1.00  0.00     0.012 C 
ATOM     27  C   UNL     1     126.669 120.382 110.650  1.00  0.00     0.014 C 
ATOM     28  O   UNL     1     126.526 121.638 107.352  1.00  0.00    -0.349 OA
ATOM     29  C   UNL     1     126.566 121.342 105.965  1.00  0.00     0.167 C 
ENDROOT
BRANCH  23  30
ATOM     30  O   UNL     1     135.753 126.986 113.665  1.00  0.00    -0.393 OA
ATOM     31  H   UNL     1     136.530 126.447 113.360  1.00  0.00     0.210 HD
ENDBRANCH  23  30
TORSDOF 1
ENDMDL
MODEL 9
REMARK VINA RESULT:    -5.957      8.206     11.192
REMARK INTER + INTRA:          -6.131
REMARK INTER:                  -6.131
REMARK INTRA:                   0.000
REMARK UNBOUND:                 0.000
REMARK SMILES C[C@@H]1CC[C@]2(OC1)O[C@H]1C[C@H]3[C@@H]4CC=C5C[C@@H](O)CC[C@]5(C)[C@@H]4CC[C@]3(C)[C@H]1[C@@H]2C
REMARK SMILES IDX 1 1 2 2 3 3 4 4 5 5 29 6 28 7 9 8 8 9 10 10 11 11 26 12
REMARK SMILES IDX 25 13 24 14 23 15 12 16 13 17 14 18 15 19 21 20 20 21 19 22
REMARK SMILES IDX 17 23 16 24 22 25 27 26 30 27 6 28 7 29 18 30
REMARK H PARENT 18 31
REMARK Flexibility Score: inf
ROOT
ATOM      1  C   UNL     1     120.458 133.000 108.395  1.00  0.00     0.010 C 
ATOM      2  C   UNL     1     120.986 132.494 109.746  1.00  0.00     0.012 C 
ATOM      3  C   UNL     1     121.779 133.575 110.497  1.00  0.00     0.011 C 
ATOM      4  C   UNL     1     123.164 133.783 109.874  1.00  0.00     0.066 C 
ATOM      5  C   UNL     1     123.899 132.426 109.690  1.00  0.00     0.171 C 
ATOM      6  C   UNL     1     125.278 132.537 108.960  1.00  0.00     0.052 C 
ATOM      7  C   UNL     1     126.289 132.093 110.010  1.00  0.00     0.033 C 
ATOM      8  C   UNL     1     125.486 132.070 111.299  1.00  0.00     0.126 C 
ATOM      9  O   UNL     1     124.133 131.865 110.975  1.00  0.00    -0.346 OA
ATOM     10  C   UNL     1     126.031 130.903 112.142  1.00  0.00     0.037 C 
ATOM     11  C   UNL     1     127.263 130.425 111.372  1.00  0.00     0.002 C 
ATOM     12  C   UNL     1     126.907 130.664 109.903  1.00  0.00    -0.024 C 
ATOM     13  C   UNL     1     128.209 130.612 109.063  1.00  0.00     0.008 C 
ATOM     14  C   UNL     1     129.318 129.702 109.664  1.00  0.00     0.005 C 
ATOM     15  C   UNL     1     128.806 128.507 110.540  1.00  0.00     0.003 C 
ATOM     16  C   UNL     1     127.789 128.995 111.661  1.00  0.00     0.000 C 
ATOM     17  C   UNL     1     128.339 128.920 113.111  1.00  0.00     0.031 C 
ATOM     18  C   UNL     1     129.834 128.909 113.209  1.00  0.00    -0.027 C 
ATOM     19  C   UNL     1     130.595 128.218 112.344  1.00  0.00    -0.065 C 
ATOM     20  C   UNL     1     129.956 127.573 111.114  1.00  0.00    -0.008 C 
ATOM     21  C   UNL     1     131.058 127.283 110.041  1.00  0.00     0.014 C 
ATOM     22  C   UNL     1     132.298 126.595 110.618  1.00  0.00     0.033 C 
ATOM     23  C   UNL     1     132.954 127.512 111.656  1.00  0.00     0.118 C 
ATOM     24  C   UNL     1     131.988 127.814 112.806  1.00  0.00     0.063 C 
ATOM     25  C   UNL     1     129.329 126.211 111.527  1.00  0.00     0.016 C 
ATOM     26  C   UNL     1     125.876 129.613 109.364  1.00  0.00     0.012 C 
ATOM     27  C   UNL     1     125.643 133.925 108.394  1.00  0.00     0.014 C 
ATOM     28  O   UNL     1     123.086 131.546 108.919  1.00  0.00    -0.349 OA
ATOM     29  C   UNL     1     121.861 131.241 109.568  1.00  0.00     0.167 C 
ENDROOT
BRANCH  23  30
ATOM     30  O   UNL     1     134.105 126.900 112.174  1.00  0.00    -0.393 OA
ATOM     31  H   UNL     1     134.404 126.233 111.501  1.00  0.00     0.210 HD
ENDBRANCH  23  30
TORSDOF 1
ENDMDL
