MODEL 1
REMARK VINA RESULT:    -6.141      0.000      0.000
REMARK INTER + INTRA:          -8.181
REMARK INTER:                  -8.653
REMARK INTRA:                   0.473
REMARK UNBOUND:                 0.473
REMARK SMILES OCC1=C[C@H](O)[C@H]2C=CO[C@H](O[C@H]3O[C@H](CO)[C@H](O)[C@@H](O)[C@H]3O)[C@@H]12
REMARK SMILES IDX 12 1 11 2 8 3 9 4 7 5 10 6 24 7 5 8 3 9 4 10 6 11 2 13 1 14
REMARK SMILES IDX 13 16 22 17 14 18 20 19 15 20 18 21 23 22 21 24 16 26 17 27
REMARK SMILES IDX 19 29
REMARK H PARENT 6 12 1 15 23 23 21 25 17 28 19 30
REMARK Flexibility Score: inf
ROOT
ATOM      1  O   UNL     1      29.235  36.506  26.740  1.00  0.00    -0.310 OA
ENDROOT
BRANCH   1   2
ATOM      2  C   UNL     1      29.811  37.088  27.898  1.00  0.00     0.316 C 
ATOM      3  C   UNL     1      32.326  37.551  26.654  1.00  0.00     0.018 C 
ATOM      4  C   UNL     1      32.146  36.484  27.434  1.00  0.00     0.186 C 
ATOM      5  C   UNL     1      31.385  38.739  26.679  1.00  0.00     0.061 C 
ATOM      6  O   UNL     1      30.994  36.360  28.211  1.00  0.00    -0.472 OA
ATOM      7  C   UNL     1      30.175  38.573  27.642  1.00  0.00     0.096 C 
ATOM      8  C   UNL     1      32.139  39.969  27.226  1.00  0.00     0.145 C 
ATOM      9  C   UNL     1      30.604  39.318  28.870  1.00  0.00    -0.036 C 
ATOM     10  C   UNL     1      31.672  40.072  28.635  1.00  0.00     0.007 C 
BRANCH   8  11
ATOM     11  O   UNL     1      31.760  41.129  26.534  1.00  0.00    -0.388 OA
ATOM     12  H   UNL     1      30.925  40.904  26.048  1.00  0.00     0.211 HD
ENDBRANCH   8  11
BRANCH   9  13
ATOM     13  C   UNL     1      29.824  39.388  30.160  1.00  0.00     0.187 C 
BRANCH  13  14
ATOM     14  O   UNL     1      30.211  38.348  31.019  1.00  0.00    -0.392 OA
ATOM     15  H   UNL     1      31.106  38.586  31.376  1.00  0.00     0.211 HD
ENDBRANCH  13  14
ENDBRANCH   9  13
ENDBRANCH   1   2
BRANCH   1  16
ATOM     16  C   UNL     1      28.008  35.836  27.013  1.00  0.00     0.286 C 
ATOM     17  C   UNL     1      26.978  36.112  25.894  1.00  0.00     0.202 C 
ATOM     18  O   UNL     1      27.488  36.232  28.275  1.00  0.00    -0.341 OA
ATOM     19  C   UNL     1      26.530  37.588  25.882  1.00  0.00     0.179 C 
ATOM     20  C   UNL     1      27.236  37.630  28.326  1.00  0.00     0.178 C 
ATOM     21  C   UNL     1      26.139  38.038  27.307  1.00  0.00     0.177 C 
BRANCH  17  22
ATOM     22  O   UNL     1      27.455  35.707  24.634  1.00  0.00    -0.385 OA
ATOM     23  H   UNL     1      27.124  34.790  24.455  1.00  0.00     0.211 HD
ENDBRANCH  17  22
BRANCH  19  24
ATOM     24  O   UNL     1      27.564  38.405  25.391  1.00  0.00    -0.387 OA
ATOM     25  H   UNL     1      27.537  38.341  24.401  1.00  0.00     0.211 HD
ENDBRANCH  19  24
BRANCH  20  26
ATOM     26  C   UNL     1      26.831  38.012  29.754  1.00  0.00     0.191 C 
BRANCH  26  27
ATOM     27  O   UNL     1      27.175  36.979  30.634  1.00  0.00    -0.394 OA
ATOM     28  H   UNL     1      28.157  36.864  30.554  1.00  0.00     0.210 HD
ENDBRANCH  26  27
ENDBRANCH  20  26
BRANCH  21  29
ATOM     29  O   UNL     1      24.872  37.535  27.660  1.00  0.00    -0.387 OA
ATOM     30  H   UNL     1      24.936  36.549  27.732  1.00  0.00     0.211 HD
ENDBRANCH  21  29
ENDBRANCH   1  16
TORSDOF 10
ENDMDL
MODEL 2
REMARK VINA RESULT:    -5.648      2.034      3.968
REMARK INTER + INTRA:          -7.487
REMARK INTER:                  -8.155
REMARK INTRA:                   0.668
REMARK UNBOUND:                 0.473
REMARK SMILES OCC1=C[C@H](O)[C@H]2C=CO[C@H](O[C@H]3O[C@H](CO)[C@H](O)[C@@H](O)[C@H]3O)[C@@H]12
REMARK SMILES IDX 12 1 11 2 8 3 9 4 7 5 10 6 24 7 5 8 3 9 4 10 6 11 2 13 1 14
REMARK SMILES IDX 13 16 22 17 14 18 20 19 15 20 18 21 23 22 21 24 16 26 17 27
REMARK SMILES IDX 19 29
REMARK H PARENT 6 12 1 15 23 23 21 25 17 28 19 30
REMARK Flexibility Score: inf
ROOT
ATOM      1  O   UNL     1      29.248  38.137  28.042  1.00  0.00    -0.310 OA
ENDROOT
BRANCH   1   2
ATOM      2  C   UNL     1      29.766  38.792  26.895  1.00  0.00     0.316 C 
ATOM      3  C   UNL     1      32.294  37.501  27.059  1.00  0.00     0.018 C 
ATOM      4  C   UNL     1      32.136  38.736  27.537  1.00  0.00     0.186 C 
ATOM      5  C   UNL     1      31.305  36.872  26.097  1.00  0.00     0.061 C 
ATOM      6  O   UNL     1      30.969  39.453  27.275  1.00  0.00    -0.472 OA
ATOM      7  C   UNL     1      30.076  37.768  25.773  1.00  0.00     0.096 C 
ATOM      8  C   UNL     1      31.992  36.661  24.733  1.00  0.00     0.145 C 
ATOM      9  C   UNL     1      30.439  38.392  24.458  1.00  0.00    -0.036 C 
ATOM     10  C   UNL     1      31.481  37.785  23.903  1.00  0.00     0.007 C 
BRANCH   8  11
ATOM     11  O   UNL     1      31.585  35.448  24.157  1.00  0.00    -0.388 OA
ATOM     12  H   UNL     1      30.604  35.516  24.026  1.00  0.00     0.211 HD
ENDBRANCH   8  11
BRANCH   9  13
ATOM     13  C   UNL     1      29.620  39.434  23.737  1.00  0.00     0.187 C 
BRANCH  13  14
ATOM     14  O   UNL     1      30.037  40.722  24.106  1.00  0.00    -0.392 OA
ATOM     15  H   UNL     1      29.321  41.349  23.826  1.00  0.00     0.211 HD
ENDBRANCH  13  14
ENDBRANCH   9  13
ENDBRANCH   1   2
BRANCH   1  16
ATOM     16  C   UNL     1      28.029  38.715  28.501  1.00  0.00     0.286 C 
ATOM     17  C   UNL     1      27.020  37.612  28.892  1.00  0.00     0.202 C 
ATOM     18  O   UNL     1      27.473  39.569  27.510  1.00  0.00    -0.341 OA
ATOM     19  C   UNL     1      26.541  36.814  27.661  1.00  0.00     0.179 C 
ATOM     20  C   UNL     1      27.190  38.868  26.308  1.00  0.00     0.178 C 
ATOM     21  C   UNL     1      26.108  37.778  26.536  1.00  0.00     0.177 C 
BRANCH  17  22
ATOM     22  O   UNL     1      27.534  36.763  29.890  1.00  0.00    -0.385 OA
ATOM     23  H   UNL     1      27.730  35.882  29.480  1.00  0.00     0.211 HD
ENDBRANCH  17  22
BRANCH  19  24
ATOM     24  O   UNL     1      27.569  35.973  27.200  1.00  0.00    -0.387 OA
ATOM     25  H   UNL     1      27.453  35.098  27.654  1.00  0.00     0.211 HD
ENDBRANCH  19  24
BRANCH  20  26
ATOM     26  C   UNL     1      26.745  39.872  25.238  1.00  0.00     0.191 C 
BRANCH  26  27
ATOM     27  O   UNL     1      26.783  41.168  25.764  1.00  0.00    -0.394 OA
ATOM     28  H   UNL     1      27.128  41.081  26.689  1.00  0.00     0.210 HD
ENDBRANCH  26  27
ENDBRANCH  20  26
BRANCH  21  29
ATOM     29  O   UNL     1      24.844  38.335  26.812  1.00  0.00    -0.387 OA
ATOM     30  H   UNL     1      24.791  38.521  27.784  1.00  0.00     0.211 HD
ENDBRANCH  21  29
ENDBRANCH   1  16
TORSDOF 10
ENDMDL
MODEL 3
REMARK VINA RESULT:    -5.364      2.011      3.873
REMARK INTER + INTRA:          -7.086
REMARK INTER:                  -7.719
REMARK INTRA:                   0.633
REMARK UNBOUND:                 0.473
REMARK SMILES OCC1=C[C@H](O)[C@H]2C=CO[C@H](O[C@H]3O[C@H](CO)[C@H](O)[C@@H](O)[C@H]3O)[C@@H]12
REMARK SMILES IDX 12 1 11 2 8 3 9 4 7 5 10 6 24 7 5 8 3 9 4 10 6 11 2 13 1 14
REMARK SMILES IDX 13 16 22 17 14 18 20 19 15 20 18 21 23 22 21 24 16 26 17 27
REMARK SMILES IDX 19 29
REMARK H PARENT 6 12 1 15 23 23 21 25 17 28 19 30
REMARK Flexibility Score: inf
ROOT
ATOM      1  O   UNL     1      29.158  38.498  25.858  1.00  0.00    -0.310 OA
ENDROOT
BRANCH   1   2
ATOM      2  C   UNL     1      29.721  37.197  25.832  1.00  0.00     0.316 C 
ATOM      3  C   UNL     1      32.243  38.053  26.826  1.00  0.00     0.018 C 
ATOM      4  C   UNL     1      32.063  37.864  25.518  1.00  0.00     0.186 C 
ATOM      5  C   UNL     1      31.295  37.486  27.864  1.00  0.00     0.061 C 
ATOM      6  O   UNL     1      30.905  37.247  25.044  1.00  0.00    -0.472 OA
ATOM      7  C   UNL     1      30.078  36.726  27.266  1.00  0.00     0.096 C 
ATOM      8  C   UNL     1      32.037  36.421  28.697  1.00  0.00     0.145 C 
ATOM      9  C   UNL     1      30.491  35.287  27.352  1.00  0.00    -0.036 C 
ATOM     10  C   UNL     1      31.556  35.132  28.130  1.00  0.00     0.007 C 
BRANCH   8  11
ATOM     11  O   UNL     1      31.656  36.495  30.046  1.00  0.00    -0.388 OA
ATOM     12  H   UNL     1      30.973  35.789  30.182  1.00  0.00     0.211 HD
ENDBRANCH   8  11
BRANCH   9  13
ATOM     13  C   UNL     1      29.700  34.123  26.810  1.00  0.00     0.187 C 
BRANCH  13  14
ATOM     14  O   UNL     1      30.056  33.870  25.477  1.00  0.00    -0.392 OA
ATOM     15  H   UNL     1      31.047  33.853  25.441  1.00  0.00     0.211 HD
ENDBRANCH  13  14
ENDBRANCH   9  13
ENDBRANCH   1   2
BRANCH   1  16
ATOM     16  C   UNL     1      27.910  38.572  25.175  1.00  0.00     0.286 C 
ATOM     17  C   UNL     1      26.912  39.449  25.964  1.00  0.00     0.202 C 
ATOM     18  O   UNL     1      27.373  37.272  24.967  1.00  0.00    -0.341 OA
ATOM     19  C   UNL     1      26.499  38.787  27.296  1.00  0.00     0.179 C 
ATOM     20  C   UNL     1      27.153  36.590  26.194  1.00  0.00     0.178 C 
ATOM     21  C   UNL     1      26.088  37.318  27.057  1.00  0.00     0.177 C 
BRANCH  17  22
ATOM     22  O   UNL     1      27.406  40.751  26.166  1.00  0.00    -0.385 OA
ATOM     23  H   UNL     1      28.179  40.889  25.561  1.00  0.00     0.211 HD
ENDBRANCH  17  22
BRANCH  19  24
ATOM     24  O   UNL     1      27.563  38.842  28.214  1.00  0.00    -0.387 OA
ATOM     25  H   UNL     1      27.171  38.720  29.118  1.00  0.00     0.211 HD
ENDBRANCH  19  24
BRANCH  20  26
ATOM     26  C   UNL     1      26.727  35.148  25.893  1.00  0.00     0.191 C 
BRANCH  26  27
ATOM     27  O   UNL     1      26.765  34.925  24.511  1.00  0.00    -0.394 OA
ATOM     28  H   UNL     1      26.231  34.104  24.350  1.00  0.00     0.210 HD
ENDBRANCH  26  27
ENDBRANCH  20  26
BRANCH  21  29
ATOM     29  O   UNL     1      24.802  37.244  26.487  1.00  0.00    -0.387 OA
ATOM     30  H   UNL     1      24.139  37.184  27.220  1.00  0.00     0.211 HD
ENDBRANCH  21  29
ENDBRANCH   1  16
TORSDOF 10
ENDMDL
MODEL 4
REMARK VINA RESULT:    -5.066      1.730      3.395
REMARK INTER + INTRA:          -6.666
REMARK INTER:                  -7.815
REMARK INTRA:                   1.149
REMARK UNBOUND:                 0.473
REMARK SMILES OCC1=C[C@H](O)[C@H]2C=CO[C@H](O[C@H]3O[C@H](CO)[C@H](O)[C@@H](O)[C@H]3O)[C@@H]12
REMARK SMILES IDX 12 1 11 2 8 3 9 4 7 5 10 6 24 7 5 8 3 9 4 10 6 11 2 13 1 14
REMARK SMILES IDX 13 16 22 17 14 18 20 19 15 20 18 21 23 22 21 24 16 26 17 27
REMARK SMILES IDX 19 29
REMARK H PARENT 6 12 1 15 23 23 21 25 17 28 19 30
REMARK Flexibility Score: inf
ROOT
ATOM      1  O   UNL     1      29.951  39.141  25.810  1.00  0.00    -0.310 OA
ENDROOT
BRANCH   1   2
ATOM      2  C   UNL     1      30.857  38.363  26.574  1.00  0.00     0.316 C 
ATOM      3  C   UNL     1      31.307  40.413  28.492  1.00  0.00     0.018 C 
ATOM      4  C   UNL     1      32.175  40.218  27.498  1.00  0.00     0.186 C 
ATOM      5  C   UNL     1      30.278  39.371  28.884  1.00  0.00     0.061 C 
ATOM      6  O   UNL     1      32.076  39.091  26.682  1.00  0.00    -0.472 OA
ATOM      7  C   UNL     1      30.290  38.098  27.993  1.00  0.00     0.096 C 
ATOM      8  C   UNL     1      30.603  38.848  30.299  1.00  0.00     0.145 C 
ATOM      9  C   UNL     1      31.091  37.118  28.798  1.00  0.00    -0.036 C 
ATOM     10  C   UNL     1      31.257  37.535  30.048  1.00  0.00     0.007 C 
BRANCH   8  11
ATOM     11  O   UNL     1      29.425  38.638  31.031  1.00  0.00    -0.388 OA
ATOM     12  H   UNL     1      28.958  37.878  30.596  1.00  0.00     0.211 HD
ENDBRANCH   8  11
BRANCH   9  13
ATOM     13  C   UNL     1      31.489  35.737  28.338  1.00  0.00     0.187 C 
BRANCH  13  14
ATOM     14  O   UNL     1      32.293  35.116  29.305  1.00  0.00    -0.392 OA
ATOM     15  H   UNL     1      31.784  35.129  30.157  1.00  0.00     0.211 HD
ENDBRANCH  13  14
ENDBRANCH   9  13
ENDBRANCH   1   2
BRANCH   1  16
ATOM     16  C   UNL     1      29.246  38.371  24.841  1.00  0.00     0.286 C 
ATOM     17  C   UNL     1      27.858  38.991  24.561  1.00  0.00     0.202 C 
ATOM     18  O   UNL     1      29.111  37.023  25.271  1.00  0.00    -0.341 OA
ATOM     19  C   UNL     1      26.925  38.878  25.785  1.00  0.00     0.179 C 
ATOM     20  C   UNL     1      28.398  36.929  26.496  1.00  0.00     0.178 C 
ATOM     21  C   UNL     1      26.939  37.435  26.336  1.00  0.00     0.177 C 
BRANCH  17  22
ATOM     22  O   UNL     1      27.960  40.319  24.110  1.00  0.00    -0.385 OA
ATOM     23  H   UNL     1      28.200  40.894  24.882  1.00  0.00     0.211 HD
ENDBRANCH  17  22
BRANCH  19  24
ATOM     24  O   UNL     1      27.333  39.775  26.788  1.00  0.00    -0.387 OA
ATOM     25  H   UNL     1      28.077  39.340  27.280  1.00  0.00     0.211 HD
ENDBRANCH  19  24
BRANCH  20  26
ATOM     26  C   UNL     1      28.427  35.475  26.980  1.00  0.00     0.191 C 
BRANCH  26  27
ATOM     27  O   UNL     1      28.280  34.612  25.887  1.00  0.00    -0.394 OA
ATOM     28  H   UNL     1      28.622  35.106  25.098  1.00  0.00     0.210 HD
ENDBRANCH  26  27
ENDBRANCH  20  26
BRANCH  21  29
ATOM     29  O   UNL     1      26.168  36.582  25.523  1.00  0.00    -0.387 OA
ATOM     30  H   UNL     1      25.324  37.048  25.294  1.00  0.00     0.211 HD
ENDBRANCH  21  29
ENDBRANCH   1  16
TORSDOF 10
ENDMDL
MODEL 5
REMARK VINA RESULT:    -4.398      1.842      3.969
REMARK INTER + INTRA:          -5.725
REMARK INTER:                  -5.722
REMARK INTRA:                  -0.003
REMARK UNBOUND:                 0.473
REMARK SMILES OCC1=C[C@H](O)[C@H]2C=CO[C@H](O[C@H]3O[C@H](CO)[C@H](O)[C@@H](O)[C@H]3O)[C@@H]12
REMARK SMILES IDX 12 1 11 2 8 3 9 4 7 5 10 6 24 7 5 8 3 9 4 10 6 11 2 13 1 14
REMARK SMILES IDX 13 16 22 17 14 18 20 19 15 20 18 21 23 22 21 24 16 26 17 27
REMARK SMILES IDX 19 29
REMARK H PARENT 6 12 1 15 23 23 21 25 17 28 19 30
REMARK Flexibility Score: inf
ROOT
ATOM      1  O   UNL     1      29.094  39.182  26.339  1.00  0.00    -0.310 OA
ENDROOT
BRANCH   1   2
ATOM      2  C   UNL     1      30.440  38.866  26.022  1.00  0.00     0.316 C 
ATOM      3  C   UNL     1      31.283  38.856  28.737  1.00  0.00     0.018 C 
ATOM      4  C   UNL     1      31.487  39.929  27.972  1.00  0.00     0.186 C 
ATOM      5  C   UNL     1      30.958  37.495  28.153  1.00  0.00     0.061 C 
ATOM      6  O   UNL     1      31.271  39.869  26.596  1.00  0.00    -0.472 OA
ATOM      7  C   UNL     1      30.829  37.483  26.604  1.00  0.00     0.096 C 
ATOM      8  C   UNL     1      32.125  36.529  28.445  1.00  0.00     0.145 C 
ATOM      9  C   UNL     1      32.168  36.983  26.148  1.00  0.00    -0.036 C 
ATOM     10  C   UNL     1      32.864  36.468  27.155  1.00  0.00     0.007 C 
BRANCH   8  11
ATOM     11  O   UNL     1      31.641  35.249  28.753  1.00  0.00    -0.388 OA
ATOM     12  H   UNL     1      31.312  35.292  29.688  1.00  0.00     0.211 HD
ENDBRANCH   8  11
BRANCH   9  13
ATOM     13  C   UNL     1      32.609  36.872  24.709  1.00  0.00     0.187 C 
BRANCH  13  14
ATOM     14  O   UNL     1      31.501  36.953  23.853  1.00  0.00    -0.392 OA
ATOM     15  H   UNL     1      31.230  36.021  23.642  1.00  0.00     0.211 HD
ENDBRANCH  13  14
ENDBRANCH   9  13
ENDBRANCH   1   2
BRANCH   1  16
ATOM     16  C   UNL     1      28.182  38.789  25.317  1.00  0.00     0.286 C 
ATOM     17  C   UNL     1      26.762  39.318  25.625  1.00  0.00     0.202 C 
ATOM     18  O   UNL     1      28.165  37.375  25.173  1.00  0.00    -0.341 OA
ATOM     19  C   UNL     1      26.154  38.630  26.865  1.00  0.00     0.179 C 
ATOM     20  C   UNL     1      27.770  36.728  26.375  1.00  0.00     0.178 C 
ATOM     21  C   UNL     1      26.312  37.098  26.757  1.00  0.00     0.177 C 
BRANCH  17  22
ATOM     22  O   UNL     1      26.742  40.719  25.750  1.00  0.00    -0.385 OA
ATOM     23  H   UNL     1      27.532  41.086  25.276  1.00  0.00     0.211 HD
ENDBRANCH  17  22
BRANCH  19  24
ATOM     24  O   UNL     1      26.785  39.093  28.034  1.00  0.00    -0.387 OA
ATOM     25  H   UNL     1      26.438  40.007  28.206  1.00  0.00     0.211 HD
ENDBRANCH  19  24
BRANCH  20  26
ATOM     26  C   UNL     1      27.927  35.213  26.199  1.00  0.00     0.191 C 
BRANCH  26  27
ATOM     27  O   UNL     1      27.252  34.800  25.044  1.00  0.00    -0.394 OA
ATOM     28  H   UNL     1      27.469  35.468  24.343  1.00  0.00     0.210 HD
ENDBRANCH  26  27
ENDBRANCH  20  26
BRANCH  21  29
ATOM     29  O   UNL     1      25.374  36.560  25.854  1.00  0.00    -0.387 OA
ATOM     30  H   UNL     1      24.500  36.998  26.015  1.00  0.00     0.211 HD
ENDBRANCH  21  29
ENDBRANCH   1  16
TORSDOF 10
ENDMDL
MODEL 6
REMARK VINA RESULT:    -4.311      1.345      1.942
REMARK INTER + INTRA:          -5.603
REMARK INTER:                  -6.057
REMARK INTRA:                   0.455
REMARK UNBOUND:                 0.473
REMARK SMILES OCC1=C[C@H](O)[C@H]2C=CO[C@H](O[C@H]3O[C@H](CO)[C@H](O)[C@@H](O)[C@H]3O)[C@@H]12
REMARK SMILES IDX 12 1 11 2 8 3 9 4 7 5 10 6 24 7 5 8 3 9 4 10 6 11 2 13 1 14
REMARK SMILES IDX 13 16 22 17 14 18 20 19 15 20 18 21 23 22 21 24 16 26 17 27
REMARK SMILES IDX 19 29
REMARK H PARENT 6 12 1 15 23 23 21 25 17 28 19 30
REMARK Flexibility Score: inf
ROOT
ATOM      1  O   UNL     1      29.040  36.281  25.745  1.00  0.00    -0.310 OA
ENDROOT
BRANCH   1   2
ATOM      2  C   UNL     1      30.370  36.201  26.232  1.00  0.00     0.316 C 
ATOM      3  C   UNL     1      31.223  38.538  24.854  1.00  0.00     0.018 C 
ATOM      4  C   UNL     1      31.470  37.329  24.348  1.00  0.00     0.186 C 
ATOM      5  C   UNL     1      30.837  38.744  26.306  1.00  0.00     0.061 C 
ATOM      6  O   UNL     1      31.247  36.183  25.110  1.00  0.00    -0.472 OA
ATOM      7  C   UNL     1      30.702  37.427  27.121  1.00  0.00     0.096 C 
ATOM      8  C   UNL     1      31.962  39.520  27.021  1.00  0.00     0.145 C 
ATOM      9  C   UNL     1      32.016  37.326  27.837  1.00  0.00    -0.036 C 
ATOM     10  C   UNL     1      32.693  38.467  27.776  1.00  0.00     0.007 C 
BRANCH   8  11
ATOM     11  O   UNL     1      31.424  40.443  27.932  1.00  0.00    -0.388 OA
ATOM     12  H   UNL     1      31.583  41.342  27.545  1.00  0.00     0.211 HD
ENDBRANCH   8  11
BRANCH   9  13
ATOM     13  C   UNL     1      32.446  36.166  28.701  1.00  0.00     0.187 C 
BRANCH  13  14
ATOM     14  O   UNL     1      31.474  35.155  28.678  1.00  0.00    -0.392 OA
ATOM     15  H   UNL     1      31.756  34.499  27.988  1.00  0.00     0.211 HD
ENDBRANCH  13  14
ENDBRANCH   9  13
ENDBRANCH   1   2
BRANCH   1  16
ATOM     16  C   UNL     1      28.109  35.594  26.575  1.00  0.00     0.286 C 
ATOM     17  C   UNL     1      26.688  35.669  25.973  1.00  0.00     0.202 C 
ATOM     18  O   UNL     1      28.120  36.128  27.893  1.00  0.00    -0.341 OA
ATOM     19  C   UNL     1      26.130  37.107  26.005  1.00  0.00     0.179 C 
ATOM     20  C   UNL     1      27.773  37.506  27.905  1.00  0.00     0.178 C 
ATOM     21  C   UNL     1      26.318  37.723  27.408  1.00  0.00     0.177 C 
BRANCH  17  22
ATOM     22  O   UNL     1      26.640  35.125  24.677  1.00  0.00    -0.385 OA
ATOM     23  H   UNL     1      27.166  34.284  24.671  1.00  0.00     0.211 HD
ENDBRANCH  17  22
BRANCH  19  24
ATOM     24  O   UNL     1      26.783  37.901  25.044  1.00  0.00    -0.387 OA
ATOM     25  H   UNL     1      27.000  38.765  25.482  1.00  0.00     0.211 HD
ENDBRANCH  19  24
BRANCH  20  26
ATOM     26  C   UNL     1      27.958  38.054  29.325  1.00  0.00     0.191 C 
BRANCH  26  27
ATOM     27  O   UNL     1      27.263  37.248  30.235  1.00  0.00    -0.394 OA
ATOM     28  H   UNL     1      27.891  37.069  30.981  1.00  0.00     0.210 HD
ENDBRANCH  26  27
ENDBRANCH  20  26
BRANCH  21  29
ATOM     29  O   UNL     1      25.367  37.210  28.311  1.00  0.00    -0.387 OA
ATOM     30  H   UNL     1      25.845  36.873  29.110  1.00  0.00     0.211 HD
ENDBRANCH  21  29
ENDBRANCH   1  16
TORSDOF 10
ENDMDL
MODEL 7
REMARK VINA RESULT:    -4.029      1.602      3.373
REMARK INTER + INTRA:          -5.205
REMARK INTER:                  -5.996
REMARK INTRA:                   0.791
REMARK UNBOUND:                 0.473
REMARK SMILES OCC1=C[C@H](O)[C@H]2C=CO[C@H](O[C@H]3O[C@H](CO)[C@H](O)[C@@H](O)[C@H]3O)[C@@H]12
REMARK SMILES IDX 12 1 11 2 8 3 9 4 7 5 10 6 24 7 5 8 3 9 4 10 6 11 2 13 1 14
REMARK SMILES IDX 13 16 22 17 14 18 20 19 15 20 18 21 23 22 21 24 16 26 17 27
REMARK SMILES IDX 19 29
REMARK H PARENT 6 12 1 15 23 23 21 25 17 28 19 30
REMARK Flexibility Score: inf
ROOT
ATOM      1  O   UNL     1      29.180  37.469  28.885  1.00  0.00    -0.310 OA
ENDROOT
BRANCH   1   2
ATOM      2  C   UNL     1      30.489  37.941  28.610  1.00  0.00     0.316 C 
ATOM      3  C   UNL     1      31.280  35.557  27.275  1.00  0.00     0.018 C 
ATOM      4  C   UNL     1      31.612  35.757  28.551  1.00  0.00     0.186 C 
ATOM      5  C   UNL     1      30.819  36.685  26.373  1.00  0.00     0.061 C 
ATOM      6  O   UNL     1      31.414  37.002  29.148  1.00  0.00    -0.472 OA
ATOM      7  C   UNL     1      30.716  38.065  27.081  1.00  0.00     0.096 C 
ATOM      8  C   UNL     1      31.869  36.904  25.264  1.00  0.00     0.145 C 
ATOM      9  C   UNL     1      32.000  38.744  26.706  1.00  0.00    -0.036 C 
ATOM     10  C   UNL     1      32.619  38.105  25.720  1.00  0.00     0.007 C 
BRANCH   8  11
ATOM     11  O   UNL     1      31.244  37.195  24.042  1.00  0.00    -0.388 OA
ATOM     12  H   UNL     1      30.764  38.054  24.171  1.00  0.00     0.211 HD
ENDBRANCH   8  11
BRANCH   9  13
ATOM     13  C   UNL     1      32.451  40.090  27.217  1.00  0.00     0.187 C 
BRANCH  13  14
ATOM     14  O   UNL     1      31.427  40.696  27.960  1.00  0.00    -0.392 OA
ATOM     15  H   UNL     1      31.628  41.668  27.989  1.00  0.00     0.211 HD
ENDBRANCH  13  14
ENDBRANCH   9  13
ENDBRANCH   1   2
BRANCH   1  16
ATOM     16  C   UNL     1      28.231  38.524  29.015  1.00  0.00     0.286 C 
ATOM     17  C   UNL     1      26.814  37.953  29.248  1.00  0.00     0.202 C 
ATOM     18  O   UNL     1      28.247  39.359  27.865  1.00  0.00    -0.341 OA
ATOM     19  C   UNL     1      26.285  37.211  28.002  1.00  0.00     0.179 C 
ATOM     20  C   UNL     1      27.929  38.637  26.684  1.00  0.00     0.178 C 
ATOM     21  C   UNL     1      26.481  38.080  26.741  1.00  0.00     0.177 C 
BRANCH  17  22
ATOM     22  O   UNL     1      26.761  37.139  30.395  1.00  0.00    -0.385 OA
ATOM     23  H   UNL     1      27.481  37.425  31.014  1.00  0.00     0.211 HD
ENDBRANCH  17  22
BRANCH  19  24
ATOM     24  O   UNL     1      26.958  35.986  27.846  1.00  0.00    -0.387 OA
ATOM     25  H   UNL     1      26.651  35.393  28.580  1.00  0.00     0.211 HD
ENDBRANCH  19  24
BRANCH  20  26
ATOM     26  C   UNL     1      28.118  39.556  25.471  1.00  0.00     0.191 C 
BRANCH  26  27
ATOM     27  O   UNL     1      27.415  39.041  24.375  1.00  0.00    -0.394 OA
ATOM     28  H   UNL     1      26.745  39.729  24.130  1.00  0.00     0.210 HD
ENDBRANCH  26  27
ENDBRANCH  20  26
BRANCH  21  29
ATOM     29  O   UNL     1      25.516  39.105  26.685  1.00  0.00    -0.387 OA
ATOM     30  H   UNL     1      24.617  38.690  26.727  1.00  0.00     0.211 HD
ENDBRANCH  21  29
ENDBRANCH   1  16
TORSDOF 10
ENDMDL
MODEL 8
REMARK VINA RESULT:    -3.799      2.223      4.676
REMARK INTER + INTRA:          -4.881
REMARK INTER:                  -5.718
REMARK INTRA:                   0.837
REMARK UNBOUND:                 0.473
REMARK SMILES OCC1=C[C@H](O)[C@H]2C=CO[C@H](O[C@H]3O[C@H](CO)[C@H](O)[C@@H](O)[C@H]3O)[C@@H]12
REMARK SMILES IDX 12 1 11 2 8 3 9 4 7 5 10 6 24 7 5 8 3 9 4 10 6 11 2 13 1 14
REMARK SMILES IDX 13 16 22 17 14 18 20 19 15 20 18 21 23 22 21 24 16 26 17 27
REMARK SMILES IDX 19 29
REMARK H PARENT 6 12 1 15 23 23 21 25 17 28 19 30
REMARK Flexibility Score: inf
ROOT
ATOM      1  O   UNL     1      29.831  37.768  28.512  1.00  0.00    -0.310 OA
ENDROOT
BRANCH   1   2
ATOM      2  C   UNL     1      30.763  37.448  27.492  1.00  0.00     0.316 C 
ATOM      3  C   UNL     1      31.026  34.737  28.311  1.00  0.00     0.018 C 
ATOM      4  C   UNL     1      31.932  35.644  28.679  1.00  0.00     0.186 C 
ATOM      5  C   UNL     1      30.054  34.981  27.173  1.00  0.00     0.061 C 
ATOM      6  O   UNL     1      31.929  36.919  28.114  1.00  0.00    -0.472 OA
ATOM      7  C   UNL     1      30.173  36.388  26.525  1.00  0.00     0.096 C 
ATOM      8  C   UNL     1      30.371  34.004  26.022  1.00  0.00     0.145 C 
ATOM      9  C   UNL     1      31.011  36.140  25.306  1.00  0.00    -0.036 C 
ATOM     10  C   UNL     1      31.114  34.842  25.042  1.00  0.00     0.007 C 
BRANCH   8  11
ATOM     11  O   UNL     1      29.188  33.545  25.423  1.00  0.00    -0.388 OA
ATOM     12  H   UNL     1      28.774  34.331  24.983  1.00  0.00     0.211 HD
ENDBRANCH   8  11
BRANCH   9  13
ATOM     13  C   UNL     1      31.509  37.206  24.362  1.00  0.00     0.187 C 
BRANCH  13  14
ATOM     14  O   UNL     1      32.013  36.623  23.190  1.00  0.00    -0.392 OA
ATOM     15  H   UNL     1      32.725  35.989  23.466  1.00  0.00     0.211 HD
ENDBRANCH  13  14
ENDBRANCH   9  13
ENDBRANCH   1   2
BRANCH   1  16
ATOM     16  C   UNL     1      29.264  39.065  28.351  1.00  0.00     0.286 C 
ATOM     17  C   UNL     1      27.844  39.114  28.959  1.00  0.00     0.202 C 
ATOM     18  O   UNL     1      29.230  39.432  26.978  1.00  0.00    -0.341 OA
ATOM     19  C   UNL     1      26.851  38.241  28.164  1.00  0.00     0.179 C 
ATOM     20  C   UNL     1      28.453  38.524  26.209  1.00  0.00     0.178 C 
ATOM     21  C   UNL     1      26.966  38.541  26.654  1.00  0.00     0.177 C 
BRANCH  17  22
ATOM     22  O   UNL     1      27.848  38.778  30.325  1.00  0.00    -0.385 OA
ATOM     23  H   UNL     1      27.186  39.352  30.790  1.00  0.00     0.211 HD
ENDBRANCH  17  22
BRANCH  19  24
ATOM     24  O   UNL     1      27.109  36.878  28.400  1.00  0.00    -0.387 OA
ATOM     25  H   UNL     1      26.997  36.728  29.375  1.00  0.00     0.211 HD
ENDBRANCH  19  24
BRANCH  20  26
ATOM     26  C   UNL     1      28.589  38.887  24.725  1.00  0.00     0.191 C 
BRANCH  26  27
ATOM     27  O   UNL     1      28.512  40.276  24.570  1.00  0.00    -0.394 OA
ATOM     28  H   UNL     1      29.380  40.559  24.184  1.00  0.00     0.210 HD
ENDBRANCH  26  27
ENDBRANCH  20  26
BRANCH  21  29
ATOM     29  O   UNL     1      26.331  39.757  26.336  1.00  0.00    -0.387 OA
ATOM     30  H   UNL     1      26.730  40.473  26.893  1.00  0.00     0.211 HD
ENDBRANCH  21  29
ENDBRANCH   1  16
TORSDOF 10
ENDMDL
MODEL 9
REMARK VINA RESULT:    -3.670      1.914      2.539
REMARK INTER + INTRA:          -4.699
REMARK INTER:                  -6.060
REMARK INTRA:                   1.361
REMARK UNBOUND:                 0.473
REMARK SMILES OCC1=C[C@H](O)[C@H]2C=CO[C@H](O[C@H]3O[C@H](CO)[C@H](O)[C@@H](O)[C@H]3O)[C@@H]12
REMARK SMILES IDX 12 1 11 2 8 3 9 4 7 5 10 6 24 7 5 8 3 9 4 10 6 11 2 13 1 14
REMARK SMILES IDX 13 16 22 17 14 18 20 19 15 20 18 21 23 22 21 24 16 26 17 27
REMARK SMILES IDX 19 29
REMARK H PARENT 6 12 1 15 23 23 21 25 17 28 19 30
REMARK Flexibility Score: inf
ROOT
ATOM      1  O   UNL     1      29.941  36.050  26.183  1.00  0.00    -0.310 OA
ENDROOT
BRANCH   1   2
ATOM      2  C   UNL     1      30.846  37.118  26.407  1.00  0.00     0.316 C 
ATOM      3  C   UNL     1      31.110  37.733  23.643  1.00  0.00     0.018 C 
ATOM      4  C   UNL     1      32.031  36.991  24.260  1.00  0.00     0.186 C 
ATOM      5  C   UNL     1      30.112  38.583  24.405  1.00  0.00     0.061 C 
ATOM      6  O   UNL     1      32.023  36.861  25.649  1.00  0.00    -0.472 OA
ATOM      7  C   UNL     1      30.226  38.465  25.951  1.00  0.00     0.096 C 
ATOM      8  C   UNL     1      30.395  40.072  24.116  1.00  0.00     0.145 C 
ATOM      9  C   UNL     1      31.032  39.670  26.334  1.00  0.00    -0.036 C 
ATOM     10  C   UNL     1      31.120  40.536  25.330  1.00  0.00     0.007 C 
BRANCH   8  11
ATOM     11  O   UNL     1      29.195  40.790  24.001  1.00  0.00    -0.388 OA
ATOM     12  H   UNL     1      29.329  41.441  23.265  1.00  0.00     0.211 HD
ENDBRANCH   8  11
BRANCH   9  13
ATOM     13  C   UNL     1      31.515  39.984  27.728  1.00  0.00     0.187 C 
BRANCH  13  14
ATOM     14  O   UNL     1      31.971  41.309  27.798  1.00  0.00    -0.392 OA
ATOM     15  H   UNL     1      31.980  41.661  26.870  1.00  0.00     0.211 HD
ENDBRANCH  13  14
ENDBRANCH   9  13
ENDBRANCH   1   2
BRANCH   1  16
ATOM     16  C   UNL     1      29.180  35.722  27.342  1.00  0.00     0.286 C 
ATOM     17  C   UNL     1      27.880  34.985  26.947  1.00  0.00     0.202 C 
ATOM     18  O   UNL     1      28.880  36.890  28.095  1.00  0.00    -0.341 OA
ATOM     19  C   UNL     1      26.907  35.912  26.189  1.00  0.00     0.179 C 
ATOM     20  C   UNL     1      28.128  37.827  27.336  1.00  0.00     0.178 C 
ATOM     21  C   UNL     1      26.741  37.247  26.947  1.00  0.00     0.177 C 
BRANCH  17  22
ATOM     22  O   UNL     1      28.145  33.810  26.221  1.00  0.00    -0.385 OA
ATOM     23  H   UNL     1      27.723  33.893  25.327  1.00  0.00     0.211 HD
ENDBRANCH  17  22
BRANCH  19  24
ATOM     24  O   UNL     1      27.386  36.158  24.890  1.00  0.00    -0.387 OA
ATOM     25  H   UNL     1      28.280  35.732  24.826  1.00  0.00     0.211 HD
ENDBRANCH  19  24
BRANCH  20  26
ATOM     26  C   UNL     1      27.977  39.119  28.148  1.00  0.00     0.191 C 
BRANCH  26  27
ATOM     27  O   UNL     1      27.487  38.819  29.424  1.00  0.00    -0.394 OA
ATOM     28  H   UNL     1      27.220  37.864  29.401  1.00  0.00     0.210 HD
ENDBRANCH  26  27
ENDBRANCH  20  26
BRANCH  21  29
ATOM     29  O   UNL     1      25.900  37.086  28.066  1.00  0.00    -0.387 OA
ATOM     30  H   UNL     1      26.453  37.155  28.884  1.00  0.00     0.211 HD
ENDBRANCH  21  29
ENDBRANCH   1  16
TORSDOF 10
ENDMDL
