MODEL 1
REMARK VINA RESULT:    -4.542      0.000      0.000
REMARK INTER + INTRA:          -7.409
REMARK INTER:                  -6.666
REMARK INTRA:                  -0.744
REMARK UNBOUND:                -0.744
REMARK SMILES O=C([O-])CCCCCCCC(=O)[O-]
REMARK SMILES IDX 7 1 6 2 5 3 4 4 2 5 1 6 3 7 8 8 9 9 10 10 11 11 12 12 13 13
REMARK H PARENT
REMARK Flexibility Score: inf
ROOT
ATOM      1  C   UNL     1     138.523 130.492 129.378  1.00  0.00     0.000 C 
ENDROOT
BRANCH   1   2
ATOM      2  C   UNL     1     139.726 131.329 129.848  1.00  0.00     0.000 C 
BRANCH   2   3
ATOM      3  C   UNL     1     139.305 132.608 130.595  1.00  0.00     0.006 C 
BRANCH   3   4
ATOM      4  C   UNL     1     139.471 133.902 129.781  1.00  0.00     0.053 C 
BRANCH   4   5
ATOM      5  C   UNL     1     140.174 134.970 130.562  1.00  0.00     0.041 C 
ATOM      6  O   UNL     1     140.107 136.172 130.195  1.00  0.00    -0.550 OA
ATOM      7  O   UNL     1     140.929 134.631 131.677  1.00  0.00    -0.550 OA
ENDBRANCH   4   5
ENDBRANCH   3   4
ENDBRANCH   2   3
ENDBRANCH   1   2
BRANCH   1   8
ATOM      8  C   UNL     1     138.047 130.883 127.969  1.00  0.00     0.000 C 
BRANCH   8   9
ATOM      9  C   UNL     1     136.571 131.319 127.942  1.00  0.00     0.006 C 
BRANCH   9  10
ATOM     10  C   UNL     1     136.419 132.845 127.987  1.00  0.00     0.053 C 
BRANCH  10  11
ATOM     11  C   UNL     1     135.678 133.296 129.208  1.00  0.00     0.041 C 
ATOM     12  O   UNL     1     135.778 132.650 130.284  1.00  0.00    -0.550 OA
ATOM     13  O   UNL     1     134.900 134.446 129.167  1.00  0.00    -0.550 OA
ENDBRANCH  10  11
ENDBRANCH   9  10
ENDBRANCH   8   9
ENDBRANCH   1   8
TORSDOF 8
ENDMDL
MODEL 2
REMARK VINA RESULT:    -4.492      0.565      4.443
REMARK INTER + INTRA:          -7.336
REMARK INTER:                  -6.594
REMARK INTRA:                  -0.742
REMARK UNBOUND:                -0.744
REMARK SMILES O=C([O-])CCCCCCCC(=O)[O-]
REMARK SMILES IDX 7 1 6 2 5 3 4 4 2 5 1 6 3 7 8 8 9 9 10 10 11 11 12 12 13 13
REMARK H PARENT
REMARK Flexibility Score: inf
ROOT
ATOM      1  C   UNL     1     138.511 130.515 129.350  1.00  0.00     0.000 C 
ENDROOT
BRANCH   1   2
ATOM      2  C   UNL     1     138.140 130.760 127.877  1.00  0.00     0.000 C 
BRANCH   2   3
ATOM      3  C   UNL     1     136.820 131.538 127.717  1.00  0.00     0.006 C 
BRANCH   3   4
ATOM      4  C   UNL     1     135.956 131.588 128.988  1.00  0.00     0.053 C 
BRANCH   4   5
ATOM      5  C   UNL     1     135.643 132.994 129.398  1.00  0.00     0.041 C 
ATOM      6  O   UNL     1     135.480 133.278 130.614  1.00  0.00    -0.550 OA
ATOM      7  O   UNL     1     135.501 133.984 128.435  1.00  0.00    -0.550 OA
ENDBRANCH   4   5
ENDBRANCH   3   4
ENDBRANCH   2   3
ENDBRANCH   1   2
BRANCH   1   8
ATOM      8  C   UNL     1     139.665 131.415 129.825  1.00  0.00     0.000 C 
BRANCH   8   9
ATOM      9  C   UNL     1     139.175 132.625 130.640  1.00  0.00     0.006 C 
BRANCH   9  10
ATOM     10  C   UNL     1     139.271 133.934 129.845  1.00  0.00     0.053 C 
BRANCH  10  11
ATOM     11  C   UNL     1     140.052 134.979 130.583  1.00  0.00     0.041 C 
ATOM     12  O   UNL     1     140.835 134.646 131.511  1.00  0.00    -0.550 OA
ATOM     13  O   UNL     1     139.937 136.317 130.226  1.00  0.00    -0.550 OA
ENDBRANCH  10  11
ENDBRANCH   9  10
ENDBRANCH   8   9
ENDBRANCH   1   8
TORSDOF 8
ENDMDL
MODEL 3
REMARK VINA RESULT:    -4.468      2.059      4.736
REMARK INTER + INTRA:          -7.302
REMARK INTER:                  -6.836
REMARK INTRA:                  -0.466
REMARK UNBOUND:                -0.744
REMARK SMILES O=C([O-])CCCCCCCC(=O)[O-]
REMARK SMILES IDX 7 1 6 2 5 3 4 4 2 5 1 6 3 7 8 8 9 9 10 10 11 11 12 12 13 13
REMARK H PARENT
REMARK Flexibility Score: inf
ROOT
ATOM      1  C   UNL     1     139.980 133.486 131.283  1.00  0.00     0.000 C 
ENDROOT
BRANCH   1   2
ATOM      2  C   UNL     1     139.263 132.970 130.023  1.00  0.00     0.000 C 
BRANCH   2   3
ATOM      3  C   UNL     1     139.403 131.447 129.841  1.00  0.00     0.006 C 
BRANCH   3   4
ATOM      4  C   UNL     1     138.475 130.847 128.773  1.00  0.00     0.053 C 
BRANCH   4   5
ATOM      5  C   UNL     1     137.034 131.156 129.044  1.00  0.00     0.041 C 
ATOM      6  O   UNL     1     136.344 131.764 128.185  1.00  0.00    -0.550 OA
ATOM      7  O   UNL     1     136.464 130.800 130.259  1.00  0.00    -0.550 OA
ENDBRANCH   4   5
ENDBRANCH   3   4
ENDBRANCH   2   3
ENDBRANCH   1   2
BRANCH   1   8
ATOM      8  C   UNL     1     140.592 134.883 131.083  1.00  0.00     0.000 C 
BRANCH   8   9
ATOM      9  C   UNL     1     139.837 135.715 130.031  1.00  0.00     0.006 C 
BRANCH   9  10
ATOM     10  C   UNL     1     139.272 137.015 130.618  1.00  0.00     0.053 C 
BRANCH  10  11
ATOM     11  C   UNL     1     137.774 137.018 130.626  1.00  0.00     0.041 C 
ATOM     12  O   UNL     1     137.143 138.108 130.596  1.00  0.00    -0.550 OA
ATOM     13  O   UNL     1     137.074 135.818 130.636  1.00  0.00    -0.550 OA
ENDBRANCH  10  11
ENDBRANCH   9  10
ENDBRANCH   8   9
ENDBRANCH   1   8
TORSDOF 8
ENDMDL
MODEL 4
REMARK VINA RESULT:    -4.462      1.945      2.701
REMARK INTER + INTRA:          -7.292
REMARK INTER:                  -6.909
REMARK INTRA:                  -0.383
REMARK UNBOUND:                -0.744
REMARK SMILES O=C([O-])CCCCCCCC(=O)[O-]
REMARK SMILES IDX 7 1 6 2 5 3 4 4 2 5 1 6 3 7 8 8 9 9 10 10 11 11 12 12 13 13
REMARK H PARENT
REMARK Flexibility Score: inf
ROOT
ATOM      1  C   UNL     1     139.024 132.373 130.808  1.00  0.00     0.000 C 
ENDROOT
BRANCH   1   2
ATOM      2  C   UNL     1     139.976 133.569 130.985  1.00  0.00     0.000 C 
BRANCH   2   3
ATOM      3  C   UNL     1     139.768 134.658 129.916  1.00  0.00     0.006 C 
BRANCH   3   4
ATOM      4  C   UNL     1     139.821 136.097 130.456  1.00  0.00     0.053 C 
BRANCH   4   5
ATOM      5  C   UNL     1     138.468 136.739 130.478  1.00  0.00     0.041 C 
ATOM      6  O   UNL     1     138.340 137.955 130.180  1.00  0.00    -0.550 OA
ATOM      7  O   UNL     1     137.355 136.001 130.858  1.00  0.00    -0.550 OA
ENDBRANCH   4   5
ENDBRANCH   3   4
ENDBRANCH   2   3
ENDBRANCH   1   2
BRANCH   1   8
ATOM      8  C   UNL     1     139.598 131.296 129.872  1.00  0.00     0.000 C 
BRANCH   8   9
ATOM      9  C   UNL     1     138.505 130.406 129.253  1.00  0.00     0.006 C 
BRANCH   9  10
ATOM     10  C   UNL     1     138.184 130.808 127.807  1.00  0.00     0.053 C 
BRANCH  10  11
ATOM     11  C   UNL     1     136.862 131.505 127.703  1.00  0.00     0.041 C 
ATOM     12  O   UNL     1     135.914 131.184 128.467  1.00  0.00    -0.550 OA
ATOM     13  O   UNL     1     136.685 132.530 126.781  1.00  0.00    -0.550 OA
ENDBRANCH  10  11
ENDBRANCH   9  10
ENDBRANCH   8   9
ENDBRANCH   1   8
TORSDOF 8
ENDMDL
MODEL 5
REMARK VINA RESULT:    -4.442      1.490      4.573
REMARK INTER + INTRA:          -7.263
REMARK INTER:                  -6.560
REMARK INTRA:                  -0.703
REMARK UNBOUND:                -0.744
REMARK SMILES O=C([O-])CCCCCCCC(=O)[O-]
REMARK SMILES IDX 7 1 6 2 5 3 4 4 2 5 1 6 3 7 8 8 9 9 10 10 11 11 12 12 13 13
REMARK H PARENT
REMARK Flexibility Score: inf
ROOT
ATOM      1  C   UNL     1     137.891 130.884 128.006  1.00  0.00     0.000 C 
ENDROOT
BRANCH   1   2
ATOM      2  C   UNL     1     136.436 131.325 128.244  1.00  0.00     0.000 C 
BRANCH   2   3
ATOM      3  C   UNL     1     135.873 130.817 129.585  1.00  0.00     0.006 C 
BRANCH   3   4
ATOM      4  C   UNL     1     134.437 131.276 129.885  1.00  0.00     0.053 C 
BRANCH   4   5
ATOM      5  C   UNL     1     134.402 132.625 130.536  1.00  0.00     0.041 C 
ATOM      6  O   UNL     1     134.629 132.739 131.769  1.00  0.00    -0.550 OA
ATOM      7  O   UNL     1     134.089 133.750 129.786  1.00  0.00    -0.550 OA
ENDBRANCH   4   5
ENDBRANCH   3   4
ENDBRANCH   2   3
ENDBRANCH   1   2
BRANCH   1   8
ATOM      8  C   UNL     1     138.560 130.343 129.281  1.00  0.00     0.000 C 
BRANCH   8   9
ATOM      9  C   UNL     1     139.637 131.294 129.833  1.00  0.00     0.006 C 
BRANCH   9  10
ATOM     10  C   UNL     1     139.067 132.278 130.863  1.00  0.00     0.053 C 
BRANCH  10  11
ATOM     11  C   UNL     1     138.843 133.636 130.272  1.00  0.00     0.041 C 
ATOM     12  O   UNL     1     137.687 134.134 130.250  1.00  0.00    -0.550 OA
ATOM     13  O   UNL     1     139.915 134.365 129.772  1.00  0.00    -0.550 OA
ENDBRANCH  10  11
ENDBRANCH   9  10
ENDBRANCH   8   9
ENDBRANCH   1   8
TORSDOF 8
ENDMDL
MODEL 6
REMARK VINA RESULT:    -4.437      2.184      4.742
REMARK INTER + INTRA:          -7.256
REMARK INTER:                  -6.349
REMARK INTRA:                  -0.906
REMARK UNBOUND:                -0.744
REMARK SMILES O=C([O-])CCCCCCCC(=O)[O-]
REMARK SMILES IDX 7 1 6 2 5 3 4 4 2 5 1 6 3 7 8 8 9 9 10 10 11 11 12 12 13 13
REMARK H PARENT
REMARK Flexibility Score: inf
ROOT
ATOM      1  C   UNL     1     138.421 130.434 129.230  1.00  0.00     0.000 C 
ENDROOT
BRANCH   1   2
ATOM      2  C   UNL     1     137.730 131.106 128.030  1.00  0.00     0.000 C 
BRANCH   2   3
ATOM      3  C   UNL     1     136.240 131.397 128.287  1.00  0.00     0.006 C 
BRANCH   3   4
ATOM      4  C   UNL     1     135.594 130.500 129.357  1.00  0.00     0.053 C 
BRANCH   4   5
ATOM      5  C   UNL     1     134.271 131.035 129.813  1.00  0.00     0.041 C 
ATOM      6  O   UNL     1     134.041 132.271 129.776  1.00  0.00    -0.550 OA
ATOM      7  O   UNL     1     133.305 130.168 130.308  1.00  0.00    -0.550 OA
ENDBRANCH   4   5
ENDBRANCH   3   4
ENDBRANCH   2   3
ENDBRANCH   1   2
BRANCH   1   8
ATOM      8  C   UNL     1     139.600 131.259 129.770  1.00  0.00     0.000 C 
BRANCH   8   9
ATOM      9  C   UNL     1     139.146 132.427 130.663  1.00  0.00     0.006 C 
BRANCH   9  10
ATOM     10  C   UNL     1     138.124 131.985 131.719  1.00  0.00     0.053 C 
BRANCH  10  11
ATOM     11  C   UNL     1     136.926 132.883 131.747  1.00  0.00     0.041 C 
ATOM     12  O   UNL     1     136.062 132.759 132.654  1.00  0.00    -0.550 OA
ATOM     13  O   UNL     1     136.777 133.877 130.787  1.00  0.00    -0.550 OA
ENDBRANCH  10  11
ENDBRANCH   9  10
ENDBRANCH   8   9
ENDBRANCH   1   8
TORSDOF 8
ENDMDL
MODEL 7
REMARK VINA RESULT:    -4.435      1.239      4.147
REMARK INTER + INTRA:          -7.253
REMARK INTER:                  -6.503
REMARK INTRA:                  -0.750
REMARK UNBOUND:                -0.744
REMARK SMILES O=C([O-])CCCCCCCC(=O)[O-]
REMARK SMILES IDX 7 1 6 2 5 3 4 4 2 5 1 6 3 7 8 8 9 9 10 10 11 11 12 12 13 13
REMARK H PARENT
REMARK Flexibility Score: inf
ROOT
ATOM      1  C   UNL     1     139.017 130.869 130.458  1.00  0.00     0.000 C 
ENDROOT
BRANCH   1   2
ATOM      2  C   UNL     1     138.491 130.020 129.287  1.00  0.00     0.000 C 
BRANCH   2   3
ATOM      3  C   UNL     1     138.100 130.871 128.064  1.00  0.00     0.006 C 
BRANCH   3   4
ATOM      4  C   UNL     1     136.636 131.342 128.061  1.00  0.00     0.053 C 
BRANCH   4   5
ATOM      5  C   UNL     1     136.501 132.760 128.525  1.00  0.00     0.041 C 
ATOM      6  O   UNL     1     137.154 133.676 127.960  1.00  0.00    -0.550 OA
ATOM      7  O   UNL     1     135.679 133.063 129.602  1.00  0.00    -0.550 OA
ENDBRANCH   4   5
ENDBRANCH   3   4
ENDBRANCH   2   3
ENDBRANCH   1   2
BRANCH   1   8
ATOM      8  C   UNL     1     139.830 132.086 129.985  1.00  0.00     0.000 C 
BRANCH   8   9
ATOM      9  C   UNL     1     139.443 133.380 130.723  1.00  0.00     0.006 C 
BRANCH   9  10
ATOM     10  C   UNL     1     139.945 134.634 129.995  1.00  0.00     0.053 C 
BRANCH  10  11
ATOM     11  C   UNL     1     139.104 135.834 130.306  1.00  0.00     0.041 C 
ATOM     12  O   UNL     1     139.605 136.988 130.257  1.00  0.00    -0.550 OA
ATOM     13  O   UNL     1     137.759 135.681 130.619  1.00  0.00    -0.550 OA
ENDBRANCH  10  11
ENDBRANCH   9  10
ENDBRANCH   8   9
ENDBRANCH   1   8
TORSDOF 8
ENDMDL
MODEL 8
REMARK VINA RESULT:    -4.431      2.274      3.866
REMARK INTER + INTRA:          -7.247
REMARK INTER:                  -6.337
REMARK INTRA:                  -0.910
REMARK UNBOUND:                -0.744
REMARK SMILES O=C([O-])CCCCCCCC(=O)[O-]
REMARK SMILES IDX 7 1 6 2 5 3 4 4 2 5 1 6 3 7 8 8 9 9 10 10 11 11 12 12 13 13
REMARK H PARENT
REMARK Flexibility Score: inf
ROOT
ATOM      1  C   UNL     1     139.513 133.064 130.839  1.00  0.00     0.000 C 
ENDROOT
BRANCH   1   2
ATOM      2  C   UNL     1     139.720 131.700 130.158  1.00  0.00     0.000 C 
BRANCH   2   3
ATOM      3  C   UNL     1     138.393 130.982 129.851  1.00  0.00     0.006 C 
BRANCH   3   4
ATOM      4  C   UNL     1     138.183 130.642 128.366  1.00  0.00     0.053 C 
BRANCH   4   5
ATOM      5  C   UNL     1     136.933 131.261 127.820  1.00  0.00     0.041 C 
ATOM      6  O   UNL     1     137.001 132.129 126.911  1.00  0.00    -0.550 OA
ATOM      7  O   UNL     1     135.696 130.900 128.338  1.00  0.00    -0.550 OA
ENDBRANCH   4   5
ENDBRANCH   3   4
ENDBRANCH   2   3
ENDBRANCH   1   2
BRANCH   1   8
ATOM      8  C   UNL     1     139.651 134.240 129.857  1.00  0.00     0.000 C 
BRANCH   8   9
ATOM      9  C   UNL     1     138.312 134.628 129.204  1.00  0.00     0.006 C 
BRANCH   9  10
ATOM     10  C   UNL     1     137.218 134.898 130.246  1.00  0.00     0.053 C 
BRANCH  10  11
ATOM     11  C   UNL     1     136.002 134.055 130.010  1.00  0.00     0.041 C 
ATOM     12  O   UNL     1     135.681 133.161 130.836  1.00  0.00    -0.550 OA
ATOM     13  O   UNL     1     135.207 134.277 128.892  1.00  0.00    -0.550 OA
ENDBRANCH  10  11
ENDBRANCH   9  10
ENDBRANCH   8   9
ENDBRANCH   1   8
TORSDOF 8
ENDMDL
MODEL 9
REMARK VINA RESULT:    -4.417      2.234      3.373
REMARK INTER + INTRA:          -7.226
REMARK INTER:                  -6.375
REMARK INTRA:                  -0.851
REMARK UNBOUND:                -0.744
REMARK SMILES O=C([O-])CCCCCCCC(=O)[O-]
REMARK SMILES IDX 7 1 6 2 5 3 4 4 2 5 1 6 3 7 8 8 9 9 10 10 11 11 12 12 13 13
REMARK H PARENT
REMARK Flexibility Score: inf
ROOT
ATOM      1  C   UNL     1     139.225 132.425 130.909  1.00  0.00     0.000 C 
ENDROOT
BRANCH   1   2
ATOM      2  C   UNL     1     139.495 133.857 130.414  1.00  0.00     0.000 C 
BRANCH   2   3
ATOM      3  C   UNL     1     138.407 134.369 129.452  1.00  0.00     0.006 C 
BRANCH   3   4
ATOM      4  C   UNL     1     137.203 135.025 130.147  1.00  0.00     0.053 C 
BRANCH   4   5
ATOM      5  C   UNL     1     135.972 134.175 130.058  1.00  0.00     0.041 C 
ATOM      6  O   UNL     1     135.104 134.409 129.177  1.00  0.00    -0.550 OA
ATOM      7  O   UNL     1     135.771 133.146 130.968  1.00  0.00    -0.550 OA
ENDBRANCH   4   5
ENDBRANCH   3   4
ENDBRANCH   2   3
ENDBRANCH   1   2
BRANCH   1   8
ATOM      8  C   UNL     1     139.633 131.358 129.880  1.00  0.00     0.000 C 
BRANCH   8   9
ATOM      9  C   UNL     1     138.439 130.521 129.389  1.00  0.00     0.006 C 
BRANCH   9  10
ATOM     10  C   UNL     1     138.137 130.760 127.904  1.00  0.00     0.053 C 
BRANCH  10  11
ATOM     11  C   UNL     1     136.810 131.427 127.705  1.00  0.00     0.041 C 
ATOM     12  O   UNL     1     135.801 131.034 128.346  1.00  0.00    -0.550 OA
ATOM     13  O   UNL     1     136.695 132.503 126.833  1.00  0.00    -0.550 OA
ENDBRANCH  10  11
ENDBRANCH   9  10
ENDBRANCH   8   9
ENDBRANCH   1   8
TORSDOF 8
ENDMDL
