MODEL 1
REMARK VINA RESULT:    -2.797      0.000      0.000
REMARK INTER + INTRA:          -3.156
REMARK INTER:                  -3.124
REMARK INTRA:                  -0.032
REMARK UNBOUND:                -0.032
REMARK SMILES CCCC(=O)[O-]
REMARK SMILES IDX 3 1 4 2 5 3 6 4 2 5 1 6
REMARK H PARENT
REMARK Flexibility Score: inf
ROOT
ATOM      1  C   UNL     1      38.094  23.961  29.583  1.00  0.00     0.052 C 
ENDROOT
BRANCH   1   2
ATOM      2  C   UNL     1      38.274  22.773  28.691  1.00  0.00     0.041 C 
ATOM      3  O   UNL     1      38.501  22.932  27.463  1.00  0.00    -0.550 OA
ATOM      4  O   UNL     1      38.240  21.491  29.225  1.00  0.00    -0.550 OA
ENDBRANCH   1   2
BRANCH   1   5
ATOM      5  C   UNL     1      39.413  24.322  30.269  1.00  0.00     0.003 C 
ATOM      6  C   UNL     1      40.251  25.253  29.398  1.00  0.00     0.004 C 
ENDBRANCH   1   5
TORSDOF 2
ENDMDL
MODEL 2
REMARK VINA RESULT:    -2.720     17.264     17.964
REMARK INTER + INTRA:          -3.070
REMARK INTER:                  -3.017
REMARK INTRA:                  -0.052
REMARK UNBOUND:                -0.032
REMARK SMILES CCCC(=O)[O-]
REMARK SMILES IDX 3 1 4 2 5 3 6 4 2 5 1 6
REMARK H PARENT
REMARK Flexibility Score: inf
ROOT
ATOM      1  C   UNL     1      26.770  34.383  20.196  1.00  0.00     0.052 C 
ENDROOT
BRANCH   1   2
ATOM      2  C   UNL     1      27.893  33.592  20.788  1.00  0.00     0.041 C 
ATOM      3  O   UNL     1      27.897  33.319  22.017  1.00  0.00    -0.550 OA
ATOM      4  O   UNL     1      28.912  33.112  19.974  1.00  0.00    -0.550 OA
ENDBRANCH   1   2
BRANCH   1   5
ATOM      5  C   UNL     1      25.921  33.503  19.276  1.00  0.00     0.003 C 
ATOM      6  C   UNL     1      24.876  32.725  20.068  1.00  0.00     0.004 C 
ENDBRANCH   1   5
TORSDOF 2
ENDMDL
MODEL 3
REMARK VINA RESULT:    -2.719     17.307     17.971
REMARK INTER + INTRA:          -3.069
REMARK INTER:                  -3.011
REMARK INTRA:                  -0.058
REMARK UNBOUND:                -0.032
REMARK SMILES CCCC(=O)[O-]
REMARK SMILES IDX 3 1 4 2 5 3 6 4 2 5 1 6
REMARK H PARENT
REMARK Flexibility Score: inf
ROOT
ATOM      1  C   UNL     1      26.762  34.419  20.168  1.00  0.00     0.052 C 
ENDROOT
BRANCH   1   2
ATOM      2  C   UNL     1      27.867  33.589  20.742  1.00  0.00     0.041 C 
ATOM      3  O   UNL     1      28.772  33.134  19.994  1.00  0.00    -0.550 OA
ATOM      4  O   UNL     1      27.926  33.360  22.111  1.00  0.00    -0.550 OA
ENDBRANCH   1   2
BRANCH   1   5
ATOM      5  C   UNL     1      25.883  33.575  19.242  1.00  0.00     0.003 C 
ATOM      6  C   UNL     1      24.875  32.753  20.038  1.00  0.00     0.004 C 
ENDBRANCH   1   5
TORSDOF 2
ENDMDL
MODEL 4
REMARK VINA RESULT:    -2.692      1.936      2.482
REMARK INTER + INTRA:          -3.039
REMARK INTER:                  -3.029
REMARK INTRA:                  -0.010
REMARK UNBOUND:                -0.032
REMARK SMILES CCCC(=O)[O-]
REMARK SMILES IDX 3 1 4 2 5 3 6 4 2 5 1 6
REMARK H PARENT
REMARK Flexibility Score: inf
ROOT
ATOM      1  C   UNL     1      37.991  22.435  28.933  1.00  0.00     0.052 C 
ENDROOT
BRANCH   1   2
ATOM      2  C   UNL     1      38.899  23.072  27.930  1.00  0.00     0.041 C 
ATOM      3  O   UNL     1      39.898  22.444  27.490  1.00  0.00    -0.550 OA
ATOM      4  O   UNL     1      38.616  24.342  27.442  1.00  0.00    -0.550 OA
ENDBRANCH   1   2
BRANCH   1   5
ATOM      5  C   UNL     1      37.596  23.443  30.015  1.00  0.00     0.003 C 
ATOM      6  C   UNL     1      37.861  22.886  31.410  1.00  0.00     0.004 C 
ENDBRANCH   1   5
TORSDOF 2
ENDMDL
MODEL 5
REMARK VINA RESULT:    -2.578     15.318     15.902
REMARK INTER + INTRA:          -2.911
REMARK INTER:                  -2.884
REMARK INTRA:                  -0.027
REMARK UNBOUND:                -0.032
REMARK SMILES CCCC(=O)[O-]
REMARK SMILES IDX 3 1 4 2 5 3 6 4 2 5 1 6
REMARK H PARENT
REMARK Flexibility Score: inf
ROOT
ATOM      1  C   UNL     1      28.335  33.459  22.427  1.00  0.00     0.052 C 
ENDROOT
BRANCH   1   2
ATOM      2  C   UNL     1      27.979  33.236  20.991  1.00  0.00     0.041 C 
ATOM      3  O   UNL     1      26.774  33.249  20.627  1.00  0.00    -0.550 OA
ATOM      4  O   UNL     1      28.981  33.064  20.044  1.00  0.00    -0.550 OA
ENDBRANCH   1   2
BRANCH   1   5
ATOM      5  C   UNL     1      29.300  32.377  22.914  1.00  0.00     0.003 C 
ATOM      6  C   UNL     1      30.713  32.931  23.073  1.00  0.00     0.004 C 
ENDBRANCH   1   5
TORSDOF 2
ENDMDL
MODEL 6
REMARK VINA RESULT:    -2.561     14.631     15.279
REMARK INTER + INTRA:          -2.892
REMARK INTER:                  -2.826
REMARK INTRA:                  -0.066
REMARK UNBOUND:                -0.032
REMARK SMILES CCCC(=O)[O-]
REMARK SMILES IDX 3 1 4 2 5 3 6 4 2 5 1 6
REMARK H PARENT
REMARK Flexibility Score: inf
ROOT
ATOM      1  C   UNL     1      28.381  33.235  23.202  1.00  0.00     0.052 C 
ENDROOT
BRANCH   1   2
ATOM      2  C   UNL     1      29.654  32.453  23.120  1.00  0.00     0.041 C 
ATOM      3  O   UNL     1      29.652  31.214  23.343  1.00  0.00    -0.550 OA
ATOM      4  O   UNL     1      30.835  33.084  22.749  1.00  0.00    -0.550 OA
ENDBRANCH   1   2
BRANCH   1   5
ATOM      5  C   UNL     1      28.202  34.101  21.954  1.00  0.00     0.003 C 
ATOM      6  C   UNL     1      27.748  33.265  20.762  1.00  0.00     0.004 C 
ENDBRANCH   1   5
TORSDOF 2
ENDMDL
MODEL 7
REMARK VINA RESULT:    -2.538     14.280     14.941
REMARK INTER + INTRA:          -2.867
REMARK INTER:                  -2.814
REMARK INTRA:                  -0.052
REMARK UNBOUND:                -0.032
REMARK SMILES CCCC(=O)[O-]
REMARK SMILES IDX 3 1 4 2 5 3 6 4 2 5 1 6
REMARK H PARENT
REMARK Flexibility Score: inf
ROOT
ATOM      1  C   UNL     1      29.733  32.421  23.090  1.00  0.00     0.052 C 
ENDROOT
BRANCH   1   2
ATOM      2  C   UNL     1      30.897  33.361  23.090  1.00  0.00     0.041 C 
ATOM      3  O   UNL     1      31.946  33.070  22.459  1.00  0.00    -0.550 OA
ATOM      4  O   UNL     1      30.804  34.583  23.746  1.00  0.00    -0.550 OA
ENDBRANCH   1   2
BRANCH   1   5
ATOM      5  C   UNL     1      28.415  33.198  23.095  1.00  0.00     0.003 C 
ATOM      6  C   UNL     1      27.991  33.572  21.678  1.00  0.00     0.004 C 
ENDBRANCH   1   5
TORSDOF 2
ENDMDL
MODEL 8
REMARK VINA RESULT:    -2.511      9.798     10.667
REMARK INTER + INTRA:          -2.837
REMARK INTER:                  -2.812
REMARK INTRA:                  -0.025
REMARK UNBOUND:                -0.032
REMARK SMILES CCCC(=O)[O-]
REMARK SMILES IDX 3 1 4 2 5 3 6 4 2 5 1 6
REMARK H PARENT
REMARK Flexibility Score: inf
ROOT
ATOM      1  C   UNL     1      40.626  24.116  19.745  1.00  0.00     0.052 C 
ENDROOT
BRANCH   1   2
ATOM      2  C   UNL     1      39.550  24.768  18.935  1.00  0.00     0.041 C 
ATOM      3  O   UNL     1      38.361  24.773  19.349  1.00  0.00    -0.550 OA
ATOM      4  O   UNL     1      39.868  25.415  17.747  1.00  0.00    -0.550 OA
ENDBRANCH   1   2
BRANCH   1   5
ATOM      5  C   UNL     1      41.645  23.432  18.831  1.00  0.00     0.003 C 
ATOM      6  C   UNL     1      41.509  21.914  18.893  1.00  0.00     0.004 C 
ENDBRANCH   1   5
TORSDOF 2
ENDMDL
MODEL 9
REMARK VINA RESULT:    -2.466      9.325      9.868
REMARK INTER + INTRA:          -2.786
REMARK INTER:                  -2.757
REMARK INTRA:                  -0.029
REMARK UNBOUND:                -0.032
REMARK SMILES CCCC(=O)[O-]
REMARK SMILES IDX 3 1 4 2 5 3 6 4 2 5 1 6
REMARK H PARENT
REMARK Flexibility Score: inf
ROOT
ATOM      1  C   UNL     1      38.064  31.638  32.327  1.00  0.00     0.052 C 
ENDROOT
BRANCH   1   2
ATOM      2  C   UNL     1      37.353  32.909  32.668  1.00  0.00     0.041 C 
ATOM      3  O   UNL     1      37.984  33.998  32.704  1.00  0.00    -0.550 OA
ATOM      4  O   UNL     1      35.983  32.900  32.900  1.00  0.00    -0.550 OA
ENDBRANCH   1   2
BRANCH   1   5
ATOM      5  C   UNL     1      39.224  31.913  31.367  1.00  0.00     0.003 C 
ATOM      6  C   UNL     1      40.479  31.154  31.787  1.00  0.00     0.004 C 
ENDBRANCH   1   5
TORSDOF 2
ENDMDL
