MODEL 1
REMARK VINA RESULT:    -3.779      0.000      0.000
REMARK INTER + INTRA:          -8.965
REMARK INTER:                  -6.651
REMARK INTRA:                  -2.314
REMARK UNBOUND:                -2.314
REMARK SMILES CCCCCCCCCCCCCCC(=O)[O-]
REMARK SMILES IDX 9 1 10 2 11 3 12 4 13 5 14 6 15 7 16 8 17 9 8 10 7 11 6 12
REMARK SMILES IDX 5 13 4 14 3 15 2 16 1 17
REMARK H PARENT
REMARK Flexibility Score: inf
ROOT
ATOM      1  C   UNL     1     -33.760  12.588  14.843  1.00  0.00     0.000 C 
ENDROOT
BRANCH   1   2
ATOM      2  C   UNL     1     -32.947  13.325  15.922  1.00  0.00     0.000 C 
BRANCH   2   3
ATOM      3  C   UNL     1     -31.965  12.393  16.652  1.00  0.00     0.000 C 
BRANCH   3   4
ATOM      4  C   UNL     1     -30.537  12.976  16.771  1.00  0.00     0.000 C 
BRANCH   4   5
ATOM      5  C   UNL     1     -30.465  14.483  16.462  1.00  0.00     0.006 C 
BRANCH   5   6
ATOM      6  C   UNL     1     -29.084  14.950  15.977  1.00  0.00     0.053 C 
BRANCH   6   7
ATOM      7  C   UNL     1     -28.349  15.710  17.039  1.00  0.00     0.041 C 
ATOM      8  O   UNL     1     -27.119  15.518  17.224  1.00  0.00    -0.550 OA
ATOM      9  O   UNL     1     -29.031  16.617  17.841  1.00  0.00    -0.550 OA
ENDBRANCH   6   7
ENDBRANCH   5   6
ENDBRANCH   4   5
ENDBRANCH   3   4
ENDBRANCH   2   3
ENDBRANCH   1   2
BRANCH   1  10
ATOM     10  C   UNL     1     -33.423  13.082  13.419  1.00  0.00     0.000 C 
BRANCH  10  11
ATOM     11  C   UNL     1     -32.655  14.418  13.388  1.00  0.00    -0.000 C 
BRANCH  11  12
ATOM     12  C   UNL     1     -31.178  14.313  12.974  1.00  0.00    -0.000 C 
BRANCH  12  13
ATOM     13  C   UNL     1     -30.805  12.918  12.442  1.00  0.00    -0.000 C 
BRANCH  13  14
ATOM     14  C   UNL     1     -29.710  12.233  13.280  1.00  0.00    -0.000 C 
BRANCH  14  15
ATOM     15  C   UNL     1     -30.017  10.780  13.698  1.00  0.00    -0.000 C 
BRANCH  15  16
ATOM     16  C   UNL     1     -31.224  10.142  12.989  1.00  0.00    -0.003 C 
ATOM     17  C   UNL     1     -30.821   9.090  11.957  1.00  0.00     0.004 C 
ENDBRANCH  15  16
ENDBRANCH  14  15
ENDBRANCH  13  14
ENDBRANCH  12  13
ENDBRANCH  11  12
ENDBRANCH  10  11
ENDBRANCH   1  10
TORSDOF 13
ENDMDL
MODEL 2
REMARK VINA RESULT:    -3.657      3.997      8.270
REMARK INTER + INTRA:          -8.751
REMARK INTER:                  -7.403
REMARK INTRA:                  -1.347
REMARK UNBOUND:                -2.314
REMARK SMILES CCCCCCCCCCCCCCC(=O)[O-]
REMARK SMILES IDX 9 1 10 2 11 3 12 4 13 5 14 6 15 7 16 8 17 9 8 10 7 11 6 12
REMARK SMILES IDX 5 13 4 14 3 15 2 16 1 17
REMARK H PARENT
REMARK Flexibility Score: inf
ROOT
ATOM      1  C   UNL     1     -27.419  14.530  19.229  1.00  0.00     0.000 C 
ENDROOT
BRANCH   1   2
ATOM      2  C   UNL     1     -27.510  15.189  17.841  1.00  0.00     0.000 C 
BRANCH   2   3
ATOM      3  C   UNL     1     -28.807  14.819  17.102  1.00  0.00     0.000 C 
BRANCH   3   4
ATOM      4  C   UNL     1     -28.729  15.038  15.573  1.00  0.00     0.000 C 
BRANCH   4   5
ATOM      5  C   UNL     1     -29.736  14.182  14.782  1.00  0.00     0.006 C 
BRANCH   5   6
ATOM      6  C   UNL     1     -30.832  15.002  14.084  1.00  0.00     0.053 C 
BRANCH   6   7
ATOM      7  C   UNL     1     -31.488  14.228  12.981  1.00  0.00     0.041 C 
ATOM      8  O   UNL     1     -30.790  13.622  12.126  1.00  0.00    -0.550 OA
ATOM      9  O   UNL     1     -32.874  14.193  12.886  1.00  0.00    -0.550 OA
ENDBRANCH   6   7
ENDBRANCH   5   6
ENDBRANCH   4   5
ENDBRANCH   3   4
ENDBRANCH   2   3
ENDBRANCH   1   2
BRANCH   1  10
ATOM     10  C   UNL     1     -26.133  14.932  19.982  1.00  0.00     0.000 C 
BRANCH  10  11
ATOM     11  C   UNL     1     -25.518  16.262  19.502  1.00  0.00    -0.000 C 
BRANCH  11  12
ATOM     12  C   UNL     1     -24.818  17.090  20.592  1.00  0.00    -0.000 C 
BRANCH  12  13
ATOM     13  C   UNL     1     -25.763  17.485  21.740  1.00  0.00    -0.000 C 
BRANCH  13  14
ATOM     14  C   UNL     1     -26.927  18.379  21.274  1.00  0.00    -0.000 C 
BRANCH  14  15
ATOM     15  C   UNL     1     -28.326  17.938  21.751  1.00  0.00    -0.000 C 
BRANCH  15  16
ATOM     16  C   UNL     1     -29.264  17.440  20.638  1.00  0.00    -0.003 C 
ATOM     17  C   UNL     1     -28.908  18.003  19.263  1.00  0.00     0.004 C 
ENDBRANCH  15  16
ENDBRANCH  14  15
ENDBRANCH  13  14
ENDBRANCH  12  13
ENDBRANCH  11  12
ENDBRANCH  10  11
ENDBRANCH   1  10
TORSDOF 13
ENDMDL
MODEL 3
REMARK VINA RESULT:    -3.655      1.179      2.011
REMARK INTER + INTRA:          -8.748
REMARK INTER:                  -6.625
REMARK INTRA:                  -2.123
REMARK UNBOUND:                -2.314
REMARK SMILES CCCCCCCCCCCCCCC(=O)[O-]
REMARK SMILES IDX 9 1 10 2 11 3 12 4 13 5 14 6 15 7 16 8 17 9 8 10 7 11 6 12
REMARK SMILES IDX 5 13 4 14 3 15 2 16 1 17
REMARK H PARENT
REMARK Flexibility Score: inf
ROOT
ATOM      1  C   UNL     1     -32.925  14.018  13.656  1.00  0.00     0.000 C 
ENDROOT
BRANCH   1   2
ATOM      2  C   UNL     1     -33.050  13.241  14.979  1.00  0.00     0.000 C 
BRANCH   2   3
ATOM      3  C   UNL     1     -32.206  13.863  16.104  1.00  0.00     0.000 C 
BRANCH   3   4
ATOM      4  C   UNL     1     -31.294  12.843  16.825  1.00  0.00     0.000 C 
BRANCH   4   5
ATOM      5  C   UNL     1     -29.845  13.335  16.997  1.00  0.00     0.006 C 
BRANCH   5   6
ATOM      6  C   UNL     1     -29.670  14.843  16.757  1.00  0.00     0.053 C 
BRANCH   6   7
ATOM      7  C   UNL     1     -28.351  15.155  16.118  1.00  0.00     0.041 C 
ATOM      8  O   UNL     1     -28.212  15.065  14.870  1.00  0.00    -0.550 OA
ATOM      9  O   UNL     1     -27.268  15.527  16.905  1.00  0.00    -0.550 OA
ENDBRANCH   6   7
ENDBRANCH   5   6
ENDBRANCH   4   5
ENDBRANCH   3   4
ENDBRANCH   2   3
ENDBRANCH   1   2
BRANCH   1  10
ATOM     10  C   UNL     1     -31.453  14.267  13.262  1.00  0.00     0.000 C 
BRANCH  10  11
ATOM     11  C   UNL     1     -30.784  13.068  12.560  1.00  0.00    -0.000 C 
BRANCH  11  12
ATOM     12  C   UNL     1     -29.713  12.341  13.389  1.00  0.00    -0.000 C 
BRANCH  12  13
ATOM     13  C   UNL     1     -29.846  10.810  13.325  1.00  0.00    -0.000 C 
BRANCH  13  14
ATOM     14  C   UNL     1     -30.881  10.259  14.323  1.00  0.00    -0.000 C 
BRANCH  14  15
ATOM     15  C   UNL     1     -32.193   9.748  13.694  1.00  0.00    -0.000 C 
BRANCH  15  16
ATOM     16  C   UNL     1     -32.102   9.398  12.198  1.00  0.00    -0.003 C 
ATOM     17  C   UNL     1     -33.342   8.671  11.679  1.00  0.00     0.004 C 
ENDBRANCH  15  16
ENDBRANCH  14  15
ENDBRANCH  13  14
ENDBRANCH  12  13
ENDBRANCH  11  12
ENDBRANCH  10  11
ENDBRANCH   1  10
TORSDOF 13
ENDMDL
MODEL 4
REMARK VINA RESULT:    -3.587      1.255      2.591
REMARK INTER + INTRA:          -8.627
REMARK INTER:                  -6.479
REMARK INTRA:                  -2.148
REMARK UNBOUND:                -2.314
REMARK SMILES CCCCCCCCCCCCCCC(=O)[O-]
REMARK SMILES IDX 9 1 10 2 11 3 12 4 13 5 14 6 15 7 16 8 17 9 8 10 7 11 6 12
REMARK SMILES IDX 5 13 4 14 3 15 2 16 1 17
REMARK H PARENT
REMARK Flexibility Score: inf
ROOT
ATOM      1  C   UNL     1     -33.747  12.677  14.579  1.00  0.00     0.000 C 
ENDROOT
BRANCH   1   2
ATOM      2  C   UNL     1     -33.448  13.903  13.698  1.00  0.00     0.000 C 
BRANCH   2   3
ATOM      3  C   UNL     1     -31.987  13.937  13.219  1.00  0.00     0.000 C 
BRANCH   3   4
ATOM      4  C   UNL     1     -31.186  15.138  13.773  1.00  0.00     0.000 C 
BRANCH   4   5
ATOM      5  C   UNL     1     -29.968  14.721  14.618  1.00  0.00     0.006 C 
BRANCH   5   6
ATOM      6  C   UNL     1     -30.168  14.913  16.129  1.00  0.00     0.053 C 
BRANCH   6   7
ATOM      7  C   UNL     1     -28.885  14.748  16.886  1.00  0.00     0.041 C 
ATOM      8  O   UNL     1     -28.852  14.065  17.942  1.00  0.00    -0.550 OA
ATOM      9  O   UNL     1     -27.727  15.370  16.433  1.00  0.00    -0.550 OA
ENDBRANCH   6   7
ENDBRANCH   5   6
ENDBRANCH   4   5
ENDBRANCH   3   4
ENDBRANCH   2   3
ENDBRANCH   1   2
BRANCH   1  10
ATOM     10  C   UNL     1     -33.329  12.900  16.049  1.00  0.00     0.000 C 
BRANCH  10  11
ATOM     11  C   UNL     1     -32.314  11.865  16.573  1.00  0.00    -0.000 C 
BRANCH  11  12
ATOM     12  C   UNL     1     -31.541  11.100  15.485  1.00  0.00    -0.000 C 
BRANCH  12  13
ATOM     13  C   UNL     1     -30.016  11.258  15.614  1.00  0.00    -0.000 C 
BRANCH  13  14
ATOM     14  C   UNL     1     -29.246  10.565  14.475  1.00  0.00    -0.000 C 
BRANCH  14  15
ATOM     15  C   UNL     1     -29.079  11.403  13.191  1.00  0.00    -0.000 C 
BRANCH  15  16
ATOM     16  C   UNL     1     -30.124  11.129  12.096  1.00  0.00    -0.003 C 
ATOM     17  C   UNL     1     -30.532   9.658  12.016  1.00  0.00     0.004 C 
ENDBRANCH  15  16
ENDBRANCH  14  15
ENDBRANCH  13  14
ENDBRANCH  12  13
ENDBRANCH  11  12
ENDBRANCH  10  11
ENDBRANCH   1  10
TORSDOF 13
ENDMDL
MODEL 5
REMARK VINA RESULT:    -3.538      1.575      2.796
REMARK INTER + INTRA:          -8.541
REMARK INTER:                  -6.812
REMARK INTRA:                  -1.729
REMARK UNBOUND:                -2.314
REMARK SMILES CCCCCCCCCCCCCCC(=O)[O-]
REMARK SMILES IDX 9 1 10 2 11 3 12 4 13 5 14 6 15 7 16 8 17 9 8 10 7 11 6 12
REMARK SMILES IDX 5 13 4 14 3 15 2 16 1 17
REMARK H PARENT
REMARK Flexibility Score: inf
ROOT
ATOM      1  C   UNL     1     -31.462  14.774  13.589  1.00  0.00     0.000 C 
ENDROOT
BRANCH   1   2
ATOM      2  C   UNL     1     -31.092  14.713  15.082  1.00  0.00     0.000 C 
BRANCH   2   3
ATOM      3  C   UNL     1     -29.612  15.048  15.331  1.00  0.00     0.000 C 
BRANCH   3   4
ATOM      4  C   UNL     1     -29.189  14.903  16.812  1.00  0.00     0.000 C 
BRANCH   4   5
ATOM      5  C   UNL     1     -27.857  15.604  17.138  1.00  0.00     0.006 C 
BRANCH   5   6
ATOM      6  C   UNL     1     -27.642  15.860  18.637  1.00  0.00     0.053 C 
BRANCH   6   7
ATOM      7  C   UNL     1     -28.676  16.789  19.197  1.00  0.00     0.041 C 
ATOM      8  O   UNL     1     -29.197  16.560  20.320  1.00  0.00    -0.550 OA
ATOM      9  O   UNL     1     -29.081  17.900  18.466  1.00  0.00    -0.550 OA
ENDBRANCH   6   7
ENDBRANCH   5   6
ENDBRANCH   4   5
ENDBRANCH   3   4
ENDBRANCH   2   3
ENDBRANCH   1   2
BRANCH   1  10
ATOM     10  C   UNL     1     -32.829  14.119  13.300  1.00  0.00     0.000 C 
BRANCH  10  11
ATOM     11  C   UNL     1     -33.412  13.338  14.494  1.00  0.00    -0.000 C 
BRANCH  11  12
ATOM     12  C   UNL     1     -33.194  11.816  14.448  1.00  0.00    -0.000 C 
BRANCH  12  13
ATOM     13  C   UNL     1     -32.812  11.310  13.046  1.00  0.00    -0.000 C 
BRANCH  13  14
ATOM     14  C   UNL     1     -31.452  10.589  13.023  1.00  0.00    -0.000 C 
BRANCH  14  15
ATOM     15  C   UNL     1     -30.284  11.409  12.438  1.00  0.00    -0.000 C 
BRANCH  15  16
ATOM     16  C   UNL     1     -29.216  11.838  13.459  1.00  0.00    -0.003 C 
ATOM     17  C   UNL     1     -29.475  11.284  14.860  1.00  0.00     0.004 C 
ENDBRANCH  15  16
ENDBRANCH  14  15
ENDBRANCH  13  14
ENDBRANCH  12  13
ENDBRANCH  11  12
ENDBRANCH  10  11
ENDBRANCH   1  10
TORSDOF 13
ENDMDL
MODEL 6
REMARK VINA RESULT:    -3.528      2.538      5.978
REMARK INTER + INTRA:          -8.524
REMARK INTER:                  -7.368
REMARK INTRA:                  -1.156
REMARK UNBOUND:                -2.314
REMARK SMILES CCCCCCCCCCCCCCC(=O)[O-]
REMARK SMILES IDX 9 1 10 2 11 3 12 4 13 5 14 6 15 7 16 8 17 9 8 10 7 11 6 12
REMARK SMILES IDX 5 13 4 14 3 15 2 16 1 17
REMARK H PARENT
REMARK Flexibility Score: inf
ROOT
ATOM      1  C   UNL     1     -31.965  14.306  13.060  1.00  0.00     0.000 C 
ENDROOT
BRANCH   1   2
ATOM      2  C   UNL     1     -33.088  13.561  13.803  1.00  0.00     0.000 C 
BRANCH   2   3
ATOM      3  C   UNL     1     -33.153  12.073  13.424  1.00  0.00     0.000 C 
BRANCH   3   4
ATOM      4  C   UNL     1     -32.031  11.224  14.066  1.00  0.00     0.000 C 
BRANCH   4   5
ATOM      5  C   UNL     1     -31.221  10.408  13.042  1.00  0.00     0.006 C 
BRANCH   5   6
ATOM      6  C   UNL     1     -30.189  11.239  12.264  1.00  0.00     0.053 C 
BRANCH   6   7
ATOM      7  C   UNL     1     -28.898  11.368  13.016  1.00  0.00     0.041 C 
ATOM      8  O   UNL     1     -28.501  12.496  13.409  1.00  0.00    -0.550 OA
ATOM      9  O   UNL     1     -28.123  10.241  13.264  1.00  0.00    -0.550 OA
ENDBRANCH   6   7
ENDBRANCH   5   6
ENDBRANCH   4   5
ENDBRANCH   3   4
ENDBRANCH   2   3
ENDBRANCH   1   2
BRANCH   1  10
ATOM     10  C   UNL     1     -30.997  15.018  14.029  1.00  0.00     0.000 C 
BRANCH  10  11
ATOM     11  C   UNL     1     -31.132  14.561  15.495  1.00  0.00    -0.000 C 
BRANCH  11  12
ATOM     12  C   UNL     1     -29.803  14.331  16.234  1.00  0.00    -0.000 C 
BRANCH  12  13
ATOM     13  C   UNL     1     -29.344  15.563  17.032  1.00  0.00    -0.000 C 
BRANCH  13  14
ATOM     14  C   UNL     1     -27.849  15.513  17.398  1.00  0.00    -0.000 C 
BRANCH  14  15
ATOM     15  C   UNL     1     -27.547  15.250  18.888  1.00  0.00    -0.000 C 
BRANCH  15  16
ATOM     16  C   UNL     1     -27.047  16.474  19.675  1.00  0.00    -0.003 C 
ATOM     17  C   UNL     1     -28.163  17.460  20.017  1.00  0.00     0.004 C 
ENDBRANCH  15  16
ENDBRANCH  14  15
ENDBRANCH  13  14
ENDBRANCH  12  13
ENDBRANCH  11  12
ENDBRANCH  10  11
ENDBRANCH   1  10
TORSDOF 13
ENDMDL
MODEL 7
REMARK VINA RESULT:    -3.519      1.474      2.376
REMARK INTER + INTRA:          -8.508
REMARK INTER:                  -6.770
REMARK INTRA:                  -1.739
REMARK UNBOUND:                -2.314
REMARK SMILES CCCCCCCCCCCCCCC(=O)[O-]
REMARK SMILES IDX 9 1 10 2 11 3 12 4 13 5 14 6 15 7 16 8 17 9 8 10 7 11 6 12
REMARK SMILES IDX 5 13 4 14 3 15 2 16 1 17
REMARK H PARENT
REMARK Flexibility Score: inf
ROOT
ATOM      1  C   UNL     1     -31.961  12.417  16.493  1.00  0.00     0.000 C 
ENDROOT
BRANCH   1   2
ATOM      2  C   UNL     1     -30.748  13.210  17.012  1.00  0.00     0.000 C 
BRANCH   2   3
ATOM      3  C   UNL     1     -30.867  14.715  16.723  1.00  0.00     0.000 C 
BRANCH   3   4
ATOM      4  C   UNL     1     -29.634  15.301  15.994  1.00  0.00     0.000 C 
BRANCH   4   5
ATOM      5  C   UNL     1     -28.303  14.999  16.707  1.00  0.00     0.006 C 
BRANCH   5   6
ATOM      6  C   UNL     1     -28.156  15.699  18.067  1.00  0.00     0.053 C 
BRANCH   6   7
ATOM      7  C   UNL     1     -26.953  15.210  18.817  1.00  0.00     0.041 C 
ATOM      8  O   UNL     1     -25.819  15.709  18.594  1.00  0.00    -0.550 OA
ATOM      9  O   UNL     1     -27.084  14.186  19.747  1.00  0.00    -0.550 OA
ENDBRANCH   6   7
ENDBRANCH   5   6
ENDBRANCH   4   5
ENDBRANCH   3   4
ENDBRANCH   2   3
ENDBRANCH   1   2
BRANCH   1  10
ATOM     10  C   UNL     1     -33.003  13.327  15.808  1.00  0.00     0.000 C 
BRANCH  10  11
ATOM     11  C   UNL     1     -33.188  13.043  14.305  1.00  0.00    -0.000 C 
BRANCH  11  12
ATOM     12  C   UNL     1     -32.853  14.220  13.372  1.00  0.00    -0.000 C 
BRANCH  12  13
ATOM     13  C   UNL     1     -31.356  14.300  13.027  1.00  0.00    -0.000 C 
BRANCH  13  14
ATOM     14  C   UNL     1     -30.754  12.930  12.661  1.00  0.00    -0.000 C 
BRANCH  14  15
ATOM     15  C   UNL     1     -29.571  12.477  13.540  1.00  0.00    -0.000 C 
BRANCH  15  16
ATOM     16  C   UNL     1     -28.862  11.197  13.065  1.00  0.00    -0.003 C 
ATOM     17  C   UNL     1     -28.607  10.202  14.196  1.00  0.00     0.004 C 
ENDBRANCH  15  16
ENDBRANCH  14  15
ENDBRANCH  13  14
ENDBRANCH  12  13
ENDBRANCH  11  12
ENDBRANCH  10  11
ENDBRANCH   1  10
TORSDOF 13
ENDMDL
MODEL 8
REMARK VINA RESULT:    -3.514      1.698      3.439
REMARK INTER + INTRA:          -8.498
REMARK INTER:                  -6.736
REMARK INTRA:                  -1.762
REMARK UNBOUND:                -2.314
REMARK SMILES CCCCCCCCCCCCCCC(=O)[O-]
REMARK SMILES IDX 9 1 10 2 11 3 12 4 13 5 14 6 15 7 16 8 17 9 8 10 7 11 6 12
REMARK SMILES IDX 5 13 4 14 3 15 2 16 1 17
REMARK H PARENT
REMARK Flexibility Score: inf
ROOT
ATOM      1  C   UNL     1     -33.102  10.527  13.527  1.00  0.00     0.000 C 
ENDROOT
BRANCH   1   2
ATOM      2  C   UNL     1     -33.631  11.878  13.014  1.00  0.00     0.000 C 
BRANCH   2   3
ATOM      3  C   UNL     1     -33.460  13.003  14.048  1.00  0.00     0.000 C 
BRANCH   3   4
ATOM      4  C   UNL     1     -32.931  14.323  13.439  1.00  0.00     0.000 C 
BRANCH   4   5
ATOM      5  C   UNL     1     -31.403  14.479  13.554  1.00  0.00     0.006 C 
BRANCH   5   6
ATOM      6  C   UNL     1     -30.907  14.677  14.994  1.00  0.00     0.053 C 
BRANCH   6   7
ATOM      7  C   UNL     1     -29.410  14.718  15.066  1.00  0.00     0.041 C 
ATOM      8  O   UNL     1     -28.834  15.388  15.963  1.00  0.00    -0.550 OA
ATOM      9  O   UNL     1     -28.651  14.030  14.128  1.00  0.00    -0.550 OA
ENDBRANCH   6   7
ENDBRANCH   5   6
ENDBRANCH   4   5
ENDBRANCH   3   4
ENDBRANCH   2   3
ENDBRANCH   1   2
BRANCH   1  10
ATOM     10  C   UNL     1     -32.769   9.555  12.374  1.00  0.00     0.000 C 
BRANCH  10  11
ATOM     11  C   UNL     1     -31.298   9.096  12.350  1.00  0.00    -0.000 C 
BRANCH  11  12
ATOM     12  C   UNL     1     -30.329  10.044  11.624  1.00  0.00    -0.000 C 
BRANCH  12  13
ATOM     13  C   UNL     1     -29.709  11.096  12.560  1.00  0.00    -0.000 C 
BRANCH  13  14
ATOM     14  C   UNL     1     -28.553  10.533  13.406  1.00  0.00    -0.000 C 
BRANCH  14  15
ATOM     15  C   UNL     1     -28.917  10.177  14.862  1.00  0.00    -0.000 C 
BRANCH  15  16
ATOM     16  C   UNL     1     -30.045  11.025  15.475  1.00  0.00    -0.003 C 
ATOM     17  C   UNL     1     -30.639  10.404  16.739  1.00  0.00     0.004 C 
ENDBRANCH  15  16
ENDBRANCH  14  15
ENDBRANCH  13  14
ENDBRANCH  12  13
ENDBRANCH  11  12
ENDBRANCH  10  11
ENDBRANCH   1  10
TORSDOF 13
ENDMDL
MODEL 9
REMARK VINA RESULT:    -3.507      3.170      5.336
REMARK INTER + INTRA:          -8.486
REMARK INTER:                  -6.240
REMARK INTRA:                  -2.247
REMARK UNBOUND:                -2.314
REMARK SMILES CCCCCCCCCCCCCCC(=O)[O-]
REMARK SMILES IDX 9 1 10 2 11 3 12 4 13 5 14 6 15 7 16 8 17 9 8 10 7 11 6 12
REMARK SMILES IDX 5 13 4 14 3 15 2 16 1 17
REMARK H PARENT
REMARK Flexibility Score: inf
ROOT
ATOM      1  C   UNL     1     -33.059  13.869  14.105  1.00  0.00     0.000 C 
ENDROOT
BRANCH   1   2
ATOM      2  C   UNL     1     -34.045  13.187  13.140  1.00  0.00     0.000 C 
BRANCH   2   3
ATOM      3  C   UNL     1     -33.899  11.656  13.140  1.00  0.00     0.000 C 
BRANCH   3   4
ATOM      4  C   UNL     1     -32.994  11.125  14.277  1.00  0.00     0.000 C 
BRANCH   4   5
ATOM      5  C   UNL     1     -31.876  10.189  13.779  1.00  0.00     0.006 C 
BRANCH   5   6
ATOM      6  C   UNL     1     -31.707  10.183  12.252  1.00  0.00     0.053 C 
BRANCH   6   7
ATOM      7  C   UNL     1     -30.369   9.643  11.843  1.00  0.00     0.041 C 
ATOM      8  O   UNL     1     -30.257   8.452  11.453  1.00  0.00    -0.550 OA
ATOM      9  O   UNL     1     -29.243  10.453  11.913  1.00  0.00    -0.550 OA
ENDBRANCH   6   7
ENDBRANCH   5   6
ENDBRANCH   4   5
ENDBRANCH   3   4
ENDBRANCH   2   3
ENDBRANCH   1   2
BRANCH   1  10
ATOM     10  C   UNL     1     -31.938  14.623  13.358  1.00  0.00     0.000 C 
BRANCH  10  11
ATOM     11  C   UNL     1     -30.839  13.704  12.790  1.00  0.00    -0.000 C 
BRANCH  11  12
ATOM     12  C   UNL     1     -29.745  13.298  13.792  1.00  0.00    -0.000 C 
BRANCH  12  13
ATOM     13  C   UNL     1     -29.477  14.379  14.853  1.00  0.00    -0.000 C 
BRANCH  13  14
ATOM     14  C   UNL     1     -29.372  13.804  16.277  1.00  0.00    -0.000 C 
BRANCH  14  15
ATOM     15  C   UNL     1     -30.269  12.581  16.559  1.00  0.00    -0.000 C 
BRANCH  15  16
ATOM     16  C   UNL     1     -31.577  12.893  17.307  1.00  0.00    -0.003 C 
ATOM     17  C   UNL     1     -31.591  14.291  17.924  1.00  0.00     0.004 C 
ENDBRANCH  15  16
ENDBRANCH  14  15
ENDBRANCH  13  14
ENDBRANCH  12  13
ENDBRANCH  11  12
ENDBRANCH  10  11
ENDBRANCH   1  10
TORSDOF 13
ENDMDL
