MODEL 1
REMARK VINA RESULT:    -5.206      0.000      0.000
REMARK INTER + INTRA:          -6.300
REMARK INTER:                  -5.967
REMARK INTRA:                  -0.333
REMARK UNBOUND:                -0.333
REMARK SMILES COc1ccc(C(C)=O)c(O)c1
REMARK SMILES IDX 6 1 10 2 12 3 3 4 4 5 5 6 7 7 8 8 9 9 11 10 2 12 1 13
REMARK H PARENT 11 11
REMARK Flexibility Score: inf
ROOT
ATOM      1  C   UNL     1      -5.829  -1.007   9.231  1.00  0.00     0.059 A 
ATOM      2  C   UNL     1      -5.534   0.324   8.854  1.00  0.00     0.130 A 
ATOM      3  C   UNL     1      -5.622   1.356   9.801  1.00  0.00     0.093 A 
ATOM      4  C   UNL     1      -6.016   1.086  11.124  1.00  0.00     0.122 A 
ATOM      5  C   UNL     1      -6.324  -0.226  11.486  1.00  0.00     0.047 A 
ATOM      6  C   UNL     1      -6.236  -1.261  10.553  1.00  0.00     0.019 A 
ENDROOT
BRANCH   1   7
ATOM      7  C   UNL     1      -5.738  -2.147   8.279  1.00  0.00     0.163 C 
ATOM      8  C   UNL     1      -5.112  -3.457   8.650  1.00  0.00     0.093 C 
ATOM      9  O   UNL     1      -6.204  -2.017   7.115  1.00  0.00    -0.294 OA
ENDBRANCH   1   7
BRANCH   2  10
ATOM     10  O   UNL     1      -5.179   0.633   7.542  1.00  0.00    -0.507 OA
ATOM     11  H   UNL     1      -4.984   1.584   7.251  1.00  0.00     0.293 HD
ENDBRANCH   2  10
BRANCH   4  12
ATOM     12  O   UNL     1      -6.117   2.088  12.100  1.00  0.00    -0.497 OA
ATOM     13  C   UNL     1      -5.131   2.346  13.094  1.00  0.00     0.278 C 
ENDBRANCH   4  12
TORSDOF 3
ENDMDL
MODEL 2
REMARK VINA RESULT:    -5.193      4.241      5.801
REMARK INTER + INTRA:          -6.284
REMARK INTER:                  -5.949
REMARK INTRA:                  -0.335
REMARK UNBOUND:                -0.333
REMARK SMILES COc1ccc(C(C)=O)c(O)c1
REMARK SMILES IDX 6 1 10 2 12 3 3 4 4 5 5 6 7 7 8 8 9 9 11 10 2 12 1 13
REMARK H PARENT 11 11
REMARK Flexibility Score: inf
ROOT
ATOM      1  C   UNL     1      -3.553   1.241  12.727  1.00  0.00     0.059 A 
ATOM      2  C   UNL     1      -2.403   1.690  12.034  1.00  0.00     0.130 A 
ATOM      3  C   UNL     1      -1.265   0.872  11.961  1.00  0.00     0.093 A 
ATOM      4  C   UNL     1      -1.246  -0.388  12.586  1.00  0.00     0.122 A 
ATOM      5  C   UNL     1      -2.376  -0.818  13.284  1.00  0.00     0.047 A 
ATOM      6  C   UNL     1      -3.514  -0.014  13.358  1.00  0.00     0.019 A 
ENDROOT
BRANCH   1   7
ATOM      7  C   UNL     1      -4.795   2.054  12.825  1.00  0.00     0.163 C 
ATOM      8  C   UNL     1      -6.150   1.494  12.509  1.00  0.00     0.093 C 
ATOM      9  O   UNL     1      -4.718   3.259  13.186  1.00  0.00    -0.294 OA
ENDBRANCH   1   7
BRANCH   2  10
ATOM     10  O   UNL     1      -2.375   2.949  11.437  1.00  0.00    -0.507 OA
ATOM     11  H   UNL     1      -2.391   3.801  11.986  1.00  0.00     0.293 HD
ENDBRANCH   2  10
BRANCH   4  12
ATOM     12  O   UNL     1      -0.129  -1.236  12.538  1.00  0.00    -0.497 OA
ATOM     13  C   UNL     1       0.074  -2.246  11.555  1.00  0.00     0.278 C 
ENDBRANCH   4  12
TORSDOF 3
ENDMDL
MODEL 3
REMARK VINA RESULT:    -5.178      1.440      5.010
REMARK INTER + INTRA:          -6.268
REMARK INTER:                  -5.931
REMARK INTRA:                  -0.337
REMARK UNBOUND:                -0.333
REMARK SMILES COc1ccc(C(C)=O)c(O)c1
REMARK SMILES IDX 6 1 10 2 12 3 3 4 4 5 5 6 7 7 8 8 9 9 11 10 2 12 1 13
REMARK H PARENT 11 11
REMARK Flexibility Score: inf
ROOT
ATOM      1  C   UNL     1      -6.293   0.386  11.223  1.00  0.00     0.059 A 
ATOM      2  C   UNL     1      -6.442  -1.021  11.258  1.00  0.00     0.130 A 
ATOM      3  C   UNL     1      -6.155  -1.785  10.117  1.00  0.00     0.093 A 
ATOM      4  C   UNL     1      -5.734  -1.166   8.926  1.00  0.00     0.122 A 
ATOM      5  C   UNL     1      -5.607   0.224   8.891  1.00  0.00     0.047 A 
ATOM      6  C   UNL     1      -5.886   0.992  10.022  1.00  0.00     0.019 A 
ENDROOT
BRANCH   1   7
ATOM      7  C   UNL     1      -6.565   1.248  12.405  1.00  0.00     0.163 C 
ATOM      8  C   UNL     1      -5.558   2.221  12.940  1.00  0.00     0.093 C 
ATOM      9  O   UNL     1      -7.682   1.167  12.985  1.00  0.00    -0.294 OA
ENDBRANCH   1   7
BRANCH   2  10
ATOM     10  O   UNL     1      -6.895  -1.663  12.410  1.00  0.00    -0.507 OA
ATOM     11  H   UNL     1      -7.259  -2.609  12.387  1.00  0.00     0.293 HD
ENDBRANCH   2  10
BRANCH   4  12
ATOM     12  O   UNL     1      -5.438  -1.892   7.763  1.00  0.00    -0.497 OA
ATOM     13  C   UNL     1      -4.951  -3.230   7.752  1.00  0.00     0.278 C 
ENDBRANCH   4  12
TORSDOF 3
ENDMDL
MODEL 4
REMARK VINA RESULT:    -5.168      4.257      5.745
REMARK INTER + INTRA:          -6.256
REMARK INTER:                  -5.925
REMARK INTRA:                  -0.332
REMARK UNBOUND:                -0.333
REMARK SMILES COc1ccc(C(C)=O)c(O)c1
REMARK SMILES IDX 6 1 10 2 12 3 3 4 4 5 5 6 7 7 8 8 9 9 11 10 2 12 1 13
REMARK H PARENT 11 11
REMARK Flexibility Score: inf
ROOT
ATOM      1  C   UNL     1      -1.480  -2.267  10.460  1.00  0.00     0.059 A 
ATOM      2  C   UNL     1      -1.443  -1.755   9.142  1.00  0.00     0.130 A 
ATOM      3  C   UNL     1      -2.517  -1.990   8.269  1.00  0.00     0.093 A 
ATOM      4  C   UNL     1      -3.629  -2.744   8.685  1.00  0.00     0.122 A 
ATOM      5  C   UNL     1      -3.651  -3.262   9.981  1.00  0.00     0.047 A 
ATOM      6  C   UNL     1      -2.591  -3.032  10.858  1.00  0.00     0.019 A 
ENDROOT
BRANCH   1   7
ATOM      7  C   UNL     1      -0.381  -2.039  11.438  1.00  0.00     0.163 C 
ATOM      8  C   UNL     1      -0.616  -1.413  12.780  1.00  0.00     0.093 C 
ATOM      9  O   UNL     1       0.794  -2.381  11.137  1.00  0.00    -0.294 OA
ENDBRANCH   1   7
BRANCH   2  10
ATOM     10  O   UNL     1      -0.339  -1.037   8.685  1.00  0.00    -0.507 OA
ATOM     11  H   UNL     1       0.022  -0.235   9.188  1.00  0.00     0.293 HD
ENDBRANCH   2  10
BRANCH   4  12
ATOM     12  O   UNL     1      -4.721  -3.002   7.844  1.00  0.00    -0.497 OA
ATOM     13  C   UNL     1      -5.943  -2.271   7.865  1.00  0.00     0.278 C 
ENDBRANCH   4  12
TORSDOF 3
ENDMDL
MODEL 5
REMARK VINA RESULT:    -5.118      2.768      4.706
REMARK INTER + INTRA:          -6.198
REMARK INTER:                  -5.853
REMARK INTRA:                  -0.345
REMARK UNBOUND:                -0.333
REMARK SMILES COc1ccc(C(C)=O)c(O)c1
REMARK SMILES IDX 6 1 10 2 12 3 3 4 4 5 5 6 7 7 8 8 9 9 11 10 2 12 1 13
REMARK H PARENT 11 11
REMARK Flexibility Score: inf
ROOT
ATOM      1  C   UNL     1      -3.832   1.064  11.475  1.00  0.00     0.059 A 
ATOM      2  C   UNL     1      -5.054   1.547  12.001  1.00  0.00     0.130 A 
ATOM      3  C   UNL     1      -6.165   0.695  12.087  1.00  0.00     0.093 A 
ATOM      4  C   UNL     1      -6.086  -0.637  11.640  1.00  0.00     0.122 A 
ATOM      5  C   UNL     1      -4.884  -1.102  11.105  1.00  0.00     0.047 A 
ATOM      6  C   UNL     1      -3.771  -0.264  11.019  1.00  0.00     0.019 A 
ENDROOT
BRANCH   1   7
ATOM      7  C   UNL     1      -2.614   1.913  11.374  1.00  0.00     0.163 C 
ATOM      8  C   UNL     1      -1.816   2.027  10.111  1.00  0.00     0.093 C 
ATOM      9  O   UNL     1      -2.231   2.565  12.383  1.00  0.00    -0.294 OA
ENDBRANCH   1   7
BRANCH   2  10
ATOM     10  O   UNL     1      -5.179   2.872  12.417  1.00  0.00    -0.507 OA
ATOM     11  H   UNL     1      -5.177   3.126  13.398  1.00  0.00     0.293 HD
ENDBRANCH   2  10
BRANCH   4  12
ATOM     12  O   UNL     1      -7.173  -1.520  11.707  1.00  0.00    -0.497 OA
ATOM     13  C   UNL     1      -7.308  -2.692  10.910  1.00  0.00     0.278 C 
ENDBRANCH   4  12
TORSDOF 3
ENDMDL
MODEL 6
REMARK VINA RESULT:    -5.108      4.649      4.904
REMARK INTER + INTRA:          -6.187
REMARK INTER:                  -5.850
REMARK INTRA:                  -0.337
REMARK UNBOUND:                -0.333
REMARK SMILES COc1ccc(C(C)=O)c(O)c1
REMARK SMILES IDX 6 1 10 2 12 3 3 4 4 5 5 6 7 7 8 8 9 9 11 10 2 12 1 13
REMARK H PARENT 11 11
REMARK Flexibility Score: inf
ROOT
ATOM      1  C   UNL     1      -1.784  -1.033  10.704  1.00  0.00     0.059 A 
ATOM      2  C   UNL     1      -0.954  -1.266  11.826  1.00  0.00     0.130 A 
ATOM      3  C   UNL     1      -1.494  -1.211  13.120  1.00  0.00     0.093 A 
ATOM      4  C   UNL     1      -2.853  -0.909  13.319  1.00  0.00     0.122 A 
ATOM      5  C   UNL     1      -3.663  -0.660  12.210  1.00  0.00     0.047 A 
ATOM      6  C   UNL     1      -3.137  -0.717  10.918  1.00  0.00     0.019 A 
ENDROOT
BRANCH   1   7
ATOM      7  C   UNL     1      -1.276  -1.094   9.307  1.00  0.00     0.163 C 
ATOM      8  C   UNL     1      -1.733  -0.144   8.242  1.00  0.00     0.093 C 
ATOM      9  O   UNL     1      -0.428  -1.974   8.996  1.00  0.00    -0.294 OA
ENDBRANCH   1   7
BRANCH   2  10
ATOM     10  O   UNL     1       0.405  -1.530  11.666  1.00  0.00    -0.507 OA
ATOM     11  H   UNL     1       0.760  -2.039  10.865  1.00  0.00     0.293 HD
ENDBRANCH   2  10
BRANCH   4  12
ATOM     12  O   UNL     1      -3.431  -0.842  14.595  1.00  0.00    -0.497 OA
ATOM     13  C   UNL     1      -4.678  -0.218  14.883  1.00  0.00     0.278 C 
ENDBRANCH   4  12
TORSDOF 3
ENDMDL
MODEL 7
REMARK VINA RESULT:    -5.101      4.486      5.854
REMARK INTER + INTRA:          -6.179
REMARK INTER:                  -5.840
REMARK INTRA:                  -0.339
REMARK UNBOUND:                -0.333
REMARK SMILES COc1ccc(C(C)=O)c(O)c1
REMARK SMILES IDX 6 1 10 2 12 3 3 4 4 5 5 6 7 7 8 8 9 9 11 10 2 12 1 13
REMARK H PARENT 11 11
REMARK Flexibility Score: inf
ROOT
ATOM      1  C   UNL     1      -2.575  -1.932  13.120  1.00  0.00     0.059 A 
ATOM      2  C   UNL     1      -3.588  -1.195  13.779  1.00  0.00     0.130 A 
ATOM      3  C   UNL     1      -4.938  -1.452  13.495  1.00  0.00     0.093 A 
ATOM      4  C   UNL     1      -5.300  -2.426  12.546  1.00  0.00     0.122 A 
ATOM      5  C   UNL     1      -4.296  -3.136  11.886  1.00  0.00     0.047 A 
ATOM      6  C   UNL     1      -2.951  -2.892  12.164  1.00  0.00     0.019 A 
ENDROOT
BRANCH   1   7
ATOM      7  C   UNL     1      -1.127  -1.719  13.390  1.00  0.00     0.163 C 
ATOM      8  C   UNL     1      -0.129  -1.493  12.295  1.00  0.00     0.093 C 
ATOM      9  O   UNL     1      -0.714  -1.725  14.581  1.00  0.00    -0.294 OA
ENDBRANCH   1   7
BRANCH   2  10
ATOM     10  O   UNL     1      -3.263  -0.196  14.695  1.00  0.00    -0.507 OA
ATOM     11  H   UNL     1      -3.806   0.657  14.770  1.00  0.00     0.293 HD
ENDBRANCH   2  10
BRANCH   4  12
ATOM     12  O   UNL     1      -6.637  -2.712  12.233  1.00  0.00    -0.497 OA
ATOM     13  C   UNL     1      -7.177  -2.689  10.916  1.00  0.00     0.278 C 
ENDBRANCH   4  12
TORSDOF 3
ENDMDL
MODEL 8
REMARK VINA RESULT:    -5.044      3.025      5.141
REMARK INTER + INTRA:          -6.114
REMARK INTER:                  -5.773
REMARK INTRA:                  -0.340
REMARK UNBOUND:                -0.333
REMARK SMILES COc1ccc(C(C)=O)c(O)c1
REMARK SMILES IDX 6 1 10 2 12 3 3 4 4 5 5 6 7 7 8 8 9 9 11 10 2 12 1 13
REMARK H PARENT 11 11
REMARK Flexibility Score: inf
ROOT
ATOM      1  C   UNL     1      -5.613  -0.459  12.317  1.00  0.00     0.059 A 
ATOM      2  C   UNL     1      -6.223  -1.517  11.602  1.00  0.00     0.130 A 
ATOM      3  C   UNL     1      -5.548  -2.738  11.446  1.00  0.00     0.093 A 
ATOM      4  C   UNL     1      -4.260  -2.919  11.980  1.00  0.00     0.122 A 
ATOM      5  C   UNL     1      -3.655  -1.866  12.668  1.00  0.00     0.047 A 
ATOM      6  C   UNL     1      -4.319  -0.650  12.832  1.00  0.00     0.019 A 
ENDROOT
BRANCH   1   7
ATOM      7  C   UNL     1      -6.283   0.852  12.531  1.00  0.00     0.163 C 
ATOM      8  C   UNL     1      -5.546   2.155  12.455  1.00  0.00     0.093 C 
ATOM      9  O   UNL     1      -7.518   0.880  12.785  1.00  0.00    -0.294 OA
ENDBRANCH   1   7
BRANCH   2  10
ATOM     10  O   UNL     1      -7.483  -1.358  11.027  1.00  0.00    -0.507 OA
ATOM     11  H   UNL     1      -7.884  -2.060  10.416  1.00  0.00     0.293 HD
ENDBRANCH   2  10
BRANCH   4  12
ATOM     12  O   UNL     1      -3.551  -4.122  11.846  1.00  0.00    -0.497 OA
ATOM     13  C   UNL     1      -2.231  -4.338  12.334  1.00  0.00     0.278 C 
ENDBRANCH   4  12
TORSDOF 3
ENDMDL
MODEL 9
REMARK VINA RESULT:    -5.024      3.261      3.863
REMARK INTER + INTRA:          -6.091
REMARK INTER:                  -5.755
REMARK INTRA:                  -0.337
REMARK UNBOUND:                -0.333
REMARK SMILES COc1ccc(C(C)=O)c(O)c1
REMARK SMILES IDX 6 1 10 2 12 3 3 4 4 5 5 6 7 7 8 8 9 9 11 10 2 12 1 13
REMARK H PARENT 11 11
REMARK Flexibility Score: inf
ROOT
ATOM      1  C   UNL     1      -4.815  -3.237  10.518  1.00  0.00     0.059 A 
ATOM      2  C   UNL     1      -3.745  -3.567  11.383  1.00  0.00     0.130 A 
ATOM      3  C   UNL     1      -3.720  -3.061  12.692  1.00  0.00     0.093 A 
ATOM      4  C   UNL     1      -4.742  -2.212  13.152  1.00  0.00     0.122 A 
ATOM      5  C   UNL     1      -5.785  -1.874  12.288  1.00  0.00     0.047 A 
ATOM      6  C   UNL     1      -5.821  -2.376  10.987  1.00  0.00     0.019 A 
ENDROOT
BRANCH   1   7
ATOM      7  C   UNL     1      -4.907  -3.756   9.126  1.00  0.00     0.163 C 
ATOM      8  C   UNL     1      -5.101  -2.856   7.943  1.00  0.00     0.093 C 
ATOM      9  O   UNL     1      -4.818  -4.997   8.923  1.00  0.00    -0.294 OA
ENDBRANCH   1   7
BRANCH   2  10
ATOM     10  O   UNL     1      -2.696  -4.375  10.947  1.00  0.00    -0.507 OA
ATOM     11  H   UNL     1      -1.874  -4.538  11.516  1.00  0.00     0.293 HD
ENDBRANCH   2  10
BRANCH   4  12
ATOM     12  O   UNL     1      -4.755  -1.684  14.452  1.00  0.00    -0.497 OA
ATOM     13  C   UNL     1      -4.696  -0.294  14.757  1.00  0.00     0.278 C 
ENDBRANCH   4  12
TORSDOF 3
ENDMDL
