MODEL 1
REMARK VINA RESULT:    -4.196      0.000      0.000
REMARK INTER + INTRA:          -9.773
REMARK INTER:                  -8.121
REMARK INTRA:                  -1.652
REMARK UNBOUND:                -1.652
REMARK SMILES CCCCCCCCCCCCCCCCCC(=O)[O-]
REMARK SMILES IDX 10 1 11 2 12 3 13 4 14 5 15 6 16 7 17 8 18 9 19 10 20 11
REMARK SMILES IDX 9 12 8 13 7 14 6 15 5 16 4 17 3 18 2 19 1 20
REMARK H PARENT
REMARK Flexibility Score: inf
ROOT
ATOM      1  C   UNL     1      33.375  47.921  24.875  1.00  0.00     0.000 C 
ENDROOT
BRANCH   1   2
ATOM      2  C   UNL     1      33.121  46.404  24.946  1.00  0.00     0.000 C 
BRANCH   2   3
ATOM      3  C   UNL     1      32.703  45.931  26.349  1.00  0.00     0.000 C 
BRANCH   3   4
ATOM      4  C   UNL     1      33.851  45.256  27.122  1.00  0.00     0.000 C 
BRANCH   4   5
ATOM      5  C   UNL     1      34.708  44.275  26.299  1.00  0.00     0.000 C 
BRANCH   5   6
ATOM      6  C   UNL     1      36.216  44.501  26.475  1.00  0.00     0.000 C 
BRANCH   6   7
ATOM      7  C   UNL     1      37.022  43.389  25.787  1.00  0.00     0.006 C 
BRANCH   7   8
ATOM      8  C   UNL     1      36.122  42.385  25.055  1.00  0.00     0.053 C 
BRANCH   8   9
ATOM      9  C   UNL     1      36.899  41.210  24.548  1.00  0.00     0.041 C 
ATOM     10  O   UNL     1      37.382  41.224  23.384  1.00  0.00    -0.550 OA
ATOM     11  O   UNL     1      37.119  40.111  25.369  1.00  0.00    -0.550 OA
ENDBRANCH   8   9
ENDBRANCH   7   8
ENDBRANCH   6   7
ENDBRANCH   5   6
ENDBRANCH   4   5
ENDBRANCH   3   4
ENDBRANCH   2   3
ENDBRANCH   1   2
BRANCH   1  12
ATOM     12  C   UNL     1      34.791  48.366  25.287  1.00  0.00     0.000 C 
BRANCH  12  13
ATOM     13  C   UNL     1      34.804  49.220  26.567  1.00  0.00    -0.000 C 
BRANCH  13  14
ATOM     14  C   UNL     1      33.565  50.135  26.672  1.00  0.00    -0.000 C 
BRANCH  14  15
ATOM     15  C   UNL     1      33.896  51.631  26.548  1.00  0.00    -0.000 C 
BRANCH  15  16
ATOM     16  C   UNL     1      32.650  52.529  26.647  1.00  0.00    -0.000 C 
BRANCH  16  17
ATOM     17  C   UNL     1      31.356  51.726  26.851  1.00  0.00    -0.000 C 
BRANCH  17  18
ATOM     18  C   UNL     1      30.290  52.047  25.790  1.00  0.00    -0.000 C 
BRANCH  18  19
ATOM     19  C   UNL     1      30.859  52.034  24.362  1.00  0.00    -0.003 C 
ATOM     20  C   UNL     1      30.886  50.635  23.746  1.00  0.00     0.004 C 
ENDBRANCH  18  19
ENDBRANCH  17  18
ENDBRANCH  16  17
ENDBRANCH  15  16
ENDBRANCH  14  15
ENDBRANCH  13  14
ENDBRANCH  12  13
ENDBRANCH   1  12
TORSDOF 16
ENDMDL
MODEL 2
REMARK VINA RESULT:    -4.159      3.856      8.847
REMARK INTER + INTRA:          -9.702
REMARK INTER:                  -8.136
REMARK INTRA:                  -1.565
REMARK UNBOUND:                -1.652
REMARK SMILES CCCCCCCCCCCCCCCCCC(=O)[O-]
REMARK SMILES IDX 10 1 11 2 12 3 13 4 14 5 15 6 16 7 17 8 18 9 19 10 20 11
REMARK SMILES IDX 9 12 8 13 7 14 6 15 5 16 4 17 3 18 2 19 1 20
REMARK H PARENT
REMARK Flexibility Score: inf
ROOT
ATOM      1  C   UNL     1      32.830  46.744  26.013  1.00  0.00     0.000 C 
ENDROOT
BRANCH   1   2
ATOM      2  C   UNL     1      33.162  47.879  25.028  1.00  0.00     0.000 C 
BRANCH   2   3
ATOM      3  C   UNL     1      34.594  48.414  25.190  1.00  0.00     0.000 C 
BRANCH   3   4
ATOM      4  C   UNL     1      34.812  49.156  26.521  1.00  0.00     0.000 C 
BRANCH   4   5
ATOM      5  C   UNL     1      33.655  50.073  26.958  1.00  0.00     0.000 C 
BRANCH   5   6
ATOM      6  C   UNL     1      33.808  51.516  26.454  1.00  0.00     0.000 C 
BRANCH   6   7
ATOM      7  C   UNL     1      32.480  52.046  25.893  1.00  0.00     0.006 C 
BRANCH   7   8
ATOM      8  C   UNL     1      31.321  51.067  26.118  1.00  0.00     0.053 C 
BRANCH   8   9
ATOM      9  C   UNL     1      30.599  50.758  24.842  1.00  0.00     0.041 C 
ATOM     10  O   UNL     1      31.247  50.524  23.788  1.00  0.00    -0.550 OA
ATOM     11  O   UNL     1      29.211  50.697  24.823  1.00  0.00    -0.550 OA
ENDBRANCH   8   9
ENDBRANCH   7   8
ENDBRANCH   6   7
ENDBRANCH   5   6
ENDBRANCH   4   5
ENDBRANCH   3   4
ENDBRANCH   2   3
ENDBRANCH   1   2
BRANCH   1  12
ATOM     12  C   UNL     1      32.987  45.320  25.447  1.00  0.00     0.000 C 
BRANCH  12  13
ATOM     13  C   UNL     1      33.923  44.437  26.291  1.00  0.00    -0.000 C 
BRANCH  13  14
ATOM     14  C   UNL     1      35.050  45.252  26.959  1.00  0.00    -0.000 C 
BRANCH  14  15
ATOM     15  C   UNL     1      36.457  44.859  26.480  1.00  0.00    -0.000 C 
BRANCH  15  16
ATOM     16  C   UNL     1      36.794  43.385  26.761  1.00  0.00    -0.000 C 
BRANCH  16  17
ATOM     17  C   UNL     1      37.835  42.817  25.785  1.00  0.00    -0.000 C 
BRANCH  17  18
ATOM     18  C   UNL     1      37.194  42.226  24.518  1.00  0.00    -0.000 C 
BRANCH  18  19
ATOM     19  C   UNL     1      37.604  40.765  24.277  1.00  0.00    -0.003 C 
ATOM     20  C   UNL     1      37.345  39.868  25.488  1.00  0.00     0.004 C 
ENDBRANCH  18  19
ENDBRANCH  17  18
ENDBRANCH  16  17
ENDBRANCH  15  16
ENDBRANCH  14  15
ENDBRANCH  13  14
ENDBRANCH  12  13
ENDBRANCH   1  12
TORSDOF 16
ENDMDL
MODEL 3
REMARK VINA RESULT:    -4.020      3.800      9.028
REMARK INTER + INTRA:          -9.432
REMARK INTER:                  -8.243
REMARK INTRA:                  -1.189
REMARK UNBOUND:                -1.652
REMARK SMILES CCCCCCCCCCCCCCCCCC(=O)[O-]
REMARK SMILES IDX 10 1 11 2 12 3 13 4 14 5 15 6 16 7 17 8 18 9 19 10 20 11
REMARK SMILES IDX 9 12 8 13 7 14 6 15 5 16 4 17 3 18 2 19 1 20
REMARK H PARENT
REMARK Flexibility Score: inf
ROOT
ATOM      1  C   UNL     1      33.269  47.523  25.269  1.00  0.00     0.000 C 
ENDROOT
BRANCH   1   2
ATOM      2  C   UNL     1      34.706  48.054  25.419  1.00  0.00     0.000 C 
BRANCH   2   3
ATOM      3  C   UNL     1      34.867  49.024  26.602  1.00  0.00     0.000 C 
BRANCH   3   4
ATOM      4  C   UNL     1      33.731  50.060  26.688  1.00  0.00     0.000 C 
BRANCH   4   5
ATOM      5  C   UNL     1      34.165  51.526  26.505  1.00  0.00     0.000 C 
BRANCH   5   6
ATOM      6  C   UNL     1      32.992  52.514  26.578  1.00  0.00     0.000 C 
BRANCH   6   7
ATOM      7  C   UNL     1      31.647  51.782  26.457  1.00  0.00     0.006 C 
BRANCH   7   8
ATOM      8  C   UNL     1      30.873  52.190  25.198  1.00  0.00     0.053 C 
BRANCH   8   9
ATOM      9  C   UNL     1      30.364  50.997  24.448  1.00  0.00     0.041 C 
ATOM     10  O   UNL     1      29.126  50.790  24.353  1.00  0.00    -0.550 OA
ATOM     11  O   UNL     1      31.256  50.132  23.826  1.00  0.00    -0.550 OA
ENDBRANCH   8   9
ENDBRANCH   7   8
ENDBRANCH   6   7
ENDBRANCH   5   6
ENDBRANCH   4   5
ENDBRANCH   3   4
ENDBRANCH   2   3
ENDBRANCH   1   2
BRANCH   1  12
ATOM     12  C   UNL     1      33.136  45.989  25.257  1.00  0.00     0.000 C 
BRANCH  12  13
ATOM     13  C   UNL     1      32.807  45.403  26.641  1.00  0.00    -0.000 C 
BRANCH  13  14
ATOM     14  C   UNL     1      33.827  44.331  27.081  1.00  0.00    -0.000 C 
BRANCH  14  15
ATOM     15  C   UNL     1      35.236  44.555  26.508  1.00  0.00    -0.000 C 
BRANCH  15  16
ATOM     16  C   UNL     1      36.146  43.324  26.662  1.00  0.00    -0.000 C 
BRANCH  16  17
ATOM     17  C   UNL     1      37.017  43.072  25.421  1.00  0.00    -0.000 C 
BRANCH  17  18
ATOM     18  C   UNL     1      36.526  41.875  24.590  1.00  0.00    -0.000 C 
BRANCH  18  19
ATOM     19  C   UNL     1      37.525  40.708  24.590  1.00  0.00    -0.003 C 
ATOM     20  C   UNL     1      37.283  39.719  25.731  1.00  0.00     0.004 C 
ENDBRANCH  18  19
ENDBRANCH  17  18
ENDBRANCH  16  17
ENDBRANCH  15  16
ENDBRANCH  14  15
ENDBRANCH  13  14
ENDBRANCH  12  13
ENDBRANCH   1  12
TORSDOF 16
ENDMDL
MODEL 4
REMARK VINA RESULT:    -3.807      4.865      9.426
REMARK INTER + INTRA:          -9.019
REMARK INTER:                  -7.739
REMARK INTRA:                  -1.280
REMARK UNBOUND:                -1.652
REMARK SMILES CCCCCCCCCCCCCCCCCC(=O)[O-]
REMARK SMILES IDX 10 1 11 2 12 3 13 4 14 5 15 6 16 7 17 8 18 9 19 10 20 11
REMARK SMILES IDX 9 12 8 13 7 14 6 15 5 16 4 17 3 18 2 19 1 20
REMARK H PARENT
REMARK Flexibility Score: inf
ROOT
ATOM      1  C   UNL     1      34.426  48.352  25.299  1.00  0.00     0.000 C 
ENDROOT
BRANCH   1   2
ATOM      2  C   UNL     1      34.216  48.951  26.702  1.00  0.00     0.000 C 
BRANCH   2   3
ATOM      3  C   UNL     1      34.497  50.462  26.757  1.00  0.00     0.000 C 
BRANCH   3   4
ATOM      4  C   UNL     1      33.289  51.313  26.323  1.00  0.00     0.000 C 
BRANCH   4   5
ATOM      5  C   UNL     1      31.951  50.556  26.233  1.00  0.00     0.000 C 
BRANCH   5   6
ATOM      6  C   UNL     1      31.407  50.464  24.800  1.00  0.00     0.000 C 
BRANCH   6   7
ATOM      7  C   UNL     1      30.304  51.506  24.563  1.00  0.00     0.006 C 
BRANCH   7   8
ATOM      8  C   UNL     1      30.871  52.916  24.354  1.00  0.00     0.053 C 
BRANCH   8   9
ATOM      9  C   UNL     1      30.454  53.850  25.448  1.00  0.00     0.041 C 
ATOM     10  O   UNL     1      30.645  55.090  25.329  1.00  0.00    -0.550 OA
ATOM     11  O   UNL     1      29.825  53.357  26.584  1.00  0.00    -0.550 OA
ENDBRANCH   8   9
ENDBRANCH   7   8
ENDBRANCH   6   7
ENDBRANCH   5   6
ENDBRANCH   4   5
ENDBRANCH   3   4
ENDBRANCH   2   3
ENDBRANCH   1   2
BRANCH   1  12
ATOM     12  C   UNL     1      33.417  47.260  24.897  1.00  0.00     0.000 C 
BRANCH  12  13
ATOM     13  C   UNL     1      32.756  46.577  26.107  1.00  0.00    -0.000 C 
BRANCH  13  14
ATOM     14  C   UNL     1      32.772  45.038  25.990  1.00  0.00    -0.000 C 
BRANCH  14  15
ATOM     15  C   UNL     1      33.869  44.371  26.836  1.00  0.00    -0.000 C 
BRANCH  15  16
ATOM     16  C   UNL     1      35.165  44.123  26.045  1.00  0.00    -0.000 C 
BRANCH  16  17
ATOM     17  C   UNL     1      36.265  43.472  26.898  1.00  0.00    -0.000 C 
BRANCH  17  18
ATOM     18  C   UNL     1      36.826  42.191  26.259  1.00  0.00    -0.000 C 
BRANCH  18  19
ATOM     19  C   UNL     1      36.590  42.138  24.742  1.00  0.00    -0.003 C 
ATOM     20  C   UNL     1      37.480  41.112  24.038  1.00  0.00     0.004 C 
ENDBRANCH  18  19
ENDBRANCH  17  18
ENDBRANCH  16  17
ENDBRANCH  15  16
ENDBRANCH  14  15
ENDBRANCH  13  14
ENDBRANCH  12  13
ENDBRANCH   1  12
TORSDOF 16
ENDMDL
MODEL 5
REMARK VINA RESULT:    -3.801      4.670      9.489
REMARK INTER + INTRA:          -9.008
REMARK INTER:                  -7.922
REMARK INTRA:                  -1.086
REMARK UNBOUND:                -1.652
REMARK SMILES CCCCCCCCCCCCCCCCCC(=O)[O-]
REMARK SMILES IDX 10 1 11 2 12 3 13 4 14 5 15 6 16 7 17 8 18 9 19 10 20 11
REMARK SMILES IDX 9 12 8 13 7 14 6 15 5 16 4 17 3 18 2 19 1 20
REMARK H PARENT
REMARK Flexibility Score: inf
ROOT
ATOM      1  C   UNL     1      33.111  47.834  25.159  1.00  0.00     0.000 C 
ENDROOT
BRANCH   1   2
ATOM      2  C   UNL     1      32.230  48.487  26.239  1.00  0.00     0.000 C 
BRANCH   2   3
ATOM      3  C   UNL     1      31.796  49.917  25.875  1.00  0.00     0.000 C 
BRANCH   3   4
ATOM      4  C   UNL     1      31.666  50.137  24.356  1.00  0.00     0.000 C 
BRANCH   4   5
ATOM      5  C   UNL     1      30.344  50.779  23.897  1.00  0.00     0.000 C 
BRANCH   5   6
ATOM      6  C   UNL     1      29.281  50.826  25.004  1.00  0.00     0.000 C 
BRANCH   6   7
ATOM      7  C   UNL     1      28.875  52.274  25.317  1.00  0.00     0.006 C 
BRANCH   7   8
ATOM      8  C   UNL     1      29.630  52.842  26.525  1.00  0.00     0.053 C 
BRANCH   8   9
ATOM      9  C   UNL     1      30.887  53.546  26.114  1.00  0.00     0.041 C 
ATOM     10  O   UNL     1      30.853  54.432  25.218  1.00  0.00    -0.550 OA
ATOM     11  O   UNL     1      32.090  53.248  26.741  1.00  0.00    -0.550 OA
ENDBRANCH   8   9
ENDBRANCH   7   8
ENDBRANCH   6   7
ENDBRANCH   5   6
ENDBRANCH   4   5
ENDBRANCH   3   4
ENDBRANCH   2   3
ENDBRANCH   1   2
BRANCH   1  12
ATOM     12  C   UNL     1      34.608  48.191  25.233  1.00  0.00     0.000 C 
BRANCH  12  13
ATOM     13  C   UNL     1      35.136  48.271  26.676  1.00  0.00    -0.000 C 
BRANCH  13  14
ATOM     14  C   UNL     1      36.122  47.129  27.002  1.00  0.00    -0.000 C 
BRANCH  14  15
ATOM     15  C   UNL     1      35.686  45.764  26.443  1.00  0.00    -0.000 C 
BRANCH  15  16
ATOM     16  C   UNL     1      36.689  44.641  26.759  1.00  0.00    -0.000 C 
BRANCH  16  17
ATOM     17  C   UNL     1      36.234  43.273  26.227  1.00  0.00    -0.000 C 
BRANCH  17  18
ATOM     18  C   UNL     1      37.416  42.370  25.838  1.00  0.00    -0.000 C 
BRANCH  18  19
ATOM     19  C   UNL     1      36.963  41.058  25.179  1.00  0.00    -0.003 C 
ATOM     20  C   UNL     1      37.615  40.822  23.816  1.00  0.00     0.004 C 
ENDBRANCH  18  19
ENDBRANCH  17  18
ENDBRANCH  16  17
ENDBRANCH  15  16
ENDBRANCH  14  15
ENDBRANCH  13  14
ENDBRANCH  12  13
ENDBRANCH   1  12
TORSDOF 16
ENDMDL
MODEL 6
REMARK VINA RESULT:    -3.724      3.924      9.256
REMARK INTER + INTRA:          -8.859
REMARK INTER:                  -7.369
REMARK INTRA:                  -1.490
REMARK UNBOUND:                -1.652
REMARK SMILES CCCCCCCCCCCCCCCCCC(=O)[O-]
REMARK SMILES IDX 10 1 11 2 12 3 13 4 14 5 15 6 16 7 17 8 18 9 19 10 20 11
REMARK SMILES IDX 9 12 8 13 7 14 6 15 5 16 4 17 3 18 2 19 1 20
REMARK H PARENT
REMARK Flexibility Score: inf
ROOT
ATOM      1  C   UNL     1      33.082  45.057  25.670  1.00  0.00     0.000 C 
ENDROOT
BRANCH   1   2
ATOM      2  C   UNL     1      32.963  46.556  26.002  1.00  0.00     0.000 C 
BRANCH   2   3
ATOM      3  C   UNL     1      33.315  47.463  24.811  1.00  0.00     0.000 C 
BRANCH   3   4
ATOM      4  C   UNL     1      34.525  48.374  25.087  1.00  0.00     0.000 C 
BRANCH   4   5
ATOM      5  C   UNL     1      34.629  48.908  26.528  1.00  0.00     0.000 C 
BRANCH   5   6
ATOM      6  C   UNL     1      34.274  50.397  26.645  1.00  0.00     0.000 C 
BRANCH   6   7
ATOM      7  C   UNL     1      32.754  50.592  26.761  1.00  0.00     0.006 C 
BRANCH   7   8
ATOM      8  C   UNL     1      32.187  51.438  25.614  1.00  0.00     0.053 C 
BRANCH   8   9
ATOM      9  C   UNL     1      31.102  50.717  24.875  1.00  0.00     0.041 C 
ATOM     10  O   UNL     1      31.345  50.176  23.764  1.00  0.00    -0.550 OA
ATOM     11  O   UNL     1      29.832  50.614  25.427  1.00  0.00    -0.550 OA
ENDBRANCH   8   9
ENDBRANCH   7   8
ENDBRANCH   6   7
ENDBRANCH   5   6
ENDBRANCH   4   5
ENDBRANCH   3   4
ENDBRANCH   2   3
ENDBRANCH   1   2
BRANCH   1  12
ATOM     12  C   UNL     1      34.085  44.273  26.538  1.00  0.00     0.000 C 
BRANCH  12  13
ATOM     13  C   UNL     1      35.264  45.135  27.021  1.00  0.00    -0.000 C 
BRANCH  13  14
ATOM     14  C   UNL     1      36.589  44.757  26.324  1.00  0.00    -0.000 C 
BRANCH  14  15
ATOM     15  C   UNL     1      36.903  43.253  26.382  1.00  0.00    -0.000 C 
BRANCH  15  16
ATOM     16  C   UNL     1      37.134  42.637  24.991  1.00  0.00    -0.000 C 
BRANCH  16  17
ATOM     17  C   UNL     1      37.057  41.102  25.002  1.00  0.00    -0.000 C 
BRANCH  17  18
ATOM     18  C   UNL     1      37.672  40.490  26.271  1.00  0.00    -0.000 C 
BRANCH  18  19
ATOM     19  C   UNL     1      37.342  38.997  26.425  1.00  0.00    -0.003 C 
ATOM     20  C   UNL     1      38.496  38.193  27.024  1.00  0.00     0.004 C 
ENDBRANCH  18  19
ENDBRANCH  17  18
ENDBRANCH  16  17
ENDBRANCH  15  16
ENDBRANCH  14  15
ENDBRANCH  13  14
ENDBRANCH  12  13
ENDBRANCH   1  12
TORSDOF 16
ENDMDL
MODEL 7
REMARK VINA RESULT:    -3.615      1.278      2.044
REMARK INTER + INTRA:          -8.649
REMARK INTER:                  -7.631
REMARK INTRA:                  -1.019
REMARK UNBOUND:                -1.652
REMARK SMILES CCCCCCCCCCCCCCCCCC(=O)[O-]
REMARK SMILES IDX 10 1 11 2 12 3 13 4 14 5 15 6 16 7 17 8 18 9 19 10 20 11
REMARK SMILES IDX 9 12 8 13 7 14 6 15 5 16 4 17 3 18 2 19 1 20
REMARK H PARENT
REMARK Flexibility Score: inf
ROOT
ATOM      1  C   UNL     1      33.156  46.875  25.496  1.00  0.00     0.000 C 
ENDROOT
BRANCH   1   2
ATOM      2  C   UNL     1      33.400  46.438  26.952  1.00  0.00     0.000 C 
BRANCH   2   3
ATOM      3  C   UNL     1      34.417  45.291  27.071  1.00  0.00     0.000 C 
BRANCH   3   4
ATOM      4  C   UNL     1      34.266  44.237  25.959  1.00  0.00     0.000 C 
BRANCH   4   5
ATOM      5  C   UNL     1      35.508  43.360  25.714  1.00  0.00     0.000 C 
BRANCH   5   6
ATOM      6  C   UNL     1      36.734  43.814  26.520  1.00  0.00     0.000 C 
BRANCH   6   7
ATOM      7  C   UNL     1      38.006  43.106  26.031  1.00  0.00     0.006 C 
BRANCH   7   8
ATOM      8  C   UNL     1      38.056  41.635  26.465  1.00  0.00     0.053 C 
BRANCH   8   9
ATOM      9  C   UNL     1      37.682  40.713  25.346  1.00  0.00     0.041 C 
ATOM     10  O   UNL     1      38.117  40.920  24.182  1.00  0.00    -0.550 OA
ATOM     11  O   UNL     1      36.880  39.605  25.593  1.00  0.00    -0.550 OA
ENDBRANCH   8   9
ENDBRANCH   7   8
ENDBRANCH   6   7
ENDBRANCH   5   6
ENDBRANCH   4   5
ENDBRANCH   3   4
ENDBRANCH   2   3
ENDBRANCH   1   2
BRANCH   1  12
ATOM     12  C   UNL     1      33.645  48.294  25.148  1.00  0.00     0.000 C 
BRANCH  12  13
ATOM     13  C   UNL     1      33.246  49.342  26.202  1.00  0.00    -0.000 C 
BRANCH  13  14
ATOM     14  C   UNL     1      32.311  50.425  25.624  1.00  0.00    -0.000 C 
BRANCH  14  15
ATOM     15  C   UNL     1      31.620  50.005  24.317  1.00  0.00    -0.000 C 
BRANCH  15  16
ATOM     16  C   UNL     1      30.231  50.643  24.143  1.00  0.00    -0.000 C 
BRANCH  16  17
ATOM     17  C   UNL     1      29.596  51.056  25.480  1.00  0.00    -0.000 C 
BRANCH  17  18
ATOM     18  C   UNL     1      29.277  52.559  25.541  1.00  0.00    -0.000 C 
BRANCH  18  19
ATOM     19  C   UNL     1      30.524  53.416  25.806  1.00  0.00    -0.003 C 
ATOM     20  C   UNL     1      31.087  54.054  24.535  1.00  0.00     0.004 C 
ENDBRANCH  18  19
ENDBRANCH  17  18
ENDBRANCH  16  17
ENDBRANCH  15  16
ENDBRANCH  14  15
ENDBRANCH  13  14
ENDBRANCH  12  13
ENDBRANCH   1  12
TORSDOF 16
ENDMDL
MODEL 8
REMARK VINA RESULT:    -3.545      1.515      2.453
REMARK INTER + INTRA:          -8.512
REMARK INTER:                  -7.633
REMARK INTRA:                  -0.879
REMARK UNBOUND:                -1.652
REMARK SMILES CCCCCCCCCCCCCCCCCC(=O)[O-]
REMARK SMILES IDX 10 1 11 2 12 3 13 4 14 5 15 6 16 7 17 8 18 9 19 10 20 11
REMARK SMILES IDX 9 12 8 13 7 14 6 15 5 16 4 17 3 18 2 19 1 20
REMARK H PARENT
REMARK Flexibility Score: inf
ROOT
ATOM      1  C   UNL     1      34.008  46.769  25.844  1.00  0.00     0.000 C 
ENDROOT
BRANCH   1   2
ATOM      2  C   UNL     1      34.456  45.569  26.698  1.00  0.00     0.000 C 
BRANCH   2   3
ATOM      3  C   UNL     1      35.870  45.077  26.346  1.00  0.00     0.000 C 
BRANCH   3   4
ATOM      4  C   UNL     1      36.038  43.557  26.520  1.00  0.00     0.000 C 
BRANCH   4   5
ATOM      5  C   UNL     1      37.198  42.930  25.725  1.00  0.00     0.000 C 
BRANCH   5   6
ATOM      6  C   UNL     1      36.723  41.993  24.605  1.00  0.00     0.000 C 
BRANCH   6   7
ATOM      7  C   UNL     1      37.204  40.555  24.851  1.00  0.00     0.006 C 
BRANCH   7   8
ATOM      8  C   UNL     1      37.879  40.392  26.218  1.00  0.00     0.053 C 
BRANCH   8   9
ATOM      9  C   UNL     1      37.995  38.952  26.613  1.00  0.00     0.041 C 
ATOM     10  O   UNL     1      36.963  38.235  26.700  1.00  0.00    -0.550 OA
ATOM     11  O   UNL     1      39.244  38.393  26.855  1.00  0.00    -0.550 OA
ENDBRANCH   8   9
ENDBRANCH   7   8
ENDBRANCH   6   7
ENDBRANCH   5   6
ENDBRANCH   4   5
ENDBRANCH   3   4
ENDBRANCH   2   3
ENDBRANCH   1   2
BRANCH   1  12
ATOM     12  C   UNL     1      35.062  47.880  25.674  1.00  0.00     0.000 C 
BRANCH  12  13
ATOM     13  C   UNL     1      34.648  49.207  26.334  1.00  0.00    -0.000 C 
BRANCH  13  14
ATOM     14  C   UNL     1      33.272  49.702  25.839  1.00  0.00    -0.000 C 
BRANCH  14  15
ATOM     15  C   UNL     1      32.674  50.820  26.709  1.00  0.00    -0.000 C 
BRANCH  15  16
ATOM     16  C   UNL     1      32.703  52.194  26.017  1.00  0.00    -0.000 C 
BRANCH  16  17
ATOM     17  C   UNL     1      31.312  52.652  25.550  1.00  0.00    -0.000 C 
BRANCH  17  18
ATOM     18  C   UNL     1      31.002  52.217  24.108  1.00  0.00    -0.000 C 
BRANCH  18  19
ATOM     19  C   UNL     1      30.174  50.924  24.048  1.00  0.00    -0.003 C 
ATOM     20  C   UNL     1      28.945  50.963  24.957  1.00  0.00     0.004 C 
ENDBRANCH  18  19
ENDBRANCH  17  18
ENDBRANCH  16  17
ENDBRANCH  15  16
ENDBRANCH  14  15
ENDBRANCH  13  14
ENDBRANCH  12  13
ENDBRANCH   1  12
TORSDOF 16
ENDMDL
MODEL 9
REMARK VINA RESULT:    -3.471      4.719      9.685
REMARK INTER + INTRA:          -8.370
REMARK INTER:                  -7.155
REMARK INTRA:                  -1.215
REMARK UNBOUND:                -1.652
REMARK SMILES CCCCCCCCCCCCCCCCCC(=O)[O-]
REMARK SMILES IDX 10 1 11 2 12 3 13 4 14 5 15 6 16 7 17 8 18 9 19 10 20 11
REMARK SMILES IDX 9 12 8 13 7 14 6 15 5 16 4 17 3 18 2 19 1 20
REMARK H PARENT
REMARK Flexibility Score: inf
ROOT
ATOM      1  C   UNL     1      32.681  45.352  25.712  1.00  0.00     0.000 C 
ENDROOT
BRANCH   1   2
ATOM      2  C   UNL     1      33.164  46.765  25.339  1.00  0.00     0.000 C 
BRANCH   2   3
ATOM      3  C   UNL     1      33.595  47.593  26.561  1.00  0.00     0.000 C 
BRANCH   3   4
ATOM      4  C   UNL     1      34.638  48.672  26.217  1.00  0.00     0.000 C 
BRANCH   4   5
ATOM      5  C   UNL     1      34.165  50.126  26.404  1.00  0.00     0.000 C 
BRANCH   5   6
ATOM      6  C   UNL     1      32.699  50.228  26.850  1.00  0.00     0.000 C 
BRANCH   6   7
ATOM      7  C   UNL     1      31.851  50.948  25.791  1.00  0.00     0.006 C 
BRANCH   7   8
ATOM      8  C   UNL     1      32.211  52.434  25.668  1.00  0.00     0.053 C 
BRANCH   8   9
ATOM      9  C   UNL     1      30.998  53.283  25.441  1.00  0.00     0.041 C 
ATOM     10  O   UNL     1      31.107  54.403  24.876  1.00  0.00    -0.550 OA
ATOM     11  O   UNL     1      29.744  52.823  25.822  1.00  0.00    -0.550 OA
ENDBRANCH   8   9
ENDBRANCH   7   8
ENDBRANCH   6   7
ENDBRANCH   5   6
ENDBRANCH   4   5
ENDBRANCH   3   4
ENDBRANCH   2   3
ENDBRANCH   1   2
BRANCH   1  12
ATOM     12  C   UNL     1      33.753  44.249  25.622  1.00  0.00     0.000 C 
BRANCH  12  13
ATOM     13  C   UNL     1      34.696  44.226  26.838  1.00  0.00    -0.000 C 
BRANCH  13  14
ATOM     14  C   UNL     1      36.154  44.559  26.453  1.00  0.00    -0.000 C 
BRANCH  14  15
ATOM     15  C   UNL     1      37.186  43.610  27.085  1.00  0.00    -0.000 C 
BRANCH  15  16
ATOM     16  C   UNL     1      38.047  42.883  26.039  1.00  0.00    -0.000 C 
BRANCH  16  17
ATOM     17  C   UNL     1      37.218  42.321  24.874  1.00  0.00    -0.000 C 
BRANCH  17  18
ATOM     18  C   UNL     1      36.807  40.856  25.097  1.00  0.00    -0.000 C 
BRANCH  18  19
ATOM     19  C   UNL     1      37.916  40.028  25.763  1.00  0.00    -0.003 C 
ATOM     20  C   UNL     1      37.369  38.909  26.651  1.00  0.00     0.004 C 
ENDBRANCH  18  19
ENDBRANCH  17  18
ENDBRANCH  16  17
ENDBRANCH  15  16
ENDBRANCH  14  15
ENDBRANCH  13  14
ENDBRANCH  12  13
ENDBRANCH   1  12
TORSDOF 16
ENDMDL
