MODEL 1
REMARK VINA RESULT:    -3.251      0.000      0.000
REMARK INTER + INTRA:          -3.771
REMARK INTER:                  -3.726
REMARK INTRA:                  -0.044
REMARK UNBOUND:                -0.044
REMARK SMILES CC(C)[C@H]([NH3+])C(=O)[O-]
REMARK SMILES IDX 4 1 5 2 6 6 7 7 8 8 2 9 1 10 3 11
REMARK H PARENT 5 3 5 4 5 5
REMARK Flexibility Score: inf
ROOT
ATOM      1  C   UNL     1     151.699 148.937 135.982  1.00  0.00     0.230 C 
ENDROOT
BRANCH   1   2
ATOM      2  N   UNL     1     151.089 147.841 136.750  1.00  0.00    -0.350 N 
ATOM      3  H   UNL     1     151.828 147.313 137.270  1.00  0.00     0.345 HD
ATOM      4  H   UNL     1     150.570 147.181 136.128  1.00  0.00     0.345 HD
ATOM      5  H   UNL     1     150.419 148.236 137.449  1.00  0.00     0.345 HD
ENDBRANCH   1   2
BRANCH   1   6
ATOM      6  C   UNL     1     153.196 148.959 136.185  1.00  0.00     0.099 C 
ATOM      7  O   UNL     1     153.674 149.171 137.331  1.00  0.00    -0.544 OA
ATOM      8  O   UNL     1     154.058 148.718 135.121  1.00  0.00    -0.544 OA
ENDBRANCH   1   6
BRANCH   1   9
ATOM      9  C   UNL     1     151.029 150.307 136.300  1.00  0.00     0.047 C 
ATOM     10  C   UNL     1     150.290 150.270 137.646  1.00  0.00     0.014 C 
ATOM     11  C   UNL     1     150.083 150.803 135.192  1.00  0.00     0.014 C 
ENDBRANCH   1   9
TORSDOF 3
ENDMDL
MODEL 2
REMARK VINA RESULT:    -3.136      2.041      2.469
REMARK INTER + INTRA:          -3.639
REMARK INTER:                  -3.592
REMARK INTRA:                  -0.047
REMARK UNBOUND:                -0.044
REMARK SMILES CC(C)[C@H]([NH3+])C(=O)[O-]
REMARK SMILES IDX 4 1 5 2 6 6 7 7 8 8 2 9 1 10 3 11
REMARK H PARENT 5 3 5 4 5 5
REMARK Flexibility Score: inf
ROOT
ATOM      1  C   UNL     1     151.459 149.175 137.062  1.00  0.00     0.230 C 
ENDROOT
BRANCH   1   2
ATOM      2  N   UNL     1     152.696 149.815 136.594  1.00  0.00    -0.350 N 
ATOM      3  H   UNL     1     152.628 150.853 136.707  1.00  0.00     0.345 HD
ATOM      4  H   UNL     1     152.887 149.591 135.592  1.00  0.00     0.345 HD
ATOM      5  H   UNL     1     153.502 149.478 137.170  1.00  0.00     0.345 HD
ENDBRANCH   1   2
BRANCH   1   6
ATOM      6  C   UNL     1     151.232 147.865 136.345  1.00  0.00     0.099 C 
ATOM      7  O   UNL     1     150.771 146.875 136.972  1.00  0.00    -0.544 OA
ATOM      8  O   UNL     1     151.502 147.745 134.986  1.00  0.00    -0.544 OA
ENDBRANCH   1   6
BRANCH   1   9
ATOM      9  C   UNL     1     150.236 150.137 136.957  1.00  0.00     0.047 C 
ATOM     10  C   UNL     1     150.334 151.031 135.712  1.00  0.00     0.014 C 
ATOM     11  C   UNL     1     150.021 151.001 138.212  1.00  0.00     0.014 C 
ENDBRANCH   1   9
TORSDOF 3
ENDMDL
MODEL 3
REMARK VINA RESULT:    -3.055      2.062      2.729
REMARK INTER + INTRA:          -3.545
REMARK INTER:                  -3.483
REMARK INTRA:                  -0.062
REMARK UNBOUND:                -0.044
REMARK SMILES CC(C)[C@H]([NH3+])C(=O)[O-]
REMARK SMILES IDX 4 1 5 2 6 6 7 7 8 8 2 9 1 10 3 11
REMARK H PARENT 5 3 5 4 5 5
REMARK Flexibility Score: inf
ROOT
ATOM      1  C   UNL     1     153.735 148.699 136.260  1.00  0.00     0.230 C 
ENDROOT
BRANCH   1   2
ATOM      2  N   UNL     1     154.106 149.895 137.030  1.00  0.00    -0.350 N 
ATOM      3  H   UNL     1     153.461 150.686 136.796  1.00  0.00     0.345 HD
ATOM      4  H   UNL     1     155.090 150.186 136.835  1.00  0.00     0.345 HD
ATOM      5  H   UNL     1     154.014 149.694 138.052  1.00  0.00     0.345 HD
ENDBRANCH   1   2
BRANCH   1   6
ATOM      6  C   UNL     1     154.602 148.570 135.029  1.00  0.00     0.099 C 
ATOM      7  O   UNL     1     154.070 148.449 133.894  1.00  0.00    -0.544 OA
ATOM      8  O   UNL     1     155.988 148.611 135.130  1.00  0.00    -0.544 OA
ENDBRANCH   1   6
BRANCH   1   9
ATOM      9  C   UNL     1     152.213 148.674 135.928  1.00  0.00     0.047 C 
ATOM     10  C   UNL     1     151.499 149.915 136.485  1.00  0.00     0.014 C 
ATOM     11  C   UNL     1     151.499 147.396 136.404  1.00  0.00     0.014 C 
ENDBRANCH   1   9
TORSDOF 3
ENDMDL
MODEL 4
REMARK VINA RESULT:    -3.001      2.446      3.288
REMARK INTER + INTRA:          -3.483
REMARK INTER:                  -3.525
REMARK INTRA:                   0.042
REMARK UNBOUND:                -0.044
REMARK SMILES CC(C)[C@H]([NH3+])C(=O)[O-]
REMARK SMILES IDX 4 1 5 2 6 6 7 7 8 8 2 9 1 10 3 11
REMARK H PARENT 5 3 5 4 5 5
REMARK Flexibility Score: inf
ROOT
ATOM      1  C   UNL     1     152.081 149.263 136.017  1.00  0.00     0.230 C 
ENDROOT
BRANCH   1   2
ATOM      2  N   UNL     1     153.095 149.387 137.074  1.00  0.00    -0.350 N 
ATOM      3  H   UNL     1     154.042 149.163 136.691  1.00  0.00     0.345 HD
ATOM      4  H   UNL     1     152.890 148.750 137.877  1.00  0.00     0.345 HD
ATOM      5  H   UNL     1     153.112 150.372 137.427  1.00  0.00     0.345 HD
ENDBRANCH   1   2
BRANCH   1   6
ATOM      6  C   UNL     1     150.868 150.103 136.342  1.00  0.00     0.099 C 
ATOM      7  O   UNL     1     150.570 150.343 137.542  1.00  0.00    -0.544 OA
ATOM      8  O   UNL     1     150.086 150.641 135.326  1.00  0.00    -0.544 OA
ENDBRANCH   1   6
BRANCH   1   9
ATOM      9  C   UNL     1     151.722 147.773 135.733  1.00  0.00     0.047 C 
ATOM     10  C   UNL     1     151.116 147.602 134.332  1.00  0.00     0.014 C 
ATOM     11  C   UNL     1     150.793 147.150 136.790  1.00  0.00     0.014 C 
ENDBRANCH   1   9
TORSDOF 3
ENDMDL
MODEL 5
REMARK VINA RESULT:    -2.919      6.689      7.410
REMARK INTER + INTRA:          -3.390
REMARK INTER:                  -3.331
REMARK INTRA:                  -0.060
REMARK UNBOUND:                -0.044
REMARK SMILES CC(C)[C@H]([NH3+])C(=O)[O-]
REMARK SMILES IDX 4 1 5 2 6 6 7 7 8 8 2 9 1 10 3 11
REMARK H PARENT 5 3 5 4 5 5
REMARK Flexibility Score: inf
ROOT
ATOM      1  C   UNL     1     148.646 149.995 131.045  1.00  0.00     0.230 C 
ENDROOT
BRANCH   1   2
ATOM      2  N   UNL     1     147.847 149.823 132.267  1.00  0.00    -0.350 N 
ATOM      3  H   UNL     1     147.051 150.502 132.274  1.00  0.00     0.345 HD
ATOM      4  H   UNL     1     148.426 149.964 133.126  1.00  0.00     0.345 HD
ATOM      5  H   UNL     1     147.448 148.856 132.290  1.00  0.00     0.345 HD
ENDBRANCH   1   2
BRANCH   1   6
ATOM      6  C   UNL     1     147.846 150.710 129.982  1.00  0.00     0.099 C 
ATOM      7  O   UNL     1     147.878 151.967 129.909  1.00  0.00    -0.544 OA
ATOM      8  O   UNL     1     147.092 149.993 129.060  1.00  0.00    -0.544 OA
ENDBRANCH   1   6
BRANCH   1   9
ATOM      9  C   UNL     1     149.236 148.642 130.545  1.00  0.00     0.047 C 
ATOM     10  C   UNL     1     149.564 147.707 131.719  1.00  0.00     0.014 C 
ATOM     11  C   UNL     1     150.469 148.804 129.639  1.00  0.00     0.014 C 
ENDBRANCH   1   9
TORSDOF 3
ENDMDL
MODEL 6
REMARK VINA RESULT:    -2.824      8.015      8.813
REMARK INTER + INTRA:          -3.281
REMARK INTER:                  -3.225
REMARK INTRA:                  -0.056
REMARK UNBOUND:                -0.044
REMARK SMILES CC(C)[C@H]([NH3+])C(=O)[O-]
REMARK SMILES IDX 4 1 5 2 6 6 7 7 8 8 2 9 1 10 3 11
REMARK H PARENT 5 3 5 4 5 5
REMARK Flexibility Score: inf
ROOT
ATOM      1  C   UNL     1     148.147 152.288 128.793  1.00  0.00     0.230 C 
ENDROOT
BRANCH   1   2
ATOM      2  N   UNL     1     147.011 153.156 129.135  1.00  0.00    -0.350 N 
ATOM      3  H   UNL     1     146.321 152.629 129.720  1.00  0.00     0.345 HD
ATOM      4  H   UNL     1     146.532 153.514 128.278  1.00  0.00     0.345 HD
ATOM      5  H   UNL     1     147.351 153.973 129.692  1.00  0.00     0.345 HD
ENDBRANCH   1   2
BRANCH   1   6
ATOM      6  C   UNL     1     148.129 151.032 129.632  1.00  0.00     0.099 C 
ATOM      7  O   UNL     1     148.841 150.955 130.668  1.00  0.00    -0.544 OA
ATOM      8  O   UNL     1     147.309 149.963 129.289  1.00  0.00    -0.544 OA
ENDBRANCH   1   6
BRANCH   1   9
ATOM      9  C   UNL     1     149.504 153.051 128.883  1.00  0.00     0.047 C 
ATOM     10  C   UNL     1     149.286 154.554 129.112  1.00  0.00     0.014 C 
ATOM     11  C   UNL     1     150.417 152.830 127.665  1.00  0.00     0.014 C 
ENDBRANCH   1   9
TORSDOF 3
ENDMDL
MODEL 7
REMARK VINA RESULT:    -2.785      2.561      3.546
REMARK INTER + INTRA:          -3.236
REMARK INTER:                  -3.180
REMARK INTRA:                  -0.056
REMARK UNBOUND:                -0.044
REMARK SMILES CC(C)[C@H]([NH3+])C(=O)[O-]
REMARK SMILES IDX 4 1 5 2 6 6 7 7 8 8 2 9 1 10 3 11
REMARK H PARENT 5 3 5 4 5 5
REMARK Flexibility Score: inf
ROOT
ATOM      1  C   UNL     1     150.848 150.032 137.175  1.00  0.00     0.230 C 
ENDROOT
BRANCH   1   2
ATOM      2  N   UNL     1     149.656 149.373 137.729  1.00  0.00    -0.350 N 
ATOM      3  H   UNL     1     149.395 149.813 138.642  1.00  0.00     0.345 HD
ATOM      4  H   UNL     1     149.817 148.351 137.874  1.00  0.00     0.345 HD
ATOM      5  H   UNL     1     148.853 149.492 137.070  1.00  0.00     0.345 HD
ENDBRANCH   1   2
BRANCH   1   6
ATOM      6  C   UNL     1     150.452 151.183 136.281  1.00  0.00     0.099 C 
ATOM      7  O   UNL     1     150.422 151.030 135.031  1.00  0.00    -0.544 OA
ATOM      8  O   UNL     1     150.090 152.411 136.825  1.00  0.00    -0.544 OA
ENDBRANCH   1   6
BRANCH   1   9
ATOM      9  C   UNL     1     151.792 149.016 136.464  1.00  0.00     0.047 C 
ATOM     10  C   UNL     1     151.243 147.584 136.557  1.00  0.00     0.014 C 
ATOM     11  C   UNL     1     153.243 149.059 136.976  1.00  0.00     0.014 C 
ENDBRANCH   1   9
TORSDOF 3
ENDMDL
MODEL 8
REMARK VINA RESULT:    -2.777      7.485      8.515
REMARK INTER + INTRA:          -3.227
REMARK INTER:                  -3.164
REMARK INTRA:                  -0.063
REMARK UNBOUND:                -0.044
REMARK SMILES CC(C)[C@H]([NH3+])C(=O)[O-]
REMARK SMILES IDX 4 1 5 2 6 6 7 7 8 8 2 9 1 10 3 11
REMARK H PARENT 5 3 5 4 5 5
REMARK Flexibility Score: inf
ROOT
ATOM      1  C   UNL     1     148.041 151.819 129.516  1.00  0.00     0.230 C 
ENDROOT
BRANCH   1   2
ATOM      2  N   UNL     1     147.077 151.049 128.719  1.00  0.00    -0.350 N 
ATOM      3  H   UNL     1     146.371 151.692 128.290  1.00  0.00     0.345 HD
ATOM      4  H   UNL     1     146.582 150.336 129.301  1.00  0.00     0.345 HD
ATOM      5  H   UNL     1     147.579 150.556 127.944  1.00  0.00     0.345 HD
ENDBRANCH   1   2
BRANCH   1   6
ATOM      6  C   UNL     1     148.876 152.711 128.627  1.00  0.00     0.099 C 
ATOM      7  O   UNL     1     148.890 152.523 127.382  1.00  0.00    -0.544 OA
ATOM      8  O   UNL     1     149.612 153.760 129.166  1.00  0.00    -0.544 OA
ENDBRANCH   1   6
BRANCH   1   9
ATOM      9  C   UNL     1     148.908 150.896 130.425  1.00  0.00     0.047 C 
ATOM     10  C   UNL     1     149.630 149.819 129.601  1.00  0.00     0.014 C 
ATOM     11  C   UNL     1     148.117 150.242 131.572  1.00  0.00     0.014 C 
ENDBRANCH   1   9
TORSDOF 3
ENDMDL
MODEL 9
REMARK VINA RESULT:    -2.689      7.415      8.466
REMARK INTER + INTRA:          -3.126
REMARK INTER:                  -3.066
REMARK INTRA:                  -0.060
REMARK UNBOUND:                -0.044
REMARK SMILES CC(C)[C@H]([NH3+])C(=O)[O-]
REMARK SMILES IDX 4 1 5 2 6 6 7 7 8 8 2 9 1 10 3 11
REMARK H PARENT 5 3 5 4 5 5
REMARK Flexibility Score: inf
ROOT
ATOM      1  C   UNL     1     147.889 150.529 128.871  1.00  0.00     0.230 C 
ENDROOT
BRANCH   1   2
ATOM      2  N   UNL     1     146.582 149.914 128.594  1.00  0.00    -0.350 N 
ATOM      3  H   UNL     1     145.875 150.656 128.382  1.00  0.00     0.345 HD
ATOM      4  H   UNL     1     146.249 149.344 129.404  1.00  0.00     0.345 HD
ATOM      5  H   UNL     1     146.660 149.291 127.758  1.00  0.00     0.345 HD
ENDBRANCH   1   2
BRANCH   1   6
ATOM      6  C   UNL     1     148.450 150.020 130.177  1.00  0.00     0.099 C 
ATOM      7  O   UNL     1     149.609 149.528 130.216  1.00  0.00    -0.544 OA
ATOM      8  O   UNL     1     147.711 150.115 131.351  1.00  0.00    -0.544 OA
ENDBRANCH   1   6
BRANCH   1   9
ATOM      9  C   UNL     1     147.819 152.085 128.812  1.00  0.00     0.047 C 
ATOM     10  C   UNL     1     147.062 152.564 127.564  1.00  0.00     0.014 C 
ATOM     11  C   UNL     1     149.196 152.767 128.887  1.00  0.00     0.014 C 
ENDBRANCH   1   9
TORSDOF 3
ENDMDL
