MODEL 1
REMARK VINA RESULT:    -3.427      0.000      0.000
REMARK INTER + INTRA:          -4.589
REMARK INTER:                  -4.429
REMARK INTRA:                  -0.160
REMARK UNBOUND:                -0.160
REMARK SMILES CCCCCCC(=O)[O-]
REMARK SMILES IDX 5 1 6 2 7 3 8 4 9 5 4 6 3 7 2 8 1 9
REMARK H PARENT
REMARK Flexibility Score: inf
ROOT
ATOM      1  C   UNL     1      32.219  49.961  25.239  1.00  0.00     0.006 C 
ENDROOT
BRANCH   1   2
ATOM      2  C   UNL     1      32.975  48.637  25.093  1.00  0.00     0.053 C 
BRANCH   2   3
ATOM      3  C   UNL     1      34.374  48.771  25.605  1.00  0.00     0.041 C 
ATOM      4  O   UNL     1      34.708  49.782  26.277  1.00  0.00    -0.550 OA
ATOM      5  O   UNL     1      35.322  47.802  25.299  1.00  0.00    -0.550 OA
ENDBRANCH   2   3
ENDBRANCH   1   2
BRANCH   1   6
ATOM      6  C   UNL     1      31.275  50.189  24.050  1.00  0.00     0.000 C 
BRANCH   6   7
ATOM      7  C   UNL     1      30.485  51.502  24.165  1.00  0.00    -0.000 C 
BRANCH   7   8
ATOM      8  C   UNL     1      31.146  52.510  25.116  1.00  0.00    -0.003 C 
ATOM      9  C   UNL     1      31.158  53.910  24.510  1.00  0.00     0.004 C 
ENDBRANCH   7   8
ENDBRANCH   6   7
ENDBRANCH   1   6
TORSDOF 5
ENDMDL
MODEL 2
REMARK VINA RESULT:    -3.349      3.397      4.568
REMARK INTER + INTRA:          -4.489
REMARK INTER:                  -4.064
REMARK INTRA:                  -0.424
REMARK UNBOUND:                -0.160
REMARK SMILES CCCCCCC(=O)[O-]
REMARK SMILES IDX 5 1 6 2 7 3 8 4 9 5 4 6 3 7 2 8 1 9
REMARK H PARENT
REMARK Flexibility Score: inf
ROOT
ATOM      1  C   UNL     1      32.781  51.786  26.031  1.00  0.00     0.006 C 
ENDROOT
BRANCH   1   2
ATOM      2  C   UNL     1      32.183  52.877  26.925  1.00  0.00     0.053 C 
BRANCH   2   3
ATOM      3  C   UNL     1      31.211  53.713  26.154  1.00  0.00     0.041 C 
ATOM      4  O   UNL     1      31.419  53.968  24.939  1.00  0.00    -0.550 OA
ATOM      5  O   UNL     1      30.099  54.250  26.791  1.00  0.00    -0.550 OA
ENDBRANCH   2   3
ENDBRANCH   1   2
BRANCH   1   6
ATOM      6  C   UNL     1      31.898  50.529  26.034  1.00  0.00     0.000 C 
BRANCH   6   7
ATOM      7  C   UNL     1      31.647  49.979  24.621  1.00  0.00    -0.000 C 
BRANCH   7   8
ATOM      8  C   UNL     1      30.562  50.760  23.866  1.00  0.00    -0.003 C 
ATOM      9  C   UNL     1      29.311  50.931  24.723  1.00  0.00     0.004 C 
ENDBRANCH   7   8
ENDBRANCH   6   7
ENDBRANCH   1   6
TORSDOF 5
ENDMDL
MODEL 3
REMARK VINA RESULT:    -3.306      1.512      1.914
REMARK INTER + INTRA:          -4.432
REMARK INTER:                  -4.096
REMARK INTRA:                  -0.336
REMARK UNBOUND:                -0.160
REMARK SMILES CCCCCCC(=O)[O-]
REMARK SMILES IDX 5 1 6 2 7 3 8 4 9 5 4 6 3 7 2 8 1 9
REMARK H PARENT
REMARK Flexibility Score: inf
ROOT
ATOM      1  C   UNL     1      31.629  49.890  24.423  1.00  0.00     0.006 C 
ENDROOT
BRANCH   1   2
ATOM      2  C   UNL     1      31.901  49.920  25.931  1.00  0.00     0.053 C 
BRANCH   2   3
ATOM      3  C   UNL     1      33.176  50.648  26.219  1.00  0.00     0.041 C 
ATOM      4  O   UNL     1      33.179  51.902  26.328  1.00  0.00    -0.550 OA
ATOM      5  O   UNL     1      34.370  49.944  26.318  1.00  0.00    -0.550 OA
ENDBRANCH   2   3
ENDBRANCH   1   2
BRANCH   1   6
ATOM      6  C   UNL     1      30.646  50.998  24.021  1.00  0.00     0.000 C 
BRANCH   6   7
ATOM      7  C   UNL     1      29.336  50.948  24.824  1.00  0.00    -0.000 C 
BRANCH   7   8
ATOM      8  C   UNL     1      29.111  52.209  25.670  1.00  0.00    -0.003 C 
ATOM      9  C   UNL     1      30.115  53.299  25.308  1.00  0.00     0.004 C 
ENDBRANCH   7   8
ENDBRANCH   6   7
ENDBRANCH   1   6
TORSDOF 5
ENDMDL
MODEL 4
REMARK VINA RESULT:    -3.298      2.394      3.396
REMARK INTER + INTRA:          -4.423
REMARK INTER:                  -4.067
REMARK INTRA:                  -0.355
REMARK UNBOUND:                -0.160
REMARK SMILES CCCCCCC(=O)[O-]
REMARK SMILES IDX 5 1 6 2 7 3 8 4 9 5 4 6 3 7 2 8 1 9
REMARK H PARENT
REMARK Flexibility Score: inf
ROOT
ATOM      1  C   UNL     1      29.114  51.143  25.173  1.00  0.00     0.006 C 
ENDROOT
BRANCH   1   2
ATOM      2  C   UNL     1      30.478  50.570  25.569  1.00  0.00     0.053 C 
BRANCH   2   3
ATOM      3  C   UNL     1      31.272  50.216  24.351  1.00  0.00     0.041 C 
ATOM      4  O   UNL     1      32.178  49.344  24.416  1.00  0.00    -0.550 OA
ATOM      5  O   UNL     1      31.044  50.885  23.155  1.00  0.00    -0.550 OA
ENDBRANCH   2   3
ENDBRANCH   1   2
BRANCH   1   6
ATOM      6  C   UNL     1      28.845  52.470  25.897  1.00  0.00     0.000 C 
BRANCH   6   7
ATOM      7  C   UNL     1      30.128  53.116  26.444  1.00  0.00    -0.000 C 
BRANCH   7   8
ATOM      8  C   UNL     1      30.513  54.398  25.691  1.00  0.00    -0.003 C 
ATOM      9  C   UNL     1      31.288  54.075  24.417  1.00  0.00     0.004 C 
ENDBRANCH   7   8
ENDBRANCH   6   7
ENDBRANCH   1   6
TORSDOF 5
ENDMDL
MODEL 5
REMARK VINA RESULT:    -3.259      1.437      2.262
REMARK INTER + INTRA:          -4.372
REMARK INTER:                  -4.091
REMARK INTRA:                  -0.281
REMARK UNBOUND:                -0.160
REMARK SMILES CCCCCCC(=O)[O-]
REMARK SMILES IDX 5 1 6 2 7 3 8 4 9 5 4 6 3 7 2 8 1 9
REMARK H PARENT
REMARK Flexibility Score: inf
ROOT
ATOM      1  C   UNL     1      33.242  50.280  26.599  1.00  0.00     0.006 C 
ENDROOT
BRANCH   1   2
ATOM      2  C   UNL     1      34.638  49.699  26.357  1.00  0.00     0.053 C 
BRANCH   2   3
ATOM      3  C   UNL     1      34.555  48.468  25.510  1.00  0.00     0.041 C 
ATOM      4  O   UNL     1      35.431  47.570  25.609  1.00  0.00    -0.550 OA
ATOM      5  O   UNL     1      33.535  48.336  24.576  1.00  0.00    -0.550 OA
ENDBRANCH   2   3
ENDBRANCH   1   2
BRANCH   1   6
ATOM      6  C   UNL     1      33.207  51.779  26.271  1.00  0.00     0.000 C 
BRANCH   6   7
ATOM      7  C   UNL     1      31.869  52.219  25.654  1.00  0.00    -0.000 C 
BRANCH   7   8
ATOM      8  C   UNL     1      30.981  51.030  25.259  1.00  0.00    -0.003 C 
ATOM      9  C   UNL     1      30.816  50.947  23.744  1.00  0.00     0.004 C 
ENDBRANCH   7   8
ENDBRANCH   6   7
ENDBRANCH   1   6
TORSDOF 5
ENDMDL
MODEL 6
REMARK VINA RESULT:    -3.253      2.826      4.722
REMARK INTER + INTRA:          -4.365
REMARK INTER:                  -4.123
REMARK INTRA:                  -0.242
REMARK UNBOUND:                -0.160
REMARK SMILES CCCCCCC(=O)[O-]
REMARK SMILES IDX 5 1 6 2 7 3 8 4 9 5 4 6 3 7 2 8 1 9
REMARK H PARENT
REMARK Flexibility Score: inf
ROOT
ATOM      1  C   UNL     1      31.607  52.374  26.208  1.00  0.00     0.006 C 
ENDROOT
BRANCH   1   2
ATOM      2  C   UNL     1      30.979  52.487  24.815  1.00  0.00     0.053 C 
BRANCH   2   3
ATOM      3  C   UNL     1      30.455  51.159  24.366  1.00  0.00     0.041 C 
ATOM      4  O   UNL     1      31.213  50.347  23.773  1.00  0.00    -0.550 OA
ATOM      5  O   UNL     1      29.118  50.839  24.560  1.00  0.00    -0.550 OA
ENDBRANCH   2   3
ENDBRANCH   1   2
BRANCH   1   6
ATOM      6  C   UNL     1      33.134  52.521  26.135  1.00  0.00     0.000 C 
BRANCH   6   7
ATOM      7  C   UNL     1      33.873  51.404  26.889  1.00  0.00    -0.000 C 
BRANCH   7   8
ATOM      8  C   UNL     1      33.559  50.007  26.335  1.00  0.00    -0.003 C 
ATOM      9  C   UNL     1      34.814  49.143  26.279  1.00  0.00     0.004 C 
ENDBRANCH   7   8
ENDBRANCH   6   7
ENDBRANCH   1   6
TORSDOF 5
ENDMDL
MODEL 7
REMARK VINA RESULT:    -3.247      2.936      3.595
REMARK INTER + INTRA:          -4.356
REMARK INTER:                  -3.907
REMARK INTRA:                  -0.449
REMARK UNBOUND:                -0.160
REMARK SMILES CCCCCCC(=O)[O-]
REMARK SMILES IDX 5 1 6 2 7 3 8 4 9 5 4 6 3 7 2 8 1 9
REMARK H PARENT
REMARK Flexibility Score: inf
ROOT
ATOM      1  C   UNL     1      32.083  50.714  26.299  1.00  0.00     0.006 C 
ENDROOT
BRANCH   1   2
ATOM      2  C   UNL     1      31.841  49.965  24.985  1.00  0.00     0.053 C 
BRANCH   2   3
ATOM      3  C   UNL     1      30.695  50.571  24.238  1.00  0.00     0.041 C 
ATOM      4  O   UNL     1      30.866  51.031  23.079  1.00  0.00    -0.550 OA
ATOM      5  O   UNL     1      29.448  50.670  24.843  1.00  0.00    -0.550 OA
ENDBRANCH   2   3
ENDBRANCH   1   2
BRANCH   1   6
ATOM      6  C   UNL     1      32.517  52.163  26.033  1.00  0.00     0.000 C 
BRANCH   6   7
ATOM      7  C   UNL     1      31.662  53.187  26.796  1.00  0.00    -0.000 C 
BRANCH   7   8
ATOM      8  C   UNL     1      30.664  53.918  25.888  1.00  0.00    -0.003 C 
ATOM      9  C   UNL     1      31.257  54.163  24.504  1.00  0.00     0.004 C 
ENDBRANCH   7   8
ENDBRANCH   6   7
ENDBRANCH   1   6
TORSDOF 5
ENDMDL
MODEL 8
REMARK VINA RESULT:    -3.224      1.542      2.529
REMARK INTER + INTRA:          -4.327
REMARK INTER:                  -3.964
REMARK INTRA:                  -0.363
REMARK UNBOUND:                -0.160
REMARK SMILES CCCCCCC(=O)[O-]
REMARK SMILES IDX 5 1 6 2 7 3 8 4 9 5 4 6 3 7 2 8 1 9
REMARK H PARENT
REMARK Flexibility Score: inf
ROOT
ATOM      1  C   UNL     1      32.978  52.378  26.093  1.00  0.00     0.006 C 
ENDROOT
BRANCH   1   2
ATOM      2  C   UNL     1      33.125  51.216  27.081  1.00  0.00     0.053 C 
BRANCH   2   3
ATOM      3  C   UNL     1      33.443  49.947  26.355  1.00  0.00     0.041 C 
ATOM      4  O   UNL     1      32.516  49.178  25.988  1.00  0.00    -0.550 OA
ATOM      5  O   UNL     1      34.766  49.589  26.127  1.00  0.00    -0.550 OA
ENDBRANCH   2   3
ENDBRANCH   1   2
BRANCH   1   6
ATOM      6  C   UNL     1      31.505  52.784  25.939  1.00  0.00     0.000 C 
BRANCH   6   7
ATOM      7  C   UNL     1      31.047  52.805  24.472  1.00  0.00    -0.000 C 
BRANCH   7   8
ATOM      8  C   UNL     1      30.673  51.411  23.948  1.00  0.00    -0.003 C 
ATOM      9  C   UNL     1      29.485  50.838  24.714  1.00  0.00     0.004 C 
ENDBRANCH   7   8
ENDBRANCH   6   7
ENDBRANCH   1   6
TORSDOF 5
ENDMDL
MODEL 9
REMARK VINA RESULT:    -3.206      2.634      4.667
REMARK INTER + INTRA:          -4.304
REMARK INTER:                  -4.085
REMARK INTRA:                  -0.219
REMARK UNBOUND:                -0.160
REMARK SMILES CCCCCCC(=O)[O-]
REMARK SMILES IDX 5 1 6 2 7 3 8 4 9 5 4 6 3 7 2 8 1 9
REMARK H PARENT
REMARK Flexibility Score: inf
ROOT
ATOM      1  C   UNL     1      30.655  51.111  23.749  1.00  0.00     0.006 C 
ENDROOT
BRANCH   1   2
ATOM      2  C   UNL     1      30.197  51.869  24.998  1.00  0.00     0.053 C 
BRANCH   2   3
ATOM      3  C   UNL     1      30.947  53.156  25.136  1.00  0.00     0.041 C 
ATOM      4  O   UNL     1      30.401  54.246  24.821  1.00  0.00    -0.550 OA
ATOM      5  O   UNL     1      32.268  53.147  25.567  1.00  0.00    -0.550 OA
ENDBRANCH   2   3
ENDBRANCH   1   2
BRANCH   1   6
ATOM      6  C   UNL     1      31.570  49.936  24.124  1.00  0.00     0.000 C 
BRANCH   6   7
ATOM      7  C   UNL     1      31.588  49.661  25.637  1.00  0.00    -0.000 C 
BRANCH   7   8
ATOM      8  C   UNL     1      32.762  48.766  26.061  1.00  0.00    -0.003 C 
ATOM      9  C   UNL     1      33.534  48.261  24.846  1.00  0.00     0.004 C 
ENDBRANCH   7   8
ENDBRANCH   6   7
ENDBRANCH   1   6
TORSDOF 5
ENDMDL
