MODEL 1
REMARK VINA RESULT:    -5.010      0.000      0.000
REMARK INTER + INTRA:          -9.020
REMARK INTER:                  -7.354
REMARK INTRA:                  -1.666
REMARK UNBOUND:                -1.666
REMARK SMILES Cc1cc2c(C(C)C)c(O)c(O)c(C=O)c2c(O)c1-c1c(C)cc2c(C(C)C)c(O)c(O)c(C=O)c2c1O
REMARK SMILES IDX 1 1 2 2 3 3 4 4 16 5 13 6 11 7 9 8 5 9 17 10 19 11 20 12
REMARK SMILES IDX 37 13 21 14 36 15 23 16 22 17 24 18 33 19 25 20 31 21 29 22
REMARK SMILES IDX 38 23 34 25 35 26 26 27 27 28 28 29 32 30 30 32 18 34 6 36
REMARK SMILES IDX 7 37 8 38 14 39 15 40 10 41 12 43
REMARK H PARENT 38 24 32 31 30 33 18 35 10 42 12 44
REMARK Flexibility Score: inf
ROOT
ATOM      1  C   UNL     1     106.758 112.336  98.904  1.00  0.00     0.045 C 
ATOM      2  C   UNL     1     105.327 111.885  99.069  1.00  0.00    -0.039 A 
ATOM      3  C   UNL     1     104.788 110.977  98.156  1.00  0.00     0.013 A 
ATOM      4  C   UNL     1     103.473 110.485  98.276  1.00  0.00    -0.006 A 
ATOM      5  C   UNL     1     102.658 110.973  99.344  1.00  0.00     0.039 A 
ATOM      6  C   UNL     1     101.334 110.470  99.483  1.00  0.00     0.072 A 
ATOM      7  C   UNL     1     100.768 109.709  98.452  1.00  0.00     0.169 A 
ATOM      8  C   UNL     1     101.542 109.293  97.365  1.00  0.00     0.162 A 
ATOM      9  C   UNL     1     102.939 109.541  97.341  1.00  0.00     0.008 A 
ATOM     10  C   UNL     1     103.172 111.989 100.202  1.00  0.00     0.132 A 
ATOM     11  C   UNL     1     104.512 112.412 100.084  1.00  0.00     0.031 A 
ENDROOT
BRANCH  11  12
ATOM     12  C   UNL     1     105.052 113.445 101.007  1.00  0.00     0.031 A 
ATOM     13  C   UNL     1     105.588 113.069 102.256  1.00  0.00     0.132 A 
ATOM     14  C   UNL     1     105.052 114.794 100.619  1.00  0.00    -0.039 A 
ATOM     15  C   UNL     1     106.101 114.058 103.153  1.00  0.00     0.039 A 
ATOM     16  C   UNL     1     105.571 115.758 101.483  1.00  0.00     0.013 A 
ATOM     17  C   UNL     1     104.501 115.220  99.279  1.00  0.00     0.045 C 
ATOM     18  C   UNL     1     106.058 115.434 102.763  1.00  0.00    -0.006 A 
ATOM     19  C   UNL     1     106.685 113.715 104.411  1.00  0.00     0.072 A 
ATOM     20  C   UNL     1     106.532 116.449 103.653  1.00  0.00     0.008 A 
ATOM     21  C   UNL     1     107.287 114.716 105.198  1.00  0.00     0.169 A 
ATOM     22  C   UNL     1     107.258 116.050 104.801  1.00  0.00     0.162 A 
BRANCH  13  23
ATOM     23  O   UNL     1     105.628 111.712 102.597  1.00  0.00    -0.507 OA
ATOM     24  H   UNL     1     104.805 111.142 102.750  1.00  0.00     0.293 HD
ENDBRANCH  13  23
BRANCH  19  25
ATOM     25  C   UNL     1     106.690 112.330 104.921  1.00  0.00     0.264 C 
ATOM     26  O   UNL     1     107.747 111.645 104.906  1.00  0.00    -0.298 OA
ENDBRANCH  19  25
BRANCH  20  27
ATOM     27  C   UNL     1     106.223 117.950 103.477  1.00  0.00     0.017 C 
ATOM     28  C   UNL     1     106.714 118.494 102.130  1.00  0.00     0.012 C 
ATOM     29  C   UNL     1     104.764 118.346 103.788  1.00  0.00     0.012 C 
ENDBRANCH  20  27
BRANCH  21  30
ATOM     30  O   UNL     1     107.913 114.423 106.416  1.00  0.00    -0.504 OA
ATOM     31  H   UNL     1     108.841 114.736 106.667  1.00  0.00     0.293 HD
ENDBRANCH  21  30
BRANCH  22  32
ATOM     32  O   UNL     1     107.972 116.960 105.590  1.00  0.00    -0.504 OA
ATOM     33  H   UNL     1     108.958 116.876 105.797  1.00  0.00     0.293 HD
ENDBRANCH  22  32
ENDBRANCH  11  12
BRANCH  10  34
ATOM     34  O   UNL     1     102.333 112.613 101.132  1.00  0.00    -0.507 OA
ATOM     35  H   UNL     1     102.643 112.950 102.035  1.00  0.00     0.293 HD
ENDBRANCH  10  34
BRANCH   9  36
ATOM     36  C   UNL     1     103.803 108.734  96.353  1.00  0.00     0.017 C 
ATOM     37  C   UNL     1     103.703 107.220  96.591  1.00  0.00     0.012 C 
ATOM     38  C   UNL     1     103.612 109.121  94.872  1.00  0.00     0.012 C 
ENDBRANCH   9  36
BRANCH   6  39
ATOM     39  C   UNL     1     100.517 110.652 100.704  1.00  0.00     0.264 C 
ATOM     40  O   UNL     1      99.558 111.468 100.722  1.00  0.00    -0.298 OA
ENDBRANCH   6  39
BRANCH   8  41
ATOM     41  O   UNL     1     100.888 108.626  96.323  1.00  0.00    -0.504 OA
ATOM     42  H   UNL     1     100.909 107.623  96.192  1.00  0.00     0.293 HD
ENDBRANCH   8  41
BRANCH   7  43
ATOM     43  O   UNL     1      99.419 109.346  98.529  1.00  0.00    -0.504 OA
ATOM     44  H   UNL     1      98.943 109.189  99.409  1.00  0.00     0.293 HD
ENDBRANCH   7  43
TORSDOF 11
ENDMDL
MODEL 2
REMARK VINA RESULT:    -4.998      7.605     11.900
REMARK INTER + INTRA:          -9.002
REMARK INTER:                  -7.697
REMARK INTRA:                  -1.305
REMARK UNBOUND:                -1.666
REMARK SMILES Cc1cc2c(C(C)C)c(O)c(O)c(C=O)c2c(O)c1-c1c(C)cc2c(C(C)C)c(O)c(O)c(C=O)c2c1O
REMARK SMILES IDX 1 1 2 2 3 3 4 4 16 5 13 6 11 7 9 8 5 9 17 10 19 11 20 12
REMARK SMILES IDX 37 13 21 14 36 15 23 16 22 17 24 18 33 19 25 20 31 21 29 22
REMARK SMILES IDX 38 23 34 25 35 26 26 27 27 28 28 29 32 30 30 32 18 34 6 36
REMARK SMILES IDX 7 37 8 38 14 39 15 40 10 41 12 43
REMARK H PARENT 38 24 32 31 30 33 18 35 10 42 12 44
REMARK Flexibility Score: inf
ROOT
ATOM      1  C   UNL     1     111.525 111.335 100.262  1.00  0.00     0.045 C 
ATOM      2  C   UNL     1     112.425 112.258 101.048  1.00  0.00    -0.039 A 
ATOM      3  C   UNL     1     112.653 112.000 102.402  1.00  0.00     0.013 A 
ATOM      4  C   UNL     1     113.514 112.798 103.182  1.00  0.00    -0.006 A 
ATOM      5  C   UNL     1     114.133 113.931 102.570  1.00  0.00     0.039 A 
ATOM      6  C   UNL     1     115.016 114.734 103.346  1.00  0.00     0.072 A 
ATOM      7  C   UNL     1     115.075 114.558 104.735  1.00  0.00     0.169 A 
ATOM      8  C   UNL     1     114.408 113.495 105.348  1.00  0.00     0.162 A 
ATOM      9  C   UNL     1     113.750 112.511 104.565  1.00  0.00     0.008 A 
ATOM     10  C   UNL     1     113.804 114.260 101.222  1.00  0.00     0.132 A 
ATOM     11  C   UNL     1     112.983 113.404 100.459  1.00  0.00     0.031 A 
ENDROOT
BRANCH  11  12
ATOM     12  C   UNL     1     112.676 113.733  99.042  1.00  0.00     0.031 A 
ATOM     13  C   UNL     1     111.498 114.437  98.717  1.00  0.00     0.132 A 
ATOM     14  C   UNL     1     113.577 113.366  98.031  1.00  0.00    -0.039 A 
ATOM     15  C   UNL     1     111.191 114.750  97.356  1.00  0.00     0.039 A 
ATOM     16  C   UNL     1     113.291 113.689  96.704  1.00  0.00     0.013 A 
ATOM     17  C   UNL     1     114.854 112.628  98.355  1.00  0.00     0.045 C 
ATOM     18  C   UNL     1     112.097 114.335  96.330  1.00  0.00    -0.006 A 
ATOM     19  C   UNL     1     110.027 115.492  96.989  1.00  0.00     0.072 A 
ATOM     20  C   UNL     1     111.801 114.602  94.955  1.00  0.00     0.008 A 
ATOM     21  C   UNL     1     109.839 115.879  95.647  1.00  0.00     0.169 A 
ATOM     22  C   UNL     1     110.737 115.487  94.659  1.00  0.00     0.162 A 
BRANCH  13  23
ATOM     23  O   UNL     1     110.642 114.841  99.749  1.00  0.00    -0.507 OA
ATOM     24  H   UNL     1     110.061 115.670  99.711  1.00  0.00     0.293 HD
ENDBRANCH  13  23
BRANCH  19  25
ATOM     25  C   UNL     1     109.002 115.882  97.977  1.00  0.00     0.264 C 
ATOM     26  O   UNL     1     108.465 117.021  97.929  1.00  0.00    -0.298 OA
ENDBRANCH  19  25
BRANCH  20  27
ATOM     27  C   UNL     1     112.520 113.914  93.777  1.00  0.00     0.017 C 
ATOM     28  C   UNL     1     111.589 112.990  92.982  1.00  0.00     0.012 C 
ATOM     29  C   UNL     1     113.331 114.869  92.875  1.00  0.00     0.012 C 
ENDBRANCH  20  27
BRANCH  21  30
ATOM     30  O   UNL     1     108.738 116.647  95.246  1.00  0.00    -0.504 OA
ATOM     31  H   UNL     1     108.472 117.523  95.675  1.00  0.00     0.293 HD
ENDBRANCH  21  30
BRANCH  22  32
ATOM     32  O   UNL     1     110.530 116.006  93.375  1.00  0.00    -0.504 OA
ATOM     33  H   UNL     1     111.027 116.802  93.000  1.00  0.00     0.293 HD
ENDBRANCH  22  32
ENDBRANCH  11  12
BRANCH  10  34
ATOM     34  O   UNL     1     114.249 115.463 100.664  1.00  0.00    -0.507 OA
ATOM     35  H   UNL     1     113.632 116.176 100.294  1.00  0.00     0.293 HD
ENDBRANCH  10  34
BRANCH   9  36
ATOM     36  C   UNL     1     113.386 111.173 105.235  1.00  0.00     0.017 C 
ATOM     37  C   UNL     1     111.944 111.155 105.760  1.00  0.00     0.012 C 
ATOM     38  C   UNL     1     113.735 109.923 104.400  1.00  0.00     0.012 C 
ENDBRANCH   9  36
BRANCH   6  39
ATOM     39  C   UNL     1     115.945 115.725 102.758  1.00  0.00     0.264 C 
ATOM     40  O   UNL     1     116.893 115.357 102.016  1.00  0.00    -0.298 OA
ENDBRANCH   6  39
BRANCH   8  41
ATOM     41  O   UNL     1     114.424 113.441 106.746  1.00  0.00    -0.504 OA
ATOM     42  H   UNL     1     115.068 112.873 107.283  1.00  0.00     0.293 HD
ENDBRANCH   8  41
BRANCH   7  43
ATOM     43  O   UNL     1     115.830 115.448 105.505  1.00  0.00    -0.504 OA
ATOM     44  H   UNL     1     115.746 116.454 105.423  1.00  0.00     0.293 HD
ENDBRANCH   7  43
TORSDOF 11
ENDMDL
MODEL 3
REMARK VINA RESULT:    -4.948      3.186      8.975
REMARK INTER + INTRA:          -8.928
REMARK INTER:                  -7.490
REMARK INTRA:                  -1.438
REMARK UNBOUND:                -1.666
REMARK SMILES Cc1cc2c(C(C)C)c(O)c(O)c(C=O)c2c(O)c1-c1c(C)cc2c(C(C)C)c(O)c(O)c(C=O)c2c1O
REMARK SMILES IDX 1 1 2 2 3 3 4 4 16 5 13 6 11 7 9 8 5 9 17 10 19 11 20 12
REMARK SMILES IDX 37 13 21 14 36 15 23 16 22 17 24 18 33 19 25 20 31 21 29 22
REMARK SMILES IDX 38 23 34 25 35 26 26 27 27 28 28 29 32 30 30 32 18 34 6 36
REMARK SMILES IDX 7 37 8 38 14 39 15 40 10 41 12 43
REMARK H PARENT 38 24 32 31 30 33 18 35 10 42 12 44
REMARK Flexibility Score: inf
ROOT
ATOM      1  C   UNL     1     107.623 112.465 100.189  1.00  0.00     0.045 C 
ATOM      2  C   UNL     1     107.269 113.688 101.001  1.00  0.00    -0.039 A 
ATOM      3  C   UNL     1     107.628 113.739 102.350  1.00  0.00     0.013 A 
ATOM      4  C   UNL     1     107.364 114.867 103.152  1.00  0.00    -0.006 A 
ATOM      5  C   UNL     1     106.666 115.969 102.571  1.00  0.00     0.039 A 
ATOM      6  C   UNL     1     106.408 117.119 103.369  1.00  0.00     0.072 A 
ATOM      7  C   UNL     1     106.613 117.063 104.754  1.00  0.00     0.169 A 
ATOM      8  C   UNL     1     107.227 115.952 105.340  1.00  0.00     0.162 A 
ATOM      9  C   UNL     1     107.752 114.911 104.530  1.00  0.00     0.008 A 
ATOM     10  C   UNL     1     106.196 115.865 101.228  1.00  0.00     0.132 A 
ATOM     11  C   UNL     1     106.531 114.743 100.441  1.00  0.00     0.031 A 
ENDROOT
BRANCH  11  12
ATOM     12  C   UNL     1     106.070 114.658  99.030  1.00  0.00     0.031 A 
ATOM     13  C   UNL     1     104.878 113.972  98.714  1.00  0.00     0.132 A 
ATOM     14  C   UNL     1     106.810 115.287  98.017  1.00  0.00    -0.039 A 
ATOM     15  C   UNL     1     104.433 113.879  97.358  1.00  0.00     0.039 A 
ATOM     16  C   UNL     1     106.366 115.215  96.696  1.00  0.00     0.013 A 
ATOM     17  C   UNL     1     108.078 116.043  98.333  1.00  0.00     0.045 C 
ATOM     18  C   UNL     1     105.217 114.489  96.329  1.00  0.00    -0.006 A 
ATOM     19  C   UNL     1     103.214 113.225  97.001  1.00  0.00     0.072 A 
ATOM     20  C   UNL     1     104.817 114.383  94.959  1.00  0.00     0.008 A 
ATOM     21  C   UNL     1     102.762 113.271  95.667  1.00  0.00     0.169 A 
ATOM     22  C   UNL     1     103.523 113.885  94.676  1.00  0.00     0.162 A 
BRANCH  13  23
ATOM     23  O   UNL     1     104.128 113.401  99.748  1.00  0.00    -0.507 OA
ATOM     24  H   UNL     1     104.451 112.633 100.324  1.00  0.00     0.293 HD
ENDBRANCH  13  23
BRANCH  19  25
ATOM     25  C   UNL     1     102.394 112.499  97.990  1.00  0.00     0.264 C 
ATOM     26  O   UNL     1     101.214 112.864  98.235  1.00  0.00    -0.298 OA
ENDBRANCH  19  25
BRANCH  20  27
ATOM     27  C   UNL     1     105.746 114.701  93.770  1.00  0.00     0.017 C 
ATOM     28  C   UNL     1     106.121 113.448  92.968  1.00  0.00     0.012 C 
ATOM     29  C   UNL     1     105.268 115.864  92.875  1.00  0.00     0.012 C 
ENDBRANCH  20  27
BRANCH  21  30
ATOM     30  O   UNL     1     101.551 112.686  95.276  1.00  0.00    -0.504 OA
ATOM     31  H   UNL     1     100.648 113.131  95.373  1.00  0.00     0.293 HD
ENDBRANCH  21  30
BRANCH  22  32
ATOM     32  O   UNL     1     102.946 113.977  93.403  1.00  0.00    -0.504 OA
ATOM     33  H   UNL     1     101.970 114.178  93.238  1.00  0.00     0.293 HD
ENDBRANCH  22  32
ENDBRANCH  11  12
BRANCH  10  34
ATOM     34  O   UNL     1     105.353 116.848 100.700  1.00  0.00    -0.507 OA
ATOM     35  H   UNL     1     105.438 117.222  99.763  1.00  0.00     0.293 HD
ENDBRANCH  10  34
BRANCH   9  36
ATOM     36  C   UNL     1     108.755 113.931 105.168  1.00  0.00     0.017 C 
ATOM     37  C   UNL     1     108.085 112.630 105.633  1.00  0.00     0.012 C 
ATOM     38  C   UNL     1     110.028 113.684 104.332  1.00  0.00     0.012 C 
ENDBRANCH   9  36
BRANCH   6  39
ATOM     39  C   UNL     1     105.986 118.422 102.809  1.00  0.00     0.264 C 
ATOM     40  O   UNL     1     106.782 119.116 102.123  1.00  0.00    -0.298 OA
ENDBRANCH   6  39
BRANCH   8  41
ATOM     41  O   UNL     1     107.306 115.918 106.736  1.00  0.00    -0.504 OA
ATOM     42  H   UNL     1     107.771 116.622 107.294  1.00  0.00     0.293 HD
ENDBRANCH   8  41
BRANCH   7  43
ATOM     43  O   UNL     1     106.217 118.143 105.549  1.00  0.00    -0.504 OA
ATOM     44  H   UNL     1     105.323 118.177 106.023  1.00  0.00     0.293 HD
ENDBRANCH   7  43
TORSDOF 11
ENDMDL
MODEL 4
REMARK VINA RESULT:    -4.935      8.602     11.789
REMARK INTER + INTRA:          -8.908
REMARK INTER:                  -7.305
REMARK INTRA:                  -1.603
REMARK UNBOUND:                -1.666
REMARK SMILES Cc1cc2c(C(C)C)c(O)c(O)c(C=O)c2c(O)c1-c1c(C)cc2c(C(C)C)c(O)c(O)c(C=O)c2c1O
REMARK SMILES IDX 1 1 2 2 3 3 4 4 16 5 13 6 11 7 9 8 5 9 17 10 19 11 20 12
REMARK SMILES IDX 37 13 21 14 36 15 23 16 22 17 24 18 33 19 25 20 31 21 29 22
REMARK SMILES IDX 38 23 34 25 35 26 26 27 27 28 28 29 32 30 30 32 18 34 6 36
REMARK SMILES IDX 7 37 8 38 14 39 15 40 10 41 12 43
REMARK H PARENT 38 24 32 31 30 33 18 35 10 42 12 44
REMARK Flexibility Score: inf
ROOT
ATOM      1  C   UNL     1     112.466 108.228  99.025  1.00  0.00     0.045 C 
ATOM      2  C   UNL     1     112.779 109.693  99.217  1.00  0.00    -0.039 A 
ATOM      3  C   UNL     1     112.228 110.630  98.340  1.00  0.00     0.013 A 
ATOM      4  C   UNL     1     112.448 112.014  98.488  1.00  0.00    -0.006 A 
ATOM      5  C   UNL     1     113.300 112.459  99.545  1.00  0.00     0.039 A 
ATOM      6  C   UNL     1     113.516 113.856  99.711  1.00  0.00     0.072 A 
ATOM      7  C   UNL     1     113.103 114.747  98.712  1.00  0.00     0.169 A 
ATOM      8  C   UNL     1     112.333 114.302  97.634  1.00  0.00     0.162 A 
ATOM      9  C   UNL     1     111.863 112.964  97.590  1.00  0.00     0.008 A 
ATOM     10  C   UNL     1     113.956 111.493 100.363  1.00  0.00     0.132 A 
ATOM     11  C   UNL     1     113.665 110.121 100.219  1.00  0.00     0.031 A 
ENDROOT
BRANCH  11  12
ATOM     12  C   UNL     1     114.324 109.122 101.102  1.00  0.00     0.031 A 
ATOM     13  C   UNL     1     113.766 108.810 102.360  1.00  0.00     0.132 A 
ATOM     14  C   UNL     1     115.488 108.469 100.667  1.00  0.00    -0.039 A 
ATOM     15  C   UNL     1     114.400 107.858 103.218  1.00  0.00     0.039 A 
ATOM     16  C   UNL     1     116.095 107.524 101.493  1.00  0.00     0.013 A 
ATOM     17  C   UNL     1     116.093 108.772  99.317  1.00  0.00     0.045 C 
ATOM     18  C   UNL     1     115.608 107.229 102.780  1.00  0.00    -0.006 A 
ATOM     19  C   UNL     1     113.849 107.488 104.483  1.00  0.00     0.072 A 
ATOM     20  C   UNL     1     116.285 106.297 103.631  1.00  0.00     0.008 A 
ATOM     21  C   UNL     1     114.447 106.454 105.231  1.00  0.00     0.169 A 
ATOM     22  C   UNL     1     115.611 105.834 104.787  1.00  0.00     0.162 A 
BRANCH  13  23
ATOM     23  O   UNL     1     112.575 109.434 102.748  1.00  0.00    -0.507 OA
ATOM     24  H   UNL     1     111.679 109.268 102.308  1.00  0.00     0.293 HD
ENDBRANCH  13  23
BRANCH  19  25
ATOM     25  C   UNL     1     112.654 108.151 105.042  1.00  0.00     0.264 C 
ATOM     26  O   UNL     1     111.538 107.568 105.042  1.00  0.00    -0.298 OA
ENDBRANCH  19  25
BRANCH  20  27
ATOM     27  C   UNL     1     117.738 105.834 103.405  1.00  0.00     0.017 C 
ATOM     28  C   UNL     1     117.961 105.276 101.993  1.00  0.00     0.012 C 
ATOM     29  C   UNL     1     118.811 106.863 103.819  1.00  0.00     0.012 C 
ENDBRANCH  20  27
BRANCH  21  30
ATOM     30  O   UNL     1     113.916 106.024 106.453  1.00  0.00    -0.504 OA
ATOM     31  H   UNL     1     114.458 105.916 107.300  1.00  0.00     0.293 HD
ENDBRANCH  21  30
BRANCH  22  32
ATOM     32  O   UNL     1     116.074 104.747 105.538  1.00  0.00    -0.504 OA
ATOM     33  H   UNL     1     116.803 104.117 105.232  1.00  0.00     0.293 HD
ENDBRANCH  22  32
ENDBRANCH  11  12
BRANCH  10  34
ATOM     34  O   UNL     1     114.936 111.896 101.277  1.00  0.00    -0.507 OA
ATOM     35  H   UNL     1     115.915 112.006 101.044  1.00  0.00     0.293 HD
ENDBRANCH  10  34
BRANCH   9  36
ATOM     36  C   UNL     1     110.710 112.630  96.624  1.00  0.00     0.017 C 
ATOM     37  C   UNL     1     109.433 113.420  96.944  1.00  0.00     0.012 C 
ATOM     38  C   UNL     1     111.091 112.686  95.130  1.00  0.00     0.012 C 
ENDBRANCH   9  36
BRANCH   6  39
ATOM     39  C   UNL     1     114.107 114.449 100.932  1.00  0.00     0.264 C 
ATOM     40  O   UNL     1     115.284 114.897 100.925  1.00  0.00    -0.298 OA
ENDBRANCH   6  39
BRANCH   8  41
ATOM     41  O   UNL     1     112.045 115.223  96.621  1.00  0.00    -0.504 OA
ATOM     42  H   UNL     1     111.112 115.545  96.397  1.00  0.00     0.293 HD
ENDBRANCH   8  41
BRANCH   7  43
ATOM     43  O   UNL     1     113.451 116.097  98.812  1.00  0.00    -0.504 OA
ATOM     44  H   UNL     1     113.977 116.584  98.096  1.00  0.00     0.293 HD
ENDBRANCH   7  43
TORSDOF 11
ENDMDL
MODEL 5
REMARK VINA RESULT:    -4.930      8.654     11.859
REMARK INTER + INTRA:          -8.902
REMARK INTER:                  -7.288
REMARK INTRA:                  -1.614
REMARK UNBOUND:                -1.666
REMARK SMILES Cc1cc2c(C(C)C)c(O)c(O)c(C=O)c2c(O)c1-c1c(C)cc2c(C(C)C)c(O)c(O)c(C=O)c2c1O
REMARK SMILES IDX 1 1 2 2 3 3 4 4 16 5 13 6 11 7 9 8 5 9 17 10 19 11 20 12
REMARK SMILES IDX 37 13 21 14 36 15 23 16 22 17 24 18 33 19 25 20 31 21 29 22
REMARK SMILES IDX 38 23 34 25 35 26 26 27 27 28 28 29 32 30 30 32 18 34 6 36
REMARK SMILES IDX 7 37 8 38 14 39 15 40 10 41 12 43
REMARK H PARENT 38 24 32 31 30 33 18 35 10 42 12 44
REMARK Flexibility Score: inf
ROOT
ATOM      1  C   UNL     1     106.282 105.350  99.016  1.00  0.00     0.045 C 
ATOM      2  C   UNL     1     107.423 104.383  99.216  1.00  0.00    -0.039 A 
ATOM      3  C   UNL     1     108.513 104.422  98.344  1.00  0.00     0.013 A 
ATOM      4  C   UNL     1     109.628 103.575  98.499  1.00  0.00    -0.006 A 
ATOM      5  C   UNL     1     109.614 102.617  99.560  1.00  0.00     0.039 A 
ATOM      6  C   UNL     1     110.742 101.768  99.734  1.00  0.00     0.072 A 
ATOM      7  C   UNL     1     111.726 101.707  98.739  1.00  0.00     0.169 A 
ATOM      8  C   UNL     1     111.702 102.591  97.657  1.00  0.00     0.162 A 
ATOM      9  C   UNL     1     110.745 103.638  97.605  1.00  0.00     0.008 A 
ATOM     10  C   UNL     1     108.449 102.500 100.375  1.00  0.00     0.132 A 
ATOM     11  C   UNL     1     107.378 103.405 100.223  1.00  0.00     0.031 A 
ENDROOT
BRANCH  11  12
ATOM     12  C   UNL     1     106.183 103.300 101.102  1.00  0.00     0.031 A 
ATOM     13  C   UNL     1     106.175 103.926 102.366  1.00  0.00     0.132 A 
ATOM     14  C   UNL     1     105.051 102.599 100.657  1.00  0.00    -0.039 A 
ATOM     15  C   UNL     1     105.033 103.821 103.220  1.00  0.00     0.039 A 
ATOM     16  C   UNL     1     103.928 102.514 101.479  1.00  0.00     0.013 A 
ATOM     17  C   UNL     1     105.028 101.937  99.299  1.00  0.00     0.045 C 
ATOM     18  C   UNL     1     103.901 103.070 102.772  1.00  0.00    -0.006 A 
ATOM     19  C   UNL     1     104.972 104.469 104.491  1.00  0.00     0.072 A 
ATOM     20  C   UNL     1     102.757 102.918 103.618  1.00  0.00     0.008 A 
ATOM     21  C   UNL     1     103.776 104.436 105.236  1.00  0.00     0.169 A 
ATOM     22  C   UNL     1     102.672 103.719 104.782  1.00  0.00     0.162 A 
BRANCH  13  23
ATOM     23  O   UNL     1     107.295 104.665 102.765  1.00  0.00    -0.507 OA
ATOM     24  H   UNL     1     107.424 105.039 103.697  1.00  0.00     0.293 HD
ENDBRANCH  13  23
BRANCH  19  25
ATOM     25  C   UNL     1     106.128 105.190 105.061  1.00  0.00     0.264 C 
ATOM     26  O   UNL     1     106.160 106.450 105.061  1.00  0.00    -0.298 OA
ENDBRANCH  19  25
BRANCH  20  27
ATOM     27  C   UNL     1     101.651 101.870 103.379  1.00  0.00     0.017 C 
ATOM     28  C   UNL     1     101.017 101.996 101.987  1.00  0.00     0.012 C 
ATOM     29  C   UNL     1     102.054 100.421 103.725  1.00  0.00     0.012 C 
ENDBRANCH  20  27
BRANCH  21  30
ATOM     30  O   UNL     1     103.651 105.096 106.465  1.00  0.00    -0.504 OA
ATOM     31  H   UNL     1     103.614 106.100 106.569  1.00  0.00     0.293 HD
ENDBRANCH  21  30
BRANCH  22  32
ATOM     32  O   UNL     1     101.495 103.830 105.532  1.00  0.00    -0.504 OA
ATOM     33  H   UNL     1     100.573 103.632 105.169  1.00  0.00     0.293 HD
ENDBRANCH  22  32
ENDBRANCH  11  12
BRANCH  10  34
ATOM     34  O   UNL     1     108.338 101.450 101.293  1.00  0.00    -0.507 OA
ATOM     35  H   UNL     1     108.616 101.518 102.264  1.00  0.00     0.293 HD
ENDBRANCH  10  34
BRANCH   9  36
ATOM     36  C   UNL     1     110.999 104.807  96.635  1.00  0.00     0.017 C 
ATOM     37  C   UNL     1     112.307 105.549  96.945  1.00  0.00     0.012 C 
ATOM     38  C   UNL     1     110.856 104.443  95.143  1.00  0.00     0.012 C 
ENDBRANCH   9  36
BRANCH   6  39
ATOM     39  C   UNL     1     110.981 100.972 100.959  1.00  0.00     0.264 C 
ATOM     40  O   UNL     1     110.824  99.722 100.956  1.00  0.00    -0.298 OA
ENDBRANCH   6  39
BRANCH   8  41
ATOM     41  O   UNL     1     112.654 102.405  96.648  1.00  0.00    -0.504 OA
ATOM     42  H   UNL     1     112.561 101.730  95.900  1.00  0.00     0.293 HD
ENDBRANCH   8  41
BRANCH   7  43
ATOM     43  O   UNL     1     112.751 100.762  98.847  1.00  0.00    -0.504 OA
ATOM     44  H   UNL     1     113.594 100.799  98.286  1.00  0.00     0.293 HD
ENDBRANCH   7  43
TORSDOF 11
ENDMDL
MODEL 6
REMARK VINA RESULT:    -4.904      5.028      6.721
REMARK INTER + INTRA:          -8.864
REMARK INTER:                  -7.231
REMARK INTRA:                  -1.633
REMARK UNBOUND:                -1.666
REMARK SMILES Cc1cc2c(C(C)C)c(O)c(O)c(C=O)c2c(O)c1-c1c(C)cc2c(C(C)C)c(O)c(O)c(C=O)c2c1O
REMARK SMILES IDX 1 1 2 2 3 3 4 4 16 5 13 6 11 7 9 8 5 9 17 10 19 11 20 12
REMARK SMILES IDX 37 13 21 14 36 15 23 16 22 17 24 18 33 19 25 20 31 21 29 22
REMARK SMILES IDX 38 23 34 25 35 26 26 27 27 28 28 29 32 30 30 32 18 34 6 36
REMARK SMILES IDX 7 37 8 38 14 39 15 40 10 41 12 43
REMARK H PARENT 38 24 32 31 30 33 18 35 10 42 12 44
REMARK Flexibility Score: inf
ROOT
ATOM      1  C   UNL     1     110.715 111.791  98.903  1.00  0.00     0.045 C 
ATOM      2  C   UNL     1     109.615 112.812  99.071  1.00  0.00    -0.039 A 
ATOM      3  C   UNL     1     108.544 112.814  98.175  1.00  0.00     0.013 A 
ATOM      4  C   UNL     1     107.466 113.713  98.300  1.00  0.00    -0.006 A 
ATOM      5  C   UNL     1     107.502 114.678  99.353  1.00  0.00     0.039 A 
ATOM      6  C   UNL     1     106.410 115.580  99.496  1.00  0.00     0.072 A 
ATOM      7  C   UNL     1     105.451 115.677  98.479  1.00  0.00     0.169 A 
ATOM      8  C   UNL     1     105.458 114.783  97.405  1.00  0.00     0.162 A 
ATOM      9  C   UNL     1     106.366 113.693  97.382  1.00  0.00     0.008 A 
ATOM     10  C   UNL     1     108.652 114.750 100.191  1.00  0.00     0.132 A 
ATOM     11  C   UNL     1     109.684 113.796 100.070  1.00  0.00     0.031 A 
ENDROOT
BRANCH  11  12
ATOM     12  C   UNL     1     110.864 113.854 100.974  1.00  0.00     0.031 A 
ATOM     13  C   UNL     1     110.827 113.214 102.230  1.00  0.00     0.132 A 
ATOM     14  C   UNL     1     112.025 114.524 100.560  1.00  0.00    -0.039 A 
ATOM     15  C   UNL     1     111.954 113.274 103.108  1.00  0.00     0.039 A 
ATOM     16  C   UNL     1     113.134 114.565 101.405  1.00  0.00     0.013 A 
ATOM     17  C   UNL     1     112.096 115.200  99.211  1.00  0.00     0.045 C 
ATOM     18  C   UNL     1     113.118 113.994 102.692  1.00  0.00    -0.006 A 
ATOM     19  C   UNL     1     111.969 112.610 104.373  1.00  0.00     0.072 A 
ATOM     20  C   UNL     1     114.249 114.102 103.562  1.00  0.00     0.008 A 
ATOM     21  C   UNL     1     113.151 112.597 105.142  1.00  0.00     0.169 A 
ATOM     22  C   UNL     1     114.285 113.285 104.718  1.00  0.00     0.162 A 
BRANCH  13  23
ATOM     23  O   UNL     1     109.677 112.505 102.598  1.00  0.00    -0.507 OA
ATOM     24  H   UNL     1     109.312 112.469 103.542  1.00  0.00     0.293 HD
ENDBRANCH  13  23
BRANCH  19  25
ATOM     25  C   UNL     1     110.781 111.919 104.911  1.00  0.00     0.264 C 
ATOM     26  O   UNL     1     110.715 110.661 104.906  1.00  0.00    -0.298 OA
ENDBRANCH  19  25
BRANCH  20  27
ATOM     27  C   UNL     1     115.391 115.117 103.357  1.00  0.00     0.017 C 
ATOM     28  C   UNL     1     116.032 115.004 101.968  1.00  0.00     0.012 C 
ATOM     29  C   UNL     1     115.033 116.570 103.735  1.00  0.00     0.012 C 
ENDBRANCH  20  27
BRANCH  21  30
ATOM     30  O   UNL     1     113.230 111.921 106.365  1.00  0.00    -0.504 OA
ATOM     31  H   UNL     1     112.572 112.040 107.123  1.00  0.00     0.293 HD
ENDBRANCH  21  30
BRANCH  22  32
ATOM     32  O   UNL     1     115.442 113.130 105.490  1.00  0.00    -0.504 OA
ATOM     33  H   UNL     1     116.347 113.500 105.232  1.00  0.00     0.293 HD
ENDBRANCH  22  32
ENDBRANCH  11  12
BRANCH  10  34
ATOM     34  O   UNL     1     108.793 115.801 101.103  1.00  0.00    -0.507 OA
ATOM     35  H   UNL     1     108.015 116.255 101.567  1.00  0.00     0.293 HD
ENDBRANCH  10  34
BRANCH   9  36
ATOM     36  C   UNL     1     106.079 112.528  96.416  1.00  0.00     0.017 C 
ATOM     37  C   UNL     1     104.726 111.858  96.695  1.00  0.00     0.012 C 
ATOM     38  C   UNL     1     106.284 112.868  94.926  1.00  0.00     0.012 C 
ENDBRANCH   9  36
BRANCH   6  39
ATOM     39  C   UNL     1     106.182 116.397 100.709  1.00  0.00     0.264 C 
ATOM     40  O   UNL     1     106.396 117.638 100.699  1.00  0.00    -0.298 OA
ENDBRANCH   6  39
BRANCH   8  41
ATOM     41  O   UNL     1     104.537 115.003  96.374  1.00  0.00    -0.504 OA
ATOM     42  H   UNL     1     103.617 114.582  96.338  1.00  0.00     0.293 HD
ENDBRANCH   8  41
BRANCH   7  43
ATOM     43  O   UNL     1     104.468 116.668  98.557  1.00  0.00    -0.504 OA
ATOM     44  H   UNL     1     103.746 116.783  97.856  1.00  0.00     0.293 HD
ENDBRANCH   7  43
TORSDOF 11
ENDMDL
MODEL 7
REMARK VINA RESULT:    -4.878      7.223     11.134
REMARK INTER + INTRA:          -8.825
REMARK INTER:                  -7.033
REMARK INTRA:                  -1.792
REMARK UNBOUND:                -1.666
REMARK SMILES Cc1cc2c(C(C)C)c(O)c(O)c(C=O)c2c(O)c1-c1c(C)cc2c(C(C)C)c(O)c(O)c(C=O)c2c1O
REMARK SMILES IDX 1 1 2 2 3 3 4 4 16 5 13 6 11 7 9 8 5 9 17 10 19 11 20 12
REMARK SMILES IDX 37 13 21 14 36 15 23 16 22 17 24 18 33 19 25 20 31 21 29 22
REMARK SMILES IDX 38 23 34 25 35 26 26 27 27 28 28 29 32 30 30 32 18 34 6 36
REMARK SMILES IDX 7 37 8 38 14 39 15 40 10 41 12 43
REMARK H PARENT 38 24 32 31 30 33 18 35 10 42 12 44
REMARK Flexibility Score: inf
ROOT
ATOM      1  C   UNL     1     111.338 111.223 101.646  1.00  0.00     0.045 C 
ATOM      2  C   UNL     1     112.409 112.182 102.109  1.00  0.00    -0.039 A 
ATOM      3  C   UNL     1     113.274 112.745 101.169  1.00  0.00     0.013 A 
ATOM      4  C   UNL     1     114.267 113.678 101.529  1.00  0.00    -0.006 A 
ATOM      5  C   UNL     1     114.416 114.016 102.909  1.00  0.00     0.039 A 
ATOM      6  C   UNL     1     115.406 114.969 103.281  1.00  0.00     0.072 A 
ATOM      7  C   UNL     1     116.370 115.369 102.346  1.00  0.00     0.169 A 
ATOM      8  C   UNL     1     116.272 114.977 101.008  1.00  0.00     0.162 A 
ATOM      9  C   UNL     1     115.137 114.259 100.551  1.00  0.00     0.008 A 
ATOM     10  C   UNL     1     113.611 113.350 103.879  1.00  0.00     0.132 A 
ATOM     11  C   UNL     1     112.589 112.466 103.473  1.00  0.00     0.031 A 
ENDROOT
BRANCH  11  12
ATOM     12  C   UNL     1     111.728 111.804 104.488  1.00  0.00     0.031 A 
ATOM     13  C   UNL     1     110.544 112.430 104.931  1.00  0.00     0.132 A 
ATOM     14  C   UNL     1     112.083 110.540 104.984  1.00  0.00    -0.039 A 
ATOM     15  C   UNL     1     109.716 111.803 105.914  1.00  0.00     0.039 A 
ATOM     16  C   UNL     1     111.266 109.916 105.926  1.00  0.00     0.013 A 
ATOM     17  C   UNL     1     113.336 109.841 104.511  1.00  0.00     0.045 C 
ATOM     18  C   UNL     1     110.110 110.532 106.442  1.00  0.00    -0.006 A 
ATOM     19  C   UNL     1     108.492 112.386 106.362  1.00  0.00     0.072 A 
ATOM     20  C   UNL     1     109.321 109.896 107.452  1.00  0.00     0.008 A 
ATOM     21  C   UNL     1     107.654 111.668 107.238  1.00  0.00     0.169 A 
ATOM     22  C   UNL     1     108.037 110.423 107.730  1.00  0.00     0.162 A 
BRANCH  13  23
ATOM     23  O   UNL     1     110.182 113.665 104.381  1.00  0.00    -0.507 OA
ATOM     24  H   UNL     1     110.051 114.510 104.923  1.00  0.00     0.293 HD
ENDBRANCH  13  23
BRANCH  19  25
ATOM     25  C   UNL     1     108.060 113.730 105.930  1.00  0.00     0.264 C 
ATOM     26  O   UNL     1     107.156 113.865 105.064  1.00  0.00    -0.298 OA
ENDBRANCH  19  25
BRANCH  20  27
ATOM     27  C   UNL     1     109.824 108.720 108.314  1.00  0.00     0.017 C 
ATOM     28  C   UNL     1     109.825 107.391 107.547  1.00  0.00     0.012 C 
ATOM     29  C   UNL     1     111.153 108.987 109.051  1.00  0.00     0.012 C 
ENDBRANCH  20  27
BRANCH  21  30
ATOM     30  O   UNL     1     106.423 112.177 107.668  1.00  0.00    -0.504 OA
ATOM     31  H   UNL     1     106.079 113.099 107.439  1.00  0.00     0.293 HD
ENDBRANCH  21  30
BRANCH  22  32
ATOM     32  O   UNL     1     107.098 109.735 108.508  1.00  0.00    -0.504 OA
ATOM     33  H   UNL     1     106.701 108.840 108.256  1.00  0.00     0.293 HD
ENDBRANCH  22  32
ENDBRANCH  11  12
BRANCH  10  34
ATOM     34  O   UNL     1     113.865 113.525 105.243  1.00  0.00    -0.507 OA
ATOM     35  H   UNL     1     113.323 113.090 105.980  1.00  0.00     0.293 HD
ENDBRANCH  10  34
BRANCH   9  36
ATOM     36  C   UNL     1     114.877 114.202  99.034  1.00  0.00     0.017 C 
ATOM     37  C   UNL     1     115.024 112.782  98.468  1.00  0.00     0.012 C 
ATOM     38  C   UNL     1     113.575 114.895  98.582  1.00  0.00     0.012 C 
ENDBRANCH   9  36
BRANCH   6  39
ATOM     39  C   UNL     1     115.446 115.627 104.606  1.00  0.00     0.264 C 
ATOM     40  O   UNL     1     116.243 115.232 105.498  1.00  0.00    -0.298 OA
ENDBRANCH   6  39
BRANCH   8  41
ATOM     41  O   UNL     1     117.324 115.325 100.154  1.00  0.00    -0.504 OA
ATOM     42  H   UNL     1     117.739 116.247 100.115  1.00  0.00     0.293 HD
ENDBRANCH   8  41
BRANCH   7  43
ATOM     43  O   UNL     1     117.426 116.187 102.760  1.00  0.00    -0.504 OA
ATOM     44  H   UNL     1     117.959 116.012 103.603  1.00  0.00     0.293 HD
ENDBRANCH   7  43
TORSDOF 11
ENDMDL
MODEL 8
REMARK VINA RESULT:    -4.870      7.339      9.107
REMARK INTER + INTRA:          -8.813
REMARK INTER:                  -7.024
REMARK INTRA:                  -1.790
REMARK UNBOUND:                -1.666
REMARK SMILES Cc1cc2c(C(C)C)c(O)c(O)c(C=O)c2c(O)c1-c1c(C)cc2c(C(C)C)c(O)c(O)c(C=O)c2c1O
REMARK SMILES IDX 1 1 2 2 3 3 4 4 16 5 13 6 11 7 9 8 5 9 17 10 19 11 20 12
REMARK SMILES IDX 37 13 21 14 36 15 23 16 22 17 24 18 33 19 25 20 31 21 29 22
REMARK SMILES IDX 38 23 34 25 35 26 26 27 27 28 28 29 32 30 30 32 18 34 6 36
REMARK SMILES IDX 7 37 8 38 14 39 15 40 10 41 12 43
REMARK H PARENT 38 24 32 31 30 33 18 35 10 42 12 44
REMARK Flexibility Score: inf
ROOT
ATOM      1  C   UNL     1     105.587 105.769 101.602  1.00  0.00     0.045 C 
ATOM      2  C   UNL     1     104.535 104.798 102.082  1.00  0.00    -0.039 A 
ATOM      3  C   UNL     1     103.675 104.209 101.153  1.00  0.00     0.013 A 
ATOM      4  C   UNL     1     102.698 103.266 101.529  1.00  0.00    -0.006 A 
ATOM      5  C   UNL     1     102.562 102.942 102.914  1.00  0.00     0.039 A 
ATOM      6  C   UNL     1     101.589 101.979 103.302  1.00  0.00     0.072 A 
ATOM      7  C   UNL     1     100.627 101.551 102.378  1.00  0.00     0.169 A 
ATOM      8  C   UNL     1     100.712 101.928 101.034  1.00  0.00     0.162 A 
ATOM      9  C   UNL     1     101.834 102.658 100.563  1.00  0.00     0.008 A 
ATOM     10  C   UNL     1     103.360 103.634 103.872  1.00  0.00     0.132 A 
ATOM     11  C   UNL     1     104.365 104.529 103.450  1.00  0.00     0.031 A 
ENDROOT
BRANCH  11  12
ATOM     12  C   UNL     1     105.219 105.218 104.453  1.00  0.00     0.031 A 
ATOM     13  C   UNL     1     106.421 104.622 104.890  1.00  0.00     0.132 A 
ATOM     14  C   UNL     1     104.840 106.477 104.942  1.00  0.00    -0.039 A 
ATOM     15  C   UNL     1     107.243 105.275 105.861  1.00  0.00     0.039 A 
ATOM     16  C   UNL     1     105.651 107.126 105.873  1.00  0.00     0.013 A 
ATOM     17  C   UNL     1     103.568 107.145 104.476  1.00  0.00     0.045 C 
ATOM     18  C   UNL     1     106.825 106.540 106.383  1.00  0.00    -0.006 A 
ATOM     19  C   UNL     1     108.484 104.722 106.303  1.00  0.00     0.072 A 
ATOM     20  C   UNL     1     107.609 107.201 107.382  1.00  0.00     0.008 A 
ATOM     21  C   UNL     1     109.313 105.466 107.166  1.00  0.00     0.169 A 
ATOM     22  C   UNL     1     108.906 106.705 107.653  1.00  0.00     0.162 A 
BRANCH  13  23
ATOM     23  O   UNL     1     106.806 103.391 104.346  1.00  0.00    -0.507 OA
ATOM     24  H   UNL     1     106.822 102.522 104.865  1.00  0.00     0.293 HD
ENDBRANCH  13  23
BRANCH  19  25
ATOM     25  C   UNL     1     108.943 103.385 105.877  1.00  0.00     0.264 C 
ATOM     26  O   UNL     1     109.830 103.264 104.991  1.00  0.00    -0.298 OA
ENDBRANCH  19  25
BRANCH  20  27
ATOM     27  C   UNL     1     107.087 108.372 108.239  1.00  0.00     0.017 C 
ATOM     28  C   UNL     1     107.045 109.694 107.461  1.00  0.00     0.012 C 
ATOM     29  C   UNL     1     105.773 108.079 108.994  1.00  0.00     0.012 C 
ENDBRANCH  20  27
BRANCH  21  30
ATOM     30  O   UNL     1     110.559 104.987 107.589  1.00  0.00    -0.504 OA
ATOM     31  H   UNL     1     110.783 104.008 107.700  1.00  0.00     0.293 HD
ENDBRANCH  21  30
BRANCH  22  32
ATOM     32  O   UNL     1     109.837 107.419 108.417  1.00  0.00    -0.504 OA
ATOM     33  H   UNL     1     109.865 108.428 108.476  1.00  0.00     0.293 HD
ENDBRANCH  22  32
ENDBRANCH  11  12
BRANCH  10  34
ATOM     34  O   UNL     1     103.115 103.472 105.240  1.00  0.00    -0.507 OA
ATOM     35  H   UNL     1     102.419 103.997 105.755  1.00  0.00     0.293 HD
ENDBRANCH  10  34
BRANCH   9  36
ATOM     36  C   UNL     1     102.086 102.700  99.043  1.00  0.00     0.017 C 
ATOM     37  C   UNL     1     101.862 104.099  98.452  1.00  0.00     0.012 C 
ATOM     38  C   UNL     1     103.422 102.069  98.600  1.00  0.00     0.012 C 
ENDBRANCH   9  36
BRANCH   6  39
ATOM     39  C   UNL     1     101.565 101.336 104.636  1.00  0.00     0.264 C 
ATOM     40  O   UNL     1     100.788 101.750 105.537  1.00  0.00    -0.298 OA
ENDBRANCH   6  39
BRANCH   8  41
ATOM     41  O   UNL     1      99.663 101.551 100.189  1.00  0.00    -0.504 OA
ATOM     42  H   UNL     1      99.790 101.067  99.310  1.00  0.00     0.293 HD
ENDBRANCH   8  41
BRANCH   7  43
ATOM     43  O   UNL     1      99.587 100.721 102.806  1.00  0.00    -0.504 OA
ATOM     44  H   UNL     1      99.089 100.869 103.676  1.00  0.00     0.293 HD
ENDBRANCH   7  43
TORSDOF 11
ENDMDL
MODEL 9
REMARK VINA RESULT:    -4.843      8.033     12.402
REMARK INTER + INTRA:          -8.774
REMARK INTER:                  -7.230
REMARK INTRA:                  -1.544
REMARK UNBOUND:                -1.666
REMARK SMILES Cc1cc2c(C(C)C)c(O)c(O)c(C=O)c2c(O)c1-c1c(C)cc2c(C(C)C)c(O)c(O)c(C=O)c2c1O
REMARK SMILES IDX 1 1 2 2 3 3 4 4 16 5 13 6 11 7 9 8 5 9 17 10 19 11 20 12
REMARK SMILES IDX 37 13 21 14 36 15 23 16 22 17 24 18 33 19 25 20 31 21 29 22
REMARK SMILES IDX 38 23 34 25 35 26 26 27 27 28 28 29 32 30 30 32 18 34 6 36
REMARK SMILES IDX 7 37 8 38 14 39 15 40 10 41 12 43
REMARK H PARENT 38 24 32 31 30 33 18 35 10 42 12 44
REMARK Flexibility Score: inf
ROOT
ATOM      1  C   UNL     1     105.410 106.008 100.076  1.00  0.00     0.045 C 
ATOM      2  C   UNL     1     104.618 105.075 100.961  1.00  0.00    -0.039 A 
ATOM      3  C   UNL     1     104.421 105.410 102.302  1.00  0.00     0.013 A 
ATOM      4  C   UNL     1     103.658 104.604 103.171  1.00  0.00    -0.006 A 
ATOM      5  C   UNL     1     103.111 103.384 102.664  1.00  0.00     0.039 A 
ATOM      6  C   UNL     1     102.327 102.571 103.530  1.00  0.00     0.072 A 
ATOM      7  C   UNL     1     102.305 102.840 104.905  1.00  0.00     0.169 A 
ATOM      8  C   UNL     1     102.905 103.994 105.416  1.00  0.00     0.162 A 
ATOM      9  C   UNL     1     103.451 104.968 104.540  1.00  0.00     0.008 A 
ATOM     10  C   UNL     1     103.415 102.988 101.329  1.00  0.00     0.132 A 
ATOM     11  C   UNL     1     104.134 103.850 100.475  1.00  0.00     0.031 A 
ENDROOT
BRANCH  11  12
ATOM     12  C   UNL     1     104.414 103.446  99.071  1.00  0.00     0.031 A 
ATOM     13  C   UNL     1     105.591 102.733  98.761  1.00  0.00     0.132 A 
ATOM     14  C   UNL     1     103.490 103.753  98.061  1.00  0.00    -0.039 A 
ATOM     15  C   UNL     1     105.871 102.349  97.412  1.00  0.00     0.039 A 
ATOM     16  C   UNL     1     103.751 103.361  96.748  1.00  0.00     0.013 A 
ATOM     17  C   UNL     1     102.214 104.500  98.372  1.00  0.00     0.045 C 
ATOM     18  C   UNL     1     104.941 102.703  96.384  1.00  0.00    -0.006 A 
ATOM     19  C   UNL     1     107.032 101.595  97.061  1.00  0.00     0.072 A 
ATOM     20  C   UNL     1     105.210 102.364  95.020  1.00  0.00     0.008 A 
ATOM     21  C   UNL     1     107.196 101.137  95.738  1.00  0.00     0.169 A 
ATOM     22  C   UNL     1     106.274 101.470  94.750  1.00  0.00     0.162 A 
BRANCH  13  23
ATOM     23  O   UNL     1     106.471 102.390  99.794  1.00  0.00    -0.507 OA
ATOM     24  H   UNL     1     107.461 102.226  99.664  1.00  0.00     0.293 HD
ENDBRANCH  13  23
BRANCH  19  25
ATOM     25  C   UNL     1     108.081 101.265  98.047  1.00  0.00     0.264 C 
ATOM     26  O   UNL     1     109.146 101.935  98.098  1.00  0.00    -0.298 OA
ENDBRANCH  19  25
BRANCH  20  27
ATOM     27  C   UNL     1     104.462 102.982  93.822  1.00  0.00     0.017 C 
ATOM     28  C   UNL     1     105.309 104.022  93.077  1.00  0.00     0.012 C 
ATOM     29  C   UNL     1     103.805 101.955  92.876  1.00  0.00     0.012 C 
ENDBRANCH  20  27
BRANCH  21  30
ATOM     30  O   UNL     1     108.293 100.355  95.356  1.00  0.00    -0.504 OA
ATOM     31  H   UNL     1     108.846  99.803  95.997  1.00  0.00     0.293 HD
ENDBRANCH  21  30
BRANCH  22  32
ATOM     32  O   UNL     1     106.458 100.884  93.492  1.00  0.00    -0.504 OA
ATOM     33  H   UNL     1     106.800 101.381  92.680  1.00  0.00     0.293 HD
ENDBRANCH  22  32
ENDBRANCH  11  12
BRANCH  10  34
ATOM     34  O   UNL     1     103.050 101.717 100.873  1.00  0.00    -0.507 OA
ATOM     35  H   UNL     1     103.155 101.408  99.914  1.00  0.00     0.293 HD
ENDBRANCH  10  34
BRANCH   9  36
ATOM     36  C   UNL     1     103.729 106.375 105.102  1.00  0.00     0.017 C 
ATOM     37  C   UNL     1     105.174 106.532 105.595  1.00  0.00     0.012 C 
ATOM     38  C   UNL     1     103.279 107.531 104.184  1.00  0.00     0.012 C 
ENDBRANCH   9  36
BRANCH   6  39
ATOM     39  C   UNL     1     101.460 101.471 103.050  1.00  0.00     0.264 C 
ATOM     40  O   UNL     1     101.702 100.276 103.367  1.00  0.00    -0.298 OA
ENDBRANCH   6  39
BRANCH   8  41
ATOM     41  O   UNL     1     102.937 104.145 106.806  1.00  0.00    -0.504 OA
ATOM     42  H   UNL     1     102.928 105.040 107.278  1.00  0.00     0.293 HD
ENDBRANCH   8  41
BRANCH   7  43
ATOM     43  O   UNL     1     101.654 101.950 105.765  1.00  0.00    -0.504 OA
ATOM     44  H   UNL     1     100.779 101.498 105.529  1.00  0.00     0.293 HD
ENDBRANCH   7  43
TORSDOF 11
ENDMDL
