MODEL 1
REMARK VINA RESULT:     9.859      0.000      0.000
REMARK INTER + INTRA:          16.528
REMARK INTER:                  15.046
REMARK INTRA:                   1.482
REMARK UNBOUND:                 1.482
REMARK SMILES CC1=CCC[C@@H](C)C(=O)C[C@H](C(C)C)C(=O)C1
REMARK SMILES IDX 8 1 9 2 6 3 7 4 5 5 4 6 3 7 2 8 1 9 10 11 11 12 15 13 16 14
REMARK SMILES IDX 17 15 12 17 13 18 14 19
REMARK H PARENT
REMARK Flexibility Score: 70.00
ROOT
ATOM      1  C   UNL     1      -2.068   5.959   8.293  1.00  0.00     0.136 C 
ATOM      2  O   UNL     1      -1.351   5.060   8.697  1.00  0.00    -0.299 OA
ENDROOT
BRANCH   1   3
ATOM      3  C   UNL     1      -2.150   7.242   9.101  1.00  0.00     0.053 C 
ATOM      4  C   UNL     1      -0.808   7.527   9.792  1.00  0.00     0.016 C 
BRANCH   3   5
ATOM      5  C   UNL     1      -3.304   7.208  10.125  1.00  0.00     0.015 C 
BRANCH   5   6
ATOM      6  C   UNL     1      -4.572   6.552   9.547  1.00  0.00     0.028 C 
BRANCH   6   7
ATOM      7  C   UNL     1      -4.779   5.175  10.119  1.00  0.00    -0.028 C 
ATOM      8  C   UNL     1      -5.115   4.082   9.396  1.00  0.00    -0.070 CG0
ATOM      9  C   UNL     1      -5.262   2.771  10.125  1.00  0.00     0.039 C 
ATOM     10  G   UNL     1      -5.387   4.116   7.899  1.00  0.00     0.000 G0
ENDBRANCH   6   7
ENDBRANCH   5   6
ENDBRANCH   3   5
ENDBRANCH   1   3
BRANCH   1  11
ATOM     11  C   UNL     1      -2.990   5.706   7.121  1.00  0.00     0.087 C 
BRANCH  11  12
ATOM     12  C   UNL     1      -3.079   4.253   6.566  1.00  0.00     0.066 C 
BRANCH  12  13
ATOM     13  C   UNL     1      -4.222   3.434   7.162  1.00  0.00     0.140 C 
ATOM     14  O   UNL     1      -4.237   2.228   6.956  1.00  0.00    -0.299 OA
BRANCH  13  15
ATOM     15  C   UNL     1      -5.372   4.046   7.932  1.00  0.00     0.106 CG0
ATOM     16  G   UNL     1      -5.095   4.144   9.426  1.00  0.00     0.000 G0
ENDBRANCH  13  15
ENDBRANCH  12  13
BRANCH  12  17
ATOM     17  C   UNL     1      -2.816   4.021   5.034  1.00  0.00    -0.006 C 
ATOM     18  C   UNL     1      -1.410   4.362   4.513  1.00  0.00     0.008 C 
ATOM     19  C   UNL     1      -3.224   2.613   4.572  1.00  0.00     0.008 C 
ENDBRANCH  12  17
ENDBRANCH  11  12
ENDBRANCH   1  11
TORSDOF 1
ENDMDL
MODEL 2
REMARK VINA RESULT:    10.272      1.766      2.865
REMARK INTER + INTRA:          17.158
REMARK INTER:                  16.384
REMARK INTRA:                   0.774
REMARK UNBOUND:                 1.482
REMARK SMILES CC1=CCC[C@@H](C)C(=O)C[C@H](C(C)C)C(=O)C1
REMARK SMILES IDX 8 1 9 2 6 3 7 4 5 5 4 6 3 7 2 8 1 9 10 11 11 12 15 13 16 14
REMARK SMILES IDX 17 15 12 17 13 18 14 19
REMARK H PARENT
REMARK Flexibility Score: 70.00
ROOT
ATOM      1  C   UNL     1      -3.211   4.776   6.062  1.00  0.00     0.136 C 
ATOM      2  O   UNL     1      -2.180   4.846   5.416  1.00  0.00    -0.299 OA
ENDROOT
BRANCH   1   3
ATOM      3  C   UNL     1      -3.542   5.902   7.027  1.00  0.00     0.053 C 
ATOM      4  C   UNL     1      -4.056   7.129   6.262  1.00  0.00     0.016 C 
BRANCH   3   5
ATOM      5  C   UNL     1      -2.339   6.269   7.921  1.00  0.00     0.015 C 
BRANCH   5   6
ATOM      6  C   UNL     1      -2.650   6.081   9.418  1.00  0.00     0.028 C 
BRANCH   6   7
ATOM      7  C   UNL     1      -4.127   6.197   9.684  1.00  0.00    -0.028 C 
ATOM      8  C   UNL     1      -4.967   5.148   9.838  1.00  0.00    -0.070 CG0
ATOM      9  C   UNL     1      -6.418   5.442  10.122  1.00  0.00     0.039 C 
ATOM     10  G   UNL     1      -4.533   3.696   9.703  1.00  0.00     0.000 G0
ENDBRANCH   6   7
ENDBRANCH   5   6
ENDBRANCH   3   5
ENDBRANCH   1   3
BRANCH   1  11
ATOM     11  C   UNL     1      -4.025   3.501   6.030  1.00  0.00     0.087 C 
BRANCH  11  12
ATOM     12  C   UNL     1      -4.033   2.612   7.309  1.00  0.00     0.066 C 
BRANCH  12  13
ATOM     13  C   UNL     1      -4.978   3.109   8.401  1.00  0.00     0.140 C 
ATOM     14  O   UNL     1      -6.183   3.047   8.194  1.00  0.00    -0.299 OA
BRANCH  13  15
ATOM     15  C   UNL     1      -4.502   3.737   9.692  1.00  0.00     0.106 CG0
ATOM     16  G   UNL     1      -5.008   5.160   9.877  1.00  0.00     0.000 G0
ENDBRANCH  13  15
ENDBRANCH  12  13
BRANCH  12  17
ATOM     17  C   UNL     1      -3.975   1.050   7.133  1.00  0.00    -0.006 C 
ATOM     18  C   UNL     1      -4.775   0.455   5.963  1.00  0.00     0.008 C 
ATOM     19  C   UNL     1      -2.534   0.512   7.115  1.00  0.00     0.008 C 
ENDBRANCH  12  17
ENDBRANCH  11  12
ENDBRANCH   1  11
TORSDOF 1
ENDMDL
MODEL 3
REMARK VINA RESULT:    10.490      1.832      4.531
REMARK INTER + INTRA:          17.491
REMARK INTER:                   9.788
REMARK INTRA:                   7.703
REMARK UNBOUND:                 1.482
REMARK SMILES CC1=CCC[C@@H](C)C(=O)C[C@H](C(C)C)C(=O)C1
REMARK SMILES IDX 8 1 9 2 6 3 7 4 5 5 4 6 3 7 2 8 1 9 10 11 11 12 15 13 16 14
REMARK SMILES IDX 17 15 12 17 13 18 14 19
REMARK H PARENT
REMARK Flexibility Score: 70.00
ROOT
ATOM      1  C   UNL     1      -3.522   2.809   7.938  1.00  0.00     0.136 C 
ATOM      2  O   UNL     1      -2.836   1.922   7.461  1.00  0.00    -0.299 OA
ENDROOT
BRANCH   1   3
ATOM      3  C   UNL     1      -4.045   3.898   7.017  1.00  0.00     0.053 C 
ATOM      4  C   UNL     1      -3.188   3.981   5.745  1.00  0.00     0.016 C 
BRANCH   3   5
ATOM      5  C   UNL     1      -4.119   5.267   7.725  1.00  0.00     0.015 C 
BRANCH   5   6
ATOM      6  C   UNL     1      -3.330   6.354   6.971  1.00  0.00     0.028 C 
BRANCH   6   7
ATOM      7  C   UNL     1      -2.582   7.243   7.928  1.00  0.00    -0.028 C 
ATOM      8  C   UNL     1      -2.353   6.955   9.230  1.00  0.00    -0.070 CG0
ATOM      9  C   UNL     1      -1.565   7.949  10.045  1.00  0.00     0.039 C 
ATOM     10  G   UNL     1      -2.881   5.705   9.920  1.00  0.00     0.000 G0
ENDBRANCH   6   7
ENDBRANCH   5   6
ENDBRANCH   3   5
ENDBRANCH   1   3
BRANCH   1  11
ATOM     11  C   UNL     1      -3.672   2.908   9.440  1.00  0.00     0.087 C 
BRANCH  11  12
ATOM     12  C   UNL     1      -4.717   3.918  10.001  1.00  0.00     0.066 C 
BRANCH  12  13
ATOM     13  C   UNL     1      -4.202   5.354  10.091  1.00  0.00     0.140 C 
ATOM     14  O   UNL     1      -5.023   6.261  10.112  1.00  0.00    -0.299 OA
BRANCH  13  15
ATOM     15  C   UNL     1      -2.733   5.713  10.085  1.00  0.00     0.106 CG0
ATOM     16  G   UNL     1      -2.425   6.920   9.210  1.00  0.00     0.000 G0
ENDBRANCH  13  15
ENDBRANCH  12  13
BRANCH  12  17
ATOM     17  C   UNL     1      -6.215   3.771   9.548  1.00  0.00    -0.006 C 
ATOM     18  C   UNL     1      -7.050   5.061   9.489  1.00  0.00     0.008 C 
ATOM     19  C   UNL     1      -6.360   2.988   8.233  1.00  0.00     0.008 C 
ENDBRANCH  12  17
ENDBRANCH  11  12
ENDBRANCH   1  11
TORSDOF 1
ENDMDL
