MODEL 1
REMARK VINA RESULT:    -6.113      0.000      0.000
REMARK INTER + INTRA:         -10.680
REMARK INTER:                  -9.329
REMARK INTRA:                  -1.351
REMARK UNBOUND:                -1.351
REMARK SMILES OC[C@@H]1O[C@H](O[C@]2(CO)O[C@@H](CO)[C@H](O)[C@H]2O)[C@H](O)[C@H](O)[C@H]1O
REMARK SMILES IDX 6 1 5 2 3 3 22 4 4 5 20 6 18 7 2 8 1 9 23 11 21 13 19 15
REMARK SMILES IDX 7 17 16 18 10 19 14 20 11 21 8 22 9 23 17 25 15 27 12 29
REMARK SMILES IDX 13 30
REMARK H PARENT 1 10 23 12 21 14 19 16 9 24 17 26 15 28 13 31
REMARK Flexibility Score: inf
ROOT
ATOM      1  O   UNL     1     160.005 159.589 163.371  1.00  0.00    -0.313 OA
ENDROOT
BRANCH   1   2
ATOM      2  C   UNL     1     159.261 160.404 162.479  1.00  0.00     0.285 C 
ATOM      3  C   UNL     1     157.091 160.943 161.836  1.00  0.00     0.178 C 
ATOM      4  C   UNL     1     157.653 162.253 161.189  1.00  0.00     0.177 C 
ATOM      5  O   UNL     1     157.907 160.466 162.894  1.00  0.00    -0.341 OA
ATOM      6  C   UNL     1     158.760 162.878 162.075  1.00  0.00     0.179 C 
ATOM      7  C   UNL     1     159.849 161.833 162.447  1.00  0.00     0.202 C 
BRANCH   3   8
ATOM      8  C   UNL     1     155.664 161.127 162.370  1.00  0.00     0.191 C 
BRANCH   8   9
ATOM      9  O   UNL     1     155.355 162.489 162.484  1.00  0.00    -0.394 OA
ATOM     10  H   UNL     1     154.799 162.710 161.692  1.00  0.00     0.210 HD
ENDBRANCH   8   9
ENDBRANCH   3   8
BRANCH   4  11
ATOM     11  O   UNL     1     158.183 161.949 159.921  1.00  0.00    -0.387 OA
ATOM     12  H   UNL     1     158.188 162.792 159.398  1.00  0.00     0.211 HD
ENDBRANCH   4  11
BRANCH   6  13
ATOM     13  O   UNL     1     158.184 163.411 163.245  1.00  0.00    -0.387 OA
ATOM     14  H   UNL     1     157.229 163.142 163.246  1.00  0.00     0.211 HD
ENDBRANCH   6  13
BRANCH   7  15
ATOM     15  O   UNL     1     160.427 162.151 163.691  1.00  0.00    -0.385 OA
ATOM     16  H   UNL     1     160.695 163.105 163.641  1.00  0.00     0.211 HD
ENDBRANCH   7  15
ENDBRANCH   1   2
BRANCH   1  17
ATOM     17  C   UNL     1     160.059 158.208 162.995  1.00  0.00     0.224 C 
ATOM     18  C   UNL     1     159.335 157.362 164.064  1.00  0.00     0.208 C 
ATOM     19  O   UNL     1     159.444 157.941 161.739  1.00  0.00    -0.337 OA
ATOM     20  C   UNL     1     158.740 156.239 163.258  1.00  0.00     0.180 C 
ATOM     21  C   UNL     1     158.490 156.913 161.916  1.00  0.00     0.179 C 
BRANCH  17  22
ATOM     22  C   UNL     1     161.546 157.821 162.864  1.00  0.00     0.225 C 
BRANCH  22  23
ATOM     23  O   UNL     1     162.320 158.523 163.801  1.00  0.00    -0.391 OA
ATOM     24  H   UNL     1     163.266 158.257 163.659  1.00  0.00     0.210 HD
ENDBRANCH  22  23
ENDBRANCH  17  22
BRANCH  18  25
ATOM     25  O   UNL     1     160.202 156.871 165.056  1.00  0.00    -0.385 OA
ATOM     26  H   UNL     1     159.702 156.893 165.912  1.00  0.00     0.211 HD
ENDBRANCH  18  25
BRANCH  20  27
ATOM     27  O   UNL     1     157.537 155.788 163.824  1.00  0.00    -0.387 OA
ATOM     28  H   UNL     1     157.623 155.906 164.806  1.00  0.00     0.211 HD
ENDBRANCH  20  27
BRANCH  21  29
ATOM     29  C   UNL     1     158.567 155.924 160.745  1.00  0.00     0.191 C 
BRANCH  29  30
ATOM     30  O   UNL     1     157.534 154.981 160.832  1.00  0.00    -0.394 OA
ATOM     31  H   UNL     1     156.700 155.457 160.590  1.00  0.00     0.210 HD
ENDBRANCH  29  30
ENDBRANCH  21  29
ENDBRANCH   1  17
TORSDOF 13
ENDMDL
MODEL 2
REMARK VINA RESULT:    -6.088      4.200      6.727
REMARK INTER + INTRA:         -10.642
REMARK INTER:                  -9.283
REMARK INTRA:                  -1.359
REMARK UNBOUND:                -1.351
REMARK SMILES OC[C@@H]1O[C@H](O[C@]2(CO)O[C@@H](CO)[C@H](O)[C@H]2O)[C@H](O)[C@H](O)[C@H]1O
REMARK SMILES IDX 6 1 5 2 3 3 22 4 4 5 20 6 18 7 2 8 1 9 23 11 21 13 19 15
REMARK SMILES IDX 7 17 16 18 10 19 14 20 11 21 8 22 9 23 17 25 15 27 12 29
REMARK SMILES IDX 13 30
REMARK H PARENT 1 10 23 12 21 14 19 16 9 24 17 26 15 28 13 31
REMARK Flexibility Score: inf
ROOT
ATOM      1  O   UNL     1     158.940 155.194 166.500  1.00  0.00    -0.313 OA
ENDROOT
BRANCH   1   2
ATOM      2  C   UNL     1     159.852 155.279 165.416  1.00  0.00     0.285 C 
ATOM      3  C   UNL     1     159.984 155.195 163.095  1.00  0.00     0.178 C 
ATOM      4  C   UNL     1     161.375 155.907 163.191  1.00  0.00     0.177 C 
ATOM      5  O   UNL     1     159.147 155.486 164.205  1.00  0.00    -0.341 OA
ATOM      6  C   UNL     1     161.363 157.003 164.285  1.00  0.00     0.179 C 
ATOM      7  C   UNL     1     160.836 156.450 165.639  1.00  0.00     0.202 C 
BRANCH   3   8
ATOM      8  C   UNL     1     159.229 155.566 161.811  1.00  0.00     0.191 C 
BRANCH   8   9
ATOM      9  O   UNL     1     157.845 155.461 162.008  1.00  0.00    -0.394 OA
ATOM     10  H   UNL     1     157.496 154.951 161.231  1.00  0.00     0.210 HD
ENDBRANCH   8   9
ENDBRANCH   3   8
BRANCH   4  11
ATOM     11  O   UNL     1     162.360 154.950 163.495  1.00  0.00    -0.387 OA
ATOM     12  H   UNL     1     161.887 154.138 163.814  1.00  0.00     0.211 HD
ENDBRANCH   4  11
BRANCH   6  13
ATOM     13  O   UNL     1     160.563 158.084 163.864  1.00  0.00    -0.387 OA
ATOM     14  H   UNL     1     160.610 158.774 164.575  1.00  0.00     0.211 HD
ENDBRANCH   6  13
BRANCH   7  15
ATOM     15  O   UNL     1     160.216 157.474 166.379  1.00  0.00    -0.385 OA
ATOM     16  H   UNL     1     160.291 158.301 165.834  1.00  0.00     0.211 HD
ENDBRANCH   7  15
ENDBRANCH   1   2
BRANCH   1  17
ATOM     17  C   UNL     1     159.193 154.105 167.395  1.00  0.00     0.224 C 
ATOM     18  C   UNL     1     157.886 153.317 167.620  1.00  0.00     0.208 C 
ATOM     19  O   UNL     1     160.173 153.192 166.910  1.00  0.00    -0.337 OA
ATOM     20  C   UNL     1     158.370 151.904 167.798  1.00  0.00     0.180 C 
ATOM     21  C   UNL     1     159.624 151.890 166.935  1.00  0.00     0.179 C 
BRANCH  17  22
ATOM     22  C   UNL     1     159.740 154.702 168.708  1.00  0.00     0.225 C 
BRANCH  22  23
ATOM     23  O   UNL     1     159.257 156.007 168.892  1.00  0.00    -0.391 OA
ATOM     24  H   UNL     1     159.574 156.548 168.123  1.00  0.00     0.210 HD
ENDBRANCH  22  23
ENDBRANCH  17  22
BRANCH  18  25
ATOM     25  O   UNL     1     157.169 153.754 168.748  1.00  0.00    -0.385 OA
ATOM     26  H   UNL     1     156.767 152.947 169.164  1.00  0.00     0.211 HD
ENDBRANCH  18  25
BRANCH  20  27
ATOM     27  O   UNL     1     157.426 150.978 167.327  1.00  0.00    -0.387 OA
ATOM     28  H   UNL     1     157.211 151.242 166.395  1.00  0.00     0.211 HD
ENDBRANCH  20  27
BRANCH  21  29
ATOM     29  C   UNL     1     160.672 150.893 167.448  1.00  0.00     0.191 C 
BRANCH  29  30
ATOM     30  O   UNL     1     160.279 149.579 167.162  1.00  0.00    -0.394 OA
ATOM     31  H   UNL     1     159.785 149.615 166.305  1.00  0.00     0.210 HD
ENDBRANCH  29  30
ENDBRANCH  21  29
ENDBRANCH   1  17
TORSDOF 13
ENDMDL
MODEL 3
REMARK VINA RESULT:    -6.074      9.352     12.132
REMARK INTER + INTRA:         -10.621
REMARK INTER:                  -9.280
REMARK INTRA:                  -1.341
REMARK UNBOUND:                -1.351
REMARK SMILES OC[C@@H]1O[C@H](O[C@]2(CO)O[C@@H](CO)[C@H](O)[C@H]2O)[C@H](O)[C@H](O)[C@H]1O
REMARK SMILES IDX 6 1 5 2 3 3 22 4 4 5 20 6 18 7 2 8 1 9 23 11 21 13 19 15
REMARK SMILES IDX 7 17 16 18 10 19 14 20 11 21 8 22 9 23 17 25 15 27 12 29
REMARK SMILES IDX 13 30
REMARK H PARENT 1 10 23 12 21 14 19 16 9 24 17 26 15 28 13 31
REMARK Flexibility Score: inf
ROOT
ATOM      1  O   UNL     1     159.127 155.174 151.497  1.00  0.00    -0.313 OA
ENDROOT
BRANCH   1   2
ATOM      2  C   UNL     1     158.212 155.272 152.577  1.00  0.00     0.285 C 
ATOM      3  C   UNL     1     158.082 155.288 154.900  1.00  0.00     0.178 C 
ATOM      4  C   UNL     1     156.664 155.939 154.774  1.00  0.00     0.177 C 
ATOM      5  O   UNL     1     158.907 155.562 153.777  1.00  0.00    -0.341 OA
ATOM      6  C   UNL     1     156.633 156.984 153.631  1.00  0.00     0.179 C 
ATOM      7  C   UNL     1     157.182 156.391 152.303  1.00  0.00     0.202 C 
BRANCH   3   8
ATOM      8  C   UNL     1     158.820 155.746 156.165  1.00  0.00     0.191 C 
BRANCH   8   9
ATOM      9  O   UNL     1     160.093 155.162 156.228  1.00  0.00    -0.394 OA
ATOM     10  H   UNL     1     159.994 154.350 156.792  1.00  0.00     0.210 HD
ENDBRANCH   8   9
ENDBRANCH   3   8
BRANCH   4  11
ATOM     11  O   UNL     1     155.718 154.931 154.514  1.00  0.00    -0.387 OA
ATOM     12  H   UNL     1     155.473 154.530 155.388  1.00  0.00     0.211 HD
ENDBRANCH   4  11
BRANCH   6  13
ATOM     13  O   UNL     1     157.388 158.113 154.002  1.00  0.00    -0.387 OA
ATOM     14  H   UNL     1     158.344 157.852 153.952  1.00  0.00     0.211 HD
ENDBRANCH   6  13
BRANCH   7  15
ATOM     15  O   UNL     1     157.761 157.405 151.517  1.00  0.00    -0.385 OA
ATOM     16  H   UNL     1     158.738 157.225 151.499  1.00  0.00     0.211 HD
ENDBRANCH   7  15
ENDBRANCH   1   2
BRANCH   1  17
ATOM     17  C   UNL     1     158.868 154.084 150.606  1.00  0.00     0.224 C 
ATOM     18  C   UNL     1     160.158 153.257 150.425  1.00  0.00     0.208 C 
ATOM     19  O   UNL     1     157.850 153.204 151.072  1.00  0.00    -0.337 OA
ATOM     20  C   UNL     1     159.638 151.856 150.247  1.00  0.00     0.180 C 
ATOM     21  C   UNL     1     158.361 151.887 151.075  1.00  0.00     0.179 C 
BRANCH  17  22
ATOM     22  C   UNL     1     158.374 154.682 149.272  1.00  0.00     0.225 C 
BRANCH  22  23
ATOM     23  O   UNL     1     158.907 155.968 149.085  1.00  0.00    -0.391 OA
ATOM     24  H   UNL     1     158.397 156.584 149.672  1.00  0.00     0.210 HD
ENDBRANCH  22  23
ENDBRANCH  17  22
BRANCH  18  25
ATOM     25  O   UNL     1     160.918 153.661 149.314  1.00  0.00    -0.385 OA
ATOM     26  H   UNL     1     160.415 153.384 148.505  1.00  0.00     0.211 HD
ENDBRANCH  18  25
BRANCH  20  27
ATOM     27  O   UNL     1     160.542 150.909 150.754  1.00  0.00    -0.387 OA
ATOM     28  H   UNL     1     160.147 150.016 150.578  1.00  0.00     0.211 HD
ENDBRANCH  20  27
BRANCH  21  29
ATOM     29  C   UNL     1     157.300 150.915 150.543  1.00  0.00     0.191 C 
BRANCH  29  30
ATOM     30  O   UNL     1     157.661 149.591 150.828  1.00  0.00    -0.394 OA
ATOM     31  H   UNL     1     158.190 149.273 150.053  1.00  0.00     0.210 HD
ENDBRANCH  29  30
ENDBRANCH  21  29
ENDBRANCH   1  17
TORSDOF 13
ENDMDL
MODEL 4
REMARK VINA RESULT:    -6.058      9.347     12.619
REMARK INTER + INTRA:         -10.597
REMARK INTER:                  -9.199
REMARK INTRA:                  -1.397
REMARK UNBOUND:                -1.351
REMARK SMILES OC[C@@H]1O[C@H](O[C@]2(CO)O[C@@H](CO)[C@H](O)[C@H]2O)[C@H](O)[C@H](O)[C@H]1O
REMARK SMILES IDX 6 1 5 2 3 3 22 4 4 5 20 6 18 7 2 8 1 9 23 11 21 13 19 15
REMARK SMILES IDX 7 17 16 18 10 19 14 20 11 21 8 22 9 23 17 25 15 27 12 29
REMARK SMILES IDX 13 30
REMARK H PARENT 1 10 23 12 21 14 19 16 9 24 17 26 15 28 13 31
REMARK Flexibility Score: inf
ROOT
ATOM      1  O   UNL     1     158.963 162.627 151.464  1.00  0.00    -0.313 OA
ENDROOT
BRANCH   1   2
ATOM      2  C   UNL     1     159.869 162.604 152.556  1.00  0.00     0.285 C 
ATOM      3  C   UNL     1     159.975 162.707 154.877  1.00  0.00     0.178 C 
ATOM      4  C   UNL     1     161.408 162.082 154.798  1.00  0.00     0.177 C 
ATOM      5  O   UNL     1     159.168 162.359 153.763  1.00  0.00    -0.341 OA
ATOM      6  C   UNL     1     161.474 160.982 153.709  1.00  0.00     0.179 C 
ATOM      7  C   UNL     1     160.925 161.495 152.348  1.00  0.00     0.202 C 
BRANCH   3   8
ATOM      8  C   UNL     1     159.234 162.296 156.157  1.00  0.00     0.191 C 
BRANCH   8   9
ATOM      9  O   UNL     1     157.876 162.636 156.068  1.00  0.00    -0.394 OA
ATOM     10  H   UNL     1     157.620 162.975 156.966  1.00  0.00     0.210 HD
ENDBRANCH   8   9
ENDBRANCH   3   8
BRANCH   4  11
ATOM     11  O   UNL     1     162.335 163.097 154.497  1.00  0.00    -0.387 OA
ATOM     12  H   UNL     1     161.927 163.956 154.779  1.00  0.00     0.211 HD
ENDBRANCH   4  11
BRANCH   6  13
ATOM     13  O   UNL     1     160.739 159.856 154.130  1.00  0.00    -0.387 OA
ATOM     14  H   UNL     1     159.847 159.914 153.699  1.00  0.00     0.211 HD
ENDBRANCH   6  13
BRANCH   7  15
ATOM     15  O   UNL     1     160.377 160.431 151.609  1.00  0.00    -0.385 OA
ATOM     16  H   UNL     1     160.967 160.301 150.821  1.00  0.00     0.211 HD
ENDBRANCH   7  15
ENDBRANCH   1   2
BRANCH   1  17
ATOM     17  C   UNL     1     159.111 163.761 150.604  1.00  0.00     0.224 C 
ATOM     18  C   UNL     1     157.730 164.415 150.382  1.00  0.00     0.208 C 
ATOM     19  O   UNL     1     159.983 164.757 151.129  1.00  0.00    -0.337 OA
ATOM     20  C   UNL     1     158.066 165.876 150.251  1.00  0.00     0.180 C 
ATOM     21  C   UNL     1     159.302 165.995 151.132  1.00  0.00     0.179 C 
BRANCH  17  22
ATOM     22  C   UNL     1     159.732 163.264 149.283  1.00  0.00     0.225 C 
BRANCH  22  23
ATOM     23  O   UNL     1     159.409 161.916 149.066  1.00  0.00    -0.391 OA
ATOM     24  H   UNL     1     158.499 161.770 149.433  1.00  0.00     0.210 HD
ENDBRANCH  22  23
ENDBRANCH  17  22
BRANCH  18  25
ATOM     25  O   UNL     1     157.076 163.939 149.232  1.00  0.00    -0.385 OA
ATOM     26  H   UNL     1     156.817 162.999 149.415  1.00  0.00     0.211 HD
ENDBRANCH  18  25
BRANCH  20  27
ATOM     27  O   UNL     1     157.025 166.683 150.735  1.00  0.00    -0.387 OA
ATOM     28  H   UNL     1     157.452 167.451 151.197  1.00  0.00     0.211 HD
ENDBRANCH  20  27
BRANCH  21  29
ATOM     29  C   UNL     1     160.245 167.111 150.663  1.00  0.00     0.191 C 
BRANCH  29  30
ATOM     30  O   UNL     1     159.531 168.298 150.447  1.00  0.00    -0.394 OA
ATOM     31  H   UNL     1     159.899 168.698 149.620  1.00  0.00     0.210 HD
ENDBRANCH  29  30
ENDBRANCH  21  29
ENDBRANCH   1  17
TORSDOF 13
ENDMDL
MODEL 5
REMARK VINA RESULT:    -6.013      4.420      7.537
REMARK INTER + INTRA:         -10.527
REMARK INTER:                  -8.928
REMARK INTRA:                  -1.599
REMARK UNBOUND:                -1.351
REMARK SMILES OC[C@@H]1O[C@H](O[C@]2(CO)O[C@@H](CO)[C@H](O)[C@H]2O)[C@H](O)[C@H](O)[C@H]1O
REMARK SMILES IDX 6 1 5 2 3 3 22 4 4 5 20 6 18 7 2 8 1 9 23 11 21 13 19 15
REMARK SMILES IDX 7 17 16 18 10 19 14 20 11 21 8 22 9 23 17 25 15 27 12 29
REMARK SMILES IDX 13 30
REMARK H PARENT 1 10 23 12 21 14 19 16 9 24 17 26 15 28 13 31
REMARK Flexibility Score: inf
ROOT
ATOM      1  O   UNL     1     159.025 162.610 166.615  1.00  0.00    -0.313 OA
ENDROOT
BRANCH   1   2
ATOM      2  C   UNL     1     158.132 162.601 165.512  1.00  0.00     0.285 C 
ATOM      3  C   UNL     1     158.048 162.789 163.195  1.00  0.00     0.178 C 
ATOM      4  C   UNL     1     156.635 162.117 163.233  1.00  0.00     0.177 C 
ATOM      5  O   UNL     1     158.853 162.425 164.305  1.00  0.00    -0.341 OA
ATOM      6  C   UNL     1     156.592 160.974 164.278  1.00  0.00     0.179 C 
ATOM      7  C   UNL     1     157.109 161.452 165.665  1.00  0.00     0.202 C 
BRANCH   3   8
ATOM      8  C   UNL     1     158.816 162.452 161.909  1.00  0.00     0.191 C 
BRANCH   8   9
ATOM      9  O   UNL     1     159.228 161.112 161.922  1.00  0.00    -0.394 OA
ATOM     10  H   UNL     1     158.771 160.692 162.697  1.00  0.00     0.210 HD
ENDBRANCH   8   9
ENDBRANCH   3   8
BRANCH   4  11
ATOM     11  O   UNL     1     155.673 163.090 163.561  1.00  0.00    -0.387 OA
ATOM     12  H   UNL     1     154.788 162.721 163.306  1.00  0.00     0.211 HD
ENDBRANCH   4  11
BRANCH   6  13
ATOM     13  O   UNL     1     157.367 159.889 163.824  1.00  0.00    -0.387 OA
ATOM     14  H   UNL     1     157.517 159.293 164.603  1.00  0.00     0.211 HD
ENDBRANCH   6  13
BRANCH   7  15
ATOM     15  O   UNL     1     157.684 160.378 166.370  1.00  0.00    -0.385 OA
ATOM     16  H   UNL     1     157.176 160.294 167.219  1.00  0.00     0.211 HD
ENDBRANCH   7  15
ENDBRANCH   1   2
BRANCH   1  17
ATOM     17  C   UNL     1     158.898 163.758 167.461  1.00  0.00     0.224 C 
ATOM     18  C   UNL     1     160.287 164.403 167.654  1.00  0.00     0.208 C 
ATOM     19  O   UNL     1     158.027 164.754 166.934  1.00  0.00    -0.337 OA
ATOM     20  C   UNL     1     159.965 165.868 167.769  1.00  0.00     0.180 C 
ATOM     21  C   UNL     1     158.718 165.986 166.903  1.00  0.00     0.179 C 
BRANCH  17  22
ATOM     22  C   UNL     1     158.291 163.285 168.798  1.00  0.00     0.225 C 
BRANCH  22  23
ATOM     23  O   UNL     1     158.556 161.922 169.001  1.00  0.00    -0.391 OA
ATOM     24  H   UNL     1     158.265 161.701 169.924  1.00  0.00     0.210 HD
ENDBRANCH  22  23
ENDBRANCH  17  22
BRANCH  18  25
ATOM     25  O   UNL     1     160.953 163.938 168.802  1.00  0.00    -0.385 OA
ATOM     26  H   UNL     1     161.616 164.633 169.051  1.00  0.00     0.211 HD
ENDBRANCH  18  25
BRANCH  20  27
ATOM     27  O   UNL     1     161.006 166.660 167.259  1.00  0.00    -0.387 OA
ATOM     28  H   UNL     1     160.583 167.353 166.690  1.00  0.00     0.211 HD
ENDBRANCH  20  27
BRANCH  21  29
ATOM     29  C   UNL     1     157.791 167.116 167.370  1.00  0.00     0.191 C 
BRANCH  29  30
ATOM     30  O   UNL     1     158.488 168.331 167.421  1.00  0.00    -0.394 OA
ATOM     31  H   UNL     1     157.814 169.045 167.289  1.00  0.00     0.210 HD
ENDBRANCH  29  30
ENDBRANCH  21  29
ENDBRANCH   1  17
TORSDOF 13
ENDMDL
MODEL 6
REMARK VINA RESULT:    -5.919      5.611      7.115
REMARK INTER + INTRA:         -10.385
REMARK INTER:                  -8.862
REMARK INTRA:                  -1.523
REMARK UNBOUND:                -1.351
REMARK SMILES OC[C@@H]1O[C@H](O[C@]2(CO)O[C@@H](CO)[C@H](O)[C@H]2O)[C@H](O)[C@H](O)[C@H]1O
REMARK SMILES IDX 6 1 5 2 3 3 22 4 4 5 20 6 18 7 2 8 1 9 23 11 21 13 19 15
REMARK SMILES IDX 7 17 16 18 10 19 14 20 11 21 8 22 9 23 17 25 15 27 12 29
REMARK SMILES IDX 13 30
REMARK H PARENT 1 10 23 12 21 14 19 16 9 24 17 26 15 28 13 31
REMARK Flexibility Score: inf
ROOT
ATOM      1  O   UNL     1     160.136 157.861 156.081  1.00  0.00    -0.313 OA
ENDROOT
BRANCH   1   2
ATOM      2  C   UNL     1     159.654 159.184 155.905  1.00  0.00     0.285 C 
ATOM      3  C   UNL     1     159.588 161.280 156.911  1.00  0.00     0.178 C 
ATOM      4  C   UNL     1     159.236 161.893 155.515  1.00  0.00     0.177 C 
ATOM      5  O   UNL     1     160.308 160.062 156.804  1.00  0.00    -0.341 OA
ATOM      6  C   UNL     1     160.043 161.204 154.387  1.00  0.00     0.179 C 
ATOM      7  C   UNL     1     159.910 159.656 154.456  1.00  0.00     0.202 C 
BRANCH   3   8
ATOM      8  C   UNL     1     160.402 162.248 157.781  1.00  0.00     0.191 C 
BRANCH   8   9
ATOM      9  O   UNL     1     161.715 162.353 157.300  1.00  0.00    -0.394 OA
ATOM     10  H   UNL     1     162.101 163.159 157.733  1.00  0.00     0.210 HD
ENDBRANCH   8   9
ENDBRANCH   3   8
BRANCH   4  11
ATOM     11  O   UNL     1     157.859 161.728 155.275  1.00  0.00    -0.387 OA
ATOM     12  H   UNL     1     157.723 161.807 154.296  1.00  0.00     0.211 HD
ENDBRANCH   4  11
BRANCH   6  13
ATOM     13  O   UNL     1     161.399 161.574 154.482  1.00  0.00    -0.387 OA
ATOM     14  H   UNL     1     161.667 161.923 153.592  1.00  0.00     0.211 HD
ENDBRANCH   6  13
BRANCH   7  15
ATOM     15  O   UNL     1     161.066 159.042 153.940  1.00  0.00    -0.385 OA
ATOM     16  H   UNL     1     161.766 159.124 154.639  1.00  0.00     0.211 HD
ENDBRANCH   7  15
ENDBRANCH   1   2
BRANCH   1  17
ATOM     17  C   UNL     1     159.109 156.865 156.134  1.00  0.00     0.224 C 
ATOM     18  C   UNL     1     159.339 155.963 157.365  1.00  0.00     0.208 C 
ATOM     19  O   UNL     1     157.798 157.412 156.236  1.00  0.00    -0.337 OA
ATOM     20  C   UNL     1     157.940 155.601 157.784  1.00  0.00     0.180 C 
ATOM     21  C   UNL     1     157.154 156.830 157.351  1.00  0.00     0.179 C 
BRANCH  17  22
ATOM     22  C   UNL     1     159.167 156.067 154.815  1.00  0.00     0.225 C 
BRANCH  22  23
ATOM     23  O   UNL     1     160.481 156.025 154.325  1.00  0.00    -0.391 OA
ATOM     24  H   UNL     1     161.084 156.232 155.085  1.00  0.00     0.210 HD
ENDBRANCH  22  23
ENDBRANCH  17  22
BRANCH  18  25
ATOM     25  O   UNL     1     160.094 154.814 157.070  1.00  0.00    -0.385 OA
ATOM     26  H   UNL     1     160.815 154.761 157.749  1.00  0.00     0.211 HD
ENDBRANCH  18  25
BRANCH  20  27
ATOM     27  O   UNL     1     157.856 155.415 159.173  1.00  0.00    -0.387 OA
ATOM     28  H   UNL     1     158.642 154.868 159.434  1.00  0.00     0.211 HD
ENDBRANCH  20  27
BRANCH  21  29
ATOM     29  C   UNL     1     155.699 156.495 156.996  1.00  0.00     0.191 C 
BRANCH  29  30
ATOM     30  O   UNL     1     155.631 155.274 156.311  1.00  0.00    -0.394 OA
ATOM     31  H   UNL     1     154.796 154.833 156.608  1.00  0.00     0.210 HD
ENDBRANCH  29  30
ENDBRANCH  21  29
ENDBRANCH   1  17
TORSDOF 13
ENDMDL
MODEL 7
REMARK VINA RESULT:    -5.919      1.499      5.866
REMARK INTER + INTRA:         -10.383
REMARK INTER:                  -8.863
REMARK INTRA:                  -1.521
REMARK UNBOUND:                -1.351
REMARK SMILES OC[C@@H]1O[C@H](O[C@]2(CO)O[C@@H](CO)[C@H](O)[C@H]2O)[C@H](O)[C@H](O)[C@H]1O
REMARK SMILES IDX 6 1 5 2 3 3 22 4 4 5 20 6 18 7 2 8 1 9 23 11 21 13 19 15
REMARK SMILES IDX 7 17 16 18 10 19 14 20 11 21 8 22 9 23 17 25 15 27 12 29
REMARK SMILES IDX 13 30
REMARK H PARENT 1 10 23 12 21 14 19 16 9 24 17 26 15 28 13 31
REMARK Flexibility Score: inf
ROOT
ATOM      1  O   UNL     1     160.138 160.138 161.890  1.00  0.00    -0.313 OA
ENDROOT
BRANCH   1   2
ATOM      2  C   UNL     1     159.650 158.819 162.079  1.00  0.00     0.285 C 
ATOM      3  C   UNL     1     159.581 156.711 161.098  1.00  0.00     0.178 C 
ATOM      4  C   UNL     1     159.221 156.116 162.501  1.00  0.00     0.177 C 
ATOM      5  O   UNL     1     160.306 157.928 161.194  1.00  0.00    -0.341 OA
ATOM      6  C   UNL     1     160.027 156.816 163.623  1.00  0.00     0.179 C 
ATOM      7  C   UNL     1     159.899 158.363 163.535  1.00  0.00     0.202 C 
BRANCH   3   8
ATOM      8  C   UNL     1     160.396 155.730 160.244  1.00  0.00     0.191 C 
BRANCH   8   9
ATOM      9  O   UNL     1     161.706 155.624 160.733  1.00  0.00    -0.394 OA
ATOM     10  H   UNL     1     161.856 154.657 160.904  1.00  0.00     0.210 HD
ENDBRANCH   8   9
ENDBRANCH   3   8
BRANCH   4  11
ATOM     11  O   UNL     1     157.845 156.289 162.733  1.00  0.00    -0.387 OA
ATOM     12  H   UNL     1     157.370 155.618 162.176  1.00  0.00     0.211 HD
ENDBRANCH   4  11
BRANCH   6  13
ATOM     13  O   UNL     1     161.382 156.440 163.538  1.00  0.00    -0.387 OA
ATOM     14  H   UNL     1     161.778 156.951 162.786  1.00  0.00     0.211 HD
ENDBRANCH   6  13
BRANCH   7  15
ATOM     15  O   UNL     1     161.055 158.980 164.049  1.00  0.00    -0.385 OA
ATOM     16  H   UNL     1     161.669 159.115 163.280  1.00  0.00     0.211 HD
ENDBRANCH   7  15
ENDBRANCH   1   2
BRANCH   1  17
ATOM     17  C   UNL     1     159.114 161.136 161.820  1.00  0.00     0.224 C 
ATOM     18  C   UNL     1     159.354 162.024 160.581  1.00  0.00     0.208 C 
ATOM     19  O   UNL     1     157.802 160.592 161.716  1.00  0.00    -0.337 OA
ATOM     20  C   UNL     1     157.959 162.387 160.150  1.00  0.00     0.180 C 
ATOM     21  C   UNL     1     157.166 161.164 160.591  1.00  0.00     0.179 C 
BRANCH  17  22
ATOM     22  C   UNL     1     159.167 161.948 163.130  1.00  0.00     0.225 C 
BRANCH  22  23
ATOM     23  O   UNL     1     160.482 162.008 163.617  1.00  0.00    -0.391 OA
ATOM     24  H   UNL     1     160.475 161.619 164.530  1.00  0.00     0.210 HD
ENDBRANCH  22  23
ENDBRANCH  17  22
BRANCH  18  25
ATOM     25  O   UNL     1     160.111 163.174 160.868  1.00  0.00    -0.385 OA
ATOM     26  H   UNL     1     160.893 163.165 160.257  1.00  0.00     0.211 HD
ENDBRANCH  18  25
BRANCH  20  27
ATOM     27  O   UNL     1     157.883 162.558 158.759  1.00  0.00    -0.387 OA
ATOM     28  H   UNL     1     157.767 161.654 158.367  1.00  0.00     0.211 HD
ENDBRANCH  20  27
BRANCH  21  29
ATOM     29  C   UNL     1     155.710 161.508 160.934  1.00  0.00     0.191 C 
BRANCH  29  30
ATOM     30  O   UNL     1     155.649 162.697 161.675  1.00  0.00    -0.394 OA
ATOM     31  H   UNL     1     155.427 162.435 162.604  1.00  0.00     0.210 HD
ENDBRANCH  29  30
ENDBRANCH  21  29
ENDBRANCH   1  17
TORSDOF 13
ENDMDL
MODEL 8
REMARK VINA RESULT:    -5.916      5.380      8.646
REMARK INTER + INTRA:         -10.380
REMARK INTER:                  -8.863
REMARK INTRA:                  -1.517
REMARK UNBOUND:                -1.351
REMARK SMILES OC[C@@H]1O[C@H](O[C@]2(CO)O[C@@H](CO)[C@H](O)[C@H]2O)[C@H](O)[C@H](O)[C@H]1O
REMARK SMILES IDX 6 1 5 2 3 3 22 4 4 5 20 6 18 7 2 8 1 9 23 11 21 13 19 15
REMARK SMILES IDX 7 17 16 18 10 19 14 20 11 21 8 22 9 23 17 25 15 27 12 29
REMARK SMILES IDX 13 30
REMARK H PARENT 1 10 23 12 21 14 19 16 9 24 17 26 15 28 13 31
REMARK Flexibility Score: inf
ROOT
ATOM      1  O   UNL     1     157.851 160.131 156.045  1.00  0.00    -0.313 OA
ENDROOT
BRANCH   1   2
ATOM      2  C   UNL     1     158.338 158.809 155.874  1.00  0.00     0.285 C 
ATOM      3  C   UNL     1     158.402 156.714 156.883  1.00  0.00     0.178 C 
ATOM      4  C   UNL     1     158.767 156.101 155.490  1.00  0.00     0.177 C 
ATOM      5  O   UNL     1     157.679 157.930 156.769  1.00  0.00    -0.341 OA
ATOM      6  C   UNL     1     157.966 156.787 154.355  1.00  0.00     0.179 C 
ATOM      7  C   UNL     1     158.095 158.335 154.424  1.00  0.00     0.202 C 
BRANCH   3   8
ATOM      8  C   UNL     1     157.584 155.745 157.748  1.00  0.00     0.191 C 
BRANCH   8   9
ATOM      9  O   UNL     1     156.271 155.647 157.266  1.00  0.00    -0.394 OA
ATOM     10  H   UNL     1     156.255 154.848 156.677  1.00  0.00     0.210 HD
ENDBRANCH   8   9
ENDBRANCH   3   8
BRANCH   4  11
ATOM     11  O   UNL     1     160.145 156.269 155.261  1.00  0.00    -0.387 OA
ATOM     12  H   UNL     1     160.420 157.094 155.738  1.00  0.00     0.211 HD
ENDBRANCH   4  11
BRANCH   6  13
ATOM     13  O   UNL     1     156.611 156.413 154.440  1.00  0.00    -0.387 OA
ATOM     14  H   UNL     1     156.405 156.284 155.403  1.00  0.00     0.211 HD
ENDBRANCH   6  13
BRANCH   7  15
ATOM     15  O   UNL     1     156.941 158.945 153.898  1.00  0.00    -0.385 OA
ATOM     16  H   UNL     1     156.929 158.737 152.927  1.00  0.00     0.211 HD
ENDBRANCH   7  15
ENDBRANCH   1   2
BRANCH   1  17
ATOM     17  C   UNL     1     158.875 161.131 156.095  1.00  0.00     0.224 C 
ATOM     18  C   UNL     1     158.632 162.046 157.313  1.00  0.00     0.208 C 
ATOM     19  O   UNL     1     160.187 160.589 156.213  1.00  0.00    -0.337 OA
ATOM     20  C   UNL     1     160.026 162.418 157.739  1.00  0.00     0.180 C 
ATOM     21  C   UNL     1     160.820 161.186 157.327  1.00  0.00     0.179 C 
BRANCH  17  22
ATOM     22  C   UNL     1     158.825 161.913 154.766  1.00  0.00     0.225 C 
BRANCH  22  23
ATOM     23  O   UNL     1     157.507 161.984 154.289  1.00  0.00    -0.391 OA
ATOM     24  H   UNL     1     157.361 161.191 153.711  1.00  0.00     0.210 HD
ENDBRANCH  22  23
ENDBRANCH  17  22
BRANCH  18  25
ATOM     25  O   UNL     1     157.875 163.189 156.999  1.00  0.00    -0.385 OA
ATOM     26  H   UNL     1     158.323 163.628 156.230  1.00  0.00     0.211 HD
ENDBRANCH  18  25
BRANCH  20  27
ATOM     27  O   UNL     1     160.098 162.621 159.126  1.00  0.00    -0.387 OA
ATOM     28  H   UNL     1     159.333 162.131 159.525  1.00  0.00     0.211 HD
ENDBRANCH  20  27
BRANCH  21  29
ATOM     29  C   UNL     1     162.276 161.522 156.980  1.00  0.00     0.191 C 
BRANCH  29  30
ATOM     30  O   UNL     1     162.352 162.765 156.336  1.00  0.00    -0.394 OA
ATOM     31  H   UNL     1     163.030 163.293 156.828  1.00  0.00     0.210 HD
ENDBRANCH  29  30
ENDBRANCH  21  29
ENDBRANCH   1  17
TORSDOF 13
ENDMDL
MODEL 9
REMARK VINA RESULT:    -5.913      1.796      3.423
REMARK INTER + INTRA:         -10.376
REMARK INTER:                  -8.849
REMARK INTRA:                  -1.526
REMARK UNBOUND:                -1.351
REMARK SMILES OC[C@@H]1O[C@H](O[C@]2(CO)O[C@@H](CO)[C@H](O)[C@H]2O)[C@H](O)[C@H](O)[C@H]1O
REMARK SMILES IDX 6 1 5 2 3 3 22 4 4 5 20 6 18 7 2 8 1 9 23 11 21 13 19 15
REMARK SMILES IDX 7 17 16 18 10 19 14 20 11 21 8 22 9 23 17 25 15 27 12 29
REMARK SMILES IDX 13 30
REMARK H PARENT 1 10 23 12 21 14 19 16 9 24 17 26 15 28 13 31
REMARK Flexibility Score: inf
ROOT
ATOM      1  O   UNL     1     157.837 157.836 161.898  1.00  0.00    -0.313 OA
ENDROOT
BRANCH   1   2
ATOM      2  C   UNL     1     158.302 159.155 162.143  1.00  0.00     0.285 C 
ATOM      3  C   UNL     1     158.405 161.285 161.213  1.00  0.00     0.178 C 
ATOM      4  C   UNL     1     158.682 161.851 162.645  1.00  0.00     0.177 C 
ATOM      5  O   UNL     1     157.688 160.060 161.242  1.00  0.00    -0.341 OA
ATOM      6  C   UNL     1     157.823 161.120 163.707  1.00  0.00     0.179 C 
ATOM      7  C   UNL     1     157.969 159.576 163.592  1.00  0.00     0.202 C 
BRANCH   3   8
ATOM      8  C   UNL     1     157.630 162.278 160.336  1.00  0.00     0.191 C 
BRANCH   8   9
ATOM      9  O   UNL     1     156.296 162.368 160.759  1.00  0.00    -0.394 OA
ATOM     10  H   UNL     1     156.289 162.071 161.707  1.00  0.00     0.210 HD
ENDBRANCH   8   9
ENDBRANCH   3   8
BRANCH   4  11
ATOM     11  O   UNL     1     160.046 161.685 162.949  1.00  0.00    -0.387 OA
ATOM     12  H   UNL     1     160.394 160.980 162.343  1.00  0.00     0.211 HD
ENDBRANCH   4  11
BRANCH   6  13
ATOM     13  O   UNL     1     156.471 161.487 163.555  1.00  0.00    -0.387 OA
ATOM     14  H   UNL     1     155.980 161.111 164.331  1.00  0.00     0.211 HD
ENDBRANCH   6  13
BRANCH   7  15
ATOM     15  O   UNL     1     156.793 158.939 164.028  1.00  0.00    -0.385 OA
ATOM     16  H   UNL     1     156.403 159.518 164.734  1.00  0.00     0.211 HD
ENDBRANCH   7  15
ENDBRANCH   1   2
BRANCH   1  17
ATOM     17  C   UNL     1     158.875 156.851 161.844  1.00  0.00     0.224 C 
ATOM     18  C   UNL     1     158.647 155.941 160.618  1.00  0.00     0.208 C 
ATOM     19  O   UNL     1     160.180 157.411 161.733  1.00  0.00    -0.337 OA
ATOM     20  C   UNL     1     160.048 155.591 160.194  1.00  0.00     0.180 C 
ATOM     21  C   UNL     1     160.824 156.831 160.617  1.00  0.00     0.179 C 
BRANCH  17  22
ATOM     22  C   UNL     1     158.832 156.059 163.166  1.00  0.00     0.225 C 
BRANCH  22  23
ATOM     23  O   UNL     1     157.516 155.976 163.646  1.00  0.00    -0.391 OA
ATOM     24  H   UNL     1     157.013 156.737 163.254  1.00  0.00     0.210 HD
ENDBRANCH  22  23
ENDBRANCH  17  22
BRANCH  18  25
ATOM     25  O   UNL     1     157.906 154.786 160.922  1.00  0.00    -0.385 OA
ATOM     26  H   UNL     1     158.393 154.018 160.526  1.00  0.00     0.211 HD
ENDBRANCH  18  25
BRANCH  20  27
ATOM     27  O   UNL     1     160.126 155.400 158.805  1.00  0.00    -0.387 OA
ATOM     28  H   UNL     1     159.377 155.912 158.405  1.00  0.00     0.211 HD
ENDBRANCH  20  27
BRANCH  21  29
ATOM     29  C   UNL     1     162.284 156.512 160.965  1.00  0.00     0.191 C 
BRANCH  29  30
ATOM     30  O   UNL     1     162.368 155.294 161.654  1.00  0.00    -0.394 OA
ATOM     31  H   UNL     1     163.052 155.419 162.359  1.00  0.00     0.210 HD
ENDBRANCH  29  30
ENDBRANCH  21  29
ENDBRANCH   1  17
TORSDOF 13
ENDMDL
