MODEL 1
REMARK VINA RESULT:    -4.353      0.000      0.000
REMARK INTER + INTRA:          -5.882
REMARK INTER:                  -5.626
REMARK INTRA:                  -0.256
REMARK UNBOUND:                -0.256
REMARK SMILES CCO[C@H]1O[C@@H](CO)[C@H](O)[C@@H](O)[C@@H]1O
REMARK SMILES IDX 4 1 13 2 11 3 9 4 6 5 5 6 3 7 2 8 1 9 14 10 12 12 7 14 8 15
REMARK SMILES IDX 10 17
REMARK H PARENT 14 11 12 13 8 16 10 18
REMARK Flexibility Score: inf
ROOT
ATOM      1  C   UNL     1     -11.843   1.575 -19.493  1.00  0.00     0.281 C 
ATOM      2  C   UNL     1     -11.064   2.695 -20.208  1.00  0.00     0.202 C 
ATOM      3  C   UNL     1     -10.956   3.944 -19.322  1.00  0.00     0.179 C 
ATOM      4  C   UNL     1     -12.340   4.346 -18.783  1.00  0.00     0.177 C 
ATOM      5  C   UNL     1     -13.119   3.137 -18.203  1.00  0.00     0.178 C 
ATOM      6  O   UNL     1     -13.131   2.003 -19.064  1.00  0.00    -0.341 OA
ENDROOT
BRANCH   1   7
ATOM      7  O   UNL     1     -11.079   1.053 -18.419  1.00  0.00    -0.350 OA
BRANCH   7   8
ATOM      8  C   UNL     1     -10.979  -0.357 -18.496  1.00  0.00     0.160 C 
ATOM      9  C   UNL     1     -12.088  -1.008 -17.678  1.00  0.00     0.035 C 
ENDBRANCH   7   8
ENDBRANCH   1   7
BRANCH   2  10
ATOM     10  O   UNL     1     -11.705   3.032 -21.412  1.00  0.00    -0.385 OA
ATOM     11  H   UNL     1     -11.242   2.534 -22.136  1.00  0.00     0.211 HD
ENDBRANCH   2  10
BRANCH   3  12
ATOM     12  O   UNL     1     -10.074   3.717 -18.251  1.00  0.00    -0.387 OA
ATOM     13  H   UNL     1      -9.153   3.811 -18.610  1.00  0.00     0.211 HD
ENDBRANCH   3  12
BRANCH   5  14
ATOM     14  C   UNL     1     -12.734   2.776 -16.753  1.00  0.00     0.191 C 
BRANCH  14  15
ATOM     15  O   UNL     1     -12.947   3.880 -15.915  1.00  0.00    -0.394 OA
ATOM     16  H   UNL     1     -13.354   3.521 -15.084  1.00  0.00     0.210 HD
ENDBRANCH  14  15
ENDBRANCH   5  14
BRANCH   4  17
ATOM     17  O   UNL     1     -13.103   4.917 -19.817  1.00  0.00    -0.387 OA
ATOM     18  H   UNL     1     -13.446   5.786 -19.480  1.00  0.00     0.211 HD
ENDBRANCH   4  17
TORSDOF 7
ENDMDL
MODEL 2
REMARK VINA RESULT:    -4.038      1.482      3.675
REMARK INTER + INTRA:          -5.474
REMARK INTER:                  -5.091
REMARK INTRA:                  -0.383
REMARK UNBOUND:                -0.256
REMARK SMILES CCO[C@H]1O[C@@H](CO)[C@H](O)[C@@H](O)[C@@H]1O
REMARK SMILES IDX 4 1 13 2 11 3 9 4 6 5 5 6 3 7 2 8 1 9 14 10 12 12 7 14 8 15
REMARK SMILES IDX 10 17
REMARK H PARENT 14 11 12 13 8 16 10 18
REMARK Flexibility Score: inf
ROOT
ATOM      1  C   UNL     1     -10.961   3.372 -19.108  1.00  0.00     0.281 C 
ATOM      2  C   UNL     1     -10.808   1.866 -18.820  1.00  0.00     0.202 C 
ATOM      3  C   UNL     1     -12.115   1.273 -18.276  1.00  0.00     0.179 C 
ATOM      4  C   UNL     1     -12.645   2.117 -17.103  1.00  0.00     0.177 C 
ATOM      5  C   UNL     1     -12.641   3.635 -17.422  1.00  0.00     0.178 C 
ATOM      6  O   UNL     1     -11.409   4.097 -17.968  1.00  0.00    -0.341 OA
ENDROOT
BRANCH   1   7
ATOM      7  O   UNL     1     -11.810   3.574 -20.225  1.00  0.00    -0.350 OA
BRANCH   7   8
ATOM      8  C   UNL     1     -11.130   3.318 -21.441  1.00  0.00     0.160 C 
ATOM      9  C   UNL     1     -12.012   3.695 -22.625  1.00  0.00     0.035 C 
ENDBRANCH   7   8
ENDBRANCH   1   7
BRANCH   2  10
ATOM     10  O   UNL     1      -9.778   1.659 -17.886  1.00  0.00    -0.385 OA
ATOM     11  H   UNL     1      -9.693   0.678 -17.761  1.00  0.00     0.211 HD
ENDBRANCH   2  10
BRANCH   3  12
ATOM     12  O   UNL     1     -13.085   1.201 -19.289  1.00  0.00    -0.387 OA
ATOM     13  H   UNL     1     -12.769   0.527 -19.946  1.00  0.00     0.211 HD
ENDBRANCH   3  12
BRANCH   5  14
ATOM     14  C   UNL     1     -13.864   4.113 -18.231  1.00  0.00     0.191 C 
BRANCH  14  15
ATOM     15  O   UNL     1     -13.607   5.377 -18.779  1.00  0.00    -0.394 OA
ATOM     16  H   UNL     1     -14.476   5.858 -18.783  1.00  0.00     0.210 HD
ENDBRANCH  14  15
ENDBRANCH   5  14
BRANCH   4  17
ATOM     17  O   UNL     1     -11.852   1.895 -15.963  1.00  0.00    -0.387 OA
ATOM     18  H   UNL     1     -11.217   2.655 -15.898  1.00  0.00     0.211 HD
ENDBRANCH   4  17
TORSDOF 7
ENDMDL
MODEL 3
REMARK VINA RESULT:    -3.832      9.624     11.235
REMARK INTER + INTRA:          -5.208
REMARK INTER:                  -4.794
REMARK INTRA:                  -0.415
REMARK UNBOUND:                -0.256
REMARK SMILES CCO[C@H]1O[C@@H](CO)[C@H](O)[C@@H](O)[C@@H]1O
REMARK SMILES IDX 4 1 13 2 11 3 9 4 6 5 5 6 3 7 2 8 1 9 14 10 12 12 7 14 8 15
REMARK SMILES IDX 10 17
REMARK H PARENT 14 11 12 13 8 16 10 18
REMARK Flexibility Score: inf
ROOT
ATOM      1  C   UNL     1     -18.653   5.436 -25.626  1.00  0.00     0.281 C 
ATOM      2  C   UNL     1     -17.132   5.196 -25.689  1.00  0.00     0.202 C 
ATOM      3  C   UNL     1     -16.546   5.719 -27.008  1.00  0.00     0.179 C 
ATOM      4  C   UNL     1     -17.347   5.182 -28.207  1.00  0.00     0.177 C 
ATOM      5  C   UNL     1     -18.877   5.337 -28.008  1.00  0.00     0.178 C 
ATOM      6  O   UNL     1     -19.335   4.873 -26.742  1.00  0.00    -0.341 OA
ENDROOT
BRANCH   1   7
ATOM      7  O   UNL     1     -18.926   6.820 -25.489  1.00  0.00    -0.350 OA
BRANCH   7   8
ATOM      8  C   UNL     1     -20.075   7.041 -24.692  1.00  0.00     0.160 C 
ATOM      9  C   UNL     1     -20.105   6.057 -23.528  1.00  0.00     0.035 C 
ENDBRANCH   7   8
ENDBRANCH   1   7
BRANCH   2  10
ATOM     10  O   UNL     1     -16.858   3.823 -25.570  1.00  0.00    -0.385 OA
ATOM     11  H   UNL     1     -17.722   3.371 -25.377  1.00  0.00     0.211 HD
ENDBRANCH   2  10
BRANCH   3  12
ATOM     12  O   UNL     1     -16.543   7.124 -27.026  1.00  0.00    -0.387 OA
ATOM     13  H   UNL     1     -16.815   7.426 -26.120  1.00  0.00     0.211 HD
ENDBRANCH   3  12
BRANCH   5  14
ATOM     14  C   UNL     1     -19.420   6.737 -28.358  1.00  0.00     0.191 C 
BRANCH  14  15
ATOM     15  O   UNL     1     -20.789   6.804 -28.062  1.00  0.00    -0.394 OA
ATOM     16  H   UNL     1     -20.887   7.505 -27.366  1.00  0.00     0.210 HD
ENDBRANCH  14  15
ENDBRANCH   5  14
BRANCH   4  17
ATOM     17  O   UNL     1     -17.054   3.821 -28.401  1.00  0.00    -0.387 OA
ATOM     18  H   UNL     1     -16.818   3.444 -27.513  1.00  0.00     0.211 HD
ENDBRANCH   4  17
TORSDOF 7
ENDMDL
MODEL 4
REMARK VINA RESULT:    -3.400      1.570      3.337
REMARK INTER + INTRA:          -4.650
REMARK INTER:                  -4.387
REMARK INTRA:                  -0.263
REMARK UNBOUND:                -0.256
REMARK SMILES CCO[C@H]1O[C@@H](CO)[C@H](O)[C@@H](O)[C@@H]1O
REMARK SMILES IDX 4 1 13 2 11 3 9 4 6 5 5 6 3 7 2 8 1 9 14 10 12 12 7 14 8 15
REMARK SMILES IDX 10 17
REMARK H PARENT 14 11 12 13 8 16 10 18
REMARK Flexibility Score: inf
ROOT
ATOM      1  C   UNL     1     -11.848   3.146 -20.790  1.00  0.00     0.281 C 
ATOM      2  C   UNL     1     -11.938   4.506 -20.072  1.00  0.00     0.202 C 
ATOM      3  C   UNL     1     -11.344   4.423 -18.659  1.00  0.00     0.179 C 
ATOM      4  C   UNL     1     -11.941   3.231 -17.890  1.00  0.00     0.177 C 
ATOM      5  C   UNL     1     -11.938   1.928 -18.731  1.00  0.00     0.178 C 
ATOM      6  O   UNL     1     -12.461   2.099 -20.045  1.00  0.00    -0.341 OA
ENDROOT
BRANCH   1   7
ATOM      7  O   UNL     1     -10.499   2.846 -21.105  1.00  0.00    -0.350 OA
BRANCH   7   8
ATOM      8  C   UNL     1     -10.326   2.649 -22.497  1.00  0.00     0.160 C 
ATOM      9  C   UNL     1     -10.427   3.981 -23.232  1.00  0.00     0.035 C 
ENDBRANCH   7   8
ENDBRANCH   1   7
BRANCH   2  10
ATOM     10  O   UNL     1     -13.280   4.916 -19.989  1.00  0.00    -0.385 OA
ATOM     11  H   UNL     1     -13.639   4.562 -19.133  1.00  0.00     0.211 HD
ENDBRANCH   2  10
BRANCH   3  12
ATOM     12  O   UNL     1      -9.945   4.302 -18.716  1.00  0.00    -0.387 OA
ATOM     13  H   UNL     1      -9.604   5.106 -19.189  1.00  0.00     0.211 HD
ENDBRANCH   3  12
BRANCH   5  14
ATOM     14  C   UNL     1     -10.593   1.174 -18.722  1.00  0.00     0.191 C 
BRANCH  14  15
ATOM     15  O   UNL     1      -9.719   1.770 -17.802  1.00  0.00    -0.394 OA
ATOM     16  H   UNL     1      -8.941   1.158 -17.724  1.00  0.00     0.210 HD
ENDBRANCH  14  15
ENDBRANCH   5  14
BRANCH   4  17
ATOM     17  O   UNL     1     -13.265   3.523 -17.517  1.00  0.00    -0.387 OA
ATOM     18  H   UNL     1     -13.472   4.430 -17.863  1.00  0.00     0.211 HD
ENDBRANCH   4  17
TORSDOF 7
ENDMDL
MODEL 5
REMARK VINA RESULT:    -3.124     13.951     16.006
REMARK INTER + INTRA:          -4.293
REMARK INTER:                  -3.853
REMARK INTRA:                  -0.441
REMARK UNBOUND:                -0.256
REMARK SMILES CCO[C@H]1O[C@@H](CO)[C@H](O)[C@@H](O)[C@@H]1O
REMARK SMILES IDX 4 1 13 2 11 3 9 4 6 5 5 6 3 7 2 8 1 9 14 10 12 12 7 14 8 15
REMARK SMILES IDX 10 17
REMARK H PARENT 14 11 12 13 8 16 10 18
REMARK Flexibility Score: inf
ROOT
ATOM      1  C   UNL     1     -11.633  -9.948 -26.651  1.00  0.00     0.281 C 
ATOM      2  C   UNL     1     -10.453  -9.155 -26.057  1.00  0.00     0.202 C 
ATOM      3  C   UNL     1      -9.125  -9.580 -26.700  1.00  0.00     0.179 C 
ATOM      4  C   UNL     1      -8.973 -11.111 -26.667  1.00  0.00     0.177 C 
ATOM      5  C   UNL     1     -10.253 -11.839 -27.152  1.00  0.00     0.178 C 
ATOM      6  O   UNL     1     -11.447 -11.355 -26.544  1.00  0.00    -0.341 OA
ENDROOT
BRANCH   1   7
ATOM      7  O   UNL     1     -11.867  -9.549 -27.991  1.00  0.00    -0.350 OA
BRANCH   7   8
ATOM      8  C   UNL     1     -13.156  -8.982 -28.142  1.00  0.00     0.160 C 
ATOM      9  C   UNL     1     -14.214 -10.079 -28.151  1.00  0.00     0.035 C 
ENDBRANCH   7   8
ENDBRANCH   1   7
BRANCH   2  10
ATOM     10  O   UNL     1     -10.386  -9.364 -24.669  1.00  0.00    -0.385 OA
ATOM     11  H   UNL     1     -10.787  -8.565 -24.236  1.00  0.00     0.211 HD
ENDBRANCH   2  10
BRANCH   3  12
ATOM     12  O   UNL     1      -9.048  -9.120 -28.025  1.00  0.00    -0.387 OA
ATOM     13  H   UNL     1      -9.695  -8.372 -28.111  1.00  0.00     0.211 HD
ENDBRANCH   3  12
BRANCH   5  14
ATOM     14  C   UNL     1     -10.373 -11.951 -28.686  1.00  0.00     0.191 C 
BRANCH  14  15
ATOM     15  O   UNL     1     -11.657 -12.394 -29.033  1.00  0.00    -0.394 OA
ATOM     16  H   UNL     1     -11.839 -13.185 -28.461  1.00  0.00     0.210 HD
ENDBRANCH  14  15
ENDBRANCH   5  14
BRANCH   4  17
ATOM     17  O   UNL     1      -8.687 -11.531 -25.356  1.00  0.00    -0.387 OA
ATOM     18  H   UNL     1      -8.257 -10.765 -24.892  1.00  0.00     0.211 HD
ENDBRANCH   4  17
TORSDOF 7
ENDMDL
MODEL 6
REMARK VINA RESULT:    -2.953     13.896     15.852
REMARK INTER + INTRA:          -4.073
REMARK INTER:                  -3.587
REMARK INTRA:                  -0.485
REMARK UNBOUND:                -0.256
REMARK SMILES CCO[C@H]1O[C@@H](CO)[C@H](O)[C@@H](O)[C@@H]1O
REMARK SMILES IDX 4 1 13 2 11 3 9 4 6 5 5 6 3 7 2 8 1 9 14 10 12 12 7 14 8 15
REMARK SMILES IDX 10 17
REMARK H PARENT 14 11 12 13 8 16 10 18
REMARK Flexibility Score: inf
ROOT
ATOM      1  C   UNL     1     -10.079 -11.530 -27.165  1.00  0.00     0.281 C 
ATOM      2  C   UNL     1     -11.256 -10.551 -26.984  1.00  0.00     0.202 C 
ATOM      3  C   UNL     1     -10.754  -9.109 -26.832  1.00  0.00     0.179 C 
ATOM      4  C   UNL     1      -9.658  -9.028 -25.754  1.00  0.00     0.177 C 
ATOM      5  C   UNL     1      -8.583 -10.132 -25.925  1.00  0.00     0.178 C 
ATOM      6  O   UNL     1      -9.130 -11.434 -26.109  1.00  0.00    -0.341 OA
ENDROOT
BRANCH   1   7
ATOM      7  O   UNL     1      -9.475 -11.342 -28.433  1.00  0.00    -0.350 OA
BRANCH   7   8
ATOM      8  C   UNL     1      -9.253 -12.579 -29.086  1.00  0.00     0.160 C 
ATOM      9  C   UNL     1      -7.769 -12.924 -29.068  1.00  0.00     0.035 C 
ENDBRANCH   7   8
ENDBRANCH   1   7
BRANCH   2  10
ATOM     10  O   UNL     1     -12.004 -10.906 -25.849  1.00  0.00    -0.385 OA
ATOM     11  H   UNL     1     -11.355 -11.171 -25.145  1.00  0.00     0.211 HD
ENDBRANCH   2  10
BRANCH   3  12
ATOM     12  O   UNL     1     -10.257  -8.626 -28.055  1.00  0.00    -0.387 OA
ATOM     13  H   UNL     1      -9.518  -7.998 -27.839  1.00  0.00     0.211 HD
ENDBRANCH   3  12
BRANCH   5  14
ATOM     14  C   UNL     1      -7.492  -9.795 -26.963  1.00  0.00     0.191 C 
BRANCH  14  15
ATOM     15  O   UNL     1      -7.399  -8.406 -27.122  1.00  0.00    -0.394 OA
ATOM     16  H   UNL     1      -6.430  -8.198 -27.173  1.00  0.00     0.210 HD
ENDBRANCH  14  15
ENDBRANCH   5  14
BRANCH   4  17
ATOM     17  O   UNL     1     -10.237  -9.158 -24.479  1.00  0.00    -0.387 OA
ATOM     18  H   UNL     1     -10.513 -10.107 -24.380  1.00  0.00     0.211 HD
ENDBRANCH   4  17
TORSDOF 7
ENDMDL
MODEL 7
REMARK VINA RESULT:    -2.951     13.838     15.356
REMARK INTER + INTRA:          -4.070
REMARK INTER:                  -3.695
REMARK INTRA:                  -0.375
REMARK UNBOUND:                -0.256
REMARK SMILES CCO[C@H]1O[C@@H](CO)[C@H](O)[C@@H](O)[C@@H]1O
REMARK SMILES IDX 4 1 13 2 11 3 9 4 6 5 5 6 3 7 2 8 1 9 14 10 12 12 7 14 8 15
REMARK SMILES IDX 10 17
REMARK H PARENT 14 11 12 13 8 16 10 18
REMARK Flexibility Score: inf
ROOT
ATOM      1  C   UNL     1      -7.992 -10.038 -26.087  1.00  0.00     0.281 C 
ATOM      2  C   UNL     1      -8.870  -8.771 -26.117  1.00  0.00     0.202 C 
ATOM      3  C   UNL     1     -10.325  -9.117 -26.459  1.00  0.00     0.179 C 
ATOM      4  C   UNL     1     -10.391  -9.992 -27.723  1.00  0.00     0.177 C 
ATOM      5  C   UNL     1      -9.382 -11.168 -27.676  1.00  0.00     0.178 C 
ATOM      6  O   UNL     1      -8.065 -10.772 -27.304  1.00  0.00    -0.341 OA
ENDROOT
BRANCH   1   7
ATOM      7  O   UNL     1      -8.327 -10.840 -24.969  1.00  0.00    -0.350 OA
BRANCH   7   8
ATOM      8  C   UNL     1      -7.480 -10.567 -23.867  1.00  0.00     0.160 C 
ATOM      9  C   UNL     1      -8.276  -9.915 -22.742  1.00  0.00     0.035 C 
ENDBRANCH   7   8
ENDBRANCH   1   7
BRANCH   2  10
ATOM     10  O   UNL     1      -8.370  -7.864 -27.067  1.00  0.00    -0.385 OA
ATOM     11  H   UNL     1      -8.750  -6.973 -26.845  1.00  0.00     0.211 HD
ENDBRANCH   2  10
BRANCH   3  12
ATOM     12  O   UNL     1     -10.942  -9.781 -25.386  1.00  0.00    -0.387 OA
ATOM     13  H   UNL     1     -11.594  -9.146 -24.987  1.00  0.00     0.211 HD
ENDBRANCH   3  12
BRANCH   5  14
ATOM     14  C   UNL     1      -9.878 -12.395 -26.883  1.00  0.00     0.191 C 
BRANCH  14  15
ATOM     15  O   UNL     1     -11.241 -12.252 -26.590  1.00  0.00    -0.394 OA
ATOM     16  H   UNL     1     -11.715 -12.272 -27.463  1.00  0.00     0.210 HD
ENDBRANCH  14  15
ENDBRANCH   5  14
BRANCH   4  17
ATOM     17  O   UNL     1     -10.115  -9.207 -28.857  1.00  0.00    -0.387 OA
ATOM     18  H   UNL     1      -9.165  -9.369 -29.099  1.00  0.00     0.211 HD
ENDBRANCH   4  17
TORSDOF 7
ENDMDL
MODEL 8
REMARK VINA RESULT:    -2.924     13.608     15.491
REMARK INTER + INTRA:          -4.035
REMARK INTER:                  -3.589
REMARK INTRA:                  -0.446
REMARK UNBOUND:                -0.256
REMARK SMILES CCO[C@H]1O[C@@H](CO)[C@H](O)[C@@H](O)[C@@H]1O
REMARK SMILES IDX 4 1 13 2 11 3 9 4 6 5 5 6 3 7 2 8 1 9 14 10 12 12 7 14 8 15
REMARK SMILES IDX 10 17
REMARK H PARENT 14 11 12 13 8 16 10 18
REMARK Flexibility Score: inf
ROOT
ATOM      1  C   UNL     1     -10.326 -10.199 -27.959  1.00  0.00     0.281 C 
ATOM      2  C   UNL     1      -9.113 -11.143 -28.074  1.00  0.00     0.202 C 
ATOM      3  C   UNL     1      -8.337 -11.206 -26.751  1.00  0.00     0.179 C 
ATOM      4  C   UNL     1      -8.023  -9.788 -26.240  1.00  0.00     0.177 C 
ATOM      5  C   UNL     1      -9.264  -8.860 -26.284  1.00  0.00     0.178 C 
ATOM      6  O   UNL     1      -9.956  -8.894 -27.528  1.00  0.00    -0.341 OA
ENDROOT
BRANCH   1   7
ATOM      7  O   UNL     1     -11.314 -10.770 -27.118  1.00  0.00    -0.350 OA
BRANCH   7   8
ATOM      8  C   UNL     1     -12.573 -10.823 -27.765  1.00  0.00     0.160 C 
ATOM      9  C   UNL     1     -13.465  -9.692 -27.268  1.00  0.00     0.035 C 
ENDBRANCH   7   8
ENDBRANCH   1   7
BRANCH   2  10
ATOM     10  O   UNL     1      -8.256 -10.700 -29.096  1.00  0.00    -0.385 OA
ATOM     11  H   UNL     1      -7.900 -11.510 -29.547  1.00  0.00     0.211 HD
ENDBRANCH   2  10
BRANCH   3  12
ATOM     12  O   UNL     1      -9.068 -11.911 -25.781  1.00  0.00    -0.387 OA
ATOM     13  H   UNL     1      -9.988 -12.025 -26.137  1.00  0.00     0.211 HD
ENDBRANCH   3  12
BRANCH   5  14
ATOM     14  C   UNL     1     -10.209  -9.012 -25.075  1.00  0.00     0.191 C 
BRANCH  14  15
ATOM     15  O   UNL     1      -9.473  -9.369 -23.937  1.00  0.00    -0.394 OA
ATOM     16  H   UNL     1      -8.761  -9.987 -24.251  1.00  0.00     0.210 HD
ENDBRANCH  14  15
ENDBRANCH   5  14
BRANCH   4  17
ATOM     17  O   UNL     1      -7.005  -9.217 -27.025  1.00  0.00    -0.387 OA
ATOM     18  H   UNL     1      -7.435  -8.869 -27.850  1.00  0.00     0.211 HD
ENDBRANCH   4  17
TORSDOF 7
ENDMDL
MODEL 9
REMARK VINA RESULT:    -2.923     13.661     15.535
REMARK INTER + INTRA:          -4.033
REMARK INTER:                  -3.619
REMARK INTRA:                  -0.415
REMARK UNBOUND:                -0.256
REMARK SMILES CCO[C@H]1O[C@@H](CO)[C@H](O)[C@@H](O)[C@@H]1O
REMARK SMILES IDX 4 1 13 2 11 3 9 4 6 5 5 6 3 7 2 8 1 9 14 10 12 12 7 14 8 15
REMARK SMILES IDX 10 17
REMARK H PARENT 14 11 12 13 8 16 10 18
REMARK Flexibility Score: inf
ROOT
ATOM      1  C   UNL     1      -9.434  -8.466 -26.881  1.00  0.00     0.281 C 
ATOM      2  C   UNL     1      -9.426  -9.060 -25.459  1.00  0.00     0.202 C 
ATOM      3  C   UNL     1      -8.580 -10.339 -25.401  1.00  0.00     0.179 C 
ATOM      4  C   UNL     1      -8.994 -11.313 -26.519  1.00  0.00     0.177 C 
ATOM      5  C   UNL     1      -9.112 -10.610 -27.896  1.00  0.00     0.178 C 
ATOM      6  O   UNL     1      -9.872  -9.406 -27.856  1.00  0.00    -0.341 OA
ENDROOT
BRANCH   1   7
ATOM      7  O   UNL     1      -8.159  -7.935 -27.198  1.00  0.00    -0.350 OA
BRANCH   7   8
ATOM      8  C   UNL     1      -8.271  -6.745 -27.956  1.00  0.00     0.160 C 
ATOM      9  C   UNL     1      -6.972  -5.950 -27.882  1.00  0.00     0.035 C 
ENDBRANCH   7   8
ENDBRANCH   1   7
BRANCH   2  10
ATOM     10  O   UNL     1     -10.740  -9.352 -25.054  1.00  0.00    -0.385 OA
ATOM     11  H   UNL     1     -11.346  -8.800 -25.615  1.00  0.00     0.211 HD
ENDBRANCH   2  10
BRANCH   3  12
ATOM     12  O   UNL     1      -7.213 -10.035 -25.516  1.00  0.00    -0.387 OA
ATOM     13  H   UNL     1      -7.057  -9.751 -26.454  1.00  0.00     0.211 HD
ENDBRANCH   3  12
BRANCH   5  14
ATOM     14  C   UNL     1      -7.769 -10.439 -28.635  1.00  0.00     0.191 C 
BRANCH  14  15
ATOM     15  O   UNL     1      -6.849 -11.391 -28.175  1.00  0.00    -0.394 OA
ATOM     16  H   UNL     1      -7.284 -12.276 -28.295  1.00  0.00     0.210 HD
ENDBRANCH  14  15
ENDBRANCH   5  14
BRANCH   4  17
ATOM     17  O   UNL     1     -10.234 -11.897 -26.204  1.00  0.00    -0.387 OA
ATOM     18  H   UNL     1     -10.767 -11.919 -27.041  1.00  0.00     0.211 HD
ENDBRANCH   4  17
TORSDOF 7
ENDMDL
