MODEL 1
REMARK VINA RESULT:    -4.052      0.000      0.000
REMARK INTER + INTRA:          -4.162
REMARK INTER:                  -5.000
REMARK INTRA:                   0.838
REMARK UNBOUND:                 0.838
REMARK SMILES CC1=CC=CC(C)(C)CC1=O
REMARK SMILES IDX 1 1 2 2 3 3 10 4 11 5 9 6 4 8 5 9 6 10 7 11 8 12
REMARK H PARENT
REMARK Flexibility Score: 80.00
ROOT
ATOM      1  C   UNL     1     -29.864  13.654 -30.504  1.00  0.00     0.048 C 
ATOM      2  C   UNL     1     -28.636  13.056 -29.858  1.00  0.00    -0.008 C 
ATOM      3  C   UNL     1     -28.817  12.218 -28.815  1.00  0.00     0.007 C 
ENDROOT
BRANCH   2   4
ATOM      4  C   UNL     1     -27.320  13.490 -30.398  1.00  0.00     0.159 C 
ATOM      5  O   UNL     1     -27.301  14.262 -31.396  1.00  0.00    -0.295 OA
BRANCH   4   6
ATOM      6  C   UNL     1     -25.998  13.100 -29.805  1.00  0.00     0.091 CG0
ATOM      7  G   UNL     1     -25.840  11.581 -29.572  1.00  0.00     0.000 G0
ENDBRANCH   4   6
ENDBRANCH   2   4
BRANCH   3   8
ATOM      8  C   UNL     1     -27.816  11.485 -28.005  1.00  0.00    -0.003 C 
ATOM      9  C   UNL     1     -26.553  11.175 -28.320  1.00  0.00    -0.020 C 
BRANCH   9  10
ATOM     10  C   UNL     1     -25.825  11.576 -29.580  1.00  0.00    -0.010 CG0
ATOM     11  C   UNL     1     -26.302  10.712 -30.772  1.00  0.00     0.016 C 
ATOM     12  C   UNL     1     -24.317  11.308 -29.373  1.00  0.00     0.016 C 
ATOM     13  G   UNL     1     -26.016  13.089 -29.826  1.00  0.00     0.000 G0
ENDBRANCH   9  10
ENDBRANCH   3   8
TORSDOF 0
ENDMDL
MODEL 2
REMARK VINA RESULT:    -3.898     10.295     12.261
REMARK INTER + INTRA:          -3.972
REMARK INTER:                  -5.066
REMARK INTRA:                   1.094
REMARK UNBOUND:                 0.838
REMARK SMILES CC1=CC=CC(C)(C)CC1=O
REMARK SMILES IDX 1 1 2 2 3 3 10 4 11 5 9 6 4 8 5 9 6 10 7 11 8 12
REMARK H PARENT
REMARK Flexibility Score: 80.00
ROOT
ATOM      1  C   UNL     1     -18.117  12.796 -30.539  1.00  0.00     0.048 C 
ATOM      2  C   UNL     1     -16.637  12.848 -30.844  1.00  0.00    -0.008 C 
ATOM      3  C   UNL     1     -15.793  12.262 -29.968  1.00  0.00     0.007 C 
ENDROOT
BRANCH   2   4
ATOM      4  C   UNL     1     -16.233  13.591 -32.067  1.00  0.00     0.159 C 
ATOM      5  O   UNL     1     -17.095  14.303 -32.653  1.00  0.00    -0.295 OA
BRANCH   4   6
ATOM      6  C   UNL     1     -14.845  13.585 -32.634  1.00  0.00     0.091 CG0
ATOM      7  G   UNL     1     -13.758  14.047 -31.636  1.00  0.00     0.000 G0
ENDBRANCH   4   6
ENDBRANCH   2   4
BRANCH   3   8
ATOM      8  C   UNL     1     -14.317  12.147 -30.009  1.00  0.00    -0.003 C 
ATOM      9  C   UNL     1     -13.444  12.864 -30.727  1.00  0.00    -0.020 C 
BRANCH   9  10
ATOM     10  C   UNL     1     -13.775  14.029 -31.627  1.00  0.00    -0.010 CG0
ATOM     11  C   UNL     1     -12.495  14.553 -32.320  1.00  0.00     0.016 C 
ATOM     12  C   UNL     1     -14.342  15.170 -30.752  1.00  0.00     0.016 C 
ATOM     13  G   UNL     1     -14.869  13.607 -32.634  1.00  0.00     0.000 G0
ENDBRANCH   9  10
ENDBRANCH   3   8
TORSDOF 0
ENDMDL
MODEL 3
REMARK VINA RESULT:    -3.839     10.966     13.234
REMARK INTER + INTRA:          -3.899
REMARK INTER:                  -4.725
REMARK INTRA:                   0.826
REMARK UNBOUND:                 0.838
REMARK SMILES CC1=CC=CC(C)(C)CC1=O
REMARK SMILES IDX 1 1 2 2 3 3 10 4 11 5 9 6 4 8 5 9 6 10 7 11 8 12
REMARK H PARENT
REMARK Flexibility Score: 80.00
ROOT
ATOM      1  C   UNL     1     -11.108  13.052 -30.801  1.00  0.00     0.048 C 
ATOM      2  C   UNL     1     -12.573  13.405 -30.677  1.00  0.00    -0.008 C 
ATOM      3  C   UNL     1     -12.903  14.713 -30.615  1.00  0.00     0.007 C 
ENDROOT
BRANCH   2   4
ATOM      4  C   UNL     1     -13.527  12.269 -30.579  1.00  0.00     0.159 C 
ATOM      5  O   UNL     1     -13.081  11.094 -30.693  1.00  0.00    -0.295 OA
BRANCH   4   6
ATOM      6  C   UNL     1     -14.994  12.424 -30.309  1.00  0.00     0.091 CG0
ATOM      7  G   UNL     1     -15.704  13.418 -31.256  1.00  0.00     0.000 G0
ENDBRANCH   4   6
ENDBRANCH   2   4
BRANCH   3   8
ATOM      8  C   UNL     1     -14.237  15.348 -30.504  1.00  0.00    -0.003 C 
ATOM      9  C   UNL     1     -15.435  14.830 -30.799  1.00  0.00    -0.020 C 
BRANCH   9  10
ATOM     10  C   UNL     1     -15.706  13.417 -31.257  1.00  0.00    -0.010 CG0
ATOM     11  C   UNL     1     -15.315  13.252 -32.745  1.00  0.00     0.016 C 
ATOM     12  C   UNL     1     -17.224  13.151 -31.133  1.00  0.00     0.016 C 
ATOM     13  G   UNL     1     -14.966  12.425 -30.332  1.00  0.00     0.000 G0
ENDBRANCH   9  10
ENDBRANCH   3   8
TORSDOF 0
ENDMDL
MODEL 4
REMARK VINA RESULT:    -3.829      2.121      3.908
REMARK INTER + INTRA:          -3.886
REMARK INTER:                  -4.711
REMARK INTRA:                   0.825
REMARK UNBOUND:                 0.838
REMARK SMILES CC1=CC=CC(C)(C)CC1=O
REMARK SMILES IDX 1 1 2 2 3 3 10 4 11 5 9 6 4 8 5 9 6 10 7 11 8 12
REMARK H PARENT
REMARK Flexibility Score: 80.00
ROOT
ATOM      1  C   UNL     1     -24.911  10.147 -27.321  1.00  0.00     0.048 C 
ATOM      2  C   UNL     1     -25.714  11.142 -28.127  1.00  0.00    -0.008 C 
ATOM      3  C   UNL     1     -25.051  11.918 -29.011  1.00  0.00     0.007 C 
ENDROOT
BRANCH   2   4
ATOM      4  C   UNL     1     -27.170  11.217 -27.835  1.00  0.00     0.159 C 
ATOM      5  O   UNL     1     -27.661  10.411 -26.997  1.00  0.00    -0.295 OA
BRANCH   4   6
ATOM      6  C   UNL     1     -28.099  12.224 -28.446  1.00  0.00     0.091 CG0
ATOM      7  G   UNL     1     -28.010  12.305 -29.987  1.00  0.00     0.000 G0
ENDBRANCH   4   6
ENDBRANCH   2   4
BRANCH   3   8
ATOM      8  C   UNL     1     -25.567  12.957 -29.932  1.00  0.00    -0.003 C 
ATOM      9  C   UNL     1     -26.816  13.127 -30.382  1.00  0.00    -0.020 C 
BRANCH   9  10
ATOM     10  C   UNL     1     -28.025  12.314 -29.985  1.00  0.00    -0.010 CG0
ATOM     11  C   UNL     1     -28.001  10.938 -30.691  1.00  0.00     0.016 C 
ATOM     12  C   UNL     1     -29.290  13.067 -30.455  1.00  0.00     0.016 C 
ATOM     13  G   UNL     1     -28.081  12.194 -28.445  1.00  0.00     0.000 G0
ENDBRANCH   9  10
ENDBRANCH   3   8
TORSDOF 0
ENDMDL
MODEL 5
REMARK VINA RESULT:    -3.746      1.531      3.039
REMARK INTER + INTRA:          -3.784
REMARK INTER:                  -4.635
REMARK INTRA:                   0.850
REMARK UNBOUND:                 0.838
REMARK SMILES CC1=CC=CC(C)(C)CC1=O
REMARK SMILES IDX 1 1 2 2 3 3 10 4 11 5 9 6 4 8 5 9 6 10 7 11 8 12
REMARK H PARENT
REMARK Flexibility Score: 80.00
ROOT
ATOM      1  C   UNL     1     -24.945  14.751 -30.470  1.00  0.00     0.048 C 
ATOM      2  C   UNL     1     -25.709  13.449 -30.398  1.00  0.00    -0.008 C 
ATOM      3  C   UNL     1     -25.111  12.400 -29.794  1.00  0.00     0.007 C 
ENDROOT
BRANCH   2   4
ATOM      4  C   UNL     1     -27.044  13.422 -31.052  1.00  0.00     0.159 C 
ATOM      5  O   UNL     1     -27.500  14.493 -31.540  1.00  0.00    -0.295 OA
BRANCH   4   6
ATOM      6  C   UNL     1     -27.878  12.185 -31.210  1.00  0.00     0.091 CG0
ATOM      7  G   UNL     1     -28.118  11.418 -29.891  1.00  0.00     0.000 G0
ENDBRANCH   4   6
ENDBRANCH   2   4
BRANCH   3   8
ATOM      8  C   UNL     1     -25.614  11.025 -29.569  1.00  0.00    -0.003 C 
ATOM      9  C   UNL     1     -26.879  10.588 -29.575  1.00  0.00    -0.020 C 
BRANCH   9  10
ATOM     10  C   UNL     1     -28.104  11.410 -29.892  1.00  0.00    -0.010 CG0
ATOM     11  C   UNL     1     -28.454  12.333 -28.700  1.00  0.00     0.016 C 
ATOM     12  C   UNL     1     -29.292  10.445 -30.109  1.00  0.00     0.016 C 
ATOM     13  G   UNL     1     -27.874  12.193 -31.205  1.00  0.00     0.000 G0
ENDBRANCH   9  10
ENDBRANCH   3   8
TORSDOF 0
ENDMDL
MODEL 6
REMARK VINA RESULT:    -3.676     10.889     13.112
REMARK INTER + INTRA:          -3.698
REMARK INTER:                  -4.544
REMARK INTRA:                   0.846
REMARK UNBOUND:                 0.838
REMARK SMILES CC1=CC=CC(C)(C)CC1=O
REMARK SMILES IDX 1 1 2 2 3 3 10 4 11 5 9 6 4 8 5 9 6 10 7 11 8 12
REMARK H PARENT
REMARK Flexibility Score: 80.00
ROOT
ATOM      1  C   UNL     1     -11.361  14.753 -31.061  1.00  0.00     0.048 C 
ATOM      2  C   UNL     1     -12.596  13.999 -30.625  1.00  0.00    -0.008 C 
ATOM      3  C   UNL     1     -12.660  13.579 -29.344  1.00  0.00     0.007 C 
ENDROOT
BRANCH   2   4
ATOM      4  C   UNL     1     -13.621  13.737 -31.671  1.00  0.00     0.159 C 
ATOM      5  O   UNL     1     -13.457  14.239 -32.817  1.00  0.00    -0.295 OA
BRANCH   4   6
ATOM      6  C   UNL     1     -14.829  12.872 -31.466  1.00  0.00     0.091 CG0
ATOM      7  G   UNL     1     -15.671  13.254 -30.227  1.00  0.00     0.000 G0
ENDBRANCH   4   6
ENDBRANCH   2   4
BRANCH   3   8
ATOM      8  C   UNL     1     -13.733  12.838 -28.642  1.00  0.00    -0.003 C 
ATOM      9  C   UNL     1     -15.021  12.713 -28.984  1.00  0.00    -0.020 C 
BRANCH   9  10
ATOM     10  C   UNL     1     -15.667  13.258 -30.235  1.00  0.00    -0.010 CG0
ATOM     11  C   UNL     1     -15.880  14.785 -30.108  1.00  0.00     0.016 C 
ATOM     12  C   UNL     1     -17.057  12.597 -30.389  1.00  0.00     0.016 C 
ATOM     13  G   UNL     1     -14.814  12.873 -31.465  1.00  0.00     0.000 G0
ENDBRANCH   9  10
ENDBRANCH   3   8
TORSDOF 0
ENDMDL
MODEL 7
REMARK VINA RESULT:    -3.590      9.362     11.364
REMARK INTER + INTRA:          -3.591
REMARK INTER:                  -4.420
REMARK INTRA:                   0.829
REMARK UNBOUND:                 0.838
REMARK SMILES CC1=CC=CC(C)(C)CC1=O
REMARK SMILES IDX 1 1 2 2 3 3 10 4 11 5 9 6 4 8 5 9 6 10 7 11 8 12
REMARK H PARENT
REMARK Flexibility Score: 80.00
ROOT
ATOM      1  C   UNL     1     -13.911  15.126 -31.271  1.00  0.00     0.048 C 
ATOM      2  C   UNL     1     -14.647  13.985 -30.608  1.00  0.00    -0.008 C 
ATOM      3  C   UNL     1     -14.038  13.353 -29.582  1.00  0.00     0.007 C 
ENDROOT
BRANCH   2   4
ATOM      4  C   UNL     1     -15.969  13.620 -31.183  1.00  0.00     0.159 C 
ATOM      5  O   UNL     1     -16.438  14.329 -32.116  1.00  0.00    -0.295 OA
BRANCH   4   6
ATOM      6  C   UNL     1     -16.774  12.430 -30.752  1.00  0.00     0.091 CG0
ATOM      7  G   UNL     1     -17.004  12.347 -29.226  1.00  0.00     0.000 G0
ENDBRANCH   4   6
ENDBRANCH   2   4
BRANCH   3   8
ATOM      8  C   UNL     1     -14.514  12.225 -28.748  1.00  0.00    -0.003 C 
ATOM      9  C   UNL     1     -15.768  11.798 -28.560  1.00  0.00    -0.020 C 
BRANCH   9  10
ATOM     10  C   UNL     1     -17.005  12.344 -29.233  1.00  0.00    -0.010 CG0
ATOM     11  C   UNL     1     -17.412  13.693 -28.594  1.00  0.00     0.016 C 
ATOM     12  C   UNL     1     -18.161  11.343 -29.005  1.00  0.00     0.016 C 
ATOM     13  G   UNL     1     -16.758  12.454 -30.754  1.00  0.00     0.000 G0
ENDBRANCH   9  10
ENDBRANCH   3   8
TORSDOF 0
ENDMDL
MODEL 8
REMARK VINA RESULT:    -3.538     10.742     12.954
REMARK INTER + INTRA:          -3.527
REMARK INTER:                  -4.373
REMARK INTRA:                   0.846
REMARK UNBOUND:                 0.838
REMARK SMILES CC1=CC=CC(C)(C)CC1=O
REMARK SMILES IDX 1 1 2 2 3 3 10 4 11 5 9 6 4 8 5 9 6 10 7 11 8 12
REMARK H PARENT
REMARK Flexibility Score: 80.00
ROOT
ATOM      1  C   UNL     1     -11.486  14.270 -31.484  1.00  0.00     0.048 C 
ATOM      2  C   UNL     1     -12.979  14.058 -31.385  1.00  0.00    -0.008 C 
ATOM      3  C   UNL     1     -13.622  13.579 -32.472  1.00  0.00     0.007 C 
ENDROOT
BRANCH   2   4
ATOM      4  C   UNL     1     -13.625  14.450 -30.104  1.00  0.00     0.159 C 
ATOM      5  O   UNL     1     -12.892  14.826 -29.148  1.00  0.00    -0.295 OA
BRANCH   4   6
ATOM      6  C   UNL     1     -15.109  14.469 -29.882  1.00  0.00     0.091 CG0
ATOM      7  G   UNL     1     -15.811  13.137 -30.227  1.00  0.00     0.000 G0
ENDBRANCH   4   6
ENDBRANCH   2   4
BRANCH   3   8
ATOM      8  C   UNL     1     -15.057  13.265 -32.661  1.00  0.00    -0.003 C 
ATOM      9  C   UNL     1     -15.991  13.040 -31.730  1.00  0.00    -0.020 C 
BRANCH   9  10
ATOM     10  C   UNL     1     -15.799  13.127 -30.235  1.00  0.00    -0.010 CG0
ATOM     11  C   UNL     1     -15.030  11.888 -29.720  1.00  0.00     0.016 C 
ATOM     12  C   UNL     1     -17.193  13.131 -29.568  1.00  0.00     0.016 C 
ATOM     13  G   UNL     1     -15.094  14.456 -29.884  1.00  0.00     0.000 G0
ENDBRANCH   9  10
ENDBRANCH   3   8
TORSDOF 0
ENDMDL
MODEL 9
REMARK VINA RESULT:    -3.476      1.867      3.276
REMARK INTER + INTRA:          -3.450
REMARK INTER:                  -4.309
REMARK INTRA:                   0.859
REMARK UNBOUND:                 0.838
REMARK SMILES CC1=CC=CC(C)(C)CC1=O
REMARK SMILES IDX 1 1 2 2 3 3 10 4 11 5 9 6 4 8 5 9 6 10 7 11 8 12
REMARK H PARENT
REMARK Flexibility Score: 80.00
ROOT
ATOM      1  C   UNL     1     -24.540  14.472 -30.482  1.00  0.00     0.048 C 
ATOM      2  C   UNL     1     -25.794  13.632 -30.408  1.00  0.00    -0.008 C 
ATOM      3  C   UNL     1     -26.975  14.241 -30.652  1.00  0.00     0.007 C 
ENDROOT
BRANCH   2   4
ATOM      4  C   UNL     1     -25.622  12.208 -30.017  1.00  0.00     0.159 C 
ATOM      5  O   UNL     1     -24.452  11.762 -29.861  1.00  0.00    -0.295 OA
BRANCH   4   6
ATOM      6  C   UNL     1     -26.758  11.265 -29.753  1.00  0.00     0.091 CG0
ATOM      7  G   UNL     1     -27.804  11.211 -30.890  1.00  0.00     0.000 G0
ENDBRANCH   4   6
ENDBRANCH   2   4
BRANCH   3   8
ATOM      8  C   UNL     1     -28.345  13.678 -30.661  1.00  0.00    -0.003 C 
ATOM      9  C   UNL     1     -28.722  12.401 -30.793  1.00  0.00    -0.020 C 
BRANCH   9  10
ATOM     10  C   UNL     1     -27.803  11.207 -30.895  1.00  0.00    -0.010 CG0
ATOM     11  C   UNL     1     -27.157  11.145 -32.299  1.00  0.00     0.016 C 
ATOM     12  C   UNL     1     -28.649   9.927 -30.705  1.00  0.00     0.016 C 
ATOM     13  G   UNL     1     -26.757  11.264 -29.758  1.00  0.00     0.000 G0
ENDBRANCH   9  10
ENDBRANCH   3   8
TORSDOF 0
ENDMDL
