MODEL 1
REMARK VINA RESULT:    -4.609      0.000      0.000
REMARK INTER + INTRA:         -16.999
REMARK INTER:                 -12.154
REMARK INTRA:                  -4.844
REMARK UNBOUND:                -4.844
REMARK SMILES CCCCCCCCCCCCCCCCCCCCCCCCCCCCCC(=O)[O-]
REMARK SMILES IDX 16 1 17 2 18 3 19 4 20 5 21 6 22 7 23 8 24 9 25 10 26 11
REMARK SMILES IDX 27 12 28 13 29 14 30 15 31 16 32 17 15 18 14 19 13 20 12 21
REMARK SMILES IDX 11 22 10 23 9 24 8 25 7 26 6 27 5 28 4 29 3 30 2 31 1 32
REMARK H PARENT
REMARK Flexibility Score: inf
ROOT
ATOM      1  C   UNL     1      16.266  51.524 158.693  1.00  0.00     0.000 C 
ENDROOT
BRANCH   1   2
ATOM      2  C   UNL     1      17.426  52.527 158.834  1.00  0.00     0.000 C 
BRANCH   2   3
ATOM      3  C   UNL     1      17.347  53.334 160.141  1.00  0.00     0.000 C 
BRANCH   3   4
ATOM      4  C   UNL     1      18.723  53.858 160.590  1.00  0.00     0.000 C 
BRANCH   4   5
ATOM      5  C   UNL     1      19.793  53.714 159.497  1.00  0.00     0.000 C 
BRANCH   5   6
ATOM      6  C   UNL     1      21.225  53.797 160.052  1.00  0.00     0.000 C 
BRANCH   6   7
ATOM      7  C   UNL     1      21.608  55.219 160.489  1.00  0.00     0.000 C 
BRANCH   7   8
ATOM      8  C   UNL     1      23.120  55.374 160.740  1.00  0.00     0.000 C 
BRANCH   8   9
ATOM      9  C   UNL     1      23.454  55.484 162.243  1.00  0.00     0.000 C 
BRANCH   9  10
ATOM     10  C   UNL     1      22.832  56.719 162.926  1.00  0.00     0.000 C 
BRANCH  10  11
ATOM     11  C   UNL     1      23.696  57.991 162.877  1.00  0.00     0.000 C 
BRANCH  11  12
ATOM     12  C   UNL     1      22.979  59.170 162.196  1.00  0.00     0.000 C 
BRANCH  12  13
ATOM     13  C   UNL     1      21.627  58.766 161.587  1.00  0.00     0.006 C 
BRANCH  13  14
ATOM     14  C   UNL     1      20.478  59.687 162.024  1.00  0.00     0.053 C 
BRANCH  14  15
ATOM     15  C   UNL     1      20.319  59.655 163.512  1.00  0.00     0.041 C 
ATOM     16  O   UNL     1      20.505  60.698 164.192  1.00  0.00    -0.550 OA
ATOM     17  O   UNL     1      20.014  58.459 164.151  1.00  0.00    -0.550 OA
ENDBRANCH  14  15
ENDBRANCH  13  14
ENDBRANCH  12  13
ENDBRANCH  11  12
ENDBRANCH  10  11
ENDBRANCH   9  10
ENDBRANCH   8   9
ENDBRANCH   7   8
ENDBRANCH   6   7
ENDBRANCH   5   6
ENDBRANCH   4   5
ENDBRANCH   3   4
ENDBRANCH   2   3
ENDBRANCH   1   2
BRANCH   1  18
ATOM     18  C   UNL     1      15.063  51.879 159.593  1.00  0.00     0.000 C 
BRANCH  18  19
ATOM     19  C   UNL     1      13.916  52.591 158.850  1.00  0.00     0.000 C 
BRANCH  19  20
ATOM     20  C   UNL     1      14.061  52.650 157.317  1.00  0.00     0.000 C 
BRANCH  20  21
ATOM     21  C   UNL     1      13.229  53.747 156.628  1.00  0.00     0.000 C 
BRANCH  21  22
ATOM     22  C   UNL     1      14.095  54.849 155.992  1.00  0.00     0.000 C 
BRANCH  22  23
ATOM     23  C   UNL     1      15.590  54.682 156.303  1.00  0.00     0.000 C 
BRANCH  23  24
ATOM     24  C   UNL     1      16.124  55.776 157.242  1.00  0.00    -0.000 C 
BRANCH  24  25
ATOM     25  C   UNL     1      16.024  57.162 156.589  1.00  0.00    -0.000 C 
BRANCH  25  26
ATOM     26  C   UNL     1      17.393  57.723 156.161  1.00  0.00    -0.000 C 
BRANCH  26  27
ATOM     27  C   UNL     1      18.607  56.897 156.624  1.00  0.00    -0.000 C 
BRANCH  27  28
ATOM     28  C   UNL     1      19.775  57.768 157.110  1.00  0.00    -0.000 C 
BRANCH  28  29
ATOM     29  C   UNL     1      19.544  58.240 158.550  1.00  0.00    -0.000 C 
BRANCH  29  30
ATOM     30  C   UNL     1      18.846  57.157 159.381  1.00  0.00    -0.000 C 
BRANCH  30  31
ATOM     31  C   UNL     1      17.660  57.738 160.159  1.00  0.00    -0.003 C 
ATOM     32  C   UNL     1      17.732  57.362 161.635  1.00  0.00     0.004 C 
ENDBRANCH  30  31
ENDBRANCH  29  30
ENDBRANCH  28  29
ENDBRANCH  27  28
ENDBRANCH  26  27
ENDBRANCH  25  26
ENDBRANCH  24  25
ENDBRANCH  23  24
ENDBRANCH  22  23
ENDBRANCH  21  22
ENDBRANCH  20  21
ENDBRANCH  19  20
ENDBRANCH  18  19
ENDBRANCH   1  18
TORSDOF 28
ENDMDL
MODEL 2
REMARK VINA RESULT:    -4.598      2.369      5.509
REMARK INTER + INTRA:         -16.969
REMARK INTER:                 -12.535
REMARK INTRA:                  -4.435
REMARK UNBOUND:                -4.844
REMARK SMILES CCCCCCCCCCCCCCCCCCCCCCCCCCCCCC(=O)[O-]
REMARK SMILES IDX 16 1 17 2 18 3 19 4 20 5 21 6 22 7 23 8 24 9 25 10 26 11
REMARK SMILES IDX 27 12 28 13 29 14 30 15 31 16 32 17 15 18 14 19 13 20 12 21
REMARK SMILES IDX 11 22 10 23 9 24 8 25 7 26 6 27 5 28 4 29 3 30 2 31 1 32
REMARK H PARENT
REMARK Flexibility Score: inf
ROOT
ATOM      1  C   UNL     1      15.584  55.199 156.920  1.00  0.00     0.000 C 
ENDROOT
BRANCH   1   2
ATOM      2  C   UNL     1      14.227  54.517 156.669  1.00  0.00     0.000 C 
BRANCH   2   3
ATOM      3  C   UNL     1      14.220  53.043 157.111  1.00  0.00     0.000 C 
BRANCH   3   4
ATOM      4  C   UNL     1      15.384  52.243 156.500  1.00  0.00     0.000 C 
BRANCH   4   5
ATOM      5  C   UNL     1      16.215  51.509 157.563  1.00  0.00     0.000 C 
BRANCH   5   6
ATOM      6  C   UNL     1      16.196  52.219 158.927  1.00  0.00     0.000 C 
BRANCH   6   7
ATOM      7  C   UNL     1      17.488  53.005 159.203  1.00  0.00     0.000 C 
BRANCH   7   8
ATOM      8  C   UNL     1      17.425  53.804 160.518  1.00  0.00     0.000 C 
BRANCH   8   9
ATOM      9  C   UNL     1      18.828  54.085 161.097  1.00  0.00     0.000 C 
BRANCH   9  10
ATOM     10  C   UNL     1      19.949  54.068 160.039  1.00  0.00     0.000 C 
BRANCH  10  11
ATOM     11  C   UNL     1      21.052  55.121 160.245  1.00  0.00     0.000 C 
BRANCH  11  12
ATOM     12  C   UNL     1      21.259  55.482 161.726  1.00  0.00     0.000 C 
BRANCH  12  13
ATOM     13  C   UNL     1      22.744  55.613 162.100  1.00  0.00     0.006 C 
BRANCH  13  14
ATOM     14  C   UNL     1      23.656  54.730 161.237  1.00  0.00     0.053 C 
BRANCH  14  15
ATOM     15  C   UNL     1      25.037  54.685 161.812  1.00  0.00     0.041 C 
ATOM     16  O   UNL     1      25.511  53.599 162.238  1.00  0.00    -0.550 OA
ATOM     17  O   UNL     1      25.781  55.853 161.923  1.00  0.00    -0.550 OA
ENDBRANCH  14  15
ENDBRANCH  13  14
ENDBRANCH  12  13
ENDBRANCH  11  12
ENDBRANCH  10  11
ENDBRANCH   9  10
ENDBRANCH   8   9
ENDBRANCH   7   8
ENDBRANCH   6   7
ENDBRANCH   5   6
ENDBRANCH   4   5
ENDBRANCH   3   4
ENDBRANCH   2   3
ENDBRANCH   1   2
BRANCH   1  18
ATOM     18  C   UNL     1      15.509  56.735 156.787  1.00  0.00     0.000 C 
BRANCH  18  19
ATOM     19  C   UNL     1      16.783  57.466 157.253  1.00  0.00     0.000 C 
BRANCH  19  20
ATOM     20  C   UNL     1      18.008  56.563 157.495  1.00  0.00     0.000 C 
BRANCH  20  21
ATOM     21  C   UNL     1      19.287  56.990 156.751  1.00  0.00     0.000 C 
BRANCH  21  22
ATOM     22  C   UNL     1      19.902  58.286 157.307  1.00  0.00     0.000 C 
BRANCH  22  23
ATOM     23  C   UNL     1      20.889  58.028 158.456  1.00  0.00     0.000 C 
BRANCH  23  24
ATOM     24  C   UNL     1      20.601  58.899 159.690  1.00  0.00    -0.000 C 
BRANCH  24  25
ATOM     25  C   UNL     1      19.301  59.696 159.512  1.00  0.00    -0.000 C 
BRANCH  25  26
ATOM     26  C   UNL     1      18.163  59.199 160.423  1.00  0.00    -0.000 C 
BRANCH  26  27
ATOM     27  C   UNL     1      18.243  57.709 160.807  1.00  0.00    -0.000 C 
BRANCH  27  28
ATOM     28  C   UNL     1      17.554  57.397 162.144  1.00  0.00    -0.000 C 
BRANCH  28  29
ATOM     29  C   UNL     1      18.587  57.095 163.235  1.00  0.00    -0.000 C 
BRANCH  29  30
ATOM     30  C   UNL     1      18.391  58.012 164.449  1.00  0.00    -0.000 C 
BRANCH  30  31
ATOM     31  C   UNL     1      17.684  57.272 165.590  1.00  0.00    -0.003 C 
ATOM     32  C   UNL     1      16.430  58.018 166.036  1.00  0.00     0.004 C 
ENDBRANCH  30  31
ENDBRANCH  29  30
ENDBRANCH  28  29
ENDBRANCH  27  28
ENDBRANCH  26  27
ENDBRANCH  25  26
ENDBRANCH  24  25
ENDBRANCH  23  24
ENDBRANCH  22  23
ENDBRANCH  21  22
ENDBRANCH  20  21
ENDBRANCH  19  20
ENDBRANCH  18  19
ENDBRANCH   1  18
TORSDOF 28
ENDMDL
MODEL 3
REMARK VINA RESULT:    -4.598      1.617      5.345
REMARK INTER + INTRA:         -16.967
REMARK INTER:                 -11.866
REMARK INTRA:                  -5.101
REMARK UNBOUND:                -4.844
REMARK SMILES CCCCCCCCCCCCCCCCCCCCCCCCCCCCCC(=O)[O-]
REMARK SMILES IDX 16 1 17 2 18 3 19 4 20 5 21 6 22 7 23 8 24 9 25 10 26 11
REMARK SMILES IDX 27 12 28 13 29 14 30 15 31 16 32 17 15 18 14 19 13 20 12 21
REMARK SMILES IDX 11 22 10 23 9 24 8 25 7 26 6 27 5 28 4 29 3 30 2 31 1 32
REMARK H PARENT
REMARK Flexibility Score: inf
ROOT
ATOM      1  C   UNL     1      15.488  52.026 158.288  1.00  0.00     0.000 C 
ENDROOT
BRANCH   1   2
ATOM      2  C   UNL     1      14.103  52.696 158.354  1.00  0.00     0.000 C 
BRANCH   2   3
ATOM      3  C   UNL     1      13.730  53.404 157.041  1.00  0.00     0.000 C 
BRANCH   3   4
ATOM      4  C   UNL     1      14.954  54.017 156.338  1.00  0.00     0.000 C 
BRANCH   4   5
ATOM      5  C   UNL     1      15.131  55.509 156.660  1.00  0.00     0.000 C 
BRANCH   5   6
ATOM      6  C   UNL     1      16.442  55.803 157.409  1.00  0.00     0.000 C 
BRANCH   6   7
ATOM      7  C   UNL     1      17.673  55.218 156.700  1.00  0.00     0.000 C 
BRANCH   7   8
ATOM      8  C   UNL     1      18.914  56.121 156.826  1.00  0.00     0.000 C 
BRANCH   8   9
ATOM      9  C   UNL     1      19.102  56.657 158.261  1.00  0.00     0.000 C 
BRANCH   9  10
ATOM     10  C   UNL     1      18.930  58.185 158.378  1.00  0.00     0.000 C 
BRANCH  10  11
ATOM     11  C   UNL     1      18.227  58.662 159.660  1.00  0.00     0.000 C 
BRANCH  11  12
ATOM     12  C   UNL     1      18.007  57.527 160.675  1.00  0.00     0.000 C 
BRANCH  12  13
ATOM     13  C   UNL     1      18.795  57.738 161.978  1.00  0.00     0.006 C 
BRANCH  13  14
ATOM     14  C   UNL     1      17.933  57.545 163.234  1.00  0.00     0.053 C 
BRANCH  14  15
ATOM     15  C   UNL     1      18.702  57.925 164.460  1.00  0.00     0.041 C 
ATOM     16  O   UNL     1      19.731  58.644 164.365  1.00  0.00    -0.550 OA
ATOM     17  O   UNL     1      18.308  57.444 165.703  1.00  0.00    -0.550 OA
ENDBRANCH  14  15
ENDBRANCH  13  14
ENDBRANCH  12  13
ENDBRANCH  11  12
ENDBRANCH  10  11
ENDBRANCH   9  10
ENDBRANCH   8   9
ENDBRANCH   7   8
ENDBRANCH   6   7
ENDBRANCH   5   6
ENDBRANCH   4   5
ENDBRANCH   3   4
ENDBRANCH   2   3
ENDBRANCH   1   2
BRANCH   1  18
ATOM     18  C   UNL     1      16.275  52.160 159.609  1.00  0.00     0.000 C 
BRANCH  18  19
ATOM     19  C   UNL     1      17.523  53.058 159.505  1.00  0.00     0.000 C 
BRANCH  19  20
ATOM     20  C   UNL     1      17.815  53.925 160.746  1.00  0.00     0.000 C 
BRANCH  20  21
ATOM     21  C   UNL     1      19.308  54.121 161.065  1.00  0.00     0.000 C 
BRANCH  21  22
ATOM     22  C   UNL     1      20.235  53.381 160.085  1.00  0.00     0.000 C 
BRANCH  22  23
ATOM     23  C   UNL     1      21.666  53.942 160.082  1.00  0.00     0.000 C 
BRANCH  23  24
ATOM     24  C   UNL     1      21.750  55.348 160.698  1.00  0.00    -0.000 C 
BRANCH  24  25
ATOM     25  C   UNL     1      23.210  55.761 160.936  1.00  0.00    -0.000 C 
BRANCH  25  26
ATOM     26  C   UNL     1      23.535  57.160 160.380  1.00  0.00    -0.000 C 
BRANCH  26  27
ATOM     27  C   UNL     1      22.329  57.927 159.806  1.00  0.00    -0.000 C 
BRANCH  27  28
ATOM     28  C   UNL     1      21.810  59.021 160.751  1.00  0.00    -0.000 C 
BRANCH  28  29
ATOM     29  C   UNL     1      22.069  60.416 160.169  1.00  0.00    -0.000 C 
BRANCH  29  30
ATOM     30  C   UNL     1      20.838  61.316 160.325  1.00  0.00    -0.000 C 
BRANCH  30  31
ATOM     31  C   UNL     1      20.223  61.648 158.960  1.00  0.00    -0.003 C 
ATOM     32  C   UNL     1      21.261  62.256 158.021  1.00  0.00     0.004 C 
ENDBRANCH  30  31
ENDBRANCH  29  30
ENDBRANCH  28  29
ENDBRANCH  27  28
ENDBRANCH  26  27
ENDBRANCH  25  26
ENDBRANCH  24  25
ENDBRANCH  23  24
ENDBRANCH  22  23
ENDBRANCH  21  22
ENDBRANCH  20  21
ENDBRANCH  19  20
ENDBRANCH  18  19
ENDBRANCH   1  18
TORSDOF 28
ENDMDL
MODEL 4
REMARK VINA RESULT:    -4.569      2.006      5.750
REMARK INTER + INTRA:         -16.892
REMARK INTER:                 -12.354
REMARK INTRA:                  -4.538
REMARK UNBOUND:                -4.844
REMARK SMILES CCCCCCCCCCCCCCCCCCCCCCCCCCCCCC(=O)[O-]
REMARK SMILES IDX 16 1 17 2 18 3 19 4 20 5 21 6 22 7 23 8 24 9 25 10 26 11
REMARK SMILES IDX 27 12 28 13 29 14 30 15 31 16 32 17 15 18 14 19 13 20 12 21
REMARK SMILES IDX 11 22 10 23 9 24 8 25 7 26 6 27 5 28 4 29 3 30 2 31 1 32
REMARK H PARENT
REMARK Flexibility Score: inf
ROOT
ATOM      1  C   UNL     1      15.801  55.159 156.769  1.00  0.00     0.000 C 
ENDROOT
BRANCH   1   2
ATOM      2  C   UNL     1      14.381  55.229 156.177  1.00  0.00     0.000 C 
BRANCH   2   3
ATOM      3  C   UNL     1      13.503  54.045 156.617  1.00  0.00     0.000 C 
BRANCH   3   4
ATOM      4  C   UNL     1      14.332  52.875 157.174  1.00  0.00     0.000 C 
BRANCH   4   5
ATOM      5  C   UNL     1      14.027  52.590 158.652  1.00  0.00     0.000 C 
BRANCH   5   6
ATOM      6  C   UNL     1      15.200  51.914 159.383  1.00  0.00     0.000 C 
BRANCH   6   7
ATOM      7  C   UNL     1      16.492  51.910 158.550  1.00  0.00     0.000 C 
BRANCH   7   8
ATOM      8  C   UNL     1      17.650  52.643 159.252  1.00  0.00     0.000 C 
BRANCH   8   9
ATOM      9  C   UNL     1      17.154  53.809 160.133  1.00  0.00     0.000 C 
BRANCH   9  10
ATOM     10  C   UNL     1      18.229  54.882 160.402  1.00  0.00     0.000 C 
BRANCH  10  11
ATOM     11  C   UNL     1      19.438  54.398 161.222  1.00  0.00     0.000 C 
BRANCH  11  12
ATOM     12  C   UNL     1      20.747  54.411 160.416  1.00  0.00     0.000 C 
BRANCH  12  13
ATOM     13  C   UNL     1      21.938  54.939 161.232  1.00  0.00     0.006 C 
BRANCH  13  14
ATOM     14  C   UNL     1      22.410  56.325 160.770  1.00  0.00     0.053 C 
BRANCH  14  15
ATOM     15  C   UNL     1      22.877  57.135 161.938  1.00  0.00     0.041 C 
ATOM     16  O   UNL     1      23.065  58.375 161.816  1.00  0.00    -0.550 OA
ATOM     17  O   UNL     1      23.154  56.511 163.149  1.00  0.00    -0.550 OA
ENDBRANCH  14  15
ENDBRANCH  13  14
ENDBRANCH  12  13
ENDBRANCH  11  12
ENDBRANCH  10  11
ENDBRANCH   9  10
ENDBRANCH   8   9
ENDBRANCH   7   8
ENDBRANCH   6   7
ENDBRANCH   5   6
ENDBRANCH   4   5
ENDBRANCH   3   4
ENDBRANCH   2   3
ENDBRANCH   1   2
BRANCH   1  18
ATOM     18  C   UNL     1      16.251  56.499 157.387  1.00  0.00     0.000 C 
BRANCH  18  19
ATOM     19  C   UNL     1      16.726  57.537 156.351  1.00  0.00     0.000 C 
BRANCH  19  20
ATOM     20  C   UNL     1      18.247  57.779 156.312  1.00  0.00     0.000 C 
BRANCH  20  21
ATOM     21  C   UNL     1      19.077  56.851 157.218  1.00  0.00     0.000 C 
BRANCH  21  22
ATOM     22  C   UNL     1      19.817  57.606 158.336  1.00  0.00     0.000 C 
BRANCH  22  23
ATOM     23  C   UNL     1      19.558  59.120 158.302  1.00  0.00     0.000 C 
BRANCH  23  24
ATOM     24  C   UNL     1      18.857  59.629 159.572  1.00  0.00    -0.000 C 
BRANCH  24  25
ATOM     25  C   UNL     1      18.710  58.507 160.609  1.00  0.00    -0.000 C 
BRANCH  25  26
ATOM     26  C   UNL     1      19.427  58.821 161.937  1.00  0.00    -0.000 C 
BRANCH  26  27
ATOM     27  C   UNL     1      19.494  57.648 162.931  1.00  0.00    -0.000 C 
BRANCH  27  28
ATOM     28  C   UNL     1      18.122  57.281 163.519  1.00  0.00    -0.000 C 
BRANCH  28  29
ATOM     29  C   UNL     1      18.123  57.427 165.045  1.00  0.00    -0.000 C 
BRANCH  29  30
ATOM     30  C   UNL     1      16.694  57.547 165.588  1.00  0.00    -0.000 C 
BRANCH  30  31
ATOM     31  C   UNL     1      16.511  58.849 166.375  1.00  0.00    -0.003 C 
ATOM     32  C   UNL     1      17.795  59.239 167.102  1.00  0.00     0.004 C 
ENDBRANCH  30  31
ENDBRANCH  29  30
ENDBRANCH  28  29
ENDBRANCH  27  28
ENDBRANCH  26  27
ENDBRANCH  25  26
ENDBRANCH  24  25
ENDBRANCH  23  24
ENDBRANCH  22  23
ENDBRANCH  21  22
ENDBRANCH  20  21
ENDBRANCH  19  20
ENDBRANCH  18  19
ENDBRANCH   1  18
TORSDOF 28
ENDMDL
MODEL 5
REMARK VINA RESULT:    -4.535      1.888      2.909
REMARK INTER + INTRA:         -16.802
REMARK INTER:                 -11.694
REMARK INTRA:                  -5.108
REMARK UNBOUND:                -4.844
REMARK SMILES CCCCCCCCCCCCCCCCCCCCCCCCCCCCCC(=O)[O-]
REMARK SMILES IDX 16 1 17 2 18 3 19 4 20 5 21 6 22 7 23 8 24 9 25 10 26 11
REMARK SMILES IDX 27 12 28 13 29 14 30 15 31 16 32 17 15 18 14 19 13 20 12 21
REMARK SMILES IDX 11 22 10 23 9 24 8 25 7 26 6 27 5 28 4 29 3 30 2 31 1 32
REMARK H PARENT
REMARK Flexibility Score: inf
ROOT
ATOM      1  C   UNL     1      16.922  52.246 158.139  1.00  0.00     0.000 C 
ENDROOT
BRANCH   1   2
ATOM      2  C   UNL     1      17.938  53.148 158.863  1.00  0.00     0.000 C 
BRANCH   2   3
ATOM      3  C   UNL     1      17.496  53.499 160.294  1.00  0.00     0.000 C 
BRANCH   3   4
ATOM      4  C   UNL     1      18.244  54.720 160.856  1.00  0.00     0.000 C 
BRANCH   4   5
ATOM      5  C   UNL     1      18.878  54.442 162.228  1.00  0.00     0.000 C 
BRANCH   5   6
ATOM      6  C   UNL     1      20.415  54.474 162.190  1.00  0.00     0.000 C 
BRANCH   6   7
ATOM      7  C   UNL     1      20.973  54.455 160.758  1.00  0.00     0.000 C 
BRANCH   7   8
ATOM      8  C   UNL     1      22.197  55.373 160.588  1.00  0.00     0.000 C 
BRANCH   8   9
ATOM      9  C   UNL     1      22.390  56.318 161.793  1.00  0.00     0.000 C 
BRANCH   9  10
ATOM     10  C   UNL     1      22.161  57.805 161.456  1.00  0.00     0.000 C 
BRANCH  10  11
ATOM     11  C   UNL     1      21.322  58.582 162.486  1.00  0.00     0.000 C 
BRANCH  11  12
ATOM     12  C   UNL     1      19.861  58.105 162.543  1.00  0.00     0.000 C 
BRANCH  12  13
ATOM     13  C   UNL     1      19.309  58.062 163.977  1.00  0.00     0.006 C 
BRANCH  13  14
ATOM     14  C   UNL     1      17.899  57.459 164.056  1.00  0.00     0.053 C 
BRANCH  14  15
ATOM     15  C   UNL     1      17.444  57.376 165.479  1.00  0.00     0.041 C 
ATOM     16  O   UNL     1      17.055  58.411 166.082  1.00  0.00    -0.550 OA
ATOM     17  O   UNL     1      17.498  56.163 166.155  1.00  0.00    -0.550 OA
ENDBRANCH  14  15
ENDBRANCH  13  14
ENDBRANCH  12  13
ENDBRANCH  11  12
ENDBRANCH  10  11
ENDBRANCH   9  10
ENDBRANCH   8   9
ENDBRANCH   7   8
ENDBRANCH   6   7
ENDBRANCH   5   6
ENDBRANCH   4   5
ENDBRANCH   3   4
ENDBRANCH   2   3
ENDBRANCH   1   2
BRANCH   1  18
ATOM     18  C   UNL     1      15.645  52.004 158.971  1.00  0.00     0.000 C 
BRANCH  18  19
ATOM     19  C   UNL     1      14.369  52.596 158.344  1.00  0.00     0.000 C 
BRANCH  19  20
ATOM     20  C   UNL     1      14.509  53.061 156.881  1.00  0.00     0.000 C 
BRANCH  20  21
ATOM     21  C   UNL     1      14.482  54.587 156.678  1.00  0.00     0.000 C 
BRANCH  21  22
ATOM     22  C   UNL     1      15.870  55.180 156.383  1.00  0.00     0.000 C 
BRANCH  22  23
ATOM     23  C   UNL     1      16.023  56.618 156.903  1.00  0.00     0.000 C 
BRANCH  23  24
ATOM     24  C   UNL     1      17.076  56.735 158.017  1.00  0.00    -0.000 C 
BRANCH  24  25
ATOM     25  C   UNL     1      18.498  56.665 157.443  1.00  0.00    -0.000 C 
BRANCH  25  26
ATOM     26  C   UNL     1      19.577  57.076 158.463  1.00  0.00    -0.000 C 
BRANCH  26  27
ATOM     27  C   UNL     1      19.335  58.431 159.153  1.00  0.00    -0.000 C 
BRANCH  27  28
ATOM     28  C   UNL     1      19.530  59.627 158.209  1.00  0.00    -0.000 C 
BRANCH  28  29
ATOM     29  C   UNL     1      19.388  60.953 158.967  1.00  0.00    -0.000 C 
BRANCH  29  30
ATOM     30  C   UNL     1      20.469  61.090 160.045  1.00  0.00    -0.000 C 
BRANCH  30  31
ATOM     31  C   UNL     1      21.865  61.180 159.416  1.00  0.00    -0.003 C 
ATOM     32  C   UNL     1      22.924  61.496 160.469  1.00  0.00     0.004 C 
ENDBRANCH  30  31
ENDBRANCH  29  30
ENDBRANCH  28  29
ENDBRANCH  27  28
ENDBRANCH  26  27
ENDBRANCH  25  26
ENDBRANCH  24  25
ENDBRANCH  23  24
ENDBRANCH  22  23
ENDBRANCH  21  22
ENDBRANCH  20  21
ENDBRANCH  19  20
ENDBRANCH  18  19
ENDBRANCH   1  18
TORSDOF 28
ENDMDL
MODEL 6
REMARK VINA RESULT:    -4.520      1.859      6.331
REMARK INTER + INTRA:         -16.763
REMARK INTER:                 -11.820
REMARK INTRA:                  -4.943
REMARK UNBOUND:                -4.844
REMARK SMILES CCCCCCCCCCCCCCCCCCCCCCCCCCCCCC(=O)[O-]
REMARK SMILES IDX 16 1 17 2 18 3 19 4 20 5 21 6 22 7 23 8 24 9 25 10 26 11
REMARK SMILES IDX 27 12 28 13 29 14 30 15 31 16 32 17 15 18 14 19 13 20 12 21
REMARK SMILES IDX 11 22 10 23 9 24 8 25 7 26 6 27 5 28 4 29 3 30 2 31 1 32
REMARK H PARENT
REMARK Flexibility Score: inf
ROOT
ATOM      1  C   UNL     1      17.013  52.274 159.210  1.00  0.00     0.000 C 
ENDROOT
BRANCH   1   2
ATOM      2  C   UNL     1      15.703  51.503 159.459  1.00  0.00     0.000 C 
BRANCH   2   3
ATOM      3  C   UNL     1      14.478  52.225 158.873  1.00  0.00     0.000 C 
BRANCH   3   4
ATOM      4  C   UNL     1      14.652  52.559 157.381  1.00  0.00     0.000 C 
BRANCH   4   5
ATOM      5  C   UNL     1      13.621  53.584 156.883  1.00  0.00     0.000 C 
BRANCH   5   6
ATOM      6  C   UNL     1      14.274  54.824 156.249  1.00  0.00     0.000 C 
BRANCH   6   7
ATOM      7  C   UNL     1      15.546  55.267 156.989  1.00  0.00     0.000 C 
BRANCH   7   8
ATOM      8  C   UNL     1      15.733  56.795 156.982  1.00  0.00     0.000 C 
BRANCH   8   9
ATOM      9  C   UNL     1      17.197  57.202 156.709  1.00  0.00     0.000 C 
BRANCH   9  10
ATOM     10  C   UNL     1      18.196  56.649 157.745  1.00  0.00     0.000 C 
BRANCH  10  11
ATOM     11  C   UNL     1      19.472  57.490 157.929  1.00  0.00     0.000 C 
BRANCH  11  12
ATOM     12  C   UNL     1      20.059  57.377 159.347  1.00  0.00     0.000 C 
BRANCH  12  13
ATOM     13  C   UNL     1      19.039  57.739 160.438  1.00  0.00     0.006 C 
BRANCH  13  14
ATOM     14  C   UNL     1      19.024  59.240 160.765  1.00  0.00     0.053 C 
BRANCH  14  15
ATOM     15  C   UNL     1      18.070  59.961 159.865  1.00  0.00     0.041 C 
ATOM     16  O   UNL     1      16.937  59.471 159.617  1.00  0.00    -0.550 OA
ATOM     17  O   UNL     1      18.455  61.151 159.258  1.00  0.00    -0.550 OA
ENDBRANCH  14  15
ENDBRANCH  13  14
ENDBRANCH  12  13
ENDBRANCH  11  12
ENDBRANCH  10  11
ENDBRANCH   9  10
ENDBRANCH   8   9
ENDBRANCH   7   8
ENDBRANCH   6   7
ENDBRANCH   5   6
ENDBRANCH   4   5
ENDBRANCH   3   4
ENDBRANCH   2   3
ENDBRANCH   1   2
BRANCH   1  18
ATOM     18  C   UNL     1      17.002  53.681 159.846  1.00  0.00     0.000 C 
BRANCH  18  19
ATOM     19  C   UNL     1      18.334  54.076 160.511  1.00  0.00     0.000 C 
BRANCH  19  20
ATOM     20  C   UNL     1      19.601  53.723 159.708  1.00  0.00     0.000 C 
BRANCH  20  21
ATOM     21  C   UNL     1      20.925  53.892 160.476  1.00  0.00     0.000 C 
BRANCH  21  22
ATOM     22  C   UNL     1      20.748  54.587 161.837  1.00  0.00     0.000 C 
BRANCH  22  23
ATOM     23  C   UNL     1      21.975  55.417 162.244  1.00  0.00     0.000 C 
BRANCH  23  24
ATOM     24  C   UNL     1      22.907  55.716 161.058  1.00  0.00    -0.000 C 
BRANCH  24  25
ATOM     25  C   UNL     1      24.251  56.279 161.540  1.00  0.00    -0.000 C 
BRANCH  25  26
ATOM     26  C   UNL     1      24.698  57.523 160.748  1.00  0.00    -0.000 C 
BRANCH  26  27
ATOM     27  C   UNL     1      23.579  58.225 159.957  1.00  0.00    -0.000 C 
BRANCH  27  28
ATOM     28  C   UNL     1      23.407  59.701 160.344  1.00  0.00    -0.000 C 
BRANCH  28  29
ATOM     29  C   UNL     1      23.608  59.899 161.852  1.00  0.00    -0.000 C 
BRANCH  29  30
ATOM     30  C   UNL     1      22.265  59.903 162.591  1.00  0.00    -0.000 C 
BRANCH  30  31
ATOM     31  C   UNL     1      22.159  58.709 163.547  1.00  0.00    -0.003 C 
ATOM     32  C   UNL     1      23.275  58.735 164.586  1.00  0.00     0.004 C 
ENDBRANCH  30  31
ENDBRANCH  29  30
ENDBRANCH  28  29
ENDBRANCH  27  28
ENDBRANCH  26  27
ENDBRANCH  25  26
ENDBRANCH  24  25
ENDBRANCH  23  24
ENDBRANCH  22  23
ENDBRANCH  21  22
ENDBRANCH  20  21
ENDBRANCH  19  20
ENDBRANCH  18  19
ENDBRANCH   1  18
TORSDOF 28
ENDMDL
MODEL 7
REMARK VINA RESULT:    -4.510      1.896      2.804
REMARK INTER + INTRA:         -16.736
REMARK INTER:                 -12.210
REMARK INTRA:                  -4.526
REMARK UNBOUND:                -4.844
REMARK SMILES CCCCCCCCCCCCCCCCCCCCCCCCCCCCCC(=O)[O-]
REMARK SMILES IDX 16 1 17 2 18 3 19 4 20 5 21 6 22 7 23 8 24 9 25 10 26 11
REMARK SMILES IDX 27 12 28 13 29 14 30 15 31 16 32 17 15 18 14 19 13 20 12 21
REMARK SMILES IDX 11 22 10 23 9 24 8 25 7 26 6 27 5 28 4 29 3 30 2 31 1 32
REMARK H PARENT
REMARK Flexibility Score: inf
ROOT
ATOM      1  C   UNL     1      17.713  53.780 160.692  1.00  0.00     0.000 C 
ENDROOT
BRANCH   1   2
ATOM      2  C   UNL     1      19.158  54.309 160.658  1.00  0.00     0.000 C 
BRANCH   2   3
ATOM      3  C   UNL     1      19.968  53.729 159.486  1.00  0.00     0.000 C 
BRANCH   3   4
ATOM      4  C   UNL     1      21.477  53.677 159.786  1.00  0.00     0.000 C 
BRANCH   4   5
ATOM      5  C   UNL     1      21.910  54.735 160.811  1.00  0.00     0.000 C 
BRANCH   5   6
ATOM      6  C   UNL     1      23.434  54.775 161.018  1.00  0.00     0.000 C 
BRANCH   6   7
ATOM      7  C   UNL     1      23.850  55.691 162.179  1.00  0.00     0.000 C 
BRANCH   7   8
ATOM      8  C   UNL     1      22.653  56.427 162.810  1.00  0.00     0.000 C 
BRANCH   8   9
ATOM      9  C   UNL     1      23.091  57.408 163.918  1.00  0.00     0.000 C 
BRANCH   9  10
ATOM     10  C   UNL     1      22.674  58.869 163.651  1.00  0.00     0.000 C 
BRANCH  10  11
ATOM     11  C   UNL     1      21.943  59.100 162.317  1.00  0.00     0.000 C 
BRANCH  11  12
ATOM     12  C   UNL     1      21.167  60.428 162.288  1.00  0.00     0.000 C 
BRANCH  12  13
ATOM     13  C   UNL     1      21.558  61.315 161.095  1.00  0.00     0.006 C 
BRANCH  13  14
ATOM     14  C   UNL     1      21.184  60.692 159.742  1.00  0.00     0.053 C 
BRANCH  14  15
ATOM     15  C   UNL     1      20.294  61.615 158.970  1.00  0.00     0.041 C 
ATOM     16  O   UNL     1      20.790  62.453 158.171  1.00  0.00    -0.550 OA
ATOM     17  O   UNL     1      18.920  61.584 159.171  1.00  0.00    -0.550 OA
ENDBRANCH  14  15
ENDBRANCH  13  14
ENDBRANCH  12  13
ENDBRANCH  11  12
ENDBRANCH  10  11
ENDBRANCH   9  10
ENDBRANCH   8   9
ENDBRANCH   7   8
ENDBRANCH   6   7
ENDBRANCH   5   6
ENDBRANCH   4   5
ENDBRANCH   3   4
ENDBRANCH   2   3
ENDBRANCH   1   2
BRANCH   1  18
ATOM     18  C   UNL     1      17.425  52.771 159.560  1.00  0.00     0.000 C 
BRANCH  18  19
ATOM     19  C   UNL     1      16.157  51.924 159.786  1.00  0.00     0.000 C 
BRANCH  19  20
ATOM     20  C   UNL     1      15.258  51.744 158.548  1.00  0.00     0.000 C 
BRANCH  20  21
ATOM     21  C   UNL     1      14.009  52.644 158.515  1.00  0.00     0.000 C 
BRANCH  21  22
ATOM     22  C   UNL     1      13.834  53.381 157.175  1.00  0.00     0.000 C 
BRANCH  22  23
ATOM     23  C   UNL     1      15.170  53.649 156.466  1.00  0.00     0.000 C 
BRANCH  23  24
ATOM     24  C   UNL     1      15.539  55.141 156.443  1.00  0.00    -0.000 C 
BRANCH  24  25
ATOM     25  C   UNL     1      16.221  55.562 157.753  1.00  0.00    -0.000 C 
BRANCH  25  26
ATOM     26  C   UNL     1      17.712  55.901 157.570  1.00  0.00    -0.000 C 
BRANCH  26  27
ATOM     27  C   UNL     1      17.997  57.335 157.086  1.00  0.00    -0.000 C 
BRANCH  27  28
ATOM     28  C   UNL     1      18.691  58.199 158.149  1.00  0.00    -0.000 C 
BRANCH  28  29
ATOM     29  C   UNL     1      17.863  58.253 159.438  1.00  0.00    -0.000 C 
BRANCH  29  30
ATOM     30  C   UNL     1      18.751  58.064 160.673  1.00  0.00    -0.000 C 
BRANCH  30  31
ATOM     31  C   UNL     1      17.928  57.591 161.877  1.00  0.00    -0.003 C 
ATOM     32  C   UNL     1      18.832  57.095 163.002  1.00  0.00     0.004 C 
ENDBRANCH  30  31
ENDBRANCH  29  30
ENDBRANCH  28  29
ENDBRANCH  27  28
ENDBRANCH  26  27
ENDBRANCH  25  26
ENDBRANCH  24  25
ENDBRANCH  23  24
ENDBRANCH  22  23
ENDBRANCH  21  22
ENDBRANCH  20  21
ENDBRANCH  19  20
ENDBRANCH  18  19
ENDBRANCH   1  18
TORSDOF 28
ENDMDL
MODEL 8
REMARK VINA RESULT:    -4.498      1.927      6.999
REMARK INTER + INTRA:         -16.705
REMARK INTER:                 -11.482
REMARK INTRA:                  -5.223
REMARK UNBOUND:                -4.844
REMARK SMILES CCCCCCCCCCCCCCCCCCCCCCCCCCCCCC(=O)[O-]
REMARK SMILES IDX 16 1 17 2 18 3 19 4 20 5 21 6 22 7 23 8 24 9 25 10 26 11
REMARK SMILES IDX 27 12 28 13 29 14 30 15 31 16 32 17 15 18 14 19 13 20 12 21
REMARK SMILES IDX 11 22 10 23 9 24 8 25 7 26 6 27 5 28 4 29 3 30 2 31 1 32
REMARK H PARENT
REMARK Flexibility Score: inf
ROOT
ATOM      1  C   UNL     1      18.471  53.428 160.055  1.00  0.00     0.000 C 
ENDROOT
BRANCH   1   2
ATOM      2  C   UNL     1      16.979  53.501 159.683  1.00  0.00     0.000 C 
BRANCH   2   3
ATOM      3  C   UNL     1      16.226  52.202 160.015  1.00  0.00     0.000 C 
BRANCH   3   4
ATOM      4  C   UNL     1      15.161  51.855 158.961  1.00  0.00     0.000 C 
BRANCH   4   5
ATOM      5  C   UNL     1      15.714  51.900 157.528  1.00  0.00     0.000 C 
BRANCH   5   6
ATOM      6  C   UNL     1      14.694  52.444 156.513  1.00  0.00     0.000 C 
BRANCH   6   7
ATOM      7  C   UNL     1      14.029  53.748 156.984  1.00  0.00     0.000 C 
BRANCH   7   8
ATOM      8  C   UNL     1      14.560  54.985 156.237  1.00  0.00     0.000 C 
BRANCH   8   9
ATOM      9  C   UNL     1      15.831  55.564 156.896  1.00  0.00     0.000 C 
BRANCH   9  10
ATOM     10  C   UNL     1      17.108  55.366 156.054  1.00  0.00     0.000 C 
BRANCH  10  11
ATOM     11  C   UNL     1      18.402  55.195 156.870  1.00  0.00     0.000 C 
BRANCH  11  12
ATOM     12  C   UNL     1      19.136  56.526 157.105  1.00  0.00     0.000 C 
BRANCH  12  13
ATOM     13  C   UNL     1      19.275  56.868 158.598  1.00  0.00     0.006 C 
BRANCH  13  14
ATOM     14  C   UNL     1      17.969  57.388 159.214  1.00  0.00     0.053 C 
BRANCH  14  15
ATOM     15  C   UNL     1      17.921  58.882 159.156  1.00  0.00     0.041 C 
ATOM     16  O   UNL     1      16.927  59.503 159.616  1.00  0.00    -0.550 OA
ATOM     17  O   UNL     1      18.953  59.586 158.546  1.00  0.00    -0.550 OA
ENDBRANCH  14  15
ENDBRANCH  13  14
ENDBRANCH  12  13
ENDBRANCH  11  12
ENDBRANCH  10  11
ENDBRANCH   9  10
ENDBRANCH   8   9
ENDBRANCH   7   8
ENDBRANCH   6   7
ENDBRANCH   5   6
ENDBRANCH   4   5
ENDBRANCH   3   4
ENDBRANCH   2   3
ENDBRANCH   1   2
BRANCH   1  18
ATOM     18  C   UNL     1      18.808  54.249 161.317  1.00  0.00     0.000 C 
BRANCH  18  19
ATOM     19  C   UNL     1      20.318  54.473 161.532  1.00  0.00     0.000 C 
BRANCH  19  20
ATOM     20  C   UNL     1      21.233  53.869 160.450  1.00  0.00     0.000 C 
BRANCH  20  21
ATOM     21  C   UNL     1      22.684  54.386 160.463  1.00  0.00     0.000 C 
BRANCH  21  22
ATOM     22  C   UNL     1      22.779  55.916 160.326  1.00  0.00     0.000 C 
BRANCH  22  23
ATOM     23  C   UNL     1      23.834  56.530 161.259  1.00  0.00     0.000 C 
BRANCH  23  24
ATOM     24  C   UNL     1      23.419  56.478 162.738  1.00  0.00    -0.000 C 
BRANCH  24  25
ATOM     25  C   UNL     1      23.066  57.877 163.263  1.00  0.00    -0.000 C 
BRANCH  25  26
ATOM     26  C   UNL     1      21.706  57.920 163.986  1.00  0.00    -0.000 C 
BRANCH  26  27
ATOM     27  C   UNL     1      20.477  57.818 163.063  1.00  0.00    -0.000 C 
BRANCH  27  28
ATOM     28  C   UNL     1      20.670  58.547 161.725  1.00  0.00    -0.000 C 
BRANCH  28  29
ATOM     29  C   UNL     1      20.671  60.067 161.924  1.00  0.00    -0.000 C 
BRANCH  29  30
ATOM     30  C   UNL     1      21.339  60.778 160.741  1.00  0.00    -0.000 C 
BRANCH  30  31
ATOM     31  C   UNL     1      22.587  60.019 160.276  1.00  0.00    -0.003 C 
ATOM     32  C   UNL     1      22.725  60.064 158.757  1.00  0.00     0.004 C 
ENDBRANCH  30  31
ENDBRANCH  29  30
ENDBRANCH  28  29
ENDBRANCH  27  28
ENDBRANCH  26  27
ENDBRANCH  25  26
ENDBRANCH  24  25
ENDBRANCH  23  24
ENDBRANCH  22  23
ENDBRANCH  21  22
ENDBRANCH  20  21
ENDBRANCH  19  20
ENDBRANCH  18  19
ENDBRANCH   1  18
TORSDOF 28
ENDMDL
MODEL 9
REMARK VINA RESULT:    -4.462      2.200      4.986
REMARK INTER + INTRA:         -16.610
REMARK INTER:                 -11.195
REMARK INTRA:                  -5.415
REMARK UNBOUND:                -4.844
REMARK SMILES CCCCCCCCCCCCCCCCCCCCCCCCCCCCCC(=O)[O-]
REMARK SMILES IDX 16 1 17 2 18 3 19 4 20 5 21 6 22 7 23 8 24 9 25 10 26 11
REMARK SMILES IDX 27 12 28 13 29 14 30 15 31 16 32 17 15 18 14 19 13 20 12 21
REMARK SMILES IDX 11 22 10 23 9 24 8 25 7 26 6 27 5 28 4 29 3 30 2 31 1 32
REMARK H PARENT
REMARK Flexibility Score: inf
ROOT
ATOM      1  C   UNL     1      21.009  54.346 160.490  1.00  0.00     0.000 C 
ENDROOT
BRANCH   1   2
ATOM      2  C   UNL     1      22.463  54.853 160.448  1.00  0.00     0.000 C 
BRANCH   2   3
ATOM      3  C   UNL     1      22.551  56.360 160.156  1.00  0.00     0.000 C 
BRANCH   3   4
ATOM      4  C   UNL     1      23.373  57.116 161.214  1.00  0.00     0.000 C 
BRANCH   4   5
ATOM      5  C   UNL     1      23.250  56.490 162.612  1.00  0.00     0.000 C 
BRANCH   5   6
ATOM      6  C   UNL     1      22.817  57.507 163.683  1.00  0.00     0.000 C 
BRANCH   6   7
ATOM      7  C   UNL     1      21.680  58.423 163.203  1.00  0.00     0.000 C 
BRANCH   7   8
ATOM      8  C   UNL     1      20.286  57.832 163.483  1.00  0.00     0.000 C 
BRANCH   8   9
ATOM      9  C   UNL     1      19.214  58.387 162.521  1.00  0.00     0.000 C 
BRANCH   9  10
ATOM     10  C   UNL     1      19.329  57.839 161.084  1.00  0.00     0.000 C 
BRANCH  10  11
ATOM     11  C   UNL     1      18.755  58.759 159.992  1.00  0.00     0.000 C 
BRANCH  11  12
ATOM     12  C   UNL     1      19.477  60.116 159.919  1.00  0.00     0.000 C 
BRANCH  12  13
ATOM     13  C   UNL     1      20.997  59.967 159.745  1.00  0.00     0.006 C 
BRANCH  13  14
ATOM     14  C   UNL     1      21.507  60.560 158.423  1.00  0.00     0.053 C 
BRANCH  14  15
ATOM     15  C   UNL     1      21.701  62.038 158.553  1.00  0.00     0.041 C 
ATOM     16  O   UNL     1      21.064  62.829 157.809  1.00  0.00    -0.550 OA
ATOM     17  O   UNL     1      22.624  62.539 159.464  1.00  0.00    -0.550 OA
ENDBRANCH  14  15
ENDBRANCH  13  14
ENDBRANCH  12  13
ENDBRANCH  11  12
ENDBRANCH  10  11
ENDBRANCH   9  10
ENDBRANCH   8   9
ENDBRANCH   7   8
ENDBRANCH   6   7
ENDBRANCH   5   6
ENDBRANCH   4   5
ENDBRANCH   3   4
ENDBRANCH   2   3
ENDBRANCH   1   2
BRANCH   1  18
ATOM     18  C   UNL     1      20.370  54.496 161.887  1.00  0.00     0.000 C 
BRANCH  18  19
ATOM     19  C   UNL     1      18.873  54.132 161.931  1.00  0.00     0.000 C 
BRANCH  19  20
ATOM     20  C   UNL     1      18.092  54.400 160.630  1.00  0.00     0.000 C 
BRANCH  20  21
ATOM     21  C   UNL     1      17.035  53.338 160.276  1.00  0.00     0.000 C 
BRANCH  21  22
ATOM     22  C   UNL     1      17.346  52.594 158.965  1.00  0.00     0.000 C 
BRANCH  22  23
ATOM     23  C   UNL     1      16.128  51.839 158.410  1.00  0.00     0.000 C 
BRANCH  23  24
ATOM     24  C   UNL     1      15.771  52.265 156.977  1.00  0.00    -0.000 C 
BRANCH  24  25
ATOM     25  C   UNL     1      14.406  52.967 156.932  1.00  0.00    -0.000 C 
BRANCH  25  26
ATOM     26  C   UNL     1      14.369  54.143 155.939  1.00  0.00    -0.000 C 
BRANCH  26  27
ATOM     27  C   UNL     1      15.618  55.044 155.952  1.00  0.00    -0.000 C 
BRANCH  27  28
ATOM     28  C   UNL     1      15.513  56.198 156.960  1.00  0.00    -0.000 C 
BRANCH  28  29
ATOM     29  C   UNL     1      16.782  56.295 157.816  1.00  0.00    -0.000 C 
BRANCH  29  30
ATOM     30  C   UNL     1      17.960  55.585 157.138  1.00  0.00    -0.000 C 
BRANCH  30  31
ATOM     31  C   UNL     1      19.256  56.387 157.305  1.00  0.00    -0.003 C 
ATOM     32  C   UNL     1      19.266  57.612 156.396  1.00  0.00     0.004 C 
ENDBRANCH  30  31
ENDBRANCH  29  30
ENDBRANCH  28  29
ENDBRANCH  27  28
ENDBRANCH  26  27
ENDBRANCH  25  26
ENDBRANCH  24  25
ENDBRANCH  23  24
ENDBRANCH  22  23
ENDBRANCH  21  22
ENDBRANCH  20  21
ENDBRANCH  19  20
ENDBRANCH  18  19
ENDBRANCH   1  18
TORSDOF 28
ENDMDL
