MODEL 1
REMARK VINA RESULT:    -6.097      0.000      0.000
REMARK INTER + INTRA:          -7.538
REMARK INTER:                  -7.344
REMARK INTRA:                  -0.193
REMARK UNBOUND:                -0.193
REMARK SMILES O=c1c(O)c(-c2ccc(O)c(O)c2)oc2cc(O)cc(O)c12
REMARK SMILES IDX 5 1 3 2 2 3 1 4 22 5 20 6 19 7 17 8 16 9 15 10 14 11 6 12
REMARK SMILES IDX 7 13 8 14 9 15 13 16 11 17 10 18 12 20 4 22 21 24 18 26
REMARK H PARENT 10 19 12 21 4 23 21 25 18 27
REMARK Flexibility Score: inf
ROOT
ATOM      1  C   UNL     1      13.726  19.230  17.521  1.00  0.00     0.180 A 
ATOM      2  C   UNL     1      12.686  19.189  18.465  1.00  0.00     0.208 A 
ATOM      3  C   UNL     1      11.365  19.401  18.033  1.00  0.00     0.238 A 
ATOM      4  O   UNL     1      10.434  19.310  18.873  1.00  0.00    -0.285 OA
ATOM      5  C   UNL     1      11.106  19.669  16.667  1.00  0.00     0.111 A 
ATOM      6  C   UNL     1       9.813  19.940  16.127  1.00  0.00     0.134 A 
ATOM      7  C   UNL     1       9.656  20.060  14.740  1.00  0.00     0.093 A 
ATOM      8  C   UNL     1      10.755  19.987  13.882  1.00  0.00     0.123 A 
ATOM      9  C   UNL     1      12.029  19.783  14.405  1.00  0.00     0.094 A 
ATOM     10  C   UNL     1      12.213  19.622  15.781  1.00  0.00     0.146 A 
ATOM     11  O   UNL     1      13.443  19.418  16.237  1.00  0.00    -0.452 OA
ENDROOT
BRANCH   1  12
ATOM     12  C   UNL     1      15.144  19.041  17.903  1.00  0.00     0.025 A 
ATOM     13  C   UNL     1      15.805  19.954  18.742  1.00  0.00     0.016 A 
ATOM     14  C   UNL     1      17.150  19.768  19.070  1.00  0.00     0.051 A 
ATOM     15  C   UNL     1      17.859  18.676  18.554  1.00  0.00     0.157 A 
ATOM     16  C   UNL     1      15.865  17.959  17.372  1.00  0.00     0.062 A 
ATOM     17  C   UNL     1      17.213  17.769  17.698  1.00  0.00     0.158 A 
BRANCH  15  18
ATOM     18  O   UNL     1      19.200  18.491  18.885  1.00  0.00    -0.504 OA
ATOM     19  H   UNL     1      19.835  17.996  18.270  1.00  0.00     0.293 HD
ENDBRANCH  15  18
BRANCH  17  20
ATOM     20  O   UNL     1      17.891  16.675  17.162  1.00  0.00    -0.504 OA
ATOM     21  H   UNL     1      18.150  16.630  16.184  1.00  0.00     0.293 HD
ENDBRANCH  17  20
ENDBRANCH   1  12
BRANCH   2  22
ATOM     22  O   UNL     1      12.962  18.902  19.803  1.00  0.00    -0.502 OA
ATOM     23  H   UNL     1      12.612  18.071  20.265  1.00  0.00     0.293 HD
ENDBRANCH   2  22
BRANCH   6  24
ATOM     24  O   UNL     1       8.664  20.123  16.903  1.00  0.00    -0.507 OA
ATOM     25  H   UNL     1       7.736  20.262  16.532  1.00  0.00     0.293 HD
ENDBRANCH   6  24
BRANCH   8  26
ATOM     26  O   UNL     1      10.592  20.124  12.505  1.00  0.00    -0.508 OA
ATOM     27  H   UNL     1       9.672  20.159  12.081  1.00  0.00     0.293 HD
ENDBRANCH   8  26
TORSDOF 6
ENDMDL
MODEL 2
REMARK VINA RESULT:    -5.907     13.254     16.603
REMARK INTER + INTRA:          -7.309
REMARK INTER:                  -7.267
REMARK INTRA:                  -0.043
REMARK UNBOUND:                -0.193
REMARK SMILES O=c1c(O)c(-c2ccc(O)c(O)c2)oc2cc(O)cc(O)c12
REMARK SMILES IDX 5 1 3 2 2 3 1 4 22 5 20 6 19 7 17 8 16 9 15 10 14 11 6 12
REMARK SMILES IDX 7 13 8 14 9 15 13 16 11 17 10 18 12 20 4 22 21 24 18 26
REMARK H PARENT 10 19 12 21 4 23 21 25 18 27
REMARK Flexibility Score: inf
ROOT
ATOM      1  C   UNL     1       2.872  17.855   5.574  1.00  0.00     0.180 A 
ATOM      2  C   UNL     1       3.212  18.655   4.470  1.00  0.00     0.208 A 
ATOM      3  C   UNL     1       3.588  18.032   3.268  1.00  0.00     0.238 A 
ATOM      4  O   UNL     1       3.839  18.753   2.267  1.00  0.00    -0.285 OA
ATOM      5  C   UNL     1       3.634  16.619   3.191  1.00  0.00     0.111 A 
ATOM      6  C   UNL     1       4.040  15.884   2.037  1.00  0.00     0.134 A 
ATOM      7  C   UNL     1       3.922  14.488   2.032  1.00  0.00     0.093 A 
ATOM      8  C   UNL     1       3.476  13.799   3.162  1.00  0.00     0.123 A 
ATOM      9  C   UNL     1       3.135  14.504   4.313  1.00  0.00     0.094 A 
ATOM     10  C   UNL     1       3.207  15.899   4.337  1.00  0.00     0.146 A 
ATOM     11  O   UNL     1       2.862  16.533   5.452  1.00  0.00    -0.452 OA
ENDROOT
BRANCH   1  12
ATOM     12  C   UNL     1       2.490  18.438   6.881  1.00  0.00     0.025 A 
ATOM     13  C   UNL     1       1.450  19.378   6.987  1.00  0.00     0.016 A 
ATOM     14  C   UNL     1       1.123  19.933   8.227  1.00  0.00     0.051 A 
ATOM     15  C   UNL     1       1.837  19.568   9.375  1.00  0.00     0.157 A 
ATOM     16  C   UNL     1       3.215  18.091   8.032  1.00  0.00     0.062 A 
ATOM     17  C   UNL     1       2.890  18.644   9.276  1.00  0.00     0.158 A 
BRANCH  15  18
ATOM     18  O   UNL     1       1.506  20.121  10.611  1.00  0.00    -0.504 OA
ATOM     19  H   UNL     1       2.190  20.620  11.170  1.00  0.00     0.293 HD
ENDBRANCH  15  18
BRANCH  17  20
ATOM     20  O   UNL     1       3.625  18.265  10.398  1.00  0.00    -0.504 OA
ATOM     21  H   UNL     1       4.622  18.425  10.468  1.00  0.00     0.293 HD
ENDBRANCH  17  20
ENDBRANCH   1  12
BRANCH   2  22
ATOM     22  O   UNL     1       3.138  20.047   4.560  1.00  0.00    -0.502 OA
ATOM     23  H   UNL     1       3.911  20.613   4.890  1.00  0.00     0.293 HD
ENDBRANCH   2  22
BRANCH   6  24
ATOM     24  O   UNL     1       4.586  16.468   0.890  1.00  0.00    -0.507 OA
ATOM     25  H   UNL     1       5.548  16.377   0.602  1.00  0.00     0.293 HD
ENDBRANCH   6  24
BRANCH   8  26
ATOM     26  O   UNL     1       3.377  12.409   3.154  1.00  0.00    -0.508 OA
ATOM     27  H   UNL     1       2.486  11.942   3.032  1.00  0.00     0.293 HD
ENDBRANCH   8  26
TORSDOF 6
ENDMDL
MODEL 3
REMARK VINA RESULT:    -5.769      1.828      2.790
REMARK INTER + INTRA:          -7.143
REMARK INTER:                  -6.827
REMARK INTRA:                  -0.316
REMARK UNBOUND:                -0.193
REMARK SMILES O=c1c(O)c(-c2ccc(O)c(O)c2)oc2cc(O)cc(O)c12
REMARK SMILES IDX 5 1 3 2 2 3 1 4 22 5 20 6 19 7 17 8 16 9 15 10 14 11 6 12
REMARK SMILES IDX 7 13 8 14 9 15 13 16 11 17 10 18 12 20 4 22 21 24 18 26
REMARK H PARENT 10 19 12 21 4 23 21 25 18 27
REMARK Flexibility Score: inf
ROOT
ATOM      1  C   UNL     1      15.070  17.911  18.297  1.00  0.00     0.180 A 
ATOM      2  C   UNL     1      14.641  18.031  19.630  1.00  0.00     0.208 A 
ATOM      3  C   UNL     1      13.392  18.619  19.893  1.00  0.00     0.238 A 
ATOM      4  O   UNL     1      12.990  18.674  21.084  1.00  0.00    -0.285 OA
ATOM      5  C   UNL     1      12.598  19.093  18.822  1.00  0.00     0.111 A 
ATOM      6  C   UNL     1      11.336  19.743  18.975  1.00  0.00     0.134 A 
ATOM      7  C   UNL     1      10.577  20.053  17.840  1.00  0.00     0.093 A 
ATOM      8  C   UNL     1      11.065  19.798  16.556  1.00  0.00     0.123 A 
ATOM      9  C   UNL     1      12.321  19.220  16.395  1.00  0.00     0.094 A 
ATOM     10  C   UNL     1      13.086  18.866  17.509  1.00  0.00     0.146 A 
ATOM     11  O   UNL     1      14.274  18.306  17.311  1.00  0.00    -0.452 OA
ENDROOT
BRANCH   1  12
ATOM     12  C   UNL     1      16.384  17.326  17.942  1.00  0.00     0.025 A 
ATOM     13  C   UNL     1      17.566  18.084  18.011  1.00  0.00     0.016 A 
ATOM     14  C   UNL     1      18.790  17.518  17.648  1.00  0.00     0.051 A 
ATOM     15  C   UNL     1      18.851  16.192  17.199  1.00  0.00     0.157 A 
ATOM     16  C   UNL     1      16.447  16.004  17.472  1.00  0.00     0.062 A 
ATOM     17  C   UNL     1      17.672  15.434  17.107  1.00  0.00     0.158 A 
BRANCH  15  18
ATOM     18  O   UNL     1      20.075  15.630  16.839  1.00  0.00    -0.504 OA
ATOM     19  H   UNL     1      20.331  14.691  17.124  1.00  0.00     0.293 HD
ENDBRANCH  15  18
BRANCH  17  20
ATOM     20  O   UNL     1      17.697  14.115  16.657  1.00  0.00    -0.504 OA
ATOM     21  H   UNL     1      18.310  13.419  17.065  1.00  0.00     0.293 HD
ENDBRANCH  17  20
ENDBRANCH   1  12
BRANCH   2  22
ATOM     22  O   UNL     1      15.431  17.536  20.671  1.00  0.00    -0.502 OA
ATOM     23  H   UNL     1      15.355  16.584  21.006  1.00  0.00     0.293 HD
ENDBRANCH   2  22
BRANCH   6  24
ATOM     24  O   UNL     1      10.799  20.125  20.209  1.00  0.00    -0.507 OA
ATOM     25  H   UNL     1      11.238  19.959  21.102  1.00  0.00     0.293 HD
ENDBRANCH   6  24
BRANCH   8  26
ATOM     26  O   UNL     1      10.310  20.125  15.431  1.00  0.00    -0.508 OA
ATOM     27  H   UNL     1       9.968  19.413  14.797  1.00  0.00     0.293 HD
ENDBRANCH   8  26
TORSDOF 6
ENDMDL
MODEL 4
REMARK VINA RESULT:    -5.750      1.652      6.953
REMARK INTER + INTRA:          -7.120
REMARK INTER:                  -7.064
REMARK INTRA:                  -0.056
REMARK UNBOUND:                -0.193
REMARK SMILES O=c1c(O)c(-c2ccc(O)c(O)c2)oc2cc(O)cc(O)c12
REMARK SMILES IDX 5 1 3 2 2 3 1 4 22 5 20 6 19 7 17 8 16 9 15 10 14 11 6 12
REMARK SMILES IDX 7 13 8 14 9 15 13 16 11 17 10 18 12 20 4 22 21 24 18 26
REMARK H PARENT 10 19 12 21 4 23 21 25 18 27
REMARK Flexibility Score: inf
ROOT
ATOM      1  C   UNL     1      14.620  18.582  18.186  1.00  0.00     0.180 A 
ATOM      2  C   UNL     1      15.332  19.121  19.271  1.00  0.00     0.208 A 
ATOM      3  C   UNL     1      16.635  18.662  19.526  1.00  0.00     0.238 A 
ATOM      4  O   UNL     1      17.287  19.186  20.465  1.00  0.00    -0.285 OA
ATOM      5  C   UNL     1      17.202  17.659  18.702  1.00  0.00     0.111 A 
ATOM      6  C   UNL     1      18.497  17.091  18.893  1.00  0.00     0.134 A 
ATOM      7  C   UNL     1      19.008  16.201  17.940  1.00  0.00     0.093 A 
ATOM      8  C   UNL     1      18.242  15.807  16.840  1.00  0.00     0.123 A 
ATOM      9  C   UNL     1      16.955  16.310  16.677  1.00  0.00     0.094 A 
ATOM     10  C   UNL     1      16.431  17.228  17.591  1.00  0.00     0.146 A 
ATOM     11  O   UNL     1      15.203  17.691  17.392  1.00  0.00    -0.452 OA
ENDROOT
BRANCH   1  12
ATOM     12  C   UNL     1      13.233  18.997  17.869  1.00  0.00     0.025 A 
ATOM     13  C   UNL     1      12.221  18.970  18.843  1.00  0.00     0.016 A 
ATOM     14  C   UNL     1      10.915  19.343  18.516  1.00  0.00     0.051 A 
ATOM     15  C   UNL     1      10.598  19.735  17.209  1.00  0.00     0.157 A 
ATOM     16  C   UNL     1      12.907  19.372  16.556  1.00  0.00     0.062 A 
ATOM     17  C   UNL     1      11.599  19.746  16.224  1.00  0.00     0.158 A 
BRANCH  15  18
ATOM     18  O   UNL     1       9.295  20.109  16.886  1.00  0.00    -0.504 OA
ATOM     19  H   UNL     1       8.567  20.160  17.589  1.00  0.00     0.293 HD
ENDBRANCH  15  18
BRANCH  17  20
ATOM     20  O   UNL     1      11.316  20.124  14.912  1.00  0.00    -0.504 OA
ATOM     21  H   UNL     1      10.390  20.029  14.513  1.00  0.00     0.293 HD
ENDBRANCH  17  20
ENDBRANCH   1  12
BRANCH   2  22
ATOM     22  O   UNL     1      14.762  20.125  20.058  1.00  0.00    -0.502 OA
ATOM     23  H   UNL     1      14.221  19.923  20.890  1.00  0.00     0.293 HD
ENDBRANCH   2  22
BRANCH   6  24
ATOM     24  O   UNL     1      19.306  17.346  20.005  1.00  0.00    -0.507 OA
ATOM     25  H   UNL     1      19.012  17.858  20.823  1.00  0.00     0.293 HD
ENDBRANCH   6  24
BRANCH   8  26
ATOM     26  O   UNL     1      18.752  14.908  15.905  1.00  0.00    -0.508 OA
ATOM     27  H   UNL     1      18.726  15.105  14.912  1.00  0.00     0.293 HD
ENDBRANCH   8  26
TORSDOF 6
ENDMDL
MODEL 5
REMARK VINA RESULT:    -5.382      2.465      7.127
REMARK INTER + INTRA:          -6.677
REMARK INTER:                  -6.377
REMARK INTRA:                  -0.300
REMARK UNBOUND:                -0.193
REMARK SMILES O=c1c(O)c(-c2ccc(O)c(O)c2)oc2cc(O)cc(O)c12
REMARK SMILES IDX 5 1 3 2 2 3 1 4 22 5 20 6 19 7 17 8 16 9 15 10 14 11 6 12
REMARK SMILES IDX 7 13 8 14 9 15 13 16 11 17 10 18 12 20 4 22 21 24 18 26
REMARK H PARENT 10 19 12 21 4 23 21 25 18 27
REMARK Flexibility Score: inf
ROOT
ATOM      1  C   UNL     1      14.611  17.847  18.992  1.00  0.00     0.180 A 
ATOM      2  C   UNL     1      14.857  16.630  19.650  1.00  0.00     0.208 A 
ATOM      3  C   UNL     1      16.155  16.092  19.624  1.00  0.00     0.238 A 
ATOM      4  O   UNL     1      16.381  15.031  20.260  1.00  0.00    -0.285 OA
ATOM      5  C   UNL     1      17.184  16.769  18.926  1.00  0.00     0.111 A 
ATOM      6  C   UNL     1      18.524  16.294  18.798  1.00  0.00     0.134 A 
ATOM      7  C   UNL     1      19.491  17.110  18.197  1.00  0.00     0.093 A 
ATOM      8  C   UNL     1      19.150  18.353  17.659  1.00  0.00     0.123 A 
ATOM      9  C   UNL     1      17.833  18.799  17.725  1.00  0.00     0.094 A 
ATOM     10  C   UNL     1      16.853  18.024  18.351  1.00  0.00     0.146 A 
ATOM     11  O   UNL     1      15.611  18.491  18.402  1.00  0.00    -0.452 OA
ENDROOT
BRANCH   1  12
ATOM     12  C   UNL     1      13.265  18.465  18.955  1.00  0.00     0.025 A 
ATOM     13  C   UNL     1      12.778  19.223  20.034  1.00  0.00     0.016 A 
ATOM     14  C   UNL     1      11.496  19.776  19.987  1.00  0.00     0.051 A 
ATOM     15  C   UNL     1      10.677  19.570  18.869  1.00  0.00     0.157 A 
ATOM     16  C   UNL     1      12.433  18.244  17.846  1.00  0.00     0.062 A 
ATOM     17  C   UNL     1      11.148  18.797  17.795  1.00  0.00     0.158 A 
BRANCH  15  18
ATOM     18  O   UNL     1       9.400  20.125  18.825  1.00  0.00    -0.504 OA
ATOM     19  H   UNL     1       8.879  20.190  17.957  1.00  0.00     0.293 HD
ENDBRANCH  15  18
BRANCH  17  20
ATOM     20  O   UNL     1      10.356  18.566  16.672  1.00  0.00    -0.504 OA
ATOM     21  H   UNL     1       9.357  18.729  16.675  1.00  0.00     0.293 HD
ENDBRANCH  17  20
ENDBRANCH   1  12
BRANCH   2  22
ATOM     22  O   UNL     1      13.833  15.990  20.352  1.00  0.00    -0.502 OA
ATOM     23  H   UNL     1      12.900  16.377  20.426  1.00  0.00     0.293 HD
ENDBRANCH   2  22
BRANCH   6  24
ATOM     24  O   UNL     1      18.948  15.030  19.219  1.00  0.00    -0.507 OA
ATOM     25  H   UNL     1      19.336  14.828  20.128  1.00  0.00     0.293 HD
ENDBRANCH   6  24
BRANCH   8  26
ATOM     26  O   UNL     1      20.116  19.151  17.047  1.00  0.00    -0.508 OA
ATOM     27  H   UNL     1      20.337  20.076  17.397  1.00  0.00     0.293 HD
ENDBRANCH   8  26
TORSDOF 6
ENDMDL
MODEL 6
REMARK VINA RESULT:    -5.038      1.447      2.490
REMARK INTER + INTRA:          -6.262
REMARK INTER:                  -5.972
REMARK INTRA:                  -0.290
REMARK UNBOUND:                -0.193
REMARK SMILES O=c1c(O)c(-c2ccc(O)c(O)c2)oc2cc(O)cc(O)c12
REMARK SMILES IDX 5 1 3 2 2 3 1 4 22 5 20 6 19 7 17 8 16 9 15 10 14 11 6 12
REMARK SMILES IDX 7 13 8 14 9 15 13 16 11 17 10 18 12 20 4 22 21 24 18 26
REMARK H PARENT 10 19 12 21 4 23 21 25 18 27
REMARK Flexibility Score: inf
ROOT
ATOM      1  C   UNL     1      14.787  18.252  18.076  1.00  0.00     0.180 A 
ATOM      2  C   UNL     1      14.273  18.329  19.382  1.00  0.00     0.208 A 
ATOM      3  C   UNL     1      12.970  18.819  19.572  1.00  0.00     0.238 A 
ATOM      4  O   UNL     1      12.495  18.836  20.737  1.00  0.00    -0.285 OA
ATOM      5  C   UNL     1      12.207  19.242  18.457  1.00  0.00     0.111 A 
ATOM      6  C   UNL     1      10.893  19.794  18.538  1.00  0.00     0.134 A 
ATOM      7  C   UNL     1      10.181  20.054  17.360  1.00  0.00     0.093 A 
ATOM      8  C   UNL     1      10.761  19.847  16.107  1.00  0.00     0.123 A 
ATOM      9  C   UNL     1      12.064  19.366  16.018  1.00  0.00     0.094 A 
ATOM     10  C   UNL     1      12.787  19.061  17.175  1.00  0.00     0.146 A 
ATOM     11  O   UNL     1      14.023  18.593  17.046  1.00  0.00    -0.452 OA
ENDROOT
BRANCH   1  12
ATOM     12  C   UNL     1      16.160  17.769  17.798  1.00  0.00     0.025 A 
ATOM     13  C   UNL     1      16.399  16.452  17.369  1.00  0.00     0.016 A 
ATOM     14  C   UNL     1      17.704  16.011  17.136  1.00  0.00     0.051 A 
ATOM     15  C   UNL     1      18.789  16.873  17.339  1.00  0.00     0.157 A 
ATOM     16  C   UNL     1      17.252  18.623  18.020  1.00  0.00     0.062 A 
ATOM     17  C   UNL     1      18.561  18.185  17.787  1.00  0.00     0.158 A 
BRANCH  15  18
ATOM     18  O   UNL     1      20.089  16.431  17.103  1.00  0.00    -0.504 OA
ATOM     19  H   UNL     1      20.281  15.483  16.799  1.00  0.00     0.293 HD
ENDBRANCH  15  18
BRANCH  17  20
ATOM     20  O   UNL     1      19.618  19.066  18.006  1.00  0.00    -0.504 OA
ATOM     21  H   UNL     1      20.518  18.949  17.556  1.00  0.00     0.293 HD
ENDBRANCH  17  20
ENDBRANCH   1  12
BRANCH   2  22
ATOM     22  O   UNL     1      15.035  17.887  20.466  1.00  0.00    -0.502 OA
ATOM     23  H   UNL     1      15.227  16.906  20.632  1.00  0.00     0.293 HD
ENDBRANCH   2  22
BRANCH   6  24
ATOM     24  O   UNL     1      10.257  20.125  19.738  1.00  0.00    -0.507 OA
ATOM     25  H   UNL     1       9.284  19.950  19.940  1.00  0.00     0.293 HD
ENDBRANCH   6  24
BRANCH   8  26
ATOM     26  O   UNL     1      10.051  20.125  14.940  1.00  0.00    -0.508 OA
ATOM     27  H   UNL     1       9.486  20.961  14.851  1.00  0.00     0.293 HD
ENDBRANCH   8  26
TORSDOF 6
ENDMDL
MODEL 7
REMARK VINA RESULT:    -4.847      2.134      7.308
REMARK INTER + INTRA:          -6.032
REMARK INTER:                  -5.847
REMARK INTRA:                  -0.185
REMARK UNBOUND:                -0.193
REMARK SMILES O=c1c(O)c(-c2ccc(O)c(O)c2)oc2cc(O)cc(O)c12
REMARK SMILES IDX 5 1 3 2 2 3 1 4 22 5 20 6 19 7 17 8 16 9 15 10 14 11 6 12
REMARK SMILES IDX 7 13 8 14 9 15 13 16 11 17 10 18 12 20 4 22 21 24 18 26
REMARK H PARENT 10 19 12 21 4 23 21 25 18 27
REMARK Flexibility Score: inf
ROOT
ATOM      1  C   UNL     1      13.821  18.081  18.096  1.00  0.00     0.180 A 
ATOM      2  C   UNL     1      14.877  18.679  17.388  1.00  0.00     0.208 A 
ATOM      3  C   UNL     1      16.159  18.110  17.466  1.00  0.00     0.238 A 
ATOM      4  O   UNL     1      17.088  18.618  16.788  1.00  0.00    -0.285 OA
ATOM      5  C   UNL     1      16.371  16.960  18.265  1.00  0.00     0.111 A 
ATOM      6  C   UNL     1      17.635  16.324  18.450  1.00  0.00     0.134 A 
ATOM      7  C   UNL     1      17.704  15.117  19.156  1.00  0.00     0.093 A 
ATOM      8  C   UNL     1      16.564  14.558  19.740  1.00  0.00     0.123 A 
ATOM      9  C   UNL     1      15.337  15.202  19.616  1.00  0.00     0.094 A 
ATOM     10  C   UNL     1      15.230  16.390  18.887  1.00  0.00     0.146 A 
ATOM     11  O   UNL     1      14.037  16.965  18.783  1.00  0.00    -0.452 OA
ENDROOT
BRANCH   1  12
ATOM     12  C   UNL     1      12.448  18.636  18.083  1.00  0.00     0.025 A 
ATOM     13  C   UNL     1      11.862  19.167  19.245  1.00  0.00     0.016 A 
ATOM     14  C   UNL     1      10.556  19.664  19.214  1.00  0.00     0.051 A 
ATOM     15  C   UNL     1       9.813  19.626  18.027  1.00  0.00     0.157 A 
ATOM     16  C   UNL     1      11.692  18.582  16.901  1.00  0.00     0.062 A 
ATOM     17  C   UNL     1      10.384  19.079  16.866  1.00  0.00     0.158 A 
BRANCH  15  18
ATOM     18  O   UNL     1       8.512  20.125  17.999  1.00  0.00    -0.504 OA
ATOM     19  H   UNL     1       7.766  19.636  17.517  1.00  0.00     0.293 HD
ENDBRANCH  15  18
BRANCH  17  20
ATOM     20  O   UNL     1       9.669  19.020  15.671  1.00  0.00    -0.504 OA
ATOM     21  H   UNL     1       9.642  18.183  15.101  1.00  0.00     0.293 HD
ENDBRANCH  17  20
ENDBRANCH   1  12
BRANCH   2  22
ATOM     22  O   UNL     1      14.641  19.800  16.589  1.00  0.00    -0.502 OA
ATOM     23  H   UNL     1      14.748  19.783  15.582  1.00  0.00     0.293 HD
ENDBRANCH   2  22
BRANCH   6  24
ATOM     24  O   UNL     1      18.847  16.847  17.987  1.00  0.00    -0.507 OA
ATOM     25  H   UNL     1      19.431  17.488  18.504  1.00  0.00     0.293 HD
ENDBRANCH   6  24
BRANCH   8  26
ATOM     26  O   UNL     1      16.645  13.365  20.455  1.00  0.00    -0.508 OA
ATOM     27  H   UNL     1      15.901  12.678  20.425  1.00  0.00     0.293 HD
ENDBRANCH   8  26
TORSDOF 6
ENDMDL
MODEL 8
REMARK VINA RESULT:    -4.802      1.413      2.911
REMARK INTER + INTRA:          -5.978
REMARK INTER:                  -5.656
REMARK INTRA:                  -0.322
REMARK UNBOUND:                -0.193
REMARK SMILES O=c1c(O)c(-c2ccc(O)c(O)c2)oc2cc(O)cc(O)c12
REMARK SMILES IDX 5 1 3 2 2 3 1 4 22 5 20 6 19 7 17 8 16 9 15 10 14 11 6 12
REMARK SMILES IDX 7 13 8 14 9 15 13 16 11 17 10 18 12 20 4 22 21 24 18 26
REMARK H PARENT 10 19 12 21 4 23 21 25 18 27
REMARK Flexibility Score: inf
ROOT
ATOM      1  C   UNL     1      13.811  19.344  17.635  1.00  0.00     0.180 A 
ATOM      2  C   UNL     1      13.773  19.596  16.253  1.00  0.00     0.208 A 
ATOM      3  C   UNL     1      12.533  19.847  15.641  1.00  0.00     0.238 A 
ATOM      4  O   UNL     1      12.511  20.125  14.415  1.00  0.00    -0.285 OA
ATOM      5  C   UNL     1      11.348  19.826  16.416  1.00  0.00     0.111 A 
ATOM      6  C   UNL     1      10.035  20.025  15.893  1.00  0.00     0.134 A 
ATOM      7  C   UNL     1       8.948  20.114  16.772  1.00  0.00     0.093 A 
ATOM      8  C   UNL     1       9.119  19.943  18.148  1.00  0.00     0.123 A 
ATOM      9  C   UNL     1      10.387  19.688  18.661  1.00  0.00     0.094 A 
ATOM     10  C   UNL     1      11.497  19.630  17.814  1.00  0.00     0.146 A 
ATOM     11  O   UNL     1      12.691  19.396  18.346  1.00  0.00    -0.452 OA
ENDROOT
BRANCH   1  12
ATOM     12  C   UNL     1      15.076  19.047  18.347  1.00  0.00     0.025 A 
ATOM     13  C   UNL     1      15.887  20.076  18.857  1.00  0.00     0.016 A 
ATOM     14  C   UNL     1      17.088  19.773  19.504  1.00  0.00     0.051 A 
ATOM     15  C   UNL     1      17.503  18.442  19.639  1.00  0.00     0.157 A 
ATOM     16  C   UNL     1      15.506  17.716  18.467  1.00  0.00     0.062 A 
ATOM     17  C   UNL     1      16.709  17.409  19.114  1.00  0.00     0.158 A 
BRANCH  15  18
ATOM     18  O   UNL     1      18.700  18.143  20.287  1.00  0.00    -0.504 OA
ATOM     19  H   UNL     1      19.371  18.866  20.523  1.00  0.00     0.293 HD
ENDBRANCH  15  18
BRANCH  17  20
ATOM     20  O   UNL     1      17.096  16.075  19.226  1.00  0.00    -0.504 OA
ATOM     21  H   UNL     1      18.060  15.784  19.121  1.00  0.00     0.293 HD
ENDBRANCH  17  20
ENDBRANCH   1  12
BRANCH   2  22
ATOM     22  O   UNL     1      14.956  19.634  15.512  1.00  0.00    -0.502 OA
ATOM     23  H   UNL     1      15.846  19.336  15.891  1.00  0.00     0.293 HD
ENDBRANCH   2  22
BRANCH   6  24
ATOM     24  O   UNL     1       9.743  20.116  14.528  1.00  0.00    -0.507 OA
ATOM     25  H   UNL     1      10.381  20.461  13.827  1.00  0.00     0.293 HD
ENDBRANCH   6  24
BRANCH   8  26
ATOM     26  O   UNL     1       8.030  20.016  19.013  1.00  0.00    -0.508 OA
ATOM     27  H   UNL     1       7.173  20.488  18.748  1.00  0.00     0.293 HD
ENDBRANCH   8  26
TORSDOF 6
ENDMDL
