MODEL 1
REMARK VINA RESULT:    -3.171      0.000      0.000
REMARK INTER + INTRA:          -3.860
REMARK INTER:                  -3.727
REMARK INTRA:                  -0.132
REMARK UNBOUND:                -0.132
REMARK SMILES O=C([O-])CCC(=O)[O-]
REMARK SMILES IDX 4 1 2 2 1 3 3 4 5 5 6 6 7 7 8 8
REMARK H PARENT
REMARK Flexibility Score: inf
ROOT
ATOM      1  C   UNL     1      14.286 -22.513  38.403  1.00  0.00     0.059 C 
ENDROOT
BRANCH   1   2
ATOM      2  C   UNL     1      13.433 -23.684  38.036  1.00  0.00     0.042 C 
ATOM      3  O   UNL     1      12.323 -23.861  38.602  1.00  0.00    -0.550 OA
ATOM      4  O   UNL     1      13.840 -24.555  37.032  1.00  0.00    -0.550 OA
ENDBRANCH   1   2
BRANCH   1   5
ATOM      5  C   UNL     1      13.823 -21.258  37.661  1.00  0.00     0.059 C 
BRANCH   5   6
ATOM      6  C   UNL     1      14.377 -21.235  36.273  1.00  0.00     0.042 C 
ATOM      7  O   UNL     1      13.604 -21.152  35.283  1.00  0.00    -0.550 OA
ATOM      8  O   UNL     1      15.746 -21.353  36.068  1.00  0.00    -0.550 OA
ENDBRANCH   5   6
ENDBRANCH   1   5
TORSDOF 3
ENDMDL
MODEL 2
REMARK VINA RESULT:    -3.110      0.171      3.446
REMARK INTER + INTRA:          -3.788
REMARK INTER:                  -3.653
REMARK INTRA:                  -0.135
REMARK UNBOUND:                -0.132
REMARK SMILES O=C([O-])CCC(=O)[O-]
REMARK SMILES IDX 4 1 2 2 1 3 3 4 5 5 6 6 7 7 8 8
REMARK H PARENT
REMARK Flexibility Score: inf
ROOT
ATOM      1  C   UNL     1      13.892 -21.430  37.749  1.00  0.00     0.059 C 
ENDROOT
BRANCH   1   2
ATOM      2  C   UNL     1      14.399 -21.352  36.345  1.00  0.00     0.042 C 
ATOM      3  O   UNL     1      13.594 -21.211  35.388  1.00  0.00    -0.550 OA
ATOM      4  O   UNL     1      15.765 -21.388  36.095  1.00  0.00    -0.550 OA
ENDBRANCH   1   2
BRANCH   1   5
ATOM      5  C   UNL     1      14.325 -22.741  38.405  1.00  0.00     0.059 C 
BRANCH   5   6
ATOM      6  C   UNL     1      13.425 -23.859  37.985  1.00  0.00     0.042 C 
ATOM      7  O   UNL     1      12.317 -24.029  38.557  1.00  0.00    -0.550 OA
ATOM      8  O   UNL     1      13.831 -24.745  36.994  1.00  0.00    -0.550 OA
ENDBRANCH   5   6
ENDBRANCH   1   5
TORSDOF 3
ENDMDL
MODEL 3
REMARK VINA RESULT:    -3.087     19.066     20.440
REMARK INTER + INTRA:          -3.761
REMARK INTER:                  -3.656
REMARK INTRA:                  -0.105
REMARK UNBOUND:                -0.132
REMARK SMILES O=C([O-])CCC(=O)[O-]
REMARK SMILES IDX 4 1 2 2 1 3 3 4 5 5 6 6 7 7 8 8
REMARK H PARENT
REMARK Flexibility Score: inf
ROOT
ATOM      1  C   UNL     1       2.705 -30.135  51.760  1.00  0.00     0.059 C 
ENDROOT
BRANCH   1   2
ATOM      2  C   UNL     1       2.282 -30.942  52.946  1.00  0.00     0.042 C 
ATOM      3  O   UNL     1       1.298 -30.579  53.641  1.00  0.00    -0.550 OA
ATOM      4  O   UNL     1       2.946 -32.123  53.257  1.00  0.00    -0.550 OA
ENDBRANCH   1   2
BRANCH   1   5
ATOM      5  C   UNL     1       2.121 -28.724  51.836  1.00  0.00     0.059 C 
BRANCH   5   6
ATOM      6  C   UNL     1       3.109 -27.780  52.443  1.00  0.00     0.042 C 
ATOM      7  O   UNL     1       4.288 -27.730  52.006  1.00  0.00    -0.550 OA
ATOM      8  O   UNL     1       2.741 -26.988  53.524  1.00  0.00    -0.550 OA
ENDBRANCH   5   6
ENDBRANCH   1   5
TORSDOF 3
ENDMDL
MODEL 4
REMARK VINA RESULT:    -3.064     19.807     20.617
REMARK INTER + INTRA:          -3.733
REMARK INTER:                  -3.687
REMARK INTRA:                  -0.047
REMARK UNBOUND:                -0.132
REMARK SMILES O=C([O-])CCC(=O)[O-]
REMARK SMILES IDX 4 1 2 2 1 3 3 4 5 5 6 6 7 7 8 8
REMARK H PARENT
REMARK Flexibility Score: inf
ROOT
ATOM      1  C   UNL     1       2.878 -28.171  52.687  1.00  0.00     0.059 C 
ENDROOT
BRANCH   1   2
ATOM      2  C   UNL     1       3.574 -27.250  53.639  1.00  0.00     0.042 C 
ATOM      3  O   UNL     1       4.691 -27.567  54.125  1.00  0.00    -0.550 OA
ATOM      4  O   UNL     1       3.011 -26.019  53.952  1.00  0.00    -0.550 OA
ENDBRANCH   1   2
BRANCH   1   5
ATOM      5  C   UNL     1       2.435 -29.447  53.403  1.00  0.00     0.059 C 
BRANCH   5   6
ATOM      6  C   UNL     1       2.568 -30.629  52.498  1.00  0.00     0.042 C 
ATOM      7  O   UNL     1       2.567 -31.795  52.973  1.00  0.00    -0.550 OA
ATOM      8  O   UNL     1       2.741 -30.443  51.132  1.00  0.00    -0.550 OA
ENDBRANCH   5   6
ENDBRANCH   1   5
TORSDOF 3
ENDMDL
MODEL 5
REMARK VINA RESULT:    -2.941      3.866      5.079
REMARK INTER + INTRA:          -3.589
REMARK INTER:                  -3.426
REMARK INTRA:                  -0.163
REMARK UNBOUND:                -0.132
REMARK SMILES O=C([O-])CCC(=O)[O-]
REMARK SMILES IDX 4 1 2 2 1 3 3 4 5 5 6 6 7 7 8 8
REMARK H PARENT
REMARK Flexibility Score: inf
ROOT
ATOM      1  C   UNL     1      13.677 -27.635  39.063  1.00  0.00     0.059 C 
ENDROOT
BRANCH   1   2
ATOM      2  C   UNL     1      14.094 -28.784  38.201  1.00  0.00     0.042 C 
ATOM      3  O   UNL     1      13.264 -29.330  37.428  1.00  0.00    -0.550 OA
ATOM      4  O   UNL     1      15.412 -29.221  38.214  1.00  0.00    -0.550 OA
ENDBRANCH   1   2
BRANCH   1   5
ATOM      5  C   UNL     1      12.926 -26.590  38.237  1.00  0.00     0.059 C 
BRANCH   5   6
ATOM      6  C   UNL     1      13.852 -25.918  37.275  1.00  0.00     0.042 C 
ATOM      7  O   UNL     1      13.554 -25.844  36.054  1.00  0.00    -0.550 OA
ATOM      8  O   UNL     1      15.069 -25.414  37.717  1.00  0.00    -0.550 OA
ENDBRANCH   5   6
ENDBRANCH   1   5
TORSDOF 3
ENDMDL
MODEL 6
REMARK VINA RESULT:    -2.941      4.765      5.699
REMARK INTER + INTRA:          -3.589
REMARK INTER:                  -3.488
REMARK INTRA:                  -0.101
REMARK UNBOUND:                -0.132
REMARK SMILES O=C([O-])CCC(=O)[O-]
REMARK SMILES IDX 4 1 2 2 1 3 3 4 5 5 6 6 7 7 8 8
REMARK H PARENT
REMARK Flexibility Score: inf
ROOT
ATOM      1  C   UNL     1       9.639 -22.709  40.804  1.00  0.00     0.059 C 
ENDROOT
BRANCH   1   2
ATOM      2  C   UNL     1      10.938 -22.314  41.429  1.00  0.00     0.042 C 
ATOM      3  O   UNL     1      11.697 -21.493  40.849  1.00  0.00    -0.550 OA
ATOM      4  O   UNL     1      11.291 -22.814  42.676  1.00  0.00    -0.550 OA
ENDBRANCH   1   2
BRANCH   1   5
ATOM      5  C   UNL     1       9.565 -24.226  40.634  1.00  0.00     0.059 C 
BRANCH   5   6
ATOM      6  C   UNL     1       9.904 -24.614  39.231  1.00  0.00     0.042 C 
ATOM      7  O   UNL     1       8.989 -24.823  38.392  1.00  0.00    -0.550 OA
ATOM      8  O   UNL     1      11.231 -24.792  38.859  1.00  0.00    -0.550 OA
ENDBRANCH   5   6
ENDBRANCH   1   5
TORSDOF 3
ENDMDL
MODEL 7
REMARK VINA RESULT:    -2.939      4.683      5.387
REMARK INTER + INTRA:          -3.587
REMARK INTER:                  -3.477
REMARK INTRA:                  -0.110
REMARK UNBOUND:                -0.132
REMARK SMILES O=C([O-])CCC(=O)[O-]
REMARK SMILES IDX 4 1 2 2 1 3 3 4 5 5 6 6 7 7 8 8
REMARK H PARENT
REMARK Flexibility Score: inf
ROOT
ATOM      1  C   UNL     1       9.623 -24.164  40.617  1.00  0.00     0.059 C 
ENDROOT
BRANCH   1   2
ATOM      2  C   UNL     1       9.966 -24.597  39.227  1.00  0.00     0.042 C 
ATOM      3  O   UNL     1       9.055 -24.812  38.387  1.00  0.00    -0.550 OA
ATOM      4  O   UNL     1      11.297 -24.717  38.845  1.00  0.00    -0.550 OA
ENDBRANCH   1   2
BRANCH   1   5
ATOM      5  C   UNL     1       9.779 -22.650  40.761  1.00  0.00     0.059 C 
BRANCH   5   6
ATOM      6  C   UNL     1      11.065 -22.318  41.448  1.00  0.00     0.042 C 
ATOM      7  O   UNL     1      11.963 -21.680  40.839  1.00  0.00    -0.550 OA
ATOM      8  O   UNL     1      11.293 -22.756  42.746  1.00  0.00    -0.550 OA
ENDBRANCH   5   6
ENDBRANCH   1   5
TORSDOF 3
ENDMDL
MODEL 8
REMARK VINA RESULT:    -2.936      3.873      5.922
REMARK INTER + INTRA:          -3.583
REMARK INTER:                  -3.423
REMARK INTRA:                  -0.159
REMARK UNBOUND:                -0.132
REMARK SMILES O=C([O-])CCC(=O)[O-]
REMARK SMILES IDX 4 1 2 2 1 3 3 4 5 5 6 6 7 7 8 8
REMARK H PARENT
REMARK Flexibility Score: inf
ROOT
ATOM      1  C   UNL     1      12.913 -26.569  38.236  1.00  0.00     0.059 C 
ENDROOT
BRANCH   1   2
ATOM      2  C   UNL     1      13.857 -25.937  37.265  1.00  0.00     0.042 C 
ATOM      3  O   UNL     1      13.546 -25.844  36.048  1.00  0.00    -0.550 OA
ATOM      4  O   UNL     1      15.061 -25.405  37.710  1.00  0.00    -0.550 OA
ENDBRANCH   1   2
BRANCH   1   5
ATOM      5  C   UNL     1      13.627 -27.646  39.054  1.00  0.00     0.059 C 
BRANCH   5   6
ATOM      6  C   UNL     1      14.066 -28.770  38.172  1.00  0.00     0.042 C 
ATOM      7  O   UNL     1      13.242 -29.333  37.406  1.00  0.00    -0.550 OA
ATOM      8  O   UNL     1      15.376 -29.230  38.230  1.00  0.00    -0.550 OA
ENDBRANCH   5   6
ENDBRANCH   1   5
TORSDOF 3
ENDMDL
MODEL 9
REMARK VINA RESULT:    -2.914      2.920      4.033
REMARK INTER + INTRA:          -3.557
REMARK INTER:                  -3.517
REMARK INTRA:                  -0.040
REMARK UNBOUND:                -0.132
REMARK SMILES O=C([O-])CCC(=O)[O-]
REMARK SMILES IDX 4 1 2 2 1 3 3 4 5 5 6 6 7 7 8 8
REMARK H PARENT
REMARK Flexibility Score: inf
ROOT
ATOM      1  C   UNL     1      13.891 -20.312  37.509  1.00  0.00     0.059 C 
ENDROOT
BRANCH   1   2
ATOM      2  C   UNL     1      14.367 -20.997  36.269  1.00  0.00     0.042 C 
ATOM      3  O   UNL     1      13.605 -21.107  35.273  1.00  0.00    -0.550 OA
ATOM      4  O   UNL     1      15.671 -21.472  36.193  1.00  0.00    -0.550 OA
ENDBRANCH   1   2
BRANCH   1   5
ATOM      5  C   UNL     1      14.526 -18.927  37.635  1.00  0.00     0.059 C 
BRANCH   5   6
ATOM      6  C   UNL     1      14.549 -18.488  39.064  1.00  0.00     0.042 C 
ATOM      7  O   UNL     1      14.885 -19.295  39.969  1.00  0.00    -0.550 OA
ATOM      8  O   UNL     1      14.152 -17.201  39.403  1.00  0.00    -0.550 OA
ENDBRANCH   5   6
ENDBRANCH   1   5
TORSDOF 3
ENDMDL
