MODEL 1
REMARK VINA RESULT:    -5.009      0.000      0.000
REMARK INTER + INTRA:          -8.526
REMARK INTER:                  -7.937
REMARK INTRA:                  -0.590
REMARK UNBOUND:                -0.590
REMARK SMILES CCCCCCCCCCCC(=O)[O-]
REMARK SMILES IDX 7 1 8 2 9 3 10 4 11 5 12 6 13 7 14 8 6 9 5 10 4 11 3 12 2 13
REMARK SMILES IDX 1 14
REMARK H PARENT
REMARK Flexibility Score: inf
ROOT
ATOM      1  C   UNL     1      39.007  66.771  24.269  1.00  0.00     0.000 C 
ENDROOT
BRANCH   1   2
ATOM      2  C   UNL     1      37.674  67.536  24.310  1.00  0.00     0.000 C 
BRANCH   2   3
ATOM      3  C   UNL     1      37.020  67.514  25.702  1.00  0.00     0.000 C 
BRANCH   3   4
ATOM      4  C   UNL     1      35.486  67.442  25.633  1.00  0.00     0.006 C 
BRANCH   4   5
ATOM      5  C   UNL     1      34.881  66.637  26.789  1.00  0.00     0.053 C 
BRANCH   5   6
ATOM      6  C   UNL     1      34.738  65.197  26.403  1.00  0.00     0.041 C 
ATOM      7  O   UNL     1      34.371  64.887  25.240  1.00  0.00    -0.550 OA
ATOM      8  O   UNL     1      34.963  64.200  27.344  1.00  0.00    -0.550 OA
ENDBRANCH   5   6
ENDBRANCH   4   5
ENDBRANCH   3   4
ENDBRANCH   2   3
ENDBRANCH   1   2
BRANCH   1   9
ATOM      9  C   UNL     1      39.852  66.991  25.537  1.00  0.00     0.000 C 
BRANCH   9  10
ATOM     10  C   UNL     1      41.140  66.150  25.542  1.00  0.00    -0.000 C 
BRANCH  10  11
ATOM     11  C   UNL     1      41.419  65.493  24.178  1.00  0.00    -0.000 C 
BRANCH  11  12
ATOM     12  C   UNL     1      41.831  64.017  24.308  1.00  0.00    -0.000 C 
BRANCH  12  13
ATOM     13  C   UNL     1      42.208  63.630  25.745  1.00  0.00    -0.003 C 
ATOM     14  C   UNL     1      42.663  62.175  25.821  1.00  0.00     0.004 C 
ENDBRANCH  12  13
ENDBRANCH  11  12
ENDBRANCH  10  11
ENDBRANCH   9  10
ENDBRANCH   1   9
TORSDOF 10
ENDMDL
MODEL 2
REMARK VINA RESULT:    -4.950      3.547      6.387
REMARK INTER + INTRA:          -8.434
REMARK INTER:                  -8.019
REMARK INTRA:                  -0.415
REMARK UNBOUND:                -0.590
REMARK SMILES CCCCCCCCCCCC(=O)[O-]
REMARK SMILES IDX 7 1 8 2 9 3 10 4 11 5 12 6 13 7 14 8 6 9 5 10 4 11 3 12 2 13
REMARK SMILES IDX 1 14
REMARK H PARENT
REMARK Flexibility Score: inf
ROOT
ATOM      1  C   UNL     1      38.593  67.141  24.575  1.00  0.00     0.000 C 
ENDROOT
BRANCH   1   2
ATOM      2  C   UNL     1      39.962  66.600  25.021  1.00  0.00     0.000 C 
BRANCH   2   3
ATOM      3  C   UNL     1      41.128  67.500  24.578  1.00  0.00     0.000 C 
BRANCH   3   4
ATOM      4  C   UNL     1      41.461  67.343  23.085  1.00  0.00     0.006 C 
BRANCH   4   5
ATOM      5  C   UNL     1      41.129  65.943  22.553  1.00  0.00     0.053 C 
BRANCH   5   6
ATOM      6  C   UNL     1      40.347  66.041  21.281  1.00  0.00     0.041 C 
ATOM      7  O   UNL     1      39.866  65.004  20.751  1.00  0.00    -0.550 OA
ATOM      8  O   UNL     1      40.191  67.270  20.654  1.00  0.00    -0.550 OA
ENDBRANCH   5   6
ENDBRANCH   4   5
ENDBRANCH   3   4
ENDBRANCH   2   3
ENDBRANCH   1   2
BRANCH   1   9
ATOM      9  C   UNL     1      37.581  67.210  25.732  1.00  0.00     0.000 C 
BRANCH   9  10
ATOM     10  C   UNL     1      36.200  67.713  25.280  1.00  0.00    -0.000 C 
BRANCH  10  11
ATOM     11  C   UNL     1      35.065  67.220  26.194  1.00  0.00    -0.000 C 
BRANCH  11  12
ATOM     12  C   UNL     1      34.821  65.706  26.069  1.00  0.00    -0.000 C 
BRANCH  12  13
ATOM     13  C   UNL     1      34.975  64.968  27.407  1.00  0.00    -0.003 C 
ATOM     14  C   UNL     1      34.857  63.458  27.218  1.00  0.00     0.004 C 
ENDBRANCH  12  13
ENDBRANCH  11  12
ENDBRANCH  10  11
ENDBRANCH   9  10
ENDBRANCH   1   9
TORSDOF 10
ENDMDL
MODEL 3
REMARK VINA RESULT:    -4.924      2.569      3.621
REMARK INTER + INTRA:          -8.392
REMARK INTER:                  -8.041
REMARK INTRA:                  -0.351
REMARK UNBOUND:                -0.590
REMARK SMILES CCCCCCCCCCCC(=O)[O-]
REMARK SMILES IDX 7 1 8 2 9 3 10 4 11 5 12 6 13 7 14 8 6 9 5 10 4 11 3 12 2 13
REMARK SMILES IDX 1 14
REMARK H PARENT
REMARK Flexibility Score: inf
ROOT
ATOM      1  C   UNL     1      39.688  66.766  24.702  1.00  0.00     0.000 C 
ENDROOT
BRANCH   1   2
ATOM      2  C   UNL     1      38.242  67.194  24.401  1.00  0.00     0.000 C 
BRANCH   2   3
ATOM      3  C   UNL     1      37.414  67.426  25.677  1.00  0.00     0.000 C 
BRANCH   3   4
ATOM      4  C   UNL     1      35.917  67.615  25.384  1.00  0.00     0.006 C 
BRANCH   4   5
ATOM      5  C   UNL     1      35.025  67.082  26.511  1.00  0.00     0.053 C 
BRANCH   5   6
ATOM      6  C   UNL     1      34.682  65.645  26.270  1.00  0.00     0.041 C 
ATOM      7  O   UNL     1      34.029  65.312  25.246  1.00  0.00    -0.550 OA
ATOM      8  O   UNL     1      35.042  64.679  27.202  1.00  0.00    -0.550 OA
ENDBRANCH   5   6
ENDBRANCH   4   5
ENDBRANCH   3   4
ENDBRANCH   2   3
ENDBRANCH   1   2
BRANCH   1   9
ATOM      9  C   UNL     1      40.475  66.413  23.428  1.00  0.00     0.000 C 
BRANCH   9  10
ATOM     10  C   UNL     1      41.525  67.478  23.068  1.00  0.00    -0.000 C 
BRANCH  10  11
ATOM     11  C   UNL     1      42.065  68.214  24.307  1.00  0.00    -0.000 C 
BRANCH  11  12
ATOM     12  C   UNL     1      43.196  69.198  23.962  1.00  0.00    -0.000 C 
BRANCH  12  13
ATOM     13  C   UNL     1      43.568  70.110  25.140  1.00  0.00    -0.003 C 
ATOM     14  C   UNL     1      44.478  71.248  24.687  1.00  0.00     0.004 C 
ENDBRANCH  12  13
ENDBRANCH  11  12
ENDBRANCH  10  11
ENDBRANCH   9  10
ENDBRANCH   1   9
TORSDOF 10
ENDMDL
MODEL 4
REMARK VINA RESULT:    -4.901      5.595      7.917
REMARK INTER + INTRA:          -8.356
REMARK INTER:                  -7.982
REMARK INTRA:                  -0.374
REMARK UNBOUND:                -0.590
REMARK SMILES CCCCCCCCCCCC(=O)[O-]
REMARK SMILES IDX 7 1 8 2 9 3 10 4 11 5 12 6 13 7 14 8 6 9 5 10 4 11 3 12 2 13
REMARK SMILES IDX 1 14
REMARK H PARENT
REMARK Flexibility Score: inf
ROOT
ATOM      1  C   UNL     1      41.780  67.733  24.690  1.00  0.00     0.000 C 
ENDROOT
BRANCH   1   2
ATOM      2  C   UNL     1      42.654  68.800  24.009  1.00  0.00     0.000 C 
BRANCH   2   3
ATOM      3  C   UNL     1      43.373  69.711  25.019  1.00  0.00     0.000 C 
BRANCH   3   4
ATOM      4  C   UNL     1      44.075  70.901  24.345  1.00  0.00     0.006 C 
BRANCH   4   5
ATOM      5  C   UNL     1      43.975  72.189  25.172  1.00  0.00     0.053 C 
BRANCH   5   6
ATOM      6  C   UNL     1      42.865  73.052  24.659  1.00  0.00     0.041 C 
ATOM      7  O   UNL     1      42.874  73.454  23.466  1.00  0.00    -0.550 OA
ATOM      8  O   UNL     1      41.846  73.454  25.514  1.00  0.00    -0.550 OA
ENDBRANCH   5   6
ENDBRANCH   4   5
ENDBRANCH   3   4
ENDBRANCH   2   3
ENDBRANCH   1   2
BRANCH   1   9
ATOM      9  C   UNL     1      41.326  66.634  23.714  1.00  0.00     0.000 C 
BRANCH   9  10
ATOM     10  C   UNL     1      39.797  66.480  23.668  1.00  0.00    -0.000 C 
BRANCH  10  11
ATOM     11  C   UNL     1      39.101  67.146  24.869  1.00  0.00    -0.000 C 
BRANCH  11  12
ATOM     12  C   UNL     1      37.591  67.329  24.648  1.00  0.00    -0.000 C 
BRANCH  12  13
ATOM     13  C   UNL     1      36.822  67.551  25.960  1.00  0.00    -0.003 C 
ATOM     14  C   UNL     1      35.321  67.655  25.706  1.00  0.00     0.004 C 
ENDBRANCH  12  13
ENDBRANCH  11  12
ENDBRANCH  10  11
ENDBRANCH   9  10
ENDBRANCH   1   9
TORSDOF 10
ENDMDL
MODEL 5
REMARK VINA RESULT:    -4.897      3.782      7.139
REMARK INTER + INTRA:          -8.350
REMARK INTER:                  -7.985
REMARK INTRA:                  -0.364
REMARK UNBOUND:                -0.590
REMARK SMILES CCCCCCCCCCCC(=O)[O-]
REMARK SMILES IDX 7 1 8 2 9 3 10 4 11 5 12 6 13 7 14 8 6 9 5 10 4 11 3 12 2 13
REMARK SMILES IDX 1 14
REMARK H PARENT
REMARK Flexibility Score: inf
ROOT
ATOM      1  C   UNL     1      41.122  66.678  23.511  1.00  0.00     0.000 C 
ENDROOT
BRANCH   1   2
ATOM      2  C   UNL     1      41.593  65.887  24.743  1.00  0.00     0.000 C 
BRANCH   2   3
ATOM      3  C   UNL     1      41.727  64.380  24.465  1.00  0.00     0.000 C 
BRANCH   3   4
ATOM      4  C   UNL     1      42.131  63.583  25.716  1.00  0.00     0.006 C 
BRANCH   4   5
ATOM      5  C   UNL     1      42.551  62.145  25.388  1.00  0.00     0.053 C 
BRANCH   5   6
ATOM      6  C   UNL     1      43.779  61.772  26.157  1.00  0.00     0.041 C 
ATOM      7  O   UNL     1      43.682  61.097  27.216  1.00  0.00    -0.550 OA
ATOM      8  O   UNL     1      45.026  62.211  25.732  1.00  0.00    -0.550 OA
ENDBRANCH   5   6
ENDBRANCH   4   5
ENDBRANCH   3   4
ENDBRANCH   2   3
ENDBRANCH   1   2
BRANCH   1   9
ATOM      9  C   UNL     1      39.588  66.746  23.406  1.00  0.00     0.000 C 
BRANCH   9  10
ATOM     10  C   UNL     1      38.915  67.008  24.763  1.00  0.00    -0.000 C 
BRANCH  10  11
ATOM     11  C   UNL     1      37.456  67.478  24.616  1.00  0.00    -0.000 C 
BRANCH  11  12
ATOM     12  C   UNL     1      36.720  67.547  25.964  1.00  0.00    -0.000 C 
BRANCH  12  13
ATOM     13  C   UNL     1      35.205  67.334  25.824  1.00  0.00    -0.003 C 
ATOM     14  C   UNL     1      34.819  65.897  26.159  1.00  0.00     0.004 C 
ENDBRANCH  12  13
ENDBRANCH  11  12
ENDBRANCH  10  11
ENDBRANCH   9  10
ENDBRANCH   1   9
TORSDOF 10
ENDMDL
MODEL 6
REMARK VINA RESULT:    -4.866      3.673      6.667
REMARK INTER + INTRA:          -8.301
REMARK INTER:                  -7.867
REMARK INTRA:                  -0.434
REMARK UNBOUND:                -0.590
REMARK SMILES CCCCCCCCCCCC(=O)[O-]
REMARK SMILES IDX 7 1 8 2 9 3 10 4 11 5 12 6 13 7 14 8 6 9 5 10 4 11 3 12 2 13
REMARK SMILES IDX 1 14
REMARK H PARENT
REMARK Flexibility Score: inf
ROOT
ATOM      1  C   UNL     1      37.462  67.509  24.535  1.00  0.00     0.000 C 
ENDROOT
BRANCH   1   2
ATOM      2  C   UNL     1      38.826  66.802  24.611  1.00  0.00     0.000 C 
BRANCH   2   3
ATOM      3  C   UNL     1      39.475  66.615  23.229  1.00  0.00     0.000 C 
BRANCH   3   4
ATOM      4  C   UNL     1      41.001  66.449  23.311  1.00  0.00     0.006 C 
BRANCH   4   5
ATOM      5  C   UNL     1      41.751  67.752  23.010  1.00  0.00     0.053 C 
BRANCH   5   6
ATOM      6  C   UNL     1      42.254  68.368  24.278  1.00  0.00     0.041 C 
ATOM      7  O   UNL     1      43.103  69.297  24.237  1.00  0.00    -0.550 OA
ATOM      8  O   UNL     1      41.822  67.884  25.505  1.00  0.00    -0.550 OA
ENDBRANCH   5   6
ENDBRANCH   4   5
ENDBRANCH   3   4
ENDBRANCH   2   3
ENDBRANCH   1   2
BRANCH   1   9
ATOM      9  C   UNL     1      36.776  67.616  25.908  1.00  0.00     0.000 C 
BRANCH   9  10
ATOM     10  C   UNL     1      35.251  67.443  25.822  1.00  0.00    -0.000 C 
BRANCH  10  11
ATOM     11  C   UNL     1      34.751  66.221  26.612  1.00  0.00    -0.000 C 
BRANCH  11  12
ATOM     12  C   UNL     1      34.693  64.946  25.753  1.00  0.00    -0.000 C 
BRANCH  12  13
ATOM     13  C   UNL     1      34.743  63.662  26.593  1.00  0.00    -0.003 C 
ATOM     14  C   UNL     1      35.092  63.969  28.047  1.00  0.00     0.004 C 
ENDBRANCH  12  13
ENDBRANCH  11  12
ENDBRANCH  10  11
ENDBRANCH   9  10
ENDBRANCH   1   9
TORSDOF 10
ENDMDL
MODEL 7
REMARK VINA RESULT:    -4.857      1.516      2.805
REMARK INTER + INTRA:          -8.287
REMARK INTER:                  -7.875
REMARK INTRA:                  -0.412
REMARK UNBOUND:                -0.590
REMARK SMILES CCCCCCCCCCCC(=O)[O-]
REMARK SMILES IDX 7 1 8 2 9 3 10 4 11 5 12 6 13 7 14 8 6 9 5 10 4 11 3 12 2 13
REMARK SMILES IDX 1 14
REMARK H PARENT
REMARK Flexibility Score: inf
ROOT
ATOM      1  C   UNL     1      41.268  65.678  22.974  1.00  0.00     0.000 C 
ENDROOT
BRANCH   1   2
ATOM      2  C   UNL     1      39.936  66.445  22.946  1.00  0.00     0.000 C 
BRANCH   2   3
ATOM      3  C   UNL     1      39.408  66.769  24.355  1.00  0.00     0.000 C 
BRANCH   3   4
ATOM      4  C   UNL     1      37.923  67.164  24.352  1.00  0.00     0.006 C 
BRANCH   4   5
ATOM      5  C   UNL     1      37.397  67.486  25.757  1.00  0.00     0.053 C 
BRANCH   5   6
ATOM      6  C   UNL     1      35.930  67.204  25.842  1.00  0.00     0.041 C 
ATOM      7  O   UNL     1      35.100  68.150  25.801  1.00  0.00    -0.550 OA
ATOM      8  O   UNL     1      35.481  65.901  26.016  1.00  0.00    -0.550 OA
ENDBRANCH   5   6
ENDBRANCH   4   5
ENDBRANCH   3   4
ENDBRANCH   2   3
ENDBRANCH   1   2
BRANCH   1   9
ATOM      9  C   UNL     1      41.696  65.290  24.400  1.00  0.00     0.000 C 
BRANCH   9  10
ATOM     10  C   UNL     1      41.673  63.770  24.631  1.00  0.00    -0.000 C 
BRANCH  10  11
ATOM     11  C   UNL     1      42.455  63.353  25.890  1.00  0.00    -0.000 C 
BRANCH  11  12
ATOM     12  C   UNL     1      43.061  61.945  25.769  1.00  0.00    -0.000 C 
BRANCH  12  13
ATOM     13  C   UNL     1      44.415  61.819  26.483  1.00  0.00    -0.003 C 
ATOM     14  C   UNL     1      45.556  62.282  25.582  1.00  0.00     0.004 C 
ENDBRANCH  12  13
ENDBRANCH  11  12
ENDBRANCH  10  11
ENDBRANCH   9  10
ENDBRANCH   1   9
TORSDOF 10
ENDMDL
MODEL 8
REMARK VINA RESULT:    -4.797      2.915      6.275
REMARK INTER + INTRA:          -8.191
REMARK INTER:                  -7.666
REMARK INTRA:                  -0.525
REMARK UNBOUND:                -0.590
REMARK SMILES CCCCCCCCCCCC(=O)[O-]
REMARK SMILES IDX 7 1 8 2 9 3 10 4 11 5 12 6 13 7 14 8 6 9 5 10 4 11 3 12 2 13
REMARK SMILES IDX 1 14
REMARK H PARENT
REMARK Flexibility Score: inf
ROOT
ATOM      1  C   UNL     1      37.437  67.352  24.628  1.00  0.00     0.000 C 
ENDROOT
BRANCH   1   2
ATOM      2  C   UNL     1      38.924  67.124  24.944  1.00  0.00     0.000 C 
BRANCH   2   3
ATOM      3  C   UNL     1      39.744  66.747  23.698  1.00  0.00     0.000 C 
BRANCH   3   4
ATOM      4  C   UNL     1      41.211  66.432  24.030  1.00  0.00     0.006 C 
BRANCH   4   5
ATOM      5  C   UNL     1      41.579  64.971  23.742  1.00  0.00     0.053 C 
BRANCH   5   6
ATOM      6  C   UNL     1      41.806  64.228  25.022  1.00  0.00     0.041 C 
ATOM      7  O   UNL     1      41.800  64.843  26.120  1.00  0.00    -0.550 OA
ATOM      8  O   UNL     1      42.074  62.866  24.996  1.00  0.00    -0.550 OA
ENDBRANCH   5   6
ENDBRANCH   4   5
ENDBRANCH   3   4
ENDBRANCH   2   3
ENDBRANCH   1   2
BRANCH   1   9
ATOM      9  C   UNL     1      36.647  67.861  25.847  1.00  0.00     0.000 C 
BRANCH   9  10
ATOM     10  C   UNL     1      35.191  67.365  25.857  1.00  0.00    -0.000 C 
BRANCH  10  11
ATOM     11  C   UNL     1      35.013  66.080  26.684  1.00  0.00    -0.000 C 
BRANCH  11  12
ATOM     12  C   UNL     1      34.619  64.871  25.818  1.00  0.00    -0.000 C 
BRANCH  12  13
ATOM     13  C   UNL     1      34.662  63.547  26.594  1.00  0.00    -0.003 C 
ATOM     14  C   UNL     1      35.030  63.778  28.057  1.00  0.00     0.004 C 
ENDBRANCH  12  13
ENDBRANCH  11  12
ENDBRANCH  10  11
ENDBRANCH   9  10
ENDBRANCH   1   9
TORSDOF 10
ENDMDL
MODEL 9
REMARK VINA RESULT:    -4.783      4.202      5.857
REMARK INTER + INTRA:          -8.169
REMARK INTER:                  -7.604
REMARK INTRA:                  -0.566
REMARK UNBOUND:                -0.590
REMARK SMILES CCCCCCCCCCCC(=O)[O-]
REMARK SMILES IDX 7 1 8 2 9 3 10 4 11 5 12 6 13 7 14 8 6 9 5 10 4 11 3 12 2 13
REMARK SMILES IDX 1 14
REMARK H PARENT
REMARK Flexibility Score: inf
ROOT
ATOM      1  C   UNL     1      42.128  63.699  25.757  1.00  0.00     0.000 C 
ENDROOT
BRANCH   1   2
ATOM      2  C   UNL     1      41.717  64.603  24.582  1.00  0.00     0.000 C 
BRANCH   2   3
ATOM      3  C   UNL     1      41.224  65.985  25.041  1.00  0.00     0.000 C 
BRANCH   3   4
ATOM      4  C   UNL     1      40.347  66.679  23.986  1.00  0.00     0.006 C 
BRANCH   4   5
ATOM      5  C   UNL     1      41.140  67.092  22.740  1.00  0.00     0.053 C 
BRANCH   5   6
ATOM      6  C   UNL     1      40.451  66.614  21.501  1.00  0.00     0.041 C 
ATOM      7  O   UNL     1      40.072  67.438  20.629  1.00  0.00    -0.550 OA
ATOM      8  O   UNL     1      40.184  65.261  21.332  1.00  0.00    -0.550 OA
ENDBRANCH   5   6
ENDBRANCH   4   5
ENDBRANCH   3   4
ENDBRANCH   2   3
ENDBRANCH   1   2
BRANCH   1   9
ATOM      9  C   UNL     1      42.613  62.314  25.293  1.00  0.00     0.000 C 
BRANCH   9  10
ATOM     10  C   UNL     1      43.258  61.504  26.430  1.00  0.00    -0.000 C 
BRANCH  10  11
ATOM     11  C   UNL     1      44.733  61.879  26.658  1.00  0.00    -0.000 C 
BRANCH  11  12
ATOM     12  C   UNL     1      45.518  62.013  25.342  1.00  0.00    -0.000 C 
BRANCH  12  13
ATOM     13  C   UNL     1      46.712  62.971  25.459  1.00  0.00    -0.003 C 
ATOM     14  C   UNL     1      46.968  63.356  26.913  1.00  0.00     0.004 C 
ENDBRANCH  12  13
ENDBRANCH  11  12
ENDBRANCH  10  11
ENDBRANCH   9  10
ENDBRANCH   1   9
TORSDOF 10
ENDMDL
