MODEL 1
REMARK VINA RESULT:    -3.051      0.000      0.000
REMARK INTER + INTRA:          -4.215
REMARK INTER:                  -3.942
REMARK INTRA:                  -0.272
REMARK UNBOUND:                -0.272
REMARK SMILES CCCCCCC(=O)[O-]
REMARK SMILES IDX 5 1 6 2 7 3 8 4 9 5 4 6 3 7 2 8 1 9
REMARK H PARENT
REMARK Flexibility Score: inf
ROOT
ATOM      1  C   UNL     1      -7.552  -4.658   9.636  1.00  0.00     0.006 C 
ENDROOT
BRANCH   1   2
ATOM      2  C   UNL     1      -8.981  -4.335   9.182  1.00  0.00     0.053 C 
BRANCH   2   3
ATOM      3  C   UNL     1      -9.070  -2.920   8.707  1.00  0.00     0.041 C 
ATOM      4  O   UNL     1      -9.286  -2.672   7.491  1.00  0.00    -0.550 OA
ATOM      5  O   UNL     1      -8.965  -1.873   9.614  1.00  0.00    -0.550 OA
ENDBRANCH   2   3
ENDBRANCH   1   2
BRANCH   1   6
ATOM      6  C   UNL     1      -7.188  -6.140   9.441  1.00  0.00     0.000 C 
BRANCH   6   7
ATOM      7  C   UNL     1      -7.991  -6.800   8.307  1.00  0.00    -0.000 C 
BRANCH   7   8
ATOM      8  C   UNL     1      -8.561  -8.170   8.710  1.00  0.00    -0.003 C 
ATOM      9  C   UNL     1      -9.685  -8.065   9.741  1.00  0.00     0.004 C 
ENDBRANCH   7   8
ENDBRANCH   6   7
ENDBRANCH   1   6
TORSDOF 5
ENDMDL
MODEL 2
REMARK VINA RESULT:    -2.977     22.195     22.893
REMARK INTER + INTRA:          -4.120
REMARK INTER:                  -3.970
REMARK INTRA:                  -0.149
REMARK UNBOUND:                -0.272
REMARK SMILES CCCCCCC(=O)[O-]
REMARK SMILES IDX 5 1 6 2 7 3 8 4 9 5 4 6 3 7 2 8 1 9
REMARK H PARENT
REMARK Flexibility Score: inf
ROOT
ATOM      1  C   UNL     1       9.765  -4.721  -3.185  1.00  0.00     0.006 C 
ENDROOT
BRANCH   1   2
ATOM      2  C   UNL     1       9.044  -3.440  -3.625  1.00  0.00     0.053 C 
BRANCH   2   3
ATOM      3  C   UNL     1       9.702  -2.239  -3.024  1.00  0.00     0.041 C 
ATOM      4  O   UNL     1       9.835  -1.184  -3.700  1.00  0.00    -0.550 OA
ATOM      5  O   UNL     1      10.123  -2.265  -1.700  1.00  0.00    -0.550 OA
ENDBRANCH   2   3
ENDBRANCH   1   2
BRANCH   1   6
ATOM      6  C   UNL     1      10.121  -5.637  -4.368  1.00  0.00     0.000 C 
BRANCH   6   7
ATOM      7  C   UNL     1       9.622  -5.082  -5.714  1.00  0.00    -0.000 C 
BRANCH   7   8
ATOM      8  C   UNL     1       9.980  -5.999  -6.895  1.00  0.00    -0.003 C 
ATOM      9  C   UNL     1       9.420  -5.497  -8.226  1.00  0.00     0.004 C 
ENDBRANCH   7   8
ENDBRANCH   6   7
ENDBRANCH   1   6
TORSDOF 5
ENDMDL
MODEL 3
REMARK VINA RESULT:    -2.835     11.311     12.251
REMARK INTER + INTRA:          -3.936
REMARK INTER:                  -3.771
REMARK INTRA:                  -0.165
REMARK UNBOUND:                -0.272
REMARK SMILES CCCCCCC(=O)[O-]
REMARK SMILES IDX 5 1 6 2 7 3 8 4 9 5 4 6 3 7 2 8 1 9
REMARK H PARENT
REMARK Flexibility Score: inf
ROOT
ATOM      1  C   UNL     1      -6.798   6.048   8.296  1.00  0.00     0.006 C 
ENDROOT
BRANCH   1   2
ATOM      2  C   UNL     1      -5.903   6.100   9.541  1.00  0.00     0.053 C 
BRANCH   2   3
ATOM      3  C   UNL     1      -4.704   6.957   9.286  1.00  0.00     0.041 C 
ATOM      4  O   UNL     1      -4.708   7.787   8.338  1.00  0.00    -0.550 OA
ATOM      5  O   UNL     1      -3.599   6.875  10.124  1.00  0.00    -0.550 OA
ENDBRANCH   2   3
ENDBRANCH   1   2
BRANCH   1   6
ATOM      6  C   UNL     1      -8.147   5.360   8.563  1.00  0.00     0.000 C 
BRANCH   6   7
ATOM      7  C   UNL     1      -9.171   5.615   7.445  1.00  0.00    -0.000 C 
BRANCH   7   8
ATOM      8  C   UNL     1      -8.552   6.328   6.232  1.00  0.00    -0.003 C 
ATOM      9  C   UNL     1      -9.488   7.364   5.610  1.00  0.00     0.004 C 
ENDBRANCH   7   8
ENDBRANCH   6   7
ENDBRANCH   1   6
TORSDOF 5
ENDMDL
MODEL 4
REMARK VINA RESULT:    -2.812      9.791     11.824
REMARK INTER + INTRA:          -3.907
REMARK INTER:                  -3.745
REMARK INTRA:                  -0.162
REMARK UNBOUND:                -0.272
REMARK SMILES CCCCCCC(=O)[O-]
REMARK SMILES IDX 5 1 6 2 7 3 8 4 9 5 4 6 3 7 2 8 1 9
REMARK H PARENT
REMARK Flexibility Score: inf
ROOT
ATOM      1  C   UNL     1      -7.687   5.886   7.394  1.00  0.00     0.006 C 
ENDROOT
BRANCH   1   2
ATOM      2  C   UNL     1      -7.720   5.875   8.927  1.00  0.00     0.053 C 
BRANCH   2   3
ATOM      3  C   UNL     1      -7.456   4.497   9.445  1.00  0.00     0.041 C 
ATOM      4  O   UNL     1      -6.324   4.203   9.914  1.00  0.00    -0.550 OA
ATOM      5  O   UNL     1      -8.473   3.551   9.456  1.00  0.00    -0.550 OA
ENDBRANCH   2   3
ENDBRANCH   1   2
BRANCH   1   6
ATOM      6  C   UNL     1      -9.092   5.819   6.770  1.00  0.00     0.000 C 
BRANCH   6   7
ATOM      7  C   UNL     1      -9.478   7.120   6.046  1.00  0.00    -0.000 C 
BRANCH   7   8
ATOM      8  C   UNL     1      -9.500   6.957   4.517  1.00  0.00    -0.003 C 
ATOM      9  C   UNL     1      -8.333   7.664   3.828  1.00  0.00     0.004 C 
ENDBRANCH   7   8
ENDBRANCH   6   7
ENDBRANCH   1   6
TORSDOF 5
ENDMDL
MODEL 5
REMARK VINA RESULT:    -2.794     11.733     12.536
REMARK INTER + INTRA:          -3.883
REMARK INTER:                  -3.719
REMARK INTRA:                  -0.164
REMARK UNBOUND:                -0.272
REMARK SMILES CCCCCCC(=O)[O-]
REMARK SMILES IDX 5 1 6 2 7 3 8 4 9 5 4 6 3 7 2 8 1 9
REMARK H PARENT
REMARK Flexibility Score: inf
ROOT
ATOM      1  C   UNL     1      -7.376   6.870   8.264  1.00  0.00     0.006 C 
ENDROOT
BRANCH   1   2
ATOM      2  C   UNL     1      -6.308   6.206   9.143  1.00  0.00     0.053 C 
BRANCH   2   3
ATOM      3  C   UNL     1      -4.948   6.715   8.783  1.00  0.00     0.041 C 
ATOM      4  O   UNL     1      -3.943   5.961   8.883  1.00  0.00    -0.550 OA
ATOM      5  O   UNL     1      -4.795   8.004   8.290  1.00  0.00    -0.550 OA
ENDBRANCH   2   3
ENDBRANCH   1   2
BRANCH   1   6
ATOM      6  C   UNL     1      -7.790   5.994   7.070  1.00  0.00     0.000 C 
BRANCH   6   7
ATOM      7  C   UNL     1      -9.295   6.088   6.763  1.00  0.00    -0.000 C 
BRANCH   7   8
ATOM      8  C   UNL     1      -9.617   7.189   5.739  1.00  0.00    -0.003 C 
ATOM      9  C   UNL     1      -8.667   7.182   4.542  1.00  0.00     0.004 C 
ENDBRANCH   7   8
ENDBRANCH   6   7
ENDBRANCH   1   6
TORSDOF 5
ENDMDL
MODEL 6
REMARK VINA RESULT:    -2.779     17.487     18.160
REMARK INTER + INTRA:          -3.863
REMARK INTER:                  -3.510
REMARK INTRA:                  -0.353
REMARK UNBOUND:                -0.272
REMARK SMILES CCCCCCC(=O)[O-]
REMARK SMILES IDX 5 1 6 2 7 3 8 4 9 5 4 6 3 7 2 8 1 9
REMARK H PARENT
REMARK Flexibility Score: inf
ROOT
ATOM      1  C   UNL     1      -7.163  -7.120  -8.406  1.00  0.00     0.006 C 
ENDROOT
BRANCH   1   2
ATOM      2  C   UNL     1      -6.299  -5.983  -8.966  1.00  0.00     0.053 C 
BRANCH   2   3
ATOM      3  C   UNL     1      -4.855  -6.229  -8.665  1.00  0.00     0.041 C 
ATOM      4  O   UNL     1      -4.517  -6.770  -7.578  1.00  0.00    -0.550 OA
ATOM      5  O   UNL     1      -3.884  -5.908  -9.605  1.00  0.00    -0.550 OA
ENDBRANCH   2   3
ENDBRANCH   1   2
BRANCH   1   6
ATOM      6  C   UNL     1      -7.505  -8.182  -9.465  1.00  0.00     0.000 C 
BRANCH   6   7
ATOM      7  C   UNL     1      -6.628  -9.440  -9.343  1.00  0.00    -0.000 C 
BRANCH   7   8
ATOM      8  C   UNL     1      -6.453  -9.895  -7.884  1.00  0.00    -0.003 C 
ATOM      9  C   UNL     1      -4.990 -10.125  -7.507  1.00  0.00     0.004 C 
ENDBRANCH   7   8
ENDBRANCH   6   7
ENDBRANCH   1   6
TORSDOF 5
ENDMDL
MODEL 7
REMARK VINA RESULT:    -2.771     11.361     12.563
REMARK INTER + INTRA:          -3.853
REMARK INTER:                  -3.647
REMARK INTRA:                  -0.206
REMARK UNBOUND:                -0.272
REMARK SMILES CCCCCCC(=O)[O-]
REMARK SMILES IDX 5 1 6 2 7 3 8 4 9 5 4 6 3 7 2 8 1 9
REMARK H PARENT
REMARK Flexibility Score: inf
ROOT
ATOM      1  C   UNL     1      -5.243   6.150   9.118  1.00  0.00     0.006 C 
ENDROOT
BRANCH   1   2
ATOM      2  C   UNL     1      -4.619   7.135  10.114  1.00  0.00     0.053 C 
BRANCH   2   3
ATOM      3  C   UNL     1      -4.439   8.477   9.476  1.00  0.00     0.041 C 
ATOM      4  O   UNL     1      -3.916   9.422  10.125  1.00  0.00    -0.550 OA
ATOM      5  O   UNL     1      -4.801   8.671   8.149  1.00  0.00    -0.550 OA
ENDBRANCH   2   3
ENDBRANCH   1   2
BRANCH   1   6
ATOM      6  C   UNL     1      -6.327   5.267   9.758  1.00  0.00     0.000 C 
BRANCH   6   7
ATOM      7  C   UNL     1      -7.573   5.124   8.867  1.00  0.00    -0.000 C 
BRANCH   7   8
ATOM      8  C   UNL     1      -7.478   5.965   7.584  1.00  0.00    -0.003 C 
ATOM      9  C   UNL     1      -8.769   5.948   6.766  1.00  0.00     0.004 C 
ENDBRANCH   7   8
ENDBRANCH   6   7
ENDBRANCH   1   6
TORSDOF 5
ENDMDL
MODEL 8
REMARK VINA RESULT:    -2.725     22.931     23.746
REMARK INTER + INTRA:          -3.794
REMARK INTER:                  -3.645
REMARK INTRA:                  -0.149
REMARK UNBOUND:                -0.272
REMARK SMILES CCCCCCC(=O)[O-]
REMARK SMILES IDX 5 1 6 2 7 3 8 4 9 5 4 6 3 7 2 8 1 9
REMARK H PARENT
REMARK Flexibility Score: inf
ROOT
ATOM      1  C   UNL     1       9.383  -5.293  -5.992  1.00  0.00     0.006 C 
ENDROOT
BRANCH   1   2
ATOM      2  C   UNL     1       9.883  -5.485  -4.555  1.00  0.00     0.053 C 
BRANCH   2   3
ATOM      3  C   UNL     1       9.280  -4.457  -3.651  1.00  0.00     0.041 C 
ATOM      4  O   UNL     1       8.674  -4.811  -2.604  1.00  0.00    -0.550 OA
ATOM      5  O   UNL     1       9.430  -3.106  -3.935  1.00  0.00    -0.550 OA
ENDBRANCH   2   3
ENDBRANCH   1   2
BRANCH   1   6
ATOM      6  C   UNL     1      10.125  -6.184  -7.002  1.00  0.00     0.000 C 
BRANCH   6   7
ATOM      7  C   UNL     1       9.617  -5.992  -8.442  1.00  0.00    -0.000 C 
BRANCH   7   8
ATOM      8  C   UNL     1       9.921  -4.589  -8.991  1.00  0.00    -0.003 C 
ATOM      9  C   UNL     1       8.670  -3.858  -9.476  1.00  0.00     0.004 C 
ENDBRANCH   7   8
ENDBRANCH   6   7
ENDBRANCH   1   6
TORSDOF 5
ENDMDL
