MODEL 1
REMARK VINA RESULT:    -6.423      0.000      0.000
REMARK INTER + INTRA:          -7.647
REMARK INTER:                  -7.362
REMARK INTRA:                  -0.285
REMARK UNBOUND:                -0.285
REMARK SMILES O=C1C[C@@H](c2ccc(O)cc2)Oc2cc(O)cc(O)c21
REMARK SMILES IDX 3 1 4 2 12 3 13 4 14 5 15 6 17 7 18 8 20 9 2 10 1 11 5 12
REMARK SMILES IDX 6 13 11 14 7 15 10 16 8 17 9 18 19 20 16 22
REMARK H PARENT 9 19 19 21 16 23
REMARK Flexibility Score: inf
ROOT
ATOM      1  C   UNL     1     478.936  38.899 459.955  1.00  0.00     0.131 C 
ATOM      2  C   UNL     1     479.363  37.692 459.109  1.00  0.00     0.211 C 
ATOM      3  O   UNL     1     479.334  36.494 459.891  1.00  0.00    -0.484 OA
ATOM      4  C   UNL     1     478.331  36.231 460.834  1.00  0.00     0.138 A 
ATOM      5  C   UNL     1     478.211  34.939 461.352  1.00  0.00     0.093 A 
ATOM      6  C   UNL     1     477.213  34.641 462.279  1.00  0.00     0.123 A 
ATOM      7  C   UNL     1     476.346  35.648 462.715  1.00  0.00     0.093 A 
ATOM      8  C   UNL     1     476.473  36.959 462.240  1.00  0.00     0.133 A 
ATOM      9  C   UNL     1     477.458  37.255 461.259  1.00  0.00     0.102 A 
ATOM     10  C   UNL     1     477.635  38.588 460.634  1.00  0.00     0.174 C 
ATOM     11  O   UNL     1     476.708  39.440 460.613  1.00  0.00    -0.294 OA
ENDROOT
BRANCH   2  12
ATOM     12  C   UNL     1     480.743  37.902 458.536  1.00  0.00    -0.007 A 
ATOM     13  C   UNL     1     481.789  38.354 459.359  1.00  0.00     0.011 A 
ATOM     14  C   UNL     1     481.013  37.594 457.190  1.00  0.00     0.011 A 
ATOM     15  C   UNL     1     483.076  38.519 458.837  1.00  0.00     0.046 A 
ATOM     16  C   UNL     1     482.301  37.761 456.673  1.00  0.00     0.046 A 
ATOM     17  C   UNL     1     483.335  38.225 457.492  1.00  0.00     0.115 A 
BRANCH  17  18
ATOM     18  O   UNL     1     484.613  38.386 456.962  1.00  0.00    -0.508 OA
ATOM     19  H   UNL     1     485.131  39.248 457.082  1.00  0.00     0.293 HD
ENDBRANCH  17  18
ENDBRANCH   2  12
BRANCH   8  20
ATOM     20  O   UNL     1     475.632  37.928 462.792  1.00  0.00    -0.507 OA
ATOM     21  H   UNL     1     474.925  38.425 462.271  1.00  0.00     0.293 HD
ENDBRANCH   8  20
BRANCH   6  22
ATOM     22  O   UNL     1     477.096  33.342 462.768  1.00  0.00    -0.508 OA
ATOM     23  H   UNL     1     477.341  33.111 463.724  1.00  0.00     0.293 HD
ENDBRANCH   6  22
TORSDOF 4
ENDMDL
MODEL 2
REMARK VINA RESULT:    -6.391      0.047      1.085
REMARK INTER + INTRA:          -7.610
REMARK INTER:                  -7.325
REMARK INTRA:                  -0.285
REMARK UNBOUND:                -0.285
REMARK SMILES O=C1C[C@@H](c2ccc(O)cc2)Oc2cc(O)cc(O)c21
REMARK SMILES IDX 3 1 4 2 12 3 13 4 14 5 15 6 17 7 18 8 20 9 2 10 1 11 5 12
REMARK SMILES IDX 6 13 11 14 7 15 10 16 8 17 9 18 19 20 16 22
REMARK H PARENT 9 19 19 21 16 23
REMARK Flexibility Score: inf
ROOT
ATOM      1  C   UNL     1     478.974  38.876 459.950  1.00  0.00     0.131 C 
ATOM      2  C   UNL     1     479.401  37.659 459.117  1.00  0.00     0.211 C 
ATOM      3  O   UNL     1     479.354  36.467 459.907  1.00  0.00    -0.484 OA
ATOM      4  C   UNL     1     478.338  36.218 460.841  1.00  0.00     0.138 A 
ATOM      5  C   UNL     1     478.202  34.931 461.366  1.00  0.00     0.093 A 
ATOM      6  C   UNL     1     477.193  34.647 462.284  1.00  0.00     0.123 A 
ATOM      7  C   UNL     1     476.329  35.664 462.704  1.00  0.00     0.093 A 
ATOM      8  C   UNL     1     476.471  36.971 462.221  1.00  0.00     0.133 A 
ATOM      9  C   UNL     1     477.469  37.252 461.249  1.00  0.00     0.102 A 
ATOM     10  C   UNL     1     477.664  38.580 460.617  1.00  0.00     0.174 C 
ATOM     11  O   UNL     1     476.744  39.439 460.580  1.00  0.00    -0.294 OA
ENDROOT
BRANCH   2  12
ATOM     12  C   UNL     1     480.788  37.854 458.557  1.00  0.00    -0.007 A 
ATOM     13  C   UNL     1     481.050  37.578 457.204  1.00  0.00     0.011 A 
ATOM     14  C   UNL     1     481.819  38.367 459.365  1.00  0.00     0.011 A 
ATOM     15  C   UNL     1     482.328  37.788 456.676  1.00  0.00     0.046 A 
ATOM     16  C   UNL     1     483.095  38.575 458.832  1.00  0.00     0.046 A 
ATOM     17  C   UNL     1     483.354  38.285 457.488  1.00  0.00     0.115 A 
BRANCH  17  18
ATOM     18  O   UNL     1     484.630  38.498 456.972  1.00  0.00    -0.508 OA
ATOM     19  H   UNL     1     485.461  38.302 457.518  1.00  0.00     0.293 HD
ENDBRANCH  17  18
ENDBRANCH   2  12
BRANCH   8  20
ATOM     20  O   UNL     1     475.632  37.950 462.758  1.00  0.00    -0.507 OA
ATOM     21  H   UNL     1     475.761  38.367 463.668  1.00  0.00     0.293 HD
ENDBRANCH   8  20
BRANCH   6  22
ATOM     22  O   UNL     1     477.059  33.352 462.781  1.00  0.00    -0.508 OA
ATOM     23  H   UNL     1     476.155  32.900 462.846  1.00  0.00     0.293 HD
ENDBRANCH   6  22
TORSDOF 4
ENDMDL
MODEL 3
REMARK VINA RESULT:    -6.008      1.711      7.106
REMARK INTER + INTRA:          -7.171
REMARK INTER:                  -6.883
REMARK INTRA:                  -0.289
REMARK UNBOUND:                -0.285
REMARK SMILES O=C1C[C@@H](c2ccc(O)cc2)Oc2cc(O)cc(O)c21
REMARK SMILES IDX 3 1 4 2 12 3 13 4 14 5 15 6 17 7 18 8 20 9 2 10 1 11 5 12
REMARK SMILES IDX 6 13 11 14 7 15 10 16 8 17 9 18 19 20 16 22
REMARK H PARENT 9 19 19 21 16 23
REMARK Flexibility Score: inf
ROOT
ATOM      1  C   UNL     1     480.250  37.612 458.275  1.00  0.00     0.131 C 
ATOM      2  C   UNL     1     480.018  38.588 459.437  1.00  0.00     0.211 C 
ATOM      3  O   UNL     1     481.193  38.694 460.247  1.00  0.00    -0.484 OA
ATOM      4  C   UNL     1     482.486  38.716 459.705  1.00  0.00     0.138 A 
ATOM      5  C   UNL     1     483.554  39.098 460.520  1.00  0.00     0.093 A 
ATOM      6  C   UNL     1     484.850  39.145 460.007  1.00  0.00     0.123 A 
ATOM      7  C   UNL     1     485.085  38.780 458.677  1.00  0.00     0.093 A 
ATOM      8  C   UNL     1     484.034  38.356 457.853  1.00  0.00     0.133 A 
ATOM      9  C   UNL     1     482.707  38.353 458.359  1.00  0.00     0.102 A 
ATOM     10  C   UNL     1     481.512  37.992 457.558  1.00  0.00     0.174 C 
ATOM     11  O   UNL     1     481.514  38.050 456.300  1.00  0.00    -0.294 OA
ENDROOT
BRANCH   2  12
ATOM     12  C   UNL     1     478.847  38.147 460.279  1.00  0.00    -0.007 A 
ATOM     13  C   UNL     1     478.848  36.877 460.882  1.00  0.00     0.011 A 
ATOM     14  C   UNL     1     477.770  39.019 460.519  1.00  0.00     0.011 A 
ATOM     15  C   UNL     1     477.778  36.479 461.690  1.00  0.00     0.046 A 
ATOM     16  C   UNL     1     476.702  38.616 461.326  1.00  0.00     0.046 A 
ATOM     17  C   UNL     1     476.701  37.346 461.912  1.00  0.00     0.115 A 
BRANCH  17  18
ATOM     18  O   UNL     1     475.630  36.959 462.715  1.00  0.00    -0.508 OA
ATOM     19  H   UNL     1     474.790  37.522 462.783  1.00  0.00     0.293 HD
ENDBRANCH  17  18
ENDBRANCH   2  12
BRANCH   8  20
ATOM     20  O   UNL     1     484.361  37.919 456.568  1.00  0.00    -0.507 OA
ATOM     21  H   UNL     1     485.065  37.223 456.370  1.00  0.00     0.293 HD
ENDBRANCH   8  20
BRANCH   6  22
ATOM     22  O   UNL     1     485.900  39.548 460.828  1.00  0.00    -0.508 OA
ATOM     23  H   UNL     1     486.760  39.015 460.890  1.00  0.00     0.293 HD
ENDBRANCH   6  22
TORSDOF 4
ENDMDL
MODEL 4
REMARK VINA RESULT:    -5.964      2.053      6.952
REMARK INTER + INTRA:          -7.121
REMARK INTER:                  -6.827
REMARK INTRA:                  -0.294
REMARK UNBOUND:                -0.285
REMARK SMILES O=C1C[C@@H](c2ccc(O)cc2)Oc2cc(O)cc(O)c21
REMARK SMILES IDX 3 1 4 2 12 3 13 4 14 5 15 6 17 7 18 8 20 9 2 10 1 11 5 12
REMARK SMILES IDX 6 13 11 14 7 15 10 16 8 17 9 18 19 20 16 22
REMARK H PARENT 9 19 19 21 16 23
REMARK Flexibility Score: inf
ROOT
ATOM      1  C   UNL     1     479.501  38.676 458.251  1.00  0.00     0.131 C 
ATOM      2  C   UNL     1     479.996  38.399 459.677  1.00  0.00     0.211 C 
ATOM      3  O   UNL     1     481.395  38.100 459.675  1.00  0.00    -0.484 OA
ATOM      4  C   UNL     1     482.310  38.770 458.851  1.00  0.00     0.138 A 
ATOM      5  C   UNL     1     483.677  38.624 459.099  1.00  0.00     0.093 A 
ATOM      6  C   UNL     1     484.612  39.290 458.308  1.00  0.00     0.123 A 
ATOM      7  C   UNL     1     484.180  40.085 457.241  1.00  0.00     0.093 A 
ATOM      8  C   UNL     1     482.816  40.214 456.949  1.00  0.00     0.133 A 
ATOM      9  C   UNL     1     481.859  39.576 457.784  1.00  0.00     0.102 A 
ATOM     10  C   UNL     1     480.391  39.700 457.612  1.00  0.00     0.174 C 
ATOM     11  O   UNL     1     479.875  40.668 456.994  1.00  0.00    -0.294 OA
ENDROOT
BRANCH   2  12
ATOM     12  C   UNL     1     479.225  37.260 460.299  1.00  0.00    -0.007 A 
ATOM     13  C   UNL     1     479.420  35.944 459.845  1.00  0.00     0.011 A 
ATOM     14  C   UNL     1     478.349  37.492 461.374  1.00  0.00     0.011 A 
ATOM     15  C   UNL     1     478.730  34.883 460.441  1.00  0.00     0.046 A 
ATOM     16  C   UNL     1     477.661  36.429 461.966  1.00  0.00     0.046 A 
ATOM     17  C   UNL     1     477.848  35.123 461.502  1.00  0.00     0.115 A 
BRANCH  17  18
ATOM     18  O   UNL     1     477.155  34.074 462.103  1.00  0.00    -0.508 OA
ATOM     19  H   UNL     1     477.601  33.183 462.286  1.00  0.00     0.293 HD
ENDBRANCH  17  18
ENDBRANCH   2  12
BRANCH   8  20
ATOM     20  O   UNL     1     482.468  40.948 455.814  1.00  0.00    -0.507 OA
ATOM     21  H   UNL     1     482.721  40.687 454.873  1.00  0.00     0.293 HD
ENDBRANCH   8  20
BRANCH   6  22
ATOM     22  O   UNL     1     485.970  39.150 458.583  1.00  0.00    -0.508 OA
ATOM     23  H   UNL     1     486.339  39.287 459.517  1.00  0.00     0.293 HD
ENDBRANCH   6  22
TORSDOF 4
ENDMDL
MODEL 5
REMARK VINA RESULT:    -5.619      2.652      7.377
REMARK INTER + INTRA:          -6.726
REMARK INTER:                  -6.435
REMARK INTRA:                  -0.290
REMARK UNBOUND:                -0.285
REMARK SMILES O=C1C[C@@H](c2ccc(O)cc2)Oc2cc(O)cc(O)c21
REMARK SMILES IDX 3 1 4 2 12 3 13 4 14 5 15 6 17 7 18 8 20 9 2 10 1 11 5 12
REMARK SMILES IDX 6 13 11 14 7 15 10 16 8 17 9 18 19 20 16 22
REMARK H PARENT 9 19 19 21 16 23
REMARK Flexibility Score: inf
ROOT
ATOM      1  C   UNL     1     481.430  38.153 459.251  1.00  0.00     0.131 C 
ATOM      2  C   UNL     1     480.808  39.055 460.326  1.00  0.00     0.211 C 
ATOM      3  O   UNL     1     481.731  39.269 461.399  1.00  0.00    -0.484 OA
ATOM      4  C   UNL     1     483.104  39.460 461.189  1.00  0.00     0.138 A 
ATOM      5  C   UNL     1     483.890  39.935 462.241  1.00  0.00     0.093 A 
ATOM      6  C   UNL     1     485.255  40.150 462.059  1.00  0.00     0.123 A 
ATOM      7  C   UNL     1     485.847  39.861 460.825  1.00  0.00     0.093 A 
ATOM      8  C   UNL     1     485.085  39.346 459.768  1.00  0.00     0.133 A 
ATOM      9  C   UNL     1     483.685  39.171 459.936  1.00  0.00     0.102 A 
ATOM     10  C   UNL     1     482.772  38.702 458.865  1.00  0.00     0.174 C 
ATOM     11  O   UNL     1     483.071  38.802 457.646  1.00  0.00    -0.294 OA
ENDROOT
BRANCH   2  12
ATOM     12  C   UNL     1     479.530  38.453 460.856  1.00  0.00    -0.007 A 
ATOM     13  C   UNL     1     479.201  37.119 460.559  1.00  0.00     0.011 A 
ATOM     14  C   UNL     1     478.684  39.196 461.698  1.00  0.00     0.011 A 
ATOM     15  C   UNL     1     478.033  36.549 461.075  1.00  0.00     0.046 A 
ATOM     16  C   UNL     1     477.518  38.622 462.212  1.00  0.00     0.046 A 
ATOM     17  C   UNL     1     477.187  37.299 461.901  1.00  0.00     0.115 A 
BRANCH  17  18
ATOM     18  O   UNL     1     476.021  36.741 462.420  1.00  0.00    -0.508 OA
ATOM     19  H   UNL     1     475.118  37.177 462.279  1.00  0.00     0.293 HD
ENDBRANCH  17  18
ENDBRANCH   2  12
BRANCH   8  20
ATOM     20  O   UNL     1     485.763  38.994 458.599  1.00  0.00    -0.507 OA
ATOM     21  H   UNL     1     486.551  38.364 458.571  1.00  0.00     0.293 HD
ENDBRANCH   8  20
BRANCH   6  22
ATOM     22  O   UNL     1     486.020  40.645 463.114  1.00  0.00    -0.508 OA
ATOM     23  H   UNL     1     486.500  41.534 463.049  1.00  0.00     0.293 HD
ENDBRANCH   6  22
TORSDOF 4
ENDMDL
MODEL 6
REMARK VINA RESULT:    -5.272      1.691      7.103
REMARK INTER + INTRA:          -6.328
REMARK INTER:                  -6.037
REMARK INTRA:                  -0.291
REMARK UNBOUND:                -0.285
REMARK SMILES O=C1C[C@@H](c2ccc(O)cc2)Oc2cc(O)cc(O)c21
REMARK SMILES IDX 3 1 4 2 12 3 13 4 14 5 15 6 17 7 18 8 20 9 2 10 1 11 5 12
REMARK SMILES IDX 6 13 11 14 7 15 10 16 8 17 9 18 19 20 16 22
REMARK H PARENT 9 19 19 21 16 23
REMARK Flexibility Score: inf
ROOT
ATOM      1  C   UNL     1     481.046  38.566 460.101  1.00  0.00     0.131 C 
ATOM      2  C   UNL     1     480.039  37.513 459.618  1.00  0.00     0.211 C 
ATOM      3  O   UNL     1     479.752  37.692 458.228  1.00  0.00    -0.484 OA
ATOM      4  C   UNL     1     480.734  38.044 457.291  1.00  0.00     0.138 A 
ATOM      5  C   UNL     1     480.443  37.929 455.930  1.00  0.00     0.093 A 
ATOM      6  C   UNL     1     481.404  38.256 454.974  1.00  0.00     0.123 A 
ATOM      7  C   UNL     1     482.656  38.730 455.381  1.00  0.00     0.093 A 
ATOM      8  C   UNL     1     482.956  38.891 456.739  1.00  0.00     0.133 A 
ATOM      9  C   UNL     1     481.996  38.513 457.716  1.00  0.00     0.102 A 
ATOM     10  C   UNL     1     482.230  38.573 459.180  1.00  0.00     0.174 C 
ATOM     11  O   UNL     1     483.391  38.575 459.666  1.00  0.00    -0.294 OA
ENDROOT
BRANCH   2  12
ATOM     12  C   UNL     1     478.765  37.583 460.423  1.00  0.00    -0.007 A 
ATOM     13  C   UNL     1     478.376  36.498 461.228  1.00  0.00     0.011 A 
ATOM     14  C   UNL     1     477.982  38.752 460.422  1.00  0.00     0.011 A 
ATOM     15  C   UNL     1     477.212  36.574 461.999  1.00  0.00     0.046 A 
ATOM     16  C   UNL     1     476.819  38.822 461.194  1.00  0.00     0.046 A 
ATOM     17  C   UNL     1     476.429  37.735 461.982  1.00  0.00     0.115 A 
BRANCH  17  18
ATOM     18  O   UNL     1     475.267  37.821 462.747  1.00  0.00    -0.508 OA
ATOM     19  H   UNL     1     474.896  37.016 463.236  1.00  0.00     0.293 HD
ENDBRANCH  17  18
ENDBRANCH   2  12
BRANCH   8  20
ATOM     20  O   UNL     1     484.190  39.457 457.063  1.00  0.00    -0.507 OA
ATOM     21  H   UNL     1     484.395  40.443 456.996  1.00  0.00     0.293 HD
ENDBRANCH   8  20
BRANCH   6  22
ATOM     22  O   UNL     1     481.104  38.115 453.621  1.00  0.00    -0.508 OA
ATOM     23  H   UNL     1     480.262  37.644 453.311  1.00  0.00     0.293 HD
ENDBRANCH   6  22
TORSDOF 4
ENDMDL
MODEL 7
REMARK VINA RESULT:    -5.270      3.133      6.878
REMARK INTER + INTRA:          -6.326
REMARK INTER:                  -6.016
REMARK INTRA:                  -0.309
REMARK UNBOUND:                -0.285
REMARK SMILES O=C1C[C@@H](c2ccc(O)cc2)Oc2cc(O)cc(O)c21
REMARK SMILES IDX 3 1 4 2 12 3 13 4 14 5 15 6 17 7 18 8 20 9 2 10 1 11 5 12
REMARK SMILES IDX 6 13 11 14 7 15 10 16 8 17 9 18 19 20 16 22
REMARK H PARENT 9 19 19 21 16 23
REMARK Flexibility Score: inf
ROOT
ATOM      1  C   UNL     1     476.716  39.342 460.684  1.00  0.00     0.131 C 
ATOM      2  C   UNL     1     476.254  39.195 462.140  1.00  0.00     0.211 C 
ATOM      3  O   UNL     1     476.043  37.817 462.464  1.00  0.00    -0.484 OA
ATOM      4  C   UNL     1     476.884  36.794 462.005  1.00  0.00     0.138 A 
ATOM      5  C   UNL     1     476.783  35.525 462.580  1.00  0.00     0.093 A 
ATOM      6  C   UNL     1     477.616  34.491 462.156  1.00  0.00     0.123 A 
ATOM      7  C   UNL     1     478.538  34.718 461.128  1.00  0.00     0.093 A 
ATOM      8  C   UNL     1     478.629  35.971 460.509  1.00  0.00     0.133 A 
ATOM      9  C   UNL     1     477.815  37.039 460.973  1.00  0.00     0.102 A 
ATOM     10  C   UNL     1     477.877  38.423 460.441  1.00  0.00     0.174 C 
ATOM     11  O   UNL     1     478.895  38.859 459.843  1.00  0.00    -0.294 OA
ENDROOT
BRANCH   2  12
ATOM     12  C   UNL     1     474.991  39.983 462.383  1.00  0.00    -0.007 A 
ATOM     13  C   UNL     1     474.555  40.929 461.438  1.00  0.00     0.011 A 
ATOM     14  C   UNL     1     474.205  39.741 463.524  1.00  0.00     0.011 A 
ATOM     15  C   UNL     1     473.368  41.637 461.646  1.00  0.00     0.046 A 
ATOM     16  C   UNL     1     473.019  40.452 463.727  1.00  0.00     0.046 A 
ATOM     17  C   UNL     1     472.597  41.403 462.791  1.00  0.00     0.115 A 
BRANCH  17  18
ATOM     18  O   UNL     1     471.413  42.103 463.008  1.00  0.00    -0.508 OA
ATOM     19  H   UNL     1     471.366  42.874 463.664  1.00  0.00     0.293 HD
ENDBRANCH  17  18
ENDBRANCH   2  12
BRANCH   8  20
ATOM     20  O   UNL     1     479.506  36.093 459.430  1.00  0.00    -0.507 OA
ATOM     21  H   UNL     1     480.213  36.809 459.355  1.00  0.00     0.293 HD
ENDBRANCH   8  20
BRANCH   6  22
ATOM     22  O   UNL     1     477.516  33.238 462.755  1.00  0.00    -0.508 OA
ATOM     23  H   UNL     1     478.133  32.960 463.509  1.00  0.00     0.293 HD
ENDBRANCH   6  22
TORSDOF 4
ENDMDL
MODEL 8
REMARK VINA RESULT:    -4.892      6.176      8.498
REMARK INTER + INTRA:          -5.892
REMARK INTER:                  -5.593
REMARK INTRA:                  -0.298
REMARK UNBOUND:                -0.285
REMARK SMILES O=C1C[C@@H](c2ccc(O)cc2)Oc2cc(O)cc(O)c21
REMARK SMILES IDX 3 1 4 2 12 3 13 4 14 5 15 6 17 7 18 8 20 9 2 10 1 11 5 12
REMARK SMILES IDX 6 13 11 14 7 15 10 16 8 17 9 18 19 20 16 22
REMARK H PARENT 9 19 19 21 16 23
REMARK Flexibility Score: inf
ROOT
ATOM      1  C   UNL     1     483.971  39.646 461.977  1.00  0.00     0.131 C 
ATOM      2  C   UNL     1     485.187  39.377 461.080  1.00  0.00     0.211 C 
ATOM      3  O   UNL     1     486.168  40.405 461.242  1.00  0.00    -0.484 OA
ATOM      4  C   UNL     1     486.467  40.977 462.487  1.00  0.00     0.138 A 
ATOM      5  C   UNL     1     487.614  41.763 462.612  1.00  0.00     0.093 A 
ATOM      6  C   UNL     1     487.947  42.333 463.841  1.00  0.00     0.123 A 
ATOM      7  C   UNL     1     487.112  42.140 464.946  1.00  0.00     0.093 A 
ATOM      8  C   UNL     1     485.935  41.388 464.833  1.00  0.00     0.133 A 
ATOM      9  C   UNL     1     485.619  40.767 463.595  1.00  0.00     0.102 A 
ATOM     10  C   UNL     1     484.440  39.893 463.381  1.00  0.00     0.174 C 
ATOM     11  O   UNL     1     483.861  39.313 464.337  1.00  0.00    -0.294 OA
ENDROOT
BRANCH   2  12
ATOM     12  C   UNL     1     484.772  39.281 459.633  1.00  0.00    -0.007 A 
ATOM     13  C   UNL     1     484.627  38.024 459.021  1.00  0.00     0.011 A 
ATOM     14  C   UNL     1     484.471  40.441 458.897  1.00  0.00     0.011 A 
ATOM     15  C   UNL     1     484.212  37.931 457.688  1.00  0.00     0.046 A 
ATOM     16  C   UNL     1     484.057  40.344 457.565  1.00  0.00     0.046 A 
ATOM     17  C   UNL     1     483.929  39.091 456.956  1.00  0.00     0.115 A 
BRANCH  17  18
ATOM     18  O   UNL     1     483.515  39.011 455.628  1.00  0.00    -0.508 OA
ATOM     19  H   UNL     1     482.799  38.357 455.336  1.00  0.00     0.293 HD
ENDBRANCH  17  18
ENDBRANCH   2  12
BRANCH   8  20
ATOM     20  O   UNL     1     485.107  41.319 465.955  1.00  0.00    -0.507 OA
ATOM     21  H   UNL     1     484.238  40.806 465.985  1.00  0.00     0.293 HD
ENDBRANCH   8  20
BRANCH   6  22
ATOM     22  O   UNL     1     489.106  43.097 463.952  1.00  0.00    -0.508 OA
ATOM     23  H   UNL     1     489.502  43.331 464.855  1.00  0.00     0.293 HD
ENDBRANCH   6  22
TORSDOF 4
ENDMDL
MODEL 9
REMARK VINA RESULT:    -4.769      5.088      7.901
REMARK INTER + INTRA:          -5.751
REMARK INTER:                  -5.458
REMARK INTRA:                  -0.293
REMARK UNBOUND:                -0.285
REMARK SMILES O=C1C[C@@H](c2ccc(O)cc2)Oc2cc(O)cc(O)c21
REMARK SMILES IDX 3 1 4 2 12 3 13 4 14 5 15 6 17 7 18 8 20 9 2 10 1 11 5 12
REMARK SMILES IDX 6 13 11 14 7 15 10 16 8 17 9 18 19 20 16 22
REMARK H PARENT 9 19 19 21 16 23
REMARK Flexibility Score: inf
ROOT
ATOM      1  C   UNL     1     483.703  40.604 462.399  1.00  0.00     0.131 C 
ATOM      2  C   UNL     1     484.886  41.264 461.677  1.00  0.00     0.211 C 
ATOM      3  O   UNL     1     485.343  40.437 460.602  1.00  0.00    -0.484 OA
ATOM      4  C   UNL     1     484.467  39.723 459.773  1.00  0.00     0.138 A 
ATOM      5  C   UNL     1     484.958  39.169 458.588  1.00  0.00     0.093 A 
ATOM      6  C   UNL     1     484.110  38.466 457.734  1.00  0.00     0.123 A 
ATOM      7  C   UNL     1     482.766  38.289 458.080  1.00  0.00     0.093 A 
ATOM      8  C   UNL     1     482.261  38.802 459.281  1.00  0.00     0.133 A 
ATOM      9  C   UNL     1     483.112  39.560 460.130  1.00  0.00     0.102 A 
ATOM     10  C   UNL     1     482.668  40.208 461.388  1.00  0.00     0.174 C 
ATOM     11  O   UNL     1     481.458  40.482 461.603  1.00  0.00    -0.294 OA
ENDROOT
BRANCH   2  12
ATOM     12  C   UNL     1     486.017  41.533 462.639  1.00  0.00    -0.007 A 
ATOM     13  C   UNL     1     487.173  42.203 462.201  1.00  0.00     0.011 A 
ATOM     14  C   UNL     1     485.905  41.171 463.993  1.00  0.00     0.011 A 
ATOM     15  C   UNL     1     488.209  42.482 463.098  1.00  0.00     0.046 A 
ATOM     16  C   UNL     1     486.944  41.451 464.886  1.00  0.00     0.046 A 
ATOM     17  C   UNL     1     488.098  42.105 464.442  1.00  0.00     0.115 A 
BRANCH  17  18
ATOM     18  O   UNL     1     489.124  42.378 465.345  1.00  0.00    -0.508 OA
ATOM     19  H   UNL     1     489.141  43.236 465.882  1.00  0.00     0.293 HD
ENDBRANCH  17  18
ENDBRANCH   2  12
BRANCH   8  20
ATOM     20  O   UNL     1     480.934  38.505 459.600  1.00  0.00    -0.507 OA
ATOM     21  H   UNL     1     480.333  39.111 460.138  1.00  0.00     0.293 HD
ENDBRANCH   8  20
BRANCH   6  22
ATOM     22  O   UNL     1     484.612  37.938 456.547  1.00  0.00    -0.508 OA
ATOM     23  H   UNL     1     485.088  37.044 456.523  1.00  0.00     0.293 HD
ENDBRANCH   6  22
TORSDOF 4
ENDMDL
