MODEL 1
REMARK VINA RESULT:    -4.261      0.000      0.000
REMARK INTER + INTRA:         -14.344
REMARK INTER:                  -9.741
REMARK INTRA:                  -4.603
REMARK UNBOUND:                -4.603
REMARK SMILES CCCCCCCCCCCCCCCCCCCCCCCC(=O)[O-]
REMARK SMILES IDX 13 1 14 2 15 3 16 4 17 5 18 6 19 7 20 8 21 9 22 10 23 11
REMARK SMILES IDX 24 12 25 13 26 14 12 15 11 16 10 17 9 18 8 19 7 20 6 21 5 22
REMARK SMILES IDX 4 23 3 24 2 25 1 26
REMARK H PARENT
REMARK Flexibility Score: inf
ROOT
ATOM      1  C   UNL     1      -2.091 -45.354  17.665  1.00  0.00     0.000 C 
ENDROOT
BRANCH   1   2
ATOM      2  C   UNL     1      -1.858 -45.092  16.170  1.00  0.00     0.000 C 
BRANCH   2   3
ATOM      3  C   UNL     1      -3.135 -44.563  15.499  1.00  0.00     0.000 C 
BRANCH   3   4
ATOM      4  C   UNL     1      -4.374 -45.416  15.821  1.00  0.00     0.000 C 
BRANCH   4   5
ATOM      5  C   UNL     1      -5.702 -44.639  15.890  1.00  0.00     0.000 C 
BRANCH   5   6
ATOM      6  C   UNL     1      -6.931 -45.521  16.202  1.00  0.00     0.000 C 
BRANCH   6   7
ATOM      7  C   UNL     1      -8.262 -44.804  15.912  1.00  0.00     0.000 C 
BRANCH   7   8
ATOM      8  C   UNL     1      -8.388 -44.334  14.452  1.00  0.00     0.000 C 
BRANCH   8   9
ATOM      9  C   UNL     1      -8.485 -45.461  13.408  1.00  0.00     0.000 C 
BRANCH   9  10
ATOM     10  C   UNL     1      -7.224 -45.581  12.536  1.00  0.00     0.006 C 
BRANCH  10  11
ATOM     11  C   UNL     1      -6.686 -44.207  12.112  1.00  0.00     0.053 C 
BRANCH  11  12
ATOM     12  C   UNL     1      -5.208 -44.094  12.333  1.00  0.00     0.041 C 
ATOM     13  O   UNL     1      -4.468 -45.100  12.175  1.00  0.00    -0.550 OA
ATOM     14  O   UNL     1      -4.651 -42.889  12.740  1.00  0.00    -0.550 OA
ENDBRANCH  11  12
ENDBRANCH  10  11
ENDBRANCH   9  10
ENDBRANCH   8   9
ENDBRANCH   7   8
ENDBRANCH   6   7
ENDBRANCH   5   6
ENDBRANCH   4   5
ENDBRANCH   3   4
ENDBRANCH   2   3
ENDBRANCH   1   2
BRANCH   1  15
ATOM     15  C   UNL     1      -1.615 -46.749  18.104  1.00  0.00     0.000 C 
BRANCH  15  16
ATOM     16  C   UNL     1      -1.624 -47.769  16.956  1.00  0.00     0.000 C 
BRANCH  16  17
ATOM     17  C   UNL     1      -2.443 -49.011  17.325  1.00  0.00     0.000 C 
BRANCH  17  18
ATOM     18  C   UNL     1      -3.857 -48.934  16.734  1.00  0.00    -0.000 C 
BRANCH  18  19
ATOM     19  C   UNL     1      -4.941 -48.702  17.802  1.00  0.00    -0.000 C 
BRANCH  19  20
ATOM     20  C   UNL     1      -4.427 -48.852  19.247  1.00  0.00    -0.000 C 
BRANCH  20  21
ATOM     21  C   UNL     1      -4.607 -47.566  20.068  1.00  0.00    -0.000 C 
BRANCH  21  22
ATOM     22  C   UNL     1      -5.245 -46.460  19.220  1.00  0.00    -0.000 C 
BRANCH  22  23
ATOM     23  C   UNL     1      -5.521 -45.206  20.063  1.00  0.00    -0.000 C 
BRANCH  23  24
ATOM     24  C   UNL     1      -4.935 -43.929  19.438  1.00  0.00    -0.000 C 
BRANCH  24  25
ATOM     25  C   UNL     1      -5.990 -42.832  19.232  1.00  0.00    -0.003 C 
ATOM     26  C   UNL     1      -7.402 -43.412  19.265  1.00  0.00     0.004 C 
ENDBRANCH  24  25
ENDBRANCH  23  24
ENDBRANCH  22  23
ENDBRANCH  21  22
ENDBRANCH  20  21
ENDBRANCH  19  20
ENDBRANCH  18  19
ENDBRANCH  17  18
ENDBRANCH  16  17
ENDBRANCH  15  16
ENDBRANCH   1  15
TORSDOF 22
ENDMDL
MODEL 2
REMARK VINA RESULT:    -4.181      2.542      3.880
REMARK INTER + INTRA:         -14.162
REMARK INTER:                 -10.374
REMARK INTRA:                  -3.788
REMARK UNBOUND:                -4.603
REMARK SMILES CCCCCCCCCCCCCCCCCCCCCCCC(=O)[O-]
REMARK SMILES IDX 13 1 14 2 15 3 16 4 17 5 18 6 19 7 20 8 21 9 22 10 23 11
REMARK SMILES IDX 24 12 25 13 26 14 12 15 11 16 10 17 9 18 8 19 7 20 6 21 5 22
REMARK SMILES IDX 4 23 3 24 2 25 1 26
REMARK H PARENT
REMARK Flexibility Score: inf
ROOT
ATOM      1  C   UNL     1      -2.950 -44.528  15.349  1.00  0.00     0.000 C 
ENDROOT
BRANCH   1   2
ATOM      2  C   UNL     1      -3.810 -45.366  14.391  1.00  0.00     0.000 C 
BRANCH   2   3
ATOM      3  C   UNL     1      -3.429 -46.852  14.468  1.00  0.00     0.000 C 
BRANCH   3   4
ATOM      4  C   UNL     1      -3.913 -47.654  13.248  1.00  0.00     0.000 C 
BRANCH   4   5
ATOM      5  C   UNL     1      -3.158 -48.972  12.992  1.00  0.00     0.000 C 
BRANCH   5   6
ATOM      6  C   UNL     1      -3.541 -49.670  11.668  1.00  0.00     0.000 C 
BRANCH   6   7
ATOM      7  C   UNL     1      -4.886 -49.176  11.107  1.00  0.00     0.000 C 
BRANCH   7   8
ATOM      8  C   UNL     1      -6.057 -50.125  11.424  1.00  0.00     0.000 C 
BRANCH   8   9
ATOM      9  C   UNL     1      -7.423 -49.687  10.867  1.00  0.00     0.000 C 
BRANCH   9  10
ATOM     10  C   UNL     1      -7.429 -48.232  10.370  1.00  0.00     0.006 C 
BRANCH  10  11
ATOM     11  C   UNL     1      -8.140 -47.292  11.354  1.00  0.00     0.053 C 
BRANCH  11  12
ATOM     12  C   UNL     1      -7.260 -46.153  11.771  1.00  0.00     0.041 C 
ATOM     13  O   UNL     1      -7.555 -45.465  12.784  1.00  0.00    -0.550 OA
ATOM     14  O   UNL     1      -6.132 -45.831  11.029  1.00  0.00    -0.550 OA
ENDBRANCH  11  12
ENDBRANCH  10  11
ENDBRANCH   9  10
ENDBRANCH   8   9
ENDBRANCH   7   8
ENDBRANCH   6   7
ENDBRANCH   5   6
ENDBRANCH   4   5
ENDBRANCH   3   4
ENDBRANCH   2   3
ENDBRANCH   1   2
BRANCH   1  15
ATOM     15  C   UNL     1      -2.043 -45.391  16.241  1.00  0.00     0.000 C 
BRANCH  15  16
ATOM     16  C   UNL     1      -2.211 -45.082  17.736  1.00  0.00     0.000 C 
BRANCH  16  17
ATOM     17  C   UNL     1      -1.924 -46.320  18.593  1.00  0.00     0.000 C 
BRANCH  17  18
ATOM     18  C   UNL     1      -1.488 -47.505  17.720  1.00  0.00    -0.000 C 
BRANCH  18  19
ATOM     19  C   UNL     1      -2.282 -48.790  18.013  1.00  0.00    -0.000 C 
BRANCH  19  20
ATOM     20  C   UNL     1      -3.044 -49.338  16.790  1.00  0.00    -0.000 C 
BRANCH  20  21
ATOM     21  C   UNL     1      -4.566 -49.335  17.000  1.00  0.00    -0.000 C 
BRANCH  21  22
ATOM     22  C   UNL     1      -4.966 -48.340  18.096  1.00  0.00    -0.000 C 
BRANCH  22  23
ATOM     23  C   UNL     1      -5.517 -47.041  17.489  1.00  0.00    -0.000 C 
BRANCH  23  24
ATOM     24  C   UNL     1      -6.021 -46.056  18.556  1.00  0.00    -0.000 C 
BRANCH  24  25
ATOM     25  C   UNL     1      -5.798 -44.588  18.161  1.00  0.00    -0.003 C 
ATOM     26  C   UNL     1      -6.432 -44.280  16.807  1.00  0.00     0.004 C 
ENDBRANCH  24  25
ENDBRANCH  23  24
ENDBRANCH  22  23
ENDBRANCH  21  22
ENDBRANCH  20  21
ENDBRANCH  19  20
ENDBRANCH  18  19
ENDBRANCH  17  18
ENDBRANCH  16  17
ENDBRANCH  15  16
ENDBRANCH   1  15
TORSDOF 22
ENDMDL
MODEL 3
REMARK VINA RESULT:    -4.179      3.589      5.193
REMARK INTER + INTRA:         -14.157
REMARK INTER:                 -10.655
REMARK INTRA:                  -3.502
REMARK UNBOUND:                -4.603
REMARK SMILES CCCCCCCCCCCCCCCCCCCCCCCC(=O)[O-]
REMARK SMILES IDX 13 1 14 2 15 3 16 4 17 5 18 6 19 7 20 8 21 9 22 10 23 11
REMARK SMILES IDX 24 12 25 13 26 14 12 15 11 16 10 17 9 18 8 19 7 20 6 21 5 22
REMARK SMILES IDX 4 23 3 24 2 25 1 26
REMARK H PARENT
REMARK Flexibility Score: inf
ROOT
ATOM      1  C   UNL     1      -2.915 -44.827  15.405  1.00  0.00     0.000 C 
ENDROOT
BRANCH   1   2
ATOM      2  C   UNL     1      -3.978 -45.785  14.845  1.00  0.00     0.000 C 
BRANCH   2   3
ATOM      3  C   UNL     1      -3.396 -47.192  14.641  1.00  0.00     0.000 C 
BRANCH   3   4
ATOM      4  C   UNL     1      -3.821 -47.824  13.305  1.00  0.00     0.000 C 
BRANCH   4   5
ATOM      5  C   UNL     1      -2.797 -48.794  12.685  1.00  0.00     0.000 C 
BRANCH   5   6
ATOM      6  C   UNL     1      -1.771 -49.355  13.694  1.00  0.00     0.000 C 
BRANCH   6   7
ATOM      7  C   UNL     1      -0.469 -49.819  13.017  1.00  0.00     0.000 C 
BRANCH   7   8
ATOM      8  C   UNL     1      -0.608 -49.988  11.493  1.00  0.00     0.000 C 
BRANCH   8   9
ATOM      9  C   UNL     1       0.316 -49.092  10.648  1.00  0.00     0.000 C 
BRANCH   9  10
ATOM     10  C   UNL     1      -0.454 -48.052   9.816  1.00  0.00     0.006 C 
BRANCH  10  11
ATOM     11  C   UNL     1      -1.360 -48.714   8.767  1.00  0.00     0.053 C 
BRANCH  11  12
ATOM     12  C   UNL     1      -2.799 -48.343   8.960  1.00  0.00     0.041 C 
ATOM     13  O   UNL     1      -3.101 -47.239   9.486  1.00  0.00    -0.550 OA
ATOM     14  O   UNL     1      -3.805 -49.224   8.588  1.00  0.00    -0.550 OA
ENDBRANCH  11  12
ENDBRANCH  10  11
ENDBRANCH   9  10
ENDBRANCH   8   9
ENDBRANCH   7   8
ENDBRANCH   6   7
ENDBRANCH   5   6
ENDBRANCH   4   5
ENDBRANCH   3   4
ENDBRANCH   2   3
ENDBRANCH   1   2
BRANCH   1  15
ATOM     15  C   UNL     1      -1.860 -45.547  16.261  1.00  0.00     0.000 C 
BRANCH  15  16
ATOM     16  C   UNL     1      -2.045 -45.301  17.766  1.00  0.00     0.000 C 
BRANCH  16  17
ATOM     17  C   UNL     1      -1.861 -46.595  18.566  1.00  0.00     0.000 C 
BRANCH  17  18
ATOM     18  C   UNL     1      -1.488 -47.764  17.644  1.00  0.00    -0.000 C 
BRANCH  18  19
ATOM     19  C   UNL     1      -2.402 -48.989  17.829  1.00  0.00    -0.000 C 
BRANCH  19  20
ATOM     20  C   UNL     1      -3.705 -48.677  18.590  1.00  0.00    -0.000 C 
BRANCH  20  21
ATOM     21  C   UNL     1      -4.954 -48.866  17.714  1.00  0.00    -0.000 C 
BRANCH  21  22
ATOM     22  C   UNL     1      -5.698 -47.538  17.528  1.00  0.00    -0.000 C 
BRANCH  22  23
ATOM     23  C   UNL     1      -5.338 -46.543  18.641  1.00  0.00    -0.000 C 
BRANCH  23  24
ATOM     24  C   UNL     1      -5.903 -45.136  18.384  1.00  0.00    -0.000 C 
BRANCH  24  25
ATOM     25  C   UNL     1      -6.398 -44.452  19.667  1.00  0.00    -0.003 C 
ATOM     26  C   UNL     1      -6.099 -45.306  20.897  1.00  0.00     0.004 C 
ENDBRANCH  24  25
ENDBRANCH  23  24
ENDBRANCH  22  23
ENDBRANCH  21  22
ENDBRANCH  20  21
ENDBRANCH  19  20
ENDBRANCH  18  19
ENDBRANCH  17  18
ENDBRANCH  16  17
ENDBRANCH  15  16
ENDBRANCH   1  15
TORSDOF 22
ENDMDL
MODEL 4
REMARK VINA RESULT:    -4.170      3.136      7.034
REMARK INTER + INTRA:         -14.135
REMARK INTER:                 -10.584
REMARK INTRA:                  -3.551
REMARK UNBOUND:                -4.603
REMARK SMILES CCCCCCCCCCCCCCCCCCCCCCCC(=O)[O-]
REMARK SMILES IDX 13 1 14 2 15 3 16 4 17 5 18 6 19 7 20 8 21 9 22 10 23 11
REMARK SMILES IDX 24 12 25 13 26 14 12 15 11 16 10 17 9 18 8 19 7 20 6 21 5 22
REMARK SMILES IDX 4 23 3 24 2 25 1 26
REMARK H PARENT
REMARK Flexibility Score: inf
ROOT
ATOM      1  C   UNL     1      -2.722 -44.422  15.500  1.00  0.00     0.000 C 
ENDROOT
BRANCH   1   2
ATOM      2  C   UNL     1      -1.724 -45.340  16.222  1.00  0.00     0.000 C 
BRANCH   2   3
ATOM      3  C   UNL     1      -2.023 -45.402  17.727  1.00  0.00     0.000 C 
BRANCH   3   4
ATOM      4  C   UNL     1      -1.638 -46.751  18.356  1.00  0.00     0.000 C 
BRANCH   4   5
ATOM      5  C   UNL     1      -1.386 -47.892  17.353  1.00  0.00     0.000 C 
BRANCH   5   6
ATOM      6  C   UNL     1      -2.445 -49.015  17.396  1.00  0.00     0.000 C 
BRANCH   6   7
ATOM      7  C   UNL     1      -3.771 -48.603  16.733  1.00  0.00     0.000 C 
BRANCH   7   8
ATOM      8  C   UNL     1      -4.968 -48.646  17.701  1.00  0.00     0.000 C 
BRANCH   8   9
ATOM      9  C   UNL     1      -4.600 -48.713  19.195  1.00  0.00     0.000 C 
BRANCH   9  10
ATOM     10  C   UNL     1      -4.657 -47.342  19.889  1.00  0.00     0.006 C 
BRANCH  10  11
ATOM     11  C   UNL     1      -5.560 -46.355  19.136  1.00  0.00     0.053 C 
BRANCH  11  12
ATOM     12  C   UNL     1      -5.820 -45.115  19.936  1.00  0.00     0.041 C 
ATOM     13  O   UNL     1      -6.881 -45.007  20.607  1.00  0.00    -0.550 OA
ATOM     14  O   UNL     1      -4.908 -44.068  19.920  1.00  0.00    -0.550 OA
ENDBRANCH  11  12
ENDBRANCH  10  11
ENDBRANCH   9  10
ENDBRANCH   8   9
ENDBRANCH   7   8
ENDBRANCH   6   7
ENDBRANCH   5   6
ENDBRANCH   4   5
ENDBRANCH   3   4
ENDBRANCH   2   3
ENDBRANCH   1   2
BRANCH   1  15
ATOM     15  C   UNL     1      -4.058 -44.294  16.250  1.00  0.00     0.000 C 
BRANCH  15  16
ATOM     16  C   UNL     1      -5.138 -45.241  15.708  1.00  0.00     0.000 C 
BRANCH  16  17
ATOM     17  C   UNL     1      -5.920 -44.592  14.561  1.00  0.00     0.000 C 
BRANCH  17  18
ATOM     18  C   UNL     1      -6.305 -45.631  13.498  1.00  0.00    -0.000 C 
BRANCH  18  19
ATOM     19  C   UNL     1      -5.575 -45.420  12.160  1.00  0.00    -0.000 C 
BRANCH  19  20
ATOM     20  C   UNL     1      -4.219 -46.149  12.075  1.00  0.00    -0.000 C 
BRANCH  20  21
ATOM     21  C   UNL     1      -4.094 -47.275  13.113  1.00  0.00    -0.000 C 
BRANCH  21  22
ATOM     22  C   UNL     1      -3.842 -48.624  12.430  1.00  0.00    -0.000 C 
BRANCH  22  23
ATOM     23  C   UNL     1      -4.008 -48.512  10.908  1.00  0.00    -0.000 C 
BRANCH  23  24
ATOM     24  C   UNL     1      -4.983 -49.556  10.339  1.00  0.00    -0.000 C 
BRANCH  24  25
ATOM     25  C   UNL     1      -6.441 -49.075  10.351  1.00  0.00    -0.003 C 
ATOM     26  C   UNL     1      -7.362 -50.125  10.968  1.00  0.00     0.004 C 
ENDBRANCH  24  25
ENDBRANCH  23  24
ENDBRANCH  22  23
ENDBRANCH  21  22
ENDBRANCH  20  21
ENDBRANCH  19  20
ENDBRANCH  18  19
ENDBRANCH  17  18
ENDBRANCH  16  17
ENDBRANCH  15  16
ENDBRANCH   1  15
TORSDOF 22
ENDMDL
MODEL 5
REMARK VINA RESULT:    -4.165      4.035      5.342
REMARK INTER + INTRA:         -14.125
REMARK INTER:                 -10.298
REMARK INTRA:                  -3.827
REMARK UNBOUND:                -4.603
REMARK SMILES CCCCCCCCCCCCCCCCCCCCCCCC(=O)[O-]
REMARK SMILES IDX 13 1 14 2 15 3 16 4 17 5 18 6 19 7 20 8 21 9 22 10 23 11
REMARK SMILES IDX 24 12 25 13 26 14 12 15 11 16 10 17 9 18 8 19 7 20 6 21 5 22
REMARK SMILES IDX 4 23 3 24 2 25 1 26
REMARK H PARENT
REMARK Flexibility Score: inf
ROOT
ATOM      1  C   UNL     1      -2.469 -45.287  15.988  1.00  0.00     0.000 C 
ENDROOT
BRANCH   1   2
ATOM      2  C   UNL     1      -3.993 -45.247  15.795  1.00  0.00     0.000 C 
BRANCH   2   3
ATOM      3  C   UNL     1      -4.461 -46.389  14.881  1.00  0.00     0.000 C 
BRANCH   3   4
ATOM      4  C   UNL     1      -3.326 -46.966  14.019  1.00  0.00     0.000 C 
BRANCH   4   5
ATOM      5  C   UNL     1      -3.379 -48.491  13.804  1.00  0.00     0.000 C 
BRANCH   5   6
ATOM      6  C   UNL     1      -1.992 -49.155  13.662  1.00  0.00     0.000 C 
BRANCH   6   7
ATOM      7  C   UNL     1      -1.858 -49.974  12.366  1.00  0.00     0.000 C 
BRANCH   7   8
ATOM      8  C   UNL     1      -0.645 -49.558  11.513  1.00  0.00     0.000 C 
BRANCH   8   9
ATOM      9  C   UNL     1      -0.990 -48.887  10.171  1.00  0.00     0.000 C 
BRANCH   9  10
ATOM     10  C   UNL     1       0.203 -48.141   9.550  1.00  0.00     0.006 C 
BRANCH  10  11
ATOM     11  C   UNL     1       1.384 -48.034  10.526  1.00  0.00     0.053 C 
BRANCH  11  12
ATOM     12  C   UNL     1       2.345 -46.958  10.122  1.00  0.00     0.041 C 
ATOM     13  O   UNL     1       3.547 -47.013  10.495  1.00  0.00    -0.550 OA
ATOM     14  O   UNL     1       1.911 -45.881   9.361  1.00  0.00    -0.550 OA
ENDBRANCH  11  12
ENDBRANCH  10  11
ENDBRANCH   9  10
ENDBRANCH   8   9
ENDBRANCH   7   8
ENDBRANCH   6   7
ENDBRANCH   5   6
ENDBRANCH   4   5
ENDBRANCH   3   4
ENDBRANCH   2   3
ENDBRANCH   1   2
BRANCH   1  15
ATOM     15  C   UNL     1      -2.057 -45.202  17.467  1.00  0.00     0.000 C 
BRANCH  15  16
ATOM     16  C   UNL     1      -1.652 -46.563  18.051  1.00  0.00     0.000 C 
BRANCH  16  17
ATOM     17  C   UNL     1      -1.212 -47.531  16.947  1.00  0.00     0.000 C 
BRANCH  17  18
ATOM     18  C   UNL     1      -1.689 -48.959  17.245  1.00  0.00    -0.000 C 
BRANCH  18  19
ATOM     19  C   UNL     1      -2.899 -49.001  18.195  1.00  0.00    -0.000 C 
BRANCH  19  20
ATOM     20  C   UNL     1      -4.255 -48.863  17.475  1.00  0.00    -0.000 C 
BRANCH  20  21
ATOM     21  C   UNL     1      -5.199 -47.882  18.188  1.00  0.00    -0.000 C 
BRANCH  21  22
ATOM     22  C   UNL     1      -4.713 -47.593  19.613  1.00  0.00    -0.000 C 
BRANCH  22  23
ATOM     23  C   UNL     1      -4.859 -46.103  19.955  1.00  0.00    -0.000 C 
BRANCH  23  24
ATOM     24  C   UNL     1      -6.088 -45.459  19.291  1.00  0.00    -0.000 C 
BRANCH  24  25
ATOM     25  C   UNL     1      -5.771 -44.101  18.647  1.00  0.00    -0.003 C 
ATOM     26  C   UNL     1      -4.799 -43.297  19.507  1.00  0.00     0.004 C 
ENDBRANCH  24  25
ENDBRANCH  23  24
ENDBRANCH  22  23
ENDBRANCH  21  22
ENDBRANCH  20  21
ENDBRANCH  19  20
ENDBRANCH  18  19
ENDBRANCH  17  18
ENDBRANCH  16  17
ENDBRANCH  15  16
ENDBRANCH   1  15
TORSDOF 22
ENDMDL
MODEL 6
REMARK VINA RESULT:    -4.152      1.792      2.067
REMARK INTER + INTRA:         -14.094
REMARK INTER:                 -10.326
REMARK INTRA:                  -3.768
REMARK UNBOUND:                -4.603
REMARK SMILES CCCCCCCCCCCCCCCCCCCCCCCC(=O)[O-]
REMARK SMILES IDX 13 1 14 2 15 3 16 4 17 5 18 6 19 7 20 8 21 9 22 10 23 11
REMARK SMILES IDX 24 12 25 13 26 14 12 15 11 16 10 17 9 18 8 19 7 20 6 21 5 22
REMARK SMILES IDX 4 23 3 24 2 25 1 26
REMARK H PARENT
REMARK Flexibility Score: inf
ROOT
ATOM      1  C   UNL     1      -2.465 -45.264  17.410  1.00  0.00     0.000 C 
ENDROOT
BRANCH   1   2
ATOM      2  C   UNL     1      -2.057 -44.945  15.964  1.00  0.00     0.000 C 
BRANCH   2   3
ATOM      3  C   UNL     1      -3.289 -44.857  15.052  1.00  0.00     0.000 C 
BRANCH   3   4
ATOM      4  C   UNL     1      -4.516 -45.575  15.638  1.00  0.00     0.000 C 
BRANCH   4   5
ATOM      5  C   UNL     1      -5.731 -44.671  15.919  1.00  0.00     0.000 C 
BRANCH   5   6
ATOM      6  C   UNL     1      -7.058 -45.438  16.101  1.00  0.00     0.000 C 
BRANCH   6   7
ATOM      7  C   UNL     1      -8.250 -44.724  15.440  1.00  0.00     0.000 C 
BRANCH   7   8
ATOM      8  C   UNL     1      -8.674 -45.366  14.106  1.00  0.00     0.000 C 
BRANCH   8   9
ATOM      9  C   UNL     1      -7.861 -44.917  12.878  1.00  0.00     0.000 C 
BRANCH   9  10
ATOM     10  C   UNL     1      -7.223 -46.093  12.120  1.00  0.00     0.006 C 
BRANCH  10  11
ATOM     11  C   UNL     1      -7.718 -46.178  10.669  1.00  0.00     0.053 C 
BRANCH  11  12
ATOM     12  C   UNL     1      -7.879 -47.598  10.217  1.00  0.00     0.041 C 
ATOM     13  O   UNL     1      -7.841 -48.536  11.057  1.00  0.00    -0.550 OA
ATOM     14  O   UNL     1      -8.041 -47.890   8.870  1.00  0.00    -0.550 OA
ENDBRANCH  11  12
ENDBRANCH  10  11
ENDBRANCH   9  10
ENDBRANCH   8   9
ENDBRANCH   7   8
ENDBRANCH   6   7
ENDBRANCH   5   6
ENDBRANCH   4   5
ENDBRANCH   3   4
ENDBRANCH   2   3
ENDBRANCH   1   2
BRANCH   1  15
ATOM     15  C   UNL     1      -1.708 -46.471  17.988  1.00  0.00     0.000 C 
BRANCH  15  16
ATOM     16  C   UNL     1      -1.585 -47.630  16.988  1.00  0.00     0.000 C 
BRANCH  16  17
ATOM     17  C   UNL     1      -2.342 -48.868  17.479  1.00  0.00     0.000 C 
BRANCH  17  18
ATOM     18  C   UNL     1      -3.717 -48.976  16.805  1.00  0.00    -0.000 C 
BRANCH  18  19
ATOM     19  C   UNL     1      -4.883 -48.731  17.780  1.00  0.00    -0.000 C 
BRANCH  19  20
ATOM     20  C   UNL     1      -4.470 -48.793  19.264  1.00  0.00    -0.000 C 
BRANCH  20  21
ATOM     21  C   UNL     1      -4.584 -47.427  19.960  1.00  0.00    -0.000 C 
BRANCH  21  22
ATOM     22  C   UNL     1      -5.414 -46.452  19.118  1.00  0.00    -0.000 C 
BRANCH  22  23
ATOM     23  C   UNL     1      -5.877 -45.252  19.957  1.00  0.00    -0.000 C 
BRANCH  23  24
ATOM     24  C   UNL     1      -5.168 -43.945  19.564  1.00  0.00    -0.000 C 
BRANCH  24  25
ATOM     25  C   UNL     1      -6.141 -42.766  19.408  1.00  0.00    -0.003 C 
ATOM     26  C   UNL     1      -7.554 -43.256  19.099  1.00  0.00     0.004 C 
ENDBRANCH  24  25
ENDBRANCH  23  24
ENDBRANCH  22  23
ENDBRANCH  21  22
ENDBRANCH  20  21
ENDBRANCH  19  20
ENDBRANCH  18  19
ENDBRANCH  17  18
ENDBRANCH  16  17
ENDBRANCH  15  16
ENDBRANCH   1  15
TORSDOF 22
ENDMDL
MODEL 7
REMARK VINA RESULT:    -4.139      2.434      6.009
REMARK INTER + INTRA:         -14.064
REMARK INTER:                  -9.480
REMARK INTRA:                  -4.584
REMARK UNBOUND:                -4.603
REMARK SMILES CCCCCCCCCCCCCCCCCCCCCCCC(=O)[O-]
REMARK SMILES IDX 13 1 14 2 15 3 16 4 17 5 18 6 19 7 20 8 21 9 22 10 23 11
REMARK SMILES IDX 24 12 25 13 26 14 12 15 11 16 10 17 9 18 8 19 7 20 6 21 5 22
REMARK SMILES IDX 4 23 3 24 2 25 1 26
REMARK H PARENT
REMARK Flexibility Score: inf
ROOT
ATOM      1  C   UNL     1      -3.452 -44.841  16.659  1.00  0.00     0.000 C 
ENDROOT
BRANCH   1   2
ATOM      2  C   UNL     1      -1.985 -45.264  16.830  1.00  0.00     0.000 C 
BRANCH   2   3
ATOM      3  C   UNL     1      -1.856 -46.400  17.855  1.00  0.00     0.000 C 
BRANCH   3   4
ATOM      4  C   UNL     1      -1.427 -47.732  17.218  1.00  0.00     0.000 C 
BRANCH   4   5
ATOM      5  C   UNL     1      -2.260 -48.958  17.642  1.00  0.00     0.000 C 
BRANCH   5   6
ATOM      6  C   UNL     1      -3.604 -49.094  16.894  1.00  0.00     0.000 C 
BRANCH   6   7
ATOM      7  C   UNL     1      -4.814 -48.778  17.791  1.00  0.00     0.000 C 
BRANCH   7   8
ATOM      8  C   UNL     1      -4.468 -48.773  19.291  1.00  0.00     0.000 C 
BRANCH   8   9
ATOM      9  C   UNL     1      -4.606 -47.407  19.990  1.00  0.00     0.000 C 
BRANCH   9  10
ATOM     10  C   UNL     1      -5.426 -46.396  19.172  1.00  0.00     0.006 C 
BRANCH  10  11
ATOM     11  C   UNL     1      -5.793 -45.153  19.996  1.00  0.00     0.053 C 
BRANCH  11  12
ATOM     12  C   UNL     1      -6.768 -44.274  19.275  1.00  0.00     0.041 C 
ATOM     13  O   UNL     1      -6.681 -44.125  18.027  1.00  0.00    -0.550 OA
ATOM     14  O   UNL     1      -7.754 -43.596  19.979  1.00  0.00    -0.550 OA
ENDBRANCH  11  12
ENDBRANCH  10  11
ENDBRANCH   9  10
ENDBRANCH   8   9
ENDBRANCH   7   8
ENDBRANCH   6   7
ENDBRANCH   5   6
ENDBRANCH   4   5
ENDBRANCH   3   4
ENDBRANCH   2   3
ENDBRANCH   1   2
BRANCH   1  15
ATOM     15  C   UNL     1      -4.229 -45.767  15.709  1.00  0.00     0.000 C 
BRANCH  15  16
ATOM     16  C   UNL     1      -3.578 -45.879  14.323  1.00  0.00     0.000 C 
BRANCH  16  17
ATOM     17  C   UNL     1      -3.760 -47.283  13.737  1.00  0.00     0.000 C 
BRANCH  17  18
ATOM     18  C   UNL     1      -4.380 -47.219  12.334  1.00  0.00    -0.000 C 
BRANCH  18  19
ATOM     19  C   UNL     1      -5.025 -45.856  12.026  1.00  0.00    -0.000 C 
BRANCH  19  20
ATOM     20  C   UNL     1      -6.566 -45.882  12.053  1.00  0.00    -0.000 C 
BRANCH  20  21
ATOM     21  C   UNL     1      -7.147 -44.969  13.145  1.00  0.00    -0.000 C 
BRANCH  21  22
ATOM     22  C   UNL     1      -6.477 -43.591  13.119  1.00  0.00    -0.000 C 
BRANCH  22  23
ATOM     23  C   UNL     1      -6.291 -43.040  14.541  1.00  0.00    -0.000 C 
BRANCH  23  24
ATOM     24  C   UNL     1      -5.044 -42.150  14.673  1.00  0.00    -0.000 C 
BRANCH  24  25
ATOM     25  C   UNL     1      -4.111 -42.252  13.458  1.00  0.00    -0.003 C 
ATOM     26  C   UNL     1      -2.663 -42.468  13.892  1.00  0.00     0.004 C 
ENDBRANCH  24  25
ENDBRANCH  23  24
ENDBRANCH  22  23
ENDBRANCH  21  22
ENDBRANCH  20  21
ENDBRANCH  19  20
ENDBRANCH  18  19
ENDBRANCH  17  18
ENDBRANCH  16  17
ENDBRANCH  15  16
ENDBRANCH   1  15
TORSDOF 22
ENDMDL
MODEL 8
REMARK VINA RESULT:    -4.096      2.627      7.080
REMARK INTER + INTRA:         -13.966
REMARK INTER:                 -10.829
REMARK INTRA:                  -3.138
REMARK UNBOUND:                -4.603
REMARK SMILES CCCCCCCCCCCCCCCCCCCCCCCC(=O)[O-]
REMARK SMILES IDX 13 1 14 2 15 3 16 4 17 5 18 6 19 7 20 8 21 9 22 10 23 11
REMARK SMILES IDX 24 12 25 13 26 14 12 15 11 16 10 17 9 18 8 19 7 20 6 21 5 22
REMARK SMILES IDX 4 23 3 24 2 25 1 26
REMARK H PARENT
REMARK Flexibility Score: inf
ROOT
ATOM      1  C   UNL     1      -2.796 -44.767  15.307  1.00  0.00     0.000 C 
ENDROOT
BRANCH   1   2
ATOM      2  C   UNL     1      -1.668 -45.213  16.250  1.00  0.00     0.000 C 
BRANCH   2   3
ATOM      3  C   UNL     1      -2.197 -45.426  17.676  1.00  0.00     0.000 C 
BRANCH   3   4
ATOM      4  C   UNL     1      -1.624 -46.690  18.340  1.00  0.00     0.000 C 
BRANCH   4   5
ATOM      5  C   UNL     1      -1.448 -47.899  17.403  1.00  0.00     0.000 C 
BRANCH   5   6
ATOM      6  C   UNL     1      -2.503 -49.009  17.602  1.00  0.00     0.000 C 
BRANCH   6   7
ATOM      7  C   UNL     1      -3.804 -48.735  16.827  1.00  0.00     0.000 C 
BRANCH   7   8
ATOM      8  C   UNL     1      -4.959 -48.271  17.733  1.00  0.00     0.000 C 
BRANCH   8   9
ATOM      9  C   UNL     1      -4.626 -48.202  19.234  1.00  0.00     0.000 C 
BRANCH   9  10
ATOM     10  C   UNL     1      -4.984 -46.847  19.866  1.00  0.00     0.006 C 
BRANCH  10  11
ATOM     11  C   UNL     1      -5.813 -45.971  18.915  1.00  0.00     0.053 C 
BRANCH  11  12
ATOM     12  C   UNL     1      -5.955 -44.570  19.427  1.00  0.00     0.041 C 
ATOM     13  O   UNL     1      -4.972 -43.991  19.961  1.00  0.00    -0.550 OA
ATOM     14  O   UNL     1      -7.175 -43.914  19.343  1.00  0.00    -0.550 OA
ENDBRANCH  11  12
ENDBRANCH  10  11
ENDBRANCH   9  10
ENDBRANCH   8   9
ENDBRANCH   7   8
ENDBRANCH   6   7
ENDBRANCH   5   6
ENDBRANCH   4   5
ENDBRANCH   3   4
ENDBRANCH   2   3
ENDBRANCH   1   2
BRANCH   1  15
ATOM     15  C   UNL     1      -4.157 -44.668  16.015  1.00  0.00     0.000 C 
BRANCH  15  16
ATOM     16  C   UNL     1      -5.274 -45.408  15.264  1.00  0.00     0.000 C 
BRANCH  16  17
ATOM     17  C   UNL     1      -6.436 -44.467  14.931  1.00  0.00     0.000 C 
BRANCH  17  18
ATOM     18  C   UNL     1      -7.768 -45.034  15.442  1.00  0.00    -0.000 C 
BRANCH  18  19
ATOM     19  C   UNL     1      -8.703 -45.484  14.305  1.00  0.00    -0.000 C 
BRANCH  19  20
ATOM     20  C   UNL     1      -8.414 -44.793  12.958  1.00  0.00    -0.000 C 
BRANCH  20  21
ATOM     21  C   UNL     1      -9.031 -45.547  11.769  1.00  0.00    -0.000 C 
BRANCH  21  22
ATOM     22  C   UNL     1      -8.416 -46.944  11.629  1.00  0.00    -0.000 C 
BRANCH  22  23
ATOM     23  C   UNL     1      -6.906 -46.858  11.358  1.00  0.00    -0.000 C 
BRANCH  23  24
ATOM     24  C   UNL     1      -6.371 -48.078  10.590  1.00  0.00    -0.000 C 
BRANCH  24  25
ATOM     25  C   UNL     1      -7.049 -49.390  11.013  1.00  0.00    -0.003 C 
ATOM     26  C   UNL     1      -7.627 -50.125   9.806  1.00  0.00     0.004 C 
ENDBRANCH  24  25
ENDBRANCH  23  24
ENDBRANCH  22  23
ENDBRANCH  21  22
ENDBRANCH  20  21
ENDBRANCH  19  20
ENDBRANCH  18  19
ENDBRANCH  17  18
ENDBRANCH  16  17
ENDBRANCH  15  16
ENDBRANCH   1  15
TORSDOF 22
ENDMDL
MODEL 9
REMARK VINA RESULT:    -2.501      2.570      5.234
REMARK INTER + INTRA:         -10.320
REMARK INTER:                  -5.824
REMARK INTRA:                  -4.496
REMARK UNBOUND:                -4.603
REMARK SMILES CCCCCCCCCCCCCCCCCCCCCCCC(=O)[O-]
REMARK SMILES IDX 13 1 14 2 15 3 16 4 17 5 18 6 19 7 20 8 21 9 22 10 23 11
REMARK SMILES IDX 24 12 25 13 26 14 12 15 11 16 10 17 9 18 8 19 7 20 6 21 5 22
REMARK SMILES IDX 4 23 3 24 2 25 1 26
REMARK H PARENT
REMARK Flexibility Score: inf
ROOT
ATOM      1  C   UNL     1      -1.664 -46.684  16.440  1.00  0.00     0.000 C 
ENDROOT
BRANCH   1   2
ATOM      2  C   UNL     1      -1.994 -45.651  17.528  1.00  0.00     0.000 C 
BRANCH   2   3
ATOM      3  C   UNL     1      -2.125 -46.323  18.903  1.00  0.00     0.000 C 
BRANCH   3   4
ATOM      4  C   UNL     1      -3.329 -45.805  19.707  1.00  0.00     0.000 C 
BRANCH   4   5
ATOM      5  C   UNL     1      -4.484 -46.811  19.875  1.00  0.00     0.000 C 
BRANCH   5   6
ATOM      6  C   UNL     1      -4.247 -48.165  19.171  1.00  0.00     0.000 C 
BRANCH   6   7
ATOM      7  C   UNL     1      -5.023 -48.287  17.848  1.00  0.00     0.000 C 
BRANCH   7   8
ATOM      8  C   UNL     1      -5.920 -47.069  17.560  1.00  0.00     0.000 C 
BRANCH   8   9
ATOM      9  C   UNL     1      -5.408 -46.127  16.455  1.00  0.00     0.000 C 
BRANCH   9  10
ATOM     10  C   UNL     1      -6.042 -44.728  16.520  1.00  0.00     0.006 C 
BRANCH  10  11
ATOM     11  C   UNL     1      -5.286 -43.798  17.480  1.00  0.00     0.053 C 
BRANCH  11  12
ATOM     12  C   UNL     1      -6.190 -43.223  18.527  1.00  0.00     0.041 C 
ATOM     13  O   UNL     1      -5.979 -43.465  19.745  1.00  0.00    -0.550 OA
ATOM     14  O   UNL     1      -7.280 -42.445  18.161  1.00  0.00    -0.550 OA
ENDBRANCH  11  12
ENDBRANCH  10  11
ENDBRANCH   9  10
ENDBRANCH   8   9
ENDBRANCH   7   8
ENDBRANCH   6   7
ENDBRANCH   5   6
ENDBRANCH   4   5
ENDBRANCH   3   4
ENDBRANCH   2   3
ENDBRANCH   1   2
BRANCH   1  15
ATOM     15  C   UNL     1      -1.269 -48.052  17.022  1.00  0.00     0.000 C 
BRANCH  15  16
ATOM     16  C   UNL     1      -1.172 -49.148  15.950  1.00  0.00     0.000 C 
BRANCH  16  17
ATOM     17  C   UNL     1      -2.348 -50.125  16.049  1.00  0.00     0.000 C 
BRANCH  17  18
ATOM     18  C   UNL     1      -3.433 -49.788  15.016  1.00  0.00    -0.000 C 
BRANCH  18  19
ATOM     19  C   UNL     1      -2.864 -49.145  13.738  1.00  0.00    -0.000 C 
BRANCH  19  20
ATOM     20  C   UNL     1      -3.528 -47.802  13.375  1.00  0.00    -0.000 C 
BRANCH  20  21
ATOM     21  C   UNL     1      -3.907 -47.720  11.888  1.00  0.00    -0.000 C 
BRANCH  21  22
ATOM     22  C   UNL     1      -4.516 -46.354  11.553  1.00  0.00    -0.000 C 
BRANCH  22  23
ATOM     23  C   UNL     1      -5.469 -45.886  12.663  1.00  0.00    -0.000 C 
BRANCH  23  24
ATOM     24  C   UNL     1      -5.228 -44.424  13.075  1.00  0.00    -0.000 C 
BRANCH  24  25
ATOM     25  C   UNL     1      -3.765 -44.148  13.453  1.00  0.00    -0.003 C 
ATOM     26  C   UNL     1      -3.637 -42.848  14.243  1.00  0.00     0.004 C 
ENDBRANCH  24  25
ENDBRANCH  23  24
ENDBRANCH  22  23
ENDBRANCH  21  22
ENDBRANCH  20  21
ENDBRANCH  19  20
ENDBRANCH  18  19
ENDBRANCH  17  18
ENDBRANCH  16  17
ENDBRANCH  15  16
ENDBRANCH   1  15
TORSDOF 22
ENDMDL
