MODEL 1
REMARK VINA RESULT:    -3.282      0.000      0.000
REMARK INTER + INTRA:          -5.941
REMARK INTER:                  -5.010
REMARK INTRA:                  -0.931
REMARK UNBOUND:                -0.931
REMARK SMILES CC1=CCC[C@@H](C)C(=O)C[C@@H](C(C)C)C(=O)C1
REMARK SMILES IDX 8 1 9 2 6 3 7 4 5 5 4 6 3 7 2 8 1 9 10 11 11 12 15 13 16 14
REMARK SMILES IDX 17 15 12 17 13 18 14 19
REMARK H PARENT
REMARK Flexibility Score: 70.00
ROOT
ATOM      1  C   UNL     1      45.015  58.835  26.121  1.00  0.00     0.136 C 
ATOM      2  O   UNL     1      44.841  59.937  25.625  1.00  0.00    -0.299 OA
ENDROOT
BRANCH   1   3
ATOM      3  C   UNL     1      45.358  58.707  27.659  1.00  0.00     0.053 C 
ATOM      4  C   UNL     1      46.719  58.040  27.859  1.00  0.00     0.016 C 
BRANCH   3   5
ATOM      5  C   UNL     1      44.243  57.879  28.354  1.00  0.00     0.015 C 
BRANCH   5   6
ATOM      6  C   UNL     1      43.835  56.425  28.620  1.00  0.00     0.028 C 
BRANCH   6   7
ATOM      7  C   UNL     1      42.313  56.158  28.288  1.00  0.00    -0.028 C 
ATOM      8  C   UNL     1      41.664  56.002  27.057  1.00  0.00    -0.070 CG0
ATOM      9  C   UNL     1      40.182  55.768  27.031  1.00  0.00     0.039 C 
ATOM     10  G   UNL     1      42.414  56.087  25.740  1.00  0.00     0.000 G0
ENDBRANCH   6   7
ENDBRANCH   5   6
ENDBRANCH   3   5
ENDBRANCH   1   3
BRANCH   1  11
ATOM     11  C   UNL     1      44.836  57.578  25.250  1.00  0.00     0.087 C 
BRANCH  11  12
ATOM     12  C   UNL     1      44.791  56.173  24.514  1.00  0.00     0.066 C 
BRANCH  12  13
ATOM     13  C   UNL     1      43.471  55.377  24.910  1.00  0.00     0.140 C 
ATOM     14  O   UNL     1      43.233  54.277  24.438  1.00  0.00    -0.299 OA
BRANCH  13  15
ATOM     15  C   UNL     1      42.403  56.080  25.735  1.00  0.00     0.106 CG0
ATOM     16  G   UNL     1      41.651  55.972  27.048  1.00  0.00     0.000 G0
ENDBRANCH  13  15
ENDBRANCH  12  13
BRANCH  12  17
ATOM     17  C   UNL     1      46.092  55.347  24.786  1.00  0.00    -0.006 C 
ATOM     18  C   UNL     1      47.370  56.161  24.511  1.00  0.00     0.008 C 
ATOM     19  C   UNL     1      46.135  54.836  26.238  1.00  0.00     0.008 C 
ENDBRANCH  12  17
ENDBRANCH  11  12
ENDBRANCH   1  11
TORSDOF 1
ENDMDL
MODEL 2
REMARK VINA RESULT:    -3.169      1.913      4.207
REMARK INTER + INTRA:          -5.768
REMARK INTER:                  -5.183
REMARK INTRA:                  -0.585
REMARK UNBOUND:                -0.931
REMARK SMILES CC1=CCC[C@@H](C)C(=O)C[C@@H](C(C)C)C(=O)C1
REMARK SMILES IDX 8 1 9 2 6 3 7 4 5 5 4 6 3 7 2 8 1 9 10 11 11 12 15 13 16 14
REMARK SMILES IDX 17 15 12 17 13 18 14 19
REMARK H PARENT
REMARK Flexibility Score: 70.00
ROOT
ATOM      1  C   UNL     1      44.277  57.293  28.350  1.00  0.00     0.136 C 
ATOM      2  O   UNL     1      44.160  57.149  29.557  1.00  0.00    -0.299 OA
ENDROOT
BRANCH   1   3
ATOM      3  C   UNL     1      45.151  58.480  27.777  1.00  0.00     0.053 C 
ATOM      4  C   UNL     1      44.681  58.872  26.375  1.00  0.00     0.016 C 
BRANCH   3   5
ATOM      5  C   UNL     1      46.639  58.038  27.745  1.00  0.00     0.015 C 
BRANCH   5   6
ATOM      6  C   UNL     1      47.550  56.978  27.113  1.00  0.00     0.028 C 
BRANCH   6   7
ATOM      7  C   UNL     1      47.295  56.813  25.563  1.00  0.00    -0.028 C 
ATOM      8  C   UNL     1      46.411  55.978  24.869  1.00  0.00    -0.070 CG0
ATOM      9  C   UNL     1      46.386  56.017  23.368  1.00  0.00     0.039 C 
ATOM     10  G   UNL     1      45.491  55.011  25.590  1.00  0.00     0.000 G0
ENDBRANCH   6   7
ENDBRANCH   5   6
ENDBRANCH   3   5
ENDBRANCH   1   3
BRANCH   1  11
ATOM     11  C   UNL     1      43.620  56.274  27.401  1.00  0.00     0.087 C 
BRANCH  11  12
ATOM     12  C   UNL     1      43.006  55.060  26.584  1.00  0.00     0.066 C 
BRANCH  12  13
ATOM     13  C   UNL     1      44.072  54.486  25.551  1.00  0.00     0.140 C 
ATOM     14  O   UNL     1      43.812  53.525  24.845  1.00  0.00    -0.299 OA
BRANCH  13  15
ATOM     15  C   UNL     1      45.496  55.020  25.584  1.00  0.00     0.106 CG0
ATOM     16  G   UNL     1      46.424  55.981  24.864  1.00  0.00     0.000 G0
ENDBRANCH  13  15
ENDBRANCH  12  13
BRANCH  12  17
ATOM     17  C   UNL     1      41.661  55.463  25.893  1.00  0.00    -0.006 C 
ATOM     18  C   UNL     1      40.625  56.001  26.897  1.00  0.00     0.008 C 
ATOM     19  C   UNL     1      41.891  56.526  24.802  1.00  0.00     0.008 C 
ENDBRANCH  12  17
ENDBRANCH  11  12
ENDBRANCH   1  11
TORSDOF 1
ENDMDL
MODEL 3
REMARK VINA RESULT:    -3.038      2.343      4.925
REMARK INTER + INTRA:          -5.568
REMARK INTER:                  -4.945
REMARK INTRA:                  -0.623
REMARK UNBOUND:                -0.931
REMARK SMILES CC1=CCC[C@@H](C)C(=O)C[C@@H](C(C)C)C(=O)C1
REMARK SMILES IDX 8 1 9 2 6 3 7 4 5 5 4 6 3 7 2 8 1 9 10 11 11 12 15 13 16 14
REMARK SMILES IDX 17 15 12 17 13 18 14 19
REMARK H PARENT
REMARK Flexibility Score: 70.00
ROOT
ATOM      1  C   UNL     1      47.613  54.959  26.401  1.00  0.00     0.136 C 
ATOM      2  O   UNL     1      47.760  53.758  26.570  1.00  0.00    -0.299 OA
ENDROOT
BRANCH   1   3
ATOM      3  C   UNL     1      48.837  55.847  25.939  1.00  0.00     0.053 C 
ATOM      4  C   UNL     1      48.790  57.224  26.601  1.00  0.00     0.016 C 
BRANCH   3   5
ATOM      5  C   UNL     1      48.798  55.989  24.393  1.00  0.00     0.015 C 
BRANCH   5   6
ATOM      6  C   UNL     1      47.888  56.501  23.270  1.00  0.00     0.028 C 
BRANCH   6   7
ATOM      7  C   UNL     1      47.307  57.938  23.574  1.00  0.00    -0.028 C 
ATOM      8  C   UNL     1      46.081  58.325  24.129  1.00  0.00    -0.070 CG0
ATOM      9  C   UNL     1      45.777  59.785  24.296  1.00  0.00     0.039 C 
ATOM     10  G   UNL     1      45.034  57.309  24.545  1.00  0.00     0.000 G0
ENDBRANCH   6   7
ENDBRANCH   5   6
ENDBRANCH   3   5
ENDBRANCH   1   3
BRANCH   1  11
ATOM     11  C   UNL     1      46.217  55.582  26.581  1.00  0.00     0.087 C 
BRANCH  11  12
ATOM     12  C   UNL     1      44.824  56.217  27.002  1.00  0.00     0.066 C 
BRANCH  12  13
ATOM     13  C   UNL     1      44.154  56.962  25.766  1.00  0.00     0.140 C 
ATOM     14  O   UNL     1      42.945  57.108  25.697  1.00  0.00    -0.299 OA
BRANCH  13  15
ATOM     15  C   UNL     1      45.016  57.325  24.566  1.00  0.00     0.106 CG0
ATOM     16  G   UNL     1      46.065  58.322  24.111  1.00  0.00     0.000 G0
ENDBRANCH  13  15
ENDBRANCH  12  13
BRANCH  12  17
ATOM     17  C   UNL     1      44.979  57.149  28.250  1.00  0.00    -0.006 C 
ATOM     18  C   UNL     1      45.318  58.599  27.859  1.00  0.00     0.008 C 
ATOM     19  C   UNL     1      43.699  57.153  29.105  1.00  0.00     0.008 C 
ENDBRANCH  12  17
ENDBRANCH  11  12
ENDBRANCH   1  11
TORSDOF 1
ENDMDL
MODEL 4
REMARK VINA RESULT:    -3.004      2.277      4.419
REMARK INTER + INTRA:          -5.516
REMARK INTER:                  -5.038
REMARK INTRA:                  -0.479
REMARK UNBOUND:                -0.931
REMARK SMILES CC1=CCC[C@@H](C)C(=O)C[C@@H](C(C)C)C(=O)C1
REMARK SMILES IDX 8 1 9 2 6 3 7 4 5 5 4 6 3 7 2 8 1 9 10 11 11 12 15 13 16 14
REMARK SMILES IDX 17 15 12 17 13 18 14 19
REMARK H PARENT
REMARK Flexibility Score: 70.00
ROOT
ATOM      1  C   UNL     1      46.842  56.566  27.073  1.00  0.00     0.136 C 
ATOM      2  O   UNL     1      47.686  55.702  26.891  1.00  0.00    -0.299 OA
ENDROOT
BRANCH   1   3
ATOM      3  C   UNL     1      47.285  58.036  27.447  1.00  0.00     0.053 C 
ATOM      4  C   UNL     1      46.132  58.802  28.098  1.00  0.00     0.016 C 
BRANCH   3   5
ATOM      5  C   UNL     1      47.755  58.762  26.157  1.00  0.00     0.015 C 
BRANCH   5   6
ATOM      6  C   UNL     1      47.207  59.298  24.829  1.00  0.00     0.028 C 
BRANCH   6   7
ATOM      7  C   UNL     1      46.989  58.153  23.763  1.00  0.00    -0.028 C 
ATOM      8  C   UNL     1      45.880  57.332  23.523  1.00  0.00    -0.070 CG0
ATOM      9  C   UNL     1      45.951  56.298  22.437  1.00  0.00     0.039 C 
ATOM     10  G   UNL     1      44.611  57.439  24.348  1.00  0.00     0.000 G0
ENDBRANCH   6   7
ENDBRANCH   5   6
ENDBRANCH   3   5
ENDBRANCH   1   3
BRANCH   1  11
ATOM     11  C   UNL     1      45.355  56.222  26.874  1.00  0.00     0.087 C 
BRANCH  11  12
ATOM     12  C   UNL     1      43.858  55.920  26.439  1.00  0.00     0.066 C 
BRANCH  12  13
ATOM     13  C   UNL     1      43.545  56.575  25.023  1.00  0.00     0.140 C 
ATOM     14  O   UNL     1      42.540  56.278  24.399  1.00  0.00    -0.299 OA
BRANCH  13  15
ATOM     15  C   UNL     1      44.610  57.432  24.354  1.00  0.00     0.106 CG0
ATOM     16  G   UNL     1      45.878  57.326  23.529  1.00  0.00     0.000 G0
ENDBRANCH  13  15
ENDBRANCH  12  13
BRANCH  12  17
ATOM     17  C   UNL     1      42.845  56.370  27.543  1.00  0.00    -0.006 C 
ATOM     18  C   UNL     1      41.803  55.282  27.861  1.00  0.00     0.008 C 
ATOM     19  C   UNL     1      43.572  56.754  28.845  1.00  0.00     0.008 C 
ENDBRANCH  12  17
ENDBRANCH  11  12
ENDBRANCH   1  11
TORSDOF 1
ENDMDL
MODEL 5
REMARK VINA RESULT:    -2.983      2.213      5.051
REMARK INTER + INTRA:          -5.484
REMARK INTER:                  -4.969
REMARK INTRA:                  -0.515
REMARK UNBOUND:                -0.931
REMARK SMILES CC1=CCC[C@@H](C)C(=O)C[C@@H](C(C)C)C(=O)C1
REMARK SMILES IDX 8 1 9 2 6 3 7 4 5 5 4 6 3 7 2 8 1 9 10 11 11 12 15 13 16 14
REMARK SMILES IDX 17 15 12 17 13 18 14 19
REMARK H PARENT
REMARK Flexibility Score: 70.00
ROOT
ATOM      1  C   UNL     1      42.714  56.335  25.445  1.00  0.00     0.136 C 
ATOM      2  O   UNL     1      41.667  56.693  24.927  1.00  0.00    -0.299 OA
ENDROOT
BRANCH   1   3
ATOM      3  C   UNL     1      43.080  54.798  25.505  1.00  0.00     0.053 C 
ATOM      4  C   UNL     1      43.917  54.488  26.747  1.00  0.00     0.016 C 
BRANCH   3   5
ATOM      5  C   UNL     1      43.862  54.418  24.218  1.00  0.00     0.015 C 
BRANCH   5   6
ATOM      6  C   UNL     1      44.866  55.008  23.220  1.00  0.00     0.028 C 
BRANCH   6   7
ATOM      7  C   UNL     1      46.284  55.258  23.871  1.00  0.00    -0.028 C 
ATOM      8  C   UNL     1      46.857  56.429  24.382  1.00  0.00    -0.070 CG0
ATOM      9  C   UNL     1      48.250  56.384  24.938  1.00  0.00     0.039 C 
ATOM     10  G   UNL     1      46.119  57.754  24.368  1.00  0.00     0.000 G0
ENDBRANCH   6   7
ENDBRANCH   5   6
ENDBRANCH   3   5
ENDBRANCH   1   3
BRANCH   1  11
ATOM     11  C   UNL     1      43.694  57.396  25.978  1.00  0.00     0.087 C 
BRANCH  11  12
ATOM     12  C   UNL     1      44.583  58.644  26.390  1.00  0.00     0.066 C 
BRANCH  12  13
ATOM     13  C   UNL     1      45.720  58.902  25.307  1.00  0.00     0.140 C 
ATOM     14  O   UNL     1      46.153  60.024  25.101  1.00  0.00    -0.299 OA
BRANCH  13  15
ATOM     15  C   UNL     1      46.132  57.766  24.383  1.00  0.00     0.106 CG0
ATOM     16  G   UNL     1      46.851  56.429  24.386  1.00  0.00     0.000 G0
ENDBRANCH  13  15
ENDBRANCH  12  13
BRANCH  12  17
ATOM     17  C   UNL     1      45.161  58.477  27.835  1.00  0.00    -0.006 C 
ATOM     18  C   UNL     1      44.464  57.348  28.618  1.00  0.00     0.008 C 
ATOM     19  C   UNL     1      46.674  58.193  27.801  1.00  0.00     0.008 C 
ENDBRANCH  12  17
ENDBRANCH  11  12
ENDBRANCH   1  11
TORSDOF 1
ENDMDL
MODEL 6
REMARK VINA RESULT:    -2.965      2.356      4.380
REMARK INTER + INTRA:          -5.456
REMARK INTER:                  -4.861
REMARK INTRA:                  -0.595
REMARK UNBOUND:                -0.931
REMARK SMILES CC1=CCC[C@@H](C)C(=O)C[C@@H](C(C)C)C(=O)C1
REMARK SMILES IDX 8 1 9 2 6 3 7 4 5 5 4 6 3 7 2 8 1 9 10 11 11 12 15 13 16 14
REMARK SMILES IDX 17 15 12 17 13 18 14 19
REMARK H PARENT
REMARK Flexibility Score: 70.00
ROOT
ATOM      1  C   UNL     1      42.676  54.280  27.099  1.00  0.00     0.136 C 
ATOM      2  O   UNL     1      42.352  53.127  27.336  1.00  0.00    -0.299 OA
ENDROOT
BRANCH   1   3
ATOM      3  C   UNL     1      42.049  55.465  27.938  1.00  0.00     0.053 C 
ATOM      4  C   UNL     1      40.769  55.979  27.279  1.00  0.00     0.016 C 
BRANCH   3   5
ATOM      5  C   UNL     1      43.095  56.607  28.052  1.00  0.00     0.015 C 
BRANCH   5   6
ATOM      6  C   UNL     1      44.175  57.139  29.002  1.00  0.00     0.028 C 
BRANCH   6   7
ATOM      7  C   UNL     1      45.285  57.969  28.245  1.00  0.00    -0.028 C 
ATOM      8  C   UNL     1      46.224  57.570  27.286  1.00  0.00    -0.070 CG0
ATOM      9  C   UNL     1      47.187  58.581  26.735  1.00  0.00     0.039 C 
ATOM     10  G   UNL     1      46.314  56.135  26.802  1.00  0.00     0.000 G0
ENDBRANCH   6   7
ENDBRANCH   5   6
ENDBRANCH   3   5
ENDBRANCH   1   3
BRANCH   1  11
ATOM     11  C   UNL     1      43.743  54.559  26.024  1.00  0.00     0.087 C 
BRANCH  11  12
ATOM     12  C   UNL     1      44.746  55.065  24.903  1.00  0.00     0.066 C 
BRANCH  12  13
ATOM     13  C   UNL     1      46.194  55.305  25.516  1.00  0.00     0.140 C 
ATOM     14  O   UNL     1      47.169  54.710  25.086  1.00  0.00    -0.299 OA
BRANCH  13  15
ATOM     15  C   UNL     1      46.333  56.141  26.781  1.00  0.00     0.106 CG0
ATOM     16  G   UNL     1      46.234  57.570  27.280  1.00  0.00     0.000 G0
ENDBRANCH  13  15
ENDBRANCH  12  13
BRANCH  12  17
ATOM     17  C   UNL     1      44.188  56.332  24.173  1.00  0.00    -0.006 C 
ATOM     18  C   UNL     1      45.285  57.101  23.415  1.00  0.00     0.008 C 
ATOM     19  C   UNL     1      43.072  55.957  23.180  1.00  0.00     0.008 C 
ENDBRANCH  12  17
ENDBRANCH  11  12
ENDBRANCH   1  11
TORSDOF 1
ENDMDL
MODEL 7
REMARK VINA RESULT:    -2.962      1.980      4.018
REMARK INTER + INTRA:          -5.451
REMARK INTER:                  -4.903
REMARK INTRA:                  -0.549
REMARK UNBOUND:                -0.931
REMARK SMILES CC1=CCC[C@@H](C)C(=O)C[C@@H](C(C)C)C(=O)C1
REMARK SMILES IDX 8 1 9 2 6 3 7 4 5 5 4 6 3 7 2 8 1 9 10 11 11 12 15 13 16 14
REMARK SMILES IDX 17 15 12 17 13 18 14 19
REMARK H PARENT
REMARK Flexibility Score: 70.00
ROOT
ATOM      1  C   UNL     1      45.452  56.187  27.292  1.00  0.00     0.136 C 
ATOM      2  O   UNL     1      46.641  55.954  27.138  1.00  0.00    -0.299 OA
ENDROOT
BRANCH   1   3
ATOM      3  C   UNL     1      44.993  57.333  28.279  1.00  0.00     0.053 C 
ATOM      4  C   UNL     1      43.582  57.064  28.805  1.00  0.00     0.016 C 
BRANCH   3   5
ATOM      5  C   UNL     1      45.039  58.691  27.527  1.00  0.00     0.015 C 
BRANCH   5   6
ATOM      6  C   UNL     1      44.676  59.312  26.172  1.00  0.00     0.028 C 
BRANCH   6   7
ATOM      7  C   UNL     1      45.544  58.724  24.991  1.00  0.00    -0.028 C 
ATOM      8  C   UNL     1      45.253  57.718  24.061  1.00  0.00    -0.070 CG0
ATOM      9  C   UNL     1      46.284  57.342  23.037  1.00  0.00     0.039 C 
ATOM     10  G   UNL     1      43.932  56.973  24.074  1.00  0.00     0.000 G0
ENDBRANCH   6   7
ENDBRANCH   5   6
ENDBRANCH   3   5
ENDBRANCH   1   3
BRANCH   1  11
ATOM     11  C   UNL     1      44.416  55.398  26.470  1.00  0.00     0.087 C 
BRANCH  11  12
ATOM     12  C   UNL     1      43.412  54.725  25.441  1.00  0.00     0.066 C 
BRANCH  12  13
ATOM     13  C   UNL     1      43.351  55.565  24.091  1.00  0.00     0.140 C 
ATOM     14  O   UNL     1      42.991  55.050  23.044  1.00  0.00    -0.299 OA
BRANCH  13  15
ATOM     15  C   UNL     1      43.932  56.970  24.067  1.00  0.00     0.106 CG0
ATOM     16  G   UNL     1      45.256  57.711  24.067  1.00  0.00     0.000 G0
ENDBRANCH  13  15
ENDBRANCH  12  13
BRANCH  12  17
ATOM     17  C   UNL     1      41.999  54.518  26.081  1.00  0.00    -0.006 C 
ATOM     18  C   UNL     1      42.067  53.756  27.417  1.00  0.00     0.008 C 
ATOM     19  C   UNL     1      41.289  55.864  26.316  1.00  0.00     0.008 C 
ENDBRANCH  12  17
ENDBRANCH  11  12
ENDBRANCH   1  11
TORSDOF 1
ENDMDL
MODEL 8
REMARK VINA RESULT:    -2.948      2.609      4.621
REMARK INTER + INTRA:          -5.431
REMARK INTER:                  -5.005
REMARK INTRA:                  -0.426
REMARK UNBOUND:                -0.931
REMARK SMILES CC1=CCC[C@@H](C)C(=O)C[C@@H](C(C)C)C(=O)C1
REMARK SMILES IDX 8 1 9 2 6 3 7 4 5 5 4 6 3 7 2 8 1 9 10 11 11 12 15 13 16 14
REMARK SMILES IDX 17 15 12 17 13 18 14 19
REMARK H PARENT
REMARK Flexibility Score: 70.00
ROOT
ATOM      1  C   UNL     1      44.346  56.895  28.228  1.00  0.00     0.136 C 
ATOM      2  O   UNL     1      44.202  57.251  29.387  1.00  0.00    -0.299 OA
ENDROOT
BRANCH   1   3
ATOM      3  C   UNL     1      43.082  56.544  27.346  1.00  0.00     0.053 C 
ATOM      4  C   UNL     1      42.704  55.070  27.500  1.00  0.00     0.016 C 
BRANCH   3   5
ATOM      5  C   UNL     1      43.401  56.868  25.861  1.00  0.00     0.015 C 
BRANCH   5   6
ATOM      6  C   UNL     1      44.168  56.301  24.660  1.00  0.00     0.028 C 
BRANCH   6   7
ATOM      7  C   UNL     1      44.719  57.436  23.709  1.00  0.00    -0.028 C 
ATOM      8  C   UNL     1      45.607  58.488  23.967  1.00  0.00    -0.070 CG0
ATOM      9  C   UNL     1      45.954  59.445  22.864  1.00  0.00     0.039 C 
ATOM     10  G   UNL     1      46.212  58.706  25.341  1.00  0.00     0.000 G0
ENDBRANCH   6   7
ENDBRANCH   5   6
ENDBRANCH   3   5
ENDBRANCH   1   3
BRANCH   1  11
ATOM     11  C   UNL     1      45.761  56.853  27.622  1.00  0.00     0.087 C 
BRANCH  11  12
ATOM     12  C   UNL     1      47.261  57.006  27.128  1.00  0.00     0.066 C 
BRANCH  12  13
ATOM     13  C   UNL     1      47.414  58.282  26.189  1.00  0.00     0.140 C 
ATOM     14  O   UNL     1      48.395  59.003  26.259  1.00  0.00    -0.299 OA
BRANCH  13  15
ATOM     15  C   UNL     1      46.233  58.714  25.333  1.00  0.00     0.106 CG0
ATOM     16  G   UNL     1      45.608  58.493  23.968  1.00  0.00     0.000 G0
ENDBRANCH  13  15
ENDBRANCH  12  13
BRANCH  12  17
ATOM     17  C   UNL     1      47.769  55.694  26.441  1.00  0.00    -0.006 C 
ATOM     18  C   UNL     1      46.676  54.612  26.364  1.00  0.00     0.008 C 
ATOM     19  C   UNL     1      48.287  55.974  25.018  1.00  0.00     0.008 C 
ENDBRANCH  12  17
ENDBRANCH  11  12
ENDBRANCH   1  11
TORSDOF 1
ENDMDL
MODEL 9
REMARK VINA RESULT:    -2.812      2.020      3.874
REMARK INTER + INTRA:          -5.222
REMARK INTER:                  -4.843
REMARK INTRA:                  -0.380
REMARK UNBOUND:                -0.931
REMARK SMILES CC1=CCC[C@@H](C)C(=O)C[C@@H](C(C)C)C(=O)C1
REMARK SMILES IDX 8 1 9 2 6 3 7 4 5 5 4 6 3 7 2 8 1 9 10 11 11 12 15 13 16 14
REMARK SMILES IDX 17 15 12 17 13 18 14 19
REMARK H PARENT
REMARK Flexibility Score: 70.00
ROOT
ATOM      1  C   UNL     1      46.878  58.198  26.528  1.00  0.00     0.136 C 
ATOM      2  O   UNL     1      47.635  58.567  27.414  1.00  0.00    -0.299 OA
ENDROOT
BRANCH   1   3
ATOM      3  C   UNL     1      46.850  58.964  25.145  1.00  0.00     0.053 C 
ATOM      4  C   UNL     1      45.693  59.964  25.102  1.00  0.00     0.016 C 
BRANCH   3   5
ATOM      5  C   UNL     1      46.710  57.926  23.999  1.00  0.00     0.015 C 
BRANCH   5   6
ATOM      6  C   UNL     1      45.914  57.677  22.712  1.00  0.00     0.028 C 
BRANCH   6   7
ATOM      7  C   UNL     1      44.384  57.404  22.995  1.00  0.00    -0.028 C 
ATOM      8  C   UNL     1      43.764  56.420  23.776  1.00  0.00    -0.070 CG0
ATOM      9  C   UNL     1      42.266  56.383  23.859  1.00  0.00     0.039 C 
ATOM     10  G   UNL     1      44.564  55.370  24.524  1.00  0.00     0.000 G0
ENDBRANCH   6   7
ENDBRANCH   5   6
ENDBRANCH   3   5
ENDBRANCH   1   3
BRANCH   1  11
ATOM     11  C   UNL     1      46.006  56.950  26.751  1.00  0.00     0.087 C 
BRANCH  11  12
ATOM     12  C   UNL     1      44.990  55.795  27.144  1.00  0.00     0.066 C 
BRANCH  12  13
ATOM     13  C   UNL     1      44.783  54.794  25.924  1.00  0.00     0.140 C 
ATOM     14  O   UNL     1      44.955  53.594  26.057  1.00  0.00    -0.299 OA
BRANCH  13  15
ATOM     15  C   UNL     1      44.558  55.364  24.532  1.00  0.00     0.106 CG0
ATOM     16  G   UNL     1      43.751  56.413  23.791  1.00  0.00     0.000 G0
ENDBRANCH  13  15
ENDBRANCH  12  13
BRANCH  12  17
ATOM     17  C   UNL     1      43.639  56.383  27.672  1.00  0.00    -0.006 C 
ATOM     18  C   UNL     1      42.569  55.295  27.881  1.00  0.00     0.008 C 
ATOM     19  C   UNL     1      43.840  57.139  28.999  1.00  0.00     0.008 C 
ENDBRANCH  12  17
ENDBRANCH  11  12
ENDBRANCH   1  11
TORSDOF 1
ENDMDL
