MODEL 1
REMARK VINA RESULT:    -6.369      0.000      0.000
REMARK INTER + INTRA:          -6.369
REMARK INTER:                  -6.369
REMARK INTRA:                   0.000
REMARK UNBOUND:                 0.000
REMARK SMILES CC1=CC(=O)[C@H]2C[C@@H]1C2(C)C
REMARK SMILES IDX 1 1 2 2 3 3 4 4 5 5 6 6 7 7 8 8 9 9 10 10 11 11
REMARK H PARENT
REMARK Flexibility Score: inf
ROOT
ATOM      1  C   UNL     1      80.196   6.297  26.843  1.00  0.00     0.040 C 
ATOM      2  C   UNL     1      81.534   5.652  26.670  1.00  0.00    -0.066 C 
ATOM      3  C   UNL     1      82.066   5.446  25.433  1.00  0.00     0.047 C 
ATOM      4  C   UNL     1      83.399   4.762  25.390  1.00  0.00     0.159 C 
ATOM      5  O   UNL     1      83.976   4.481  24.307  1.00  0.00    -0.295 OA
ATOM      6  C   UNL     1      84.009   4.429  26.752  1.00  0.00     0.067 C 
ATOM      7  C   UNL     1      83.810   5.718  27.579  1.00  0.00     0.021 C 
ATOM      8  C   UNL     1      82.384   5.205  27.878  1.00  0.00     0.022 C 
ATOM      9  C   UNL     1      82.914   3.762  27.633  1.00  0.00    -0.019 C 
ATOM     10  C   UNL     1      81.958   2.730  26.970  1.00  0.00     0.012 C 
ATOM     11  C   UNL     1      83.500   3.123  28.919  1.00  0.00     0.012 C 
ENDROOT
TORSDOF 0
ENDMDL
MODEL 2
REMARK VINA RESULT:    -5.798      2.003      3.127
REMARK INTER + INTRA:          -5.798
REMARK INTER:                  -5.798
REMARK INTRA:                   0.000
REMARK UNBOUND:                 0.000
REMARK SMILES CC1=CC(=O)[C@H]2C[C@@H]1C2(C)C
REMARK SMILES IDX 1 1 2 2 3 3 4 4 5 5 6 6 7 7 8 8 9 9 10 10 11 11
REMARK H PARENT
REMARK Flexibility Score: inf
ROOT
ATOM      1  C   UNL     1      80.202   7.129  26.879  1.00  0.00     0.040 C 
ATOM      2  C   UNL     1      81.028   5.926  27.210  1.00  0.00    -0.066 C 
ATOM      3  C   UNL     1      81.157   5.487  28.493  1.00  0.00     0.047 C 
ATOM      4  C   UNL     1      82.036   4.290  28.699  1.00  0.00     0.159 C 
ATOM      5  O   UNL     1      82.266   3.813  29.841  1.00  0.00    -0.295 OA
ATOM      6  C   UNL     1      82.634   3.691  27.426  1.00  0.00     0.067 C 
ATOM      7  C   UNL     1      81.447   3.636  26.440  1.00  0.00     0.021 C 
ATOM      8  C   UNL     1      81.756   5.115  26.118  1.00  0.00     0.022 C 
ATOM      9  C   UNL     1      83.223   4.845  26.566  1.00  0.00    -0.019 C 
ATOM     10  C   UNL     1      83.993   5.987  27.288  1.00  0.00     0.012 C 
ATOM     11  C   UNL     1      84.107   4.323  25.404  1.00  0.00     0.012 C 
ENDROOT
TORSDOF 0
ENDMDL
MODEL 3
REMARK VINA RESULT:    -5.729      1.700      3.185
REMARK INTER + INTRA:          -5.729
REMARK INTER:                  -5.729
REMARK INTRA:                   0.000
REMARK UNBOUND:                 0.000
REMARK SMILES CC1=CC(=O)[C@H]2C[C@@H]1C2(C)C
REMARK SMILES IDX 1 1 2 2 3 3 4 4 5 5 6 6 7 7 8 8 9 9 10 10 11 11
REMARK H PARENT
REMARK Flexibility Score: inf
ROOT
ATOM      1  C   UNL     1      85.684   3.991  27.968  1.00  0.00     0.040 C 
ATOM      2  C   UNL     1      84.223   4.130  27.680  1.00  0.00    -0.066 C 
ATOM      3  C   UNL     1      83.757   5.087  26.830  1.00  0.00     0.047 C 
ATOM      4  C   UNL     1      82.270   5.145  26.648  1.00  0.00     0.159 C 
ATOM      5  O   UNL     1      81.715   6.008  25.920  1.00  0.00    -0.295 OA
ATOM      6  C   UNL     1      81.475   4.084  27.411  1.00  0.00     0.067 C 
ATOM      7  C   UNL     1      82.250   2.774  27.152  1.00  0.00     0.021 C 
ATOM      8  C   UNL     1      83.176   3.191  28.316  1.00  0.00     0.022 C 
ATOM      9  C   UNL     1      81.995   4.036  28.876  1.00  0.00    -0.019 C 
ATOM     10  C   UNL     1      82.324   5.379  29.589  1.00  0.00     0.012 C 
ATOM     11  C   UNL     1      81.068   3.210  29.804  1.00  0.00     0.012 C 
ENDROOT
TORSDOF 0
ENDMDL
MODEL 4
REMARK VINA RESULT:    -5.308      2.295      3.849
REMARK INTER + INTRA:          -5.308
REMARK INTER:                  -5.308
REMARK INTRA:                   0.000
REMARK UNBOUND:                 0.000
REMARK SMILES CC1=CC(=O)[C@H]2C[C@@H]1C2(C)C
REMARK SMILES IDX 1 1 2 2 3 3 4 4 5 5 6 6 7 7 8 8 9 9 10 10 11 11
REMARK H PARENT
REMARK Flexibility Score: inf
ROOT
ATOM      1  C   UNL     1      85.266   3.828  27.489  1.00  0.00     0.040 C 
ATOM      2  C   UNL     1      83.898   4.158  27.995  1.00  0.00    -0.066 C 
ATOM      3  C   UNL     1      83.202   3.286  28.776  1.00  0.00     0.047 C 
ATOM      4  C   UNL     1      81.829   3.719  29.194  1.00  0.00     0.159 C 
ATOM      5  O   UNL     1      81.073   2.987  29.883  1.00  0.00    -0.295 OA
ATOM      6  C   UNL     1      81.412   5.114  28.724  1.00  0.00     0.067 C 
ATOM      7  C   UNL     1      82.643   5.997  29.023  1.00  0.00     0.021 C 
ATOM      8  C   UNL     1      83.216   5.505  27.676  1.00  0.00     0.022 C 
ATOM      9  C   UNL     1      81.753   5.248  27.212  1.00  0.00    -0.019 C 
ATOM     10  C   UNL     1      81.479   4.032  26.282  1.00  0.00     0.012 C 
ATOM     11  C   UNL     1      81.107   6.504  26.572  1.00  0.00     0.012 C 
ENDROOT
TORSDOF 0
ENDMDL
MODEL 5
REMARK VINA RESULT:    -5.246      1.654      3.384
REMARK INTER + INTRA:          -5.246
REMARK INTER:                  -5.246
REMARK INTRA:                   0.000
REMARK UNBOUND:                 0.000
REMARK SMILES CC1=CC(=O)[C@H]2C[C@@H]1C2(C)C
REMARK SMILES IDX 1 1 2 2 3 3 4 4 5 5 6 6 7 7 8 8 9 9 10 10 11 11
REMARK H PARENT
REMARK Flexibility Score: inf
ROOT
ATOM      1  C   UNL     1      81.249   3.093  30.211  1.00  0.00     0.040 C 
ATOM      2  C   UNL     1      82.091   3.388  29.011  1.00  0.00    -0.066 C 
ATOM      3  C   UNL     1      83.447   3.274  29.052  1.00  0.00     0.047 C 
ATOM      4  C   UNL     1      84.181   3.628  27.794  1.00  0.00     0.159 C 
ATOM      5  O   UNL     1      85.437   3.600  27.717  1.00  0.00    -0.295 OA
ATOM      6  C   UNL     1      83.298   4.027  26.611  1.00  0.00     0.067 C 
ATOM      7  C   UNL     1      82.180   2.961  26.598  1.00  0.00     0.021 C 
ATOM      8  C   UNL     1      81.467   3.819  27.667  1.00  0.00     0.022 C 
ATOM      9  C   UNL     1      82.238   5.051  27.109  1.00  0.00    -0.019 C 
ATOM     10  C   UNL     1      82.688   6.153  28.111  1.00  0.00     0.012 C 
ATOM     11  C   UNL     1      81.486   5.737  25.940  1.00  0.00     0.012 C 
ENDROOT
TORSDOF 0
ENDMDL
MODEL 6
REMARK VINA RESULT:    -5.208      1.756      3.071
REMARK INTER + INTRA:          -5.208
REMARK INTER:                  -5.208
REMARK INTRA:                   0.000
REMARK UNBOUND:                 0.000
REMARK SMILES CC1=CC(=O)[C@H]2C[C@@H]1C2(C)C
REMARK SMILES IDX 1 1 2 2 3 3 4 4 5 5 6 6 7 7 8 8 9 9 10 10 11 11
REMARK H PARENT
REMARK Flexibility Score: inf
ROOT
ATOM      1  C   UNL     1      81.853   5.363  30.233  1.00  0.00     0.040 C 
ATOM      2  C   UNL     1      81.946   4.817  28.843  1.00  0.00    -0.066 C 
ATOM      3  C   UNL     1      81.744   3.495  28.587  1.00  0.00     0.047 C 
ATOM      4  C   UNL     1      81.895   3.065  27.159  1.00  0.00     0.159 C 
ATOM      5  O   UNL     1      81.772   1.865  26.801  1.00  0.00    -0.295 OA
ATOM      6  C   UNL     1      82.210   4.187  26.168  1.00  0.00     0.067 C 
ATOM      7  C   UNL     1      81.230   5.316  26.552  1.00  0.00     0.021 C 
ATOM      8  C   UNL     1      82.255   5.723  27.633  1.00  0.00     0.022 C 
ATOM      9  C   UNL     1      83.357   5.058  26.757  1.00  0.00    -0.019 C 
ATOM     10  C   UNL     1      84.536   4.342  27.475  1.00  0.00     0.012 C 
ATOM     11  C   UNL     1      83.949   6.037  25.711  1.00  0.00     0.012 C 
ENDROOT
TORSDOF 0
ENDMDL
MODEL 7
REMARK VINA RESULT:    -5.083      1.621      2.795
REMARK INTER + INTRA:          -5.083
REMARK INTER:                  -5.083
REMARK INTRA:                   0.000
REMARK UNBOUND:                 0.000
REMARK SMILES CC1=CC(=O)[C@H]2C[C@@H]1C2(C)C
REMARK SMILES IDX 1 1 2 2 3 3 4 4 5 5 6 6 7 7 8 8 9 9 10 10 11 11
REMARK H PARENT
REMARK Flexibility Score: inf
ROOT
ATOM      1  C   UNL     1      84.185   5.782  25.096  1.00  0.00     0.040 C 
ATOM      2  C   UNL     1      83.533   4.939  26.146  1.00  0.00    -0.066 C 
ATOM      3  C   UNL     1      82.934   3.756  25.833  1.00  0.00     0.047 C 
ATOM      4  C   UNL     1      82.288   3.019  26.967  1.00  0.00     0.159 C 
ATOM      5  O   UNL     1      81.670   1.935  26.800  1.00  0.00    -0.295 OA
ATOM      6  C   UNL     1      82.432   3.676  28.340  1.00  0.00     0.067 C 
ATOM      7  C   UNL     1      83.920   4.083  28.410  1.00  0.00     0.021 C 
ATOM      8  C   UNL     1      83.520   5.356  27.631  1.00  0.00     0.022 C 
ATOM      9  C   UNL     1      82.083   5.185  28.205  1.00  0.00    -0.019 C 
ATOM     10  C   UNL     1      80.879   5.589  27.306  1.00  0.00     0.012 C 
ATOM     11  C   UNL     1      81.912   5.877  29.582  1.00  0.00     0.012 C 
ENDROOT
TORSDOF 0
ENDMDL
MODEL 8
REMARK VINA RESULT:    -4.988      2.060      3.489
REMARK INTER + INTRA:          -4.988
REMARK INTER:                  -4.988
REMARK INTRA:                   0.000
REMARK UNBOUND:                 0.000
REMARK SMILES CC1=CC(=O)[C@H]2C[C@@H]1C2(C)C
REMARK SMILES IDX 1 1 2 2 3 3 4 4 5 5 6 6 7 7 8 8 9 9 10 10 11 11
REMARK H PARENT
REMARK Flexibility Score: inf
ROOT
ATOM      1  C   UNL     1      81.539   1.747  26.859  1.00  0.00     0.040 C 
ATOM      2  C   UNL     1      82.116   3.060  27.283  1.00  0.00    -0.066 C 
ATOM      3  C   UNL     1      81.681   3.695  28.407  1.00  0.00     0.047 C 
ATOM      4  C   UNL     1      82.316   5.019  28.709  1.00  0.00     0.159 C 
ATOM      5  O   UNL     1      81.972   5.720  29.695  1.00  0.00    -0.295 OA
ATOM      6  C   UNL     1      83.408   5.458  27.733  1.00  0.00     0.067 C 
ATOM      7  C   UNL     1      84.274   4.194  27.542  1.00  0.00     0.021 C 
ATOM      8  C   UNL     1      83.241   3.750  26.483  1.00  0.00     0.022 C 
ATOM      9  C   UNL     1      82.887   5.252  26.282  1.00  0.00    -0.019 C 
ATOM     10  C   UNL     1      81.409   5.624  25.967  1.00  0.00     0.012 C 
ATOM     11  C   UNL     1      83.794   5.936  25.227  1.00  0.00     0.012 C 
ENDROOT
TORSDOF 0
ENDMDL
MODEL 9
REMARK VINA RESULT:    -4.985      1.702      2.389
REMARK INTER + INTRA:          -4.985
REMARK INTER:                  -4.985
REMARK INTRA:                   0.000
REMARK UNBOUND:                 0.000
REMARK SMILES CC1=CC(=O)[C@H]2C[C@@H]1C2(C)C
REMARK SMILES IDX 1 1 2 2 3 3 4 4 5 5 6 6 7 7 8 8 9 9 10 10 11 11
REMARK H PARENT
REMARK Flexibility Score: inf
ROOT
ATOM      1  C   UNL     1      81.510   4.907  30.482  1.00  0.00     0.040 C 
ATOM      2  C   UNL     1      81.876   5.094  29.043  1.00  0.00    -0.066 C 
ATOM      3  C   UNL     1      80.955   5.496  28.125  1.00  0.00     0.047 C 
ATOM      4  C   UNL     1      81.436   5.617  26.711  1.00  0.00     0.159 C 
ATOM      5  O   UNL     1      80.673   5.942  25.765  1.00  0.00    -0.295 OA
ATOM      6  C   UNL     1      82.921   5.316  26.497  1.00  0.00     0.067 C 
ATOM      7  C   UNL     1      83.628   6.078  27.639  1.00  0.00     0.021 C 
ATOM      8  C   UNL     1      83.313   4.859  28.533  1.00  0.00     0.022 C 
ATOM      9  C   UNL     1      83.268   3.994  27.239  1.00  0.00    -0.019 C 
ATOM     10  C   UNL     1      82.251   2.819  27.174  1.00  0.00     0.012 C 
ATOM     11  C   UNL     1      84.665   3.447  26.847  1.00  0.00     0.012 C 
ENDROOT
TORSDOF 0
ENDMDL
