MODEL 1
REMARK VINA RESULT:    -3.305      0.000      0.000
REMARK INTER + INTRA:         -10.578
REMARK INTER:                  -7.169
REMARK INTRA:                  -3.409
REMARK UNBOUND:                -3.409
REMARK SMILES CCCCCCCCCCCCCCCCCCCCCC(=O)[O-]
REMARK SMILES IDX 12 1 11 2 10 3 9 4 8 5 7 6 6 7 5 8 4 9 3 10 2 11 1 12 13 13
REMARK SMILES IDX 14 14 15 15 16 16 17 17 18 18 19 19 20 20 21 21 22 22 23 23
REMARK SMILES IDX 24 24
REMARK H PARENT
REMARK Flexibility Score: inf
ROOT
ATOM      1  C   UNL     1      30.671  46.124   8.072  1.00  0.00     0.000 C 
ENDROOT
BRANCH   1   2
ATOM      2  C   UNL     1      30.139  46.282   6.637  1.00  0.00     0.000 C 
BRANCH   2   3
ATOM      3  C   UNL     1      28.723  45.703   6.471  1.00  0.00     0.000 C 
BRANCH   3   4
ATOM      4  C   UNL     1      28.267  44.916   7.713  1.00  0.00    -0.000 C 
BRANCH   4   5
ATOM      5  C   UNL     1      26.786  44.515   7.645  1.00  0.00    -0.000 C 
BRANCH   5   6
ATOM      6  C   UNL     1      26.308  44.253   6.207  1.00  0.00    -0.000 C 
BRANCH   6   7
ATOM      7  C   UNL     1      25.911  42.777   5.990  1.00  0.00    -0.000 C 
BRANCH   7   8
ATOM      8  C   UNL     1      25.611  42.019   7.295  1.00  0.00    -0.000 C 
BRANCH   8   9
ATOM      9  C   UNL     1      26.398  40.704   7.415  1.00  0.00    -0.000 C 
BRANCH   9  10
ATOM     10  C   UNL     1      27.840  40.923   7.899  1.00  0.00    -0.000 C 
BRANCH  10  11
ATOM     11  C   UNL     1      28.882  40.573   6.827  1.00  0.00    -0.003 C 
ATOM     12  C   UNL     1      29.508  41.834   6.239  1.00  0.00     0.004 C 
ENDBRANCH  10  11
ENDBRANCH   9  10
ENDBRANCH   8   9
ENDBRANCH   7   8
ENDBRANCH   6   7
ENDBRANCH   5   6
ENDBRANCH   4   5
ENDBRANCH   3   4
ENDBRANCH   2   3
ENDBRANCH   1   2
BRANCH   1  13
ATOM     13  C   UNL     1      31.609  47.270   8.483  1.00  0.00     0.000 C 
BRANCH  13  14
ATOM     14  C   UNL     1      31.996  48.176   7.306  1.00  0.00     0.000 C 
BRANCH  14  15
ATOM     15  C   UNL     1      32.354  49.583   7.800  1.00  0.00     0.000 C 
BRANCH  15  16
ATOM     16  C   UNL     1      31.857  50.660   6.822  1.00  0.00     0.000 C 
BRANCH  16  17
ATOM     17  C   UNL     1      30.331  50.607   6.615  1.00  0.00     0.000 C 
BRANCH  17  18
ATOM     18  C   UNL     1      29.532  51.427   7.643  1.00  0.00     0.000 C 
BRANCH  18  19
ATOM     19  C   UNL     1      28.836  50.537   8.688  1.00  0.00     0.000 C 
BRANCH  19  20
ATOM     20  C   UNL     1      28.375  49.190   8.108  1.00  0.00     0.006 C 
BRANCH  20  21
ATOM     21  C   UNL     1      27.907  48.206   9.189  1.00  0.00     0.053 C 
BRANCH  21  22
ATOM     22  C   UNL     1      26.420  48.038   9.134  1.00  0.00     0.041 C 
ATOM     23  O   UNL     1      25.723  48.793   8.407  1.00  0.00    -0.550 OA
ATOM     24  O   UNL     1      25.802  47.062   9.904  1.00  0.00    -0.550 OA
ENDBRANCH  21  22
ENDBRANCH  20  21
ENDBRANCH  19  20
ENDBRANCH  18  19
ENDBRANCH  17  18
ENDBRANCH  16  17
ENDBRANCH  15  16
ENDBRANCH  14  15
ENDBRANCH  13  14
ENDBRANCH   1  13
TORSDOF 20
ENDMDL
MODEL 2
REMARK VINA RESULT:    -3.254      2.569      7.771
REMARK INTER + INTRA:         -10.469
REMARK INTER:                  -7.571
REMARK INTRA:                  -2.897
REMARK UNBOUND:                -3.409
REMARK SMILES CCCCCCCCCCCCCCCCCCCCCC(=O)[O-]
REMARK SMILES IDX 12 1 11 2 10 3 9 4 8 5 7 6 6 7 5 8 4 9 3 10 2 11 1 12 13 13
REMARK SMILES IDX 14 14 15 15 16 16 17 17 18 18 19 19 20 20 21 21 22 22 23 23
REMARK SMILES IDX 24 24
REMARK H PARENT
REMARK Flexibility Score: inf
ROOT
ATOM      1  C   UNL     1      29.123  47.623   9.182  1.00  0.00     0.000 C 
ENDROOT
BRANCH   1   2
ATOM      2  C   UNL     1      30.120  46.682   8.482  1.00  0.00     0.000 C 
BRANCH   2   3
ATOM      3  C   UNL     1      31.562  47.220   8.528  1.00  0.00     0.000 C 
BRANCH   3   4
ATOM      4  C   UNL     1      31.878  48.141   7.336  1.00  0.00    -0.000 C 
BRANCH   4   5
ATOM      5  C   UNL     1      32.233  49.570   7.773  1.00  0.00    -0.000 C 
BRANCH   5   6
ATOM      6  C   UNL     1      31.550  50.643   6.908  1.00  0.00    -0.000 C 
BRANCH   6   7
ATOM      7  C   UNL     1      30.357  50.070   6.112  1.00  0.00    -0.000 C 
BRANCH   7   8
ATOM      8  C   UNL     1      29.024  50.781   6.400  1.00  0.00    -0.000 C 
BRANCH   8   9
ATOM      9  C   UNL     1      29.114  51.767   7.575  1.00  0.00    -0.000 C 
BRANCH   9  10
ATOM     10  C   UNL     1      27.814  51.831   8.391  1.00  0.00    -0.000 C 
BRANCH  10  11
ATOM     11  C   UNL     1      26.564  51.599   7.528  1.00  0.00    -0.003 C 
ATOM     12  C   UNL     1      25.458  52.586   7.888  1.00  0.00     0.004 C 
ENDBRANCH  10  11
ENDBRANCH   9  10
ENDBRANCH   8   9
ENDBRANCH   7   8
ENDBRANCH   6   7
ENDBRANCH   5   6
ENDBRANCH   4   5
ENDBRANCH   3   4
ENDBRANCH   2   3
ENDBRANCH   1   2
BRANCH   1  13
ATOM     13  C   UNL     1      27.891  47.927   8.315  1.00  0.00     0.000 C 
BRANCH  13  14
ATOM     14  C   UNL     1      26.653  48.296   9.145  1.00  0.00     0.000 C 
BRANCH  14  15
ATOM     15  C   UNL     1      25.449  47.443   8.730  1.00  0.00     0.000 C 
BRANCH  15  16
ATOM     16  C   UNL     1      25.054  46.458   9.841  1.00  0.00     0.000 C 
BRANCH  16  17
ATOM     17  C   UNL     1      25.883  45.160   9.799  1.00  0.00     0.000 C 
BRANCH  17  18
ATOM     18  C   UNL     1      25.989  44.532   8.398  1.00  0.00     0.000 C 
BRANCH  18  19
ATOM     19  C   UNL     1      27.448  44.275   7.981  1.00  0.00     0.000 C 
BRANCH  19  20
ATOM     20  C   UNL     1      27.618  42.968   7.190  1.00  0.00     0.006 C 
BRANCH  20  21
ATOM     21  C   UNL     1      26.540  41.927   7.522  1.00  0.00     0.053 C 
BRANCH  21  22
ATOM     22  C   UNL     1      27.160  40.708   8.130  1.00  0.00     0.041 C 
ATOM     23  O   UNL     1      27.169  39.619   7.497  1.00  0.00    -0.550 OA
ATOM     24  O   UNL     1      27.708  40.768   9.404  1.00  0.00    -0.550 OA
ENDBRANCH  21  22
ENDBRANCH  20  21
ENDBRANCH  19  20
ENDBRANCH  18  19
ENDBRANCH  17  18
ENDBRANCH  16  17
ENDBRANCH  15  16
ENDBRANCH  14  15
ENDBRANCH  13  14
ENDBRANCH   1  13
TORSDOF 20
ENDMDL
MODEL 3
REMARK VINA RESULT:    -3.186      3.019      4.270
REMARK INTER + INTRA:         -10.321
REMARK INTER:                  -6.759
REMARK INTRA:                  -3.561
REMARK UNBOUND:                -3.409
REMARK SMILES CCCCCCCCCCCCCCCCCCCCCC(=O)[O-]
REMARK SMILES IDX 12 1 11 2 10 3 9 4 8 5 7 6 6 7 5 8 4 9 3 10 2 11 1 12 13 13
REMARK SMILES IDX 14 14 15 15 16 16 17 17 18 18 19 19 20 20 21 21 22 22 23 23
REMARK SMILES IDX 24 24
REMARK H PARENT
REMARK Flexibility Score: inf
ROOT
ATOM      1  C   UNL     1      31.211  46.842   8.892  1.00  0.00     0.000 C 
ENDROOT
BRANCH   1   2
ATOM      2  C   UNL     1      29.697  46.866   8.616  1.00  0.00     0.000 C 
BRANCH   2   3
ATOM      3  C   UNL     1      28.977  47.976   9.402  1.00  0.00     0.000 C 
BRANCH   3   4
ATOM      4  C   UNL     1      28.363  49.041   8.475  1.00  0.00    -0.000 C 
BRANCH   4   5
ATOM      5  C   UNL     1      26.832  48.943   8.399  1.00  0.00    -0.000 C 
BRANCH   5   6
ATOM      6  C   UNL     1      26.309  48.926   6.953  1.00  0.00    -0.000 C 
BRANCH   6   7
ATOM      7  C   UNL     1      25.591  47.603   6.613  1.00  0.00    -0.000 C 
BRANCH   7   8
ATOM      8  C   UNL     1      26.545  46.467   6.210  1.00  0.00    -0.000 C 
BRANCH   8   9
ATOM      9  C   UNL     1      26.688  45.393   7.300  1.00  0.00    -0.000 C 
BRANCH   9  10
ATOM     10  C   UNL     1      25.494  45.373   8.267  1.00  0.00    -0.000 C 
BRANCH  10  11
ATOM     11  C   UNL     1      25.928  45.369   9.740  1.00  0.00    -0.003 C 
ATOM     12  C   UNL     1      25.157  46.413  10.542  1.00  0.00     0.004 C 
ENDBRANCH  10  11
ENDBRANCH   9  10
ENDBRANCH   8   9
ENDBRANCH   7   8
ENDBRANCH   6   7
ENDBRANCH   5   6
ENDBRANCH   4   5
ENDBRANCH   3   4
ENDBRANCH   2   3
ENDBRANCH   1   2
BRANCH   1  13
ATOM     13  C   UNL     1      31.977  47.891   8.070  1.00  0.00     0.000 C 
BRANCH  13  14
ATOM     14  C   UNL     1      31.468  48.007   6.626  1.00  0.00     0.000 C 
BRANCH  14  15
ATOM     15  C   UNL     1      31.523  49.462   6.148  1.00  0.00     0.000 C 
BRANCH  15  16
ATOM     16  C   UNL     1      31.777  50.425   7.319  1.00  0.00     0.000 C 
BRANCH  16  17
ATOM     17  C   UNL     1      30.843  51.650   7.288  1.00  0.00     0.000 C 
BRANCH  17  18
ATOM     18  C   UNL     1      29.678  51.521   6.290  1.00  0.00     0.000 C 
BRANCH  18  19
ATOM     19  C   UNL     1      28.784  52.773   6.270  1.00  0.00     0.000 C 
BRANCH  19  20
ATOM     20  C   UNL     1      27.340  52.480   6.709  1.00  0.00     0.006 C 
BRANCH  20  21
ATOM     21  C   UNL     1      27.136  52.631   8.222  1.00  0.00     0.053 C 
BRANCH  21  22
ATOM     22  C   UNL     1      26.045  53.615   8.507  1.00  0.00     0.041 C 
ATOM     23  O   UNL     1      25.069  53.726   7.719  1.00  0.00    -0.550 OA
ATOM     24  O   UNL     1      26.116  54.425   9.632  1.00  0.00    -0.550 OA
ENDBRANCH  21  22
ENDBRANCH  20  21
ENDBRANCH  19  20
ENDBRANCH  18  19
ENDBRANCH  17  18
ENDBRANCH  16  17
ENDBRANCH  15  16
ENDBRANCH  14  15
ENDBRANCH  13  14
ENDBRANCH   1  13
TORSDOF 20
ENDMDL
MODEL 4
REMARK VINA RESULT:    -3.170      1.801      3.203
REMARK INTER + INTRA:         -10.286
REMARK INTER:                  -7.093
REMARK INTRA:                  -3.192
REMARK UNBOUND:                -3.409
REMARK SMILES CCCCCCCCCCCCCCCCCCCCCC(=O)[O-]
REMARK SMILES IDX 12 1 11 2 10 3 9 4 8 5 7 6 6 7 5 8 4 9 3 10 2 11 1 12 13 13
REMARK SMILES IDX 14 14 15 15 16 16 17 17 18 18 19 19 20 20 21 21 22 22 23 23
REMARK SMILES IDX 24 24
REMARK H PARENT
REMARK Flexibility Score: inf
ROOT
ATOM      1  C   UNL     1      28.347  47.781   9.208  1.00  0.00     0.000 C 
ENDROOT
BRANCH   1   2
ATOM      2  C   UNL     1      26.814  47.648   9.238  1.00  0.00     0.000 C 
BRANCH   2   3
ATOM      3  C   UNL     1      26.358  46.229   9.620  1.00  0.00     0.000 C 
BRANCH   3   4
ATOM      4  C   UNL     1      25.212  45.724   8.725  1.00  0.00    -0.000 C 
BRANCH   4   5
ATOM      5  C   UNL     1      24.971  46.632   7.510  1.00  0.00    -0.000 C 
BRANCH   5   6
ATOM      6  C   UNL     1      25.485  46.016   6.198  1.00  0.00    -0.000 C 
BRANCH   6   7
ATOM      7  C   UNL     1      25.868  44.531   6.367  1.00  0.00    -0.000 C 
BRANCH   7   8
ATOM      8  C   UNL     1      27.336  44.227   6.022  1.00  0.00    -0.000 C 
BRANCH   8   9
ATOM      9  C   UNL     1      28.028  43.352   7.079  1.00  0.00    -0.000 C 
BRANCH   9  10
ATOM     10  C   UNL     1      27.026  42.624   7.988  1.00  0.00    -0.000 C 
BRANCH  10  11
ATOM     11  C   UNL     1      27.306  41.117   8.086  1.00  0.00    -0.003 C 
ATOM     12  C   UNL     1      28.472  40.716   7.188  1.00  0.00     0.004 C 
ENDBRANCH  10  11
ENDBRANCH   9  10
ENDBRANCH   8   9
ENDBRANCH   7   8
ENDBRANCH   6   7
ENDBRANCH   5   6
ENDBRANCH   4   5
ENDBRANCH   3   4
ENDBRANCH   2   3
ENDBRANCH   1   2
BRANCH   1  13
ATOM     13  C   UNL     1      28.959  47.260   7.899  1.00  0.00     0.000 C 
BRANCH  13  14
ATOM     14  C   UNL     1      30.047  46.201   8.128  1.00  0.00     0.000 C 
BRANCH  14  15
ATOM     15  C   UNL     1      31.416  46.864   8.322  1.00  0.00     0.000 C 
BRANCH  15  16
ATOM     16  C   UNL     1      31.635  47.998   7.308  1.00  0.00     0.000 C 
BRANCH  16  17
ATOM     17  C   UNL     1      32.257  49.252   7.953  1.00  0.00     0.000 C 
BRANCH  17  18
ATOM     18  C   UNL     1      32.181  50.511   7.070  1.00  0.00     0.000 C 
BRANCH  18  19
ATOM     19  C   UNL     1      31.044  50.432   6.036  1.00  0.00     0.000 C 
BRANCH  19  20
ATOM     20  C   UNL     1      29.931  51.459   6.297  1.00  0.00     0.006 C 
BRANCH  20  21
ATOM     21  C   UNL     1      28.724  50.855   7.027  1.00  0.00     0.053 C 
BRANCH  21  22
ATOM     22  C   UNL     1      28.595  51.441   8.399  1.00  0.00     0.041 C 
ATOM     23  O   UNL     1      27.694  52.286   8.645  1.00  0.00    -0.550 OA
ATOM     24  O   UNL     1      29.482  51.070   9.400  1.00  0.00    -0.550 OA
ENDBRANCH  21  22
ENDBRANCH  20  21
ENDBRANCH  19  20
ENDBRANCH  18  19
ENDBRANCH  17  18
ENDBRANCH  16  17
ENDBRANCH  15  16
ENDBRANCH  14  15
ENDBRANCH  13  14
ENDBRANCH   1  13
TORSDOF 20
ENDMDL
MODEL 5
REMARK VINA RESULT:    -3.145      2.340      3.644
REMARK INTER + INTRA:         -10.232
REMARK INTER:                  -6.913
REMARK INTRA:                  -3.320
REMARK UNBOUND:                -3.409
REMARK SMILES CCCCCCCCCCCCCCCCCCCCCC(=O)[O-]
REMARK SMILES IDX 12 1 11 2 10 3 9 4 8 5 7 6 6 7 5 8 4 9 3 10 2 11 1 12 13 13
REMARK SMILES IDX 14 14 15 15 16 16 17 17 18 18 19 19 20 20 21 21 22 22 23 23
REMARK SMILES IDX 24 24
REMARK H PARENT
REMARK Flexibility Score: inf
ROOT
ATOM      1  C   UNL     1      31.619  47.152   8.416  1.00  0.00     0.000 C 
ENDROOT
BRANCH   1   2
ATOM      2  C   UNL     1      30.225  46.510   8.297  1.00  0.00     0.000 C 
BRANCH   2   3
ATOM      3  C   UNL     1      29.495  46.934   7.011  1.00  0.00     0.000 C 
BRANCH   3   4
ATOM      4  C   UNL     1      28.273  47.823   7.301  1.00  0.00    -0.000 C 
BRANCH   4   5
ATOM      5  C   UNL     1      28.103  48.119   8.799  1.00  0.00    -0.000 C 
BRANCH   5   6
ATOM      6  C   UNL     1      26.657  47.913   9.284  1.00  0.00    -0.000 C 
BRANCH   6   7
ATOM      7  C   UNL     1      25.745  47.363   8.167  1.00  0.00    -0.000 C 
BRANCH   7   8
ATOM      8  C   UNL     1      25.201  45.953   8.451  1.00  0.00    -0.000 C 
BRANCH   8   9
ATOM      9  C   UNL     1      26.264  45.009   9.036  1.00  0.00    -0.000 C 
BRANCH   9  10
ATOM     10  C   UNL     1      27.016  44.225   7.950  1.00  0.00    -0.000 C 
BRANCH  10  11
ATOM     11  C   UNL     1      27.001  42.709   8.200  1.00  0.00    -0.003 C 
ATOM     12  C   UNL     1      25.893  42.032   7.399  1.00  0.00     0.004 C 
ENDBRANCH  10  11
ENDBRANCH   9  10
ENDBRANCH   8   9
ENDBRANCH   7   8
ENDBRANCH   6   7
ENDBRANCH   5   6
ENDBRANCH   4   5
ENDBRANCH   3   4
ENDBRANCH   2   3
ENDBRANCH   1   2
BRANCH   1  13
ATOM     13  C   UNL     1      31.866  48.229   7.349  1.00  0.00     0.000 C 
BRANCH  13  14
ATOM     14  C   UNL     1      32.385  49.547   7.940  1.00  0.00     0.000 C 
BRANCH  14  15
ATOM     15  C   UNL     1      31.448  50.707   7.584  1.00  0.00     0.000 C 
BRANCH  15  16
ATOM     16  C   UNL     1      30.748  50.465   6.237  1.00  0.00     0.000 C 
BRANCH  16  17
ATOM     17  C   UNL     1      29.341  51.091   6.184  1.00  0.00     0.000 C 
BRANCH  17  18
ATOM     18  C   UNL     1      29.074  52.122   7.296  1.00  0.00     0.000 C 
BRANCH  18  19
ATOM     19  C   UNL     1      27.949  51.678   8.247  1.00  0.00     0.000 C 
BRANCH  19  20
ATOM     20  C   UNL     1      26.629  51.391   7.513  1.00  0.00     0.006 C 
BRANCH  20  21
ATOM     21  C   UNL     1      25.449  52.194   8.075  1.00  0.00     0.053 C 
BRANCH  21  22
ATOM     22  C   UNL     1      25.744  53.661   8.027  1.00  0.00     0.041 C 
ATOM     23  O   UNL     1      25.911  54.239   6.921  1.00  0.00    -0.550 OA
ATOM     24  O   UNL     1      25.856  54.387   9.206  1.00  0.00    -0.550 OA
ENDBRANCH  21  22
ENDBRANCH  20  21
ENDBRANCH  19  20
ENDBRANCH  18  19
ENDBRANCH  17  18
ENDBRANCH  16  17
ENDBRANCH  15  16
ENDBRANCH  14  15
ENDBRANCH  13  14
ENDBRANCH   1  13
TORSDOF 20
ENDMDL
MODEL 6
REMARK VINA RESULT:    -3.092      2.087      4.327
REMARK INTER + INTRA:         -10.116
REMARK INTER:                  -6.960
REMARK INTRA:                  -3.156
REMARK UNBOUND:                -3.409
REMARK SMILES CCCCCCCCCCCCCCCCCCCCCC(=O)[O-]
REMARK SMILES IDX 12 1 11 2 10 3 9 4 8 5 7 6 6 7 5 8 4 9 3 10 2 11 1 12 13 13
REMARK SMILES IDX 14 14 15 15 16 16 17 17 18 18 19 19 20 20 21 21 22 22 23 23
REMARK SMILES IDX 24 24
REMARK H PARENT
REMARK Flexibility Score: inf
ROOT
ATOM      1  C   UNL     1      30.090  45.839   7.132  1.00  0.00     0.000 C 
ENDROOT
BRANCH   1   2
ATOM      2  C   UNL     1      29.871  44.506   6.393  1.00  0.00     0.000 C 
BRANCH   2   3
ATOM      3  C   UNL     1      28.499  43.883   6.706  1.00  0.00     0.000 C 
BRANCH   3   4
ATOM      4  C   UNL     1      27.335  44.805   6.300  1.00  0.00    -0.000 C 
BRANCH   4   5
ATOM      5  C   UNL     1      26.210  44.827   7.345  1.00  0.00    -0.000 C 
BRANCH   5   6
ATOM      6  C   UNL     1      26.739  44.770   8.788  1.00  0.00    -0.000 C 
BRANCH   6   7
ATOM      7  C   UNL     1      26.045  45.803   9.700  1.00  0.00    -0.000 C 
BRANCH   7   8
ATOM      8  C   UNL     1      25.249  46.871   8.930  1.00  0.00    -0.000 C 
BRANCH   8   9
ATOM      9  C   UNL     1      25.983  48.219   8.848  1.00  0.00    -0.000 C 
BRANCH   9  10
ATOM     10  C   UNL     1      26.684  48.425   7.496  1.00  0.00    -0.000 C 
BRANCH  10  11
ATOM     11  C   UNL     1      28.191  48.680   7.646  1.00  0.00    -0.003 C 
ATOM     12  C   UNL     1      28.590  48.764   9.117  1.00  0.00     0.004 C 
ENDBRANCH  10  11
ENDBRANCH   9  10
ENDBRANCH   8   9
ENDBRANCH   7   8
ENDBRANCH   6   7
ENDBRANCH   5   6
ENDBRANCH   4   5
ENDBRANCH   3   4
ENDBRANCH   2   3
ENDBRANCH   1   2
BRANCH   1  13
ATOM     13  C   UNL     1      31.286  45.790   8.095  1.00  0.00     0.000 C 
BRANCH  13  14
ATOM     14  C   UNL     1      31.690  47.176   8.617  1.00  0.00     0.000 C 
BRANCH  14  15
ATOM     15  C   UNL     1      31.914  48.149   7.452  1.00  0.00     0.000 C 
BRANCH  15  16
ATOM     16  C   UNL     1      32.215  49.568   7.962  1.00  0.00     0.000 C 
BRANCH  16  17
ATOM     17  C   UNL     1      32.204  50.614   6.831  1.00  0.00     0.000 C 
BRANCH  17  18
ATOM     18  C   UNL     1      30.836  50.777   6.145  1.00  0.00     0.000 C 
BRANCH  18  19
ATOM     19  C   UNL     1      30.231  52.174   6.372  1.00  0.00     0.000 C 
BRANCH  19  20
ATOM     20  C   UNL     1      29.017  52.149   7.314  1.00  0.00     0.006 C 
BRANCH  20  21
ATOM     21  C   UNL     1      27.704  52.502   6.602  1.00  0.00     0.053 C 
BRANCH  21  22
ATOM     22  C   UNL     1      26.630  52.800   7.601  1.00  0.00     0.041 C 
ATOM     23  O   UNL     1      26.402  53.988   7.952  1.00  0.00    -0.550 OA
ATOM     24  O   UNL     1      25.896  51.764   8.162  1.00  0.00    -0.550 OA
ENDBRANCH  21  22
ENDBRANCH  20  21
ENDBRANCH  19  20
ENDBRANCH  18  19
ENDBRANCH  17  18
ENDBRANCH  16  17
ENDBRANCH  15  16
ENDBRANCH  14  15
ENDBRANCH  13  14
ENDBRANCH   1  13
TORSDOF 20
ENDMDL
MODEL 7
REMARK VINA RESULT:    -3.072      1.966      4.164
REMARK INTER + INTRA:         -10.073
REMARK INTER:                  -6.888
REMARK INTRA:                  -3.184
REMARK UNBOUND:                -3.409
REMARK SMILES CCCCCCCCCCCCCCCCCCCCCC(=O)[O-]
REMARK SMILES IDX 12 1 11 2 10 3 9 4 8 5 7 6 6 7 5 8 4 9 3 10 2 11 1 12 13 13
REMARK SMILES IDX 14 14 15 15 16 16 17 17 18 18 19 19 20 20 21 21 22 22 23 23
REMARK SMILES IDX 24 24
REMARK H PARENT
REMARK Flexibility Score: inf
ROOT
ATOM      1  C   UNL     1      26.537  47.882   9.262  1.00  0.00     0.000 C 
ENDROOT
BRANCH   1   2
ATOM      2  C   UNL     1      25.536  46.734   9.034  1.00  0.00     0.000 C 
BRANCH   2   3
ATOM      3  C   UNL     1      26.010  45.412   9.664  1.00  0.00     0.000 C 
BRANCH   3   4
ATOM      4  C   UNL     1      26.311  44.338   8.604  1.00  0.00    -0.000 C 
BRANCH   4   5
ATOM      5  C   UNL     1      25.415  44.467   7.364  1.00  0.00    -0.000 C 
BRANCH   5   6
ATOM      6  C   UNL     1      26.167  44.172   6.054  1.00  0.00    -0.000 C 
BRANCH   6   7
ATOM      7  C   UNL     1      26.650  42.708   5.982  1.00  0.00    -0.000 C 
BRANCH   7   8
ATOM      8  C   UNL     1      28.168  42.547   6.171  1.00  0.00    -0.000 C 
BRANCH   8   9
ATOM      9  C   UNL     1      28.547  41.226   6.857  1.00  0.00    -0.000 C 
BRANCH   9  10
ATOM     10  C   UNL     1      27.357  40.261   6.976  1.00  0.00    -0.000 C 
BRANCH  10  11
ATOM     11  C   UNL     1      26.824  40.157   8.413  1.00  0.00    -0.003 C 
ATOM     12  C   UNL     1      26.210  38.784   8.672  1.00  0.00     0.004 C 
ENDBRANCH  10  11
ENDBRANCH   9  10
ENDBRANCH   8   9
ENDBRANCH   7   8
ENDBRANCH   6   7
ENDBRANCH   5   6
ENDBRANCH   4   5
ENDBRANCH   3   4
ENDBRANCH   2   3
ENDBRANCH   1   2
BRANCH   1  13
ATOM     13  C   UNL     1      26.745  48.741   8.005  1.00  0.00     0.000 C 
BRANCH  13  14
ATOM     14  C   UNL     1      26.990  47.903   6.742  1.00  0.00     0.000 C 
BRANCH  14  15
ATOM     15  C   UNL     1      28.493  47.711   6.503  1.00  0.00     0.000 C 
BRANCH  15  16
ATOM     16  C   UNL     1      28.866  46.220   6.472  1.00  0.00     0.000 C 
BRANCH  16  17
ATOM     17  C   UNL     1      29.672  45.789   7.713  1.00  0.00     0.000 C 
BRANCH  17  18
ATOM     18  C   UNL     1      30.106  46.960   8.612  1.00  0.00     0.000 C 
BRANCH  18  19
ATOM     19  C   UNL     1      31.613  47.253   8.504  1.00  0.00     0.000 C 
BRANCH  19  20
ATOM     20  C   UNL     1      31.956  48.177   7.325  1.00  0.00     0.006 C 
BRANCH  20  21
ATOM     21  C   UNL     1      32.160  49.637   7.754  1.00  0.00     0.053 C 
BRANCH  21  22
ATOM     22  C   UNL     1      30.903  50.423   7.550  1.00  0.00     0.041 C 
ATOM     23  O   UNL     1      30.695  51.014   6.458  1.00  0.00    -0.550 OA
ATOM     24  O   UNL     1      29.970  50.521   8.574  1.00  0.00    -0.550 OA
ENDBRANCH  21  22
ENDBRANCH  20  21
ENDBRANCH  19  20
ENDBRANCH  18  19
ENDBRANCH  17  18
ENDBRANCH  16  17
ENDBRANCH  15  16
ENDBRANCH  14  15
ENDBRANCH  13  14
ENDBRANCH   1  13
TORSDOF 20
ENDMDL
MODEL 8
REMARK VINA RESULT:    -3.066      2.431      7.048
REMARK INTER + INTRA:         -10.060
REMARK INTER:                  -6.570
REMARK INTRA:                  -3.490
REMARK UNBOUND:                -3.409
REMARK SMILES CCCCCCCCCCCCCCCCCCCCCC(=O)[O-]
REMARK SMILES IDX 12 1 11 2 10 3 9 4 8 5 7 6 6 7 5 8 4 9 3 10 2 11 1 12 13 13
REMARK SMILES IDX 14 14 15 15 16 16 17 17 18 18 19 19 20 20 21 21 22 22 23 23
REMARK SMILES IDX 24 24
REMARK H PARENT
REMARK Flexibility Score: inf
ROOT
ATOM      1  C   UNL     1      27.560  47.444   8.973  1.00  0.00     0.000 C 
ENDROOT
BRANCH   1   2
ATOM      2  C   UNL     1      28.458  48.667   9.235  1.00  0.00     0.000 C 
BRANCH   2   3
ATOM      3  C   UNL     1      28.135  49.841   8.293  1.00  0.00     0.000 C 
BRANCH   3   4
ATOM      4  C   UNL     1      28.289  49.457   6.810  1.00  0.00    -0.000 C 
BRANCH   4   5
ATOM      5  C   UNL     1      28.952  50.567   5.981  1.00  0.00    -0.000 C 
BRANCH   5   6
ATOM      6  C   UNL     1      30.136  51.225   6.709  1.00  0.00    -0.000 C 
BRANCH   6   7
ATOM      7  C   UNL     1      31.453  50.450   6.489  1.00  0.00    -0.000 C 
BRANCH   7   8
ATOM      8  C   UNL     1      31.861  49.573   7.685  1.00  0.00    -0.000 C 
BRANCH   8   9
ATOM      9  C   UNL     1      32.006  48.089   7.314  1.00  0.00    -0.000 C 
BRANCH   9  10
ATOM     10  C   UNL     1      31.622  47.153   8.471  1.00  0.00    -0.000 C 
BRANCH  10  11
ATOM     11  C   UNL     1      30.808  45.938   8.001  1.00  0.00    -0.003 C 
ATOM     12  C   UNL     1      30.116  46.222   6.672  1.00  0.00     0.004 C 
ENDBRANCH  10  11
ENDBRANCH   9  10
ENDBRANCH   8   9
ENDBRANCH   7   8
ENDBRANCH   6   7
ENDBRANCH   5   6
ENDBRANCH   4   5
ENDBRANCH   3   4
ENDBRANCH   2   3
ENDBRANCH   1   2
BRANCH   1  13
ATOM     13  C   UNL     1      26.173  47.581   9.620  1.00  0.00     0.000 C 
BRANCH  13  14
ATOM     14  C   UNL     1      25.044  47.041   8.731  1.00  0.00     0.000 C 
BRANCH  14  15
ATOM     15  C   UNL     1      24.951  47.843   7.427  1.00  0.00     0.000 C 
BRANCH  15  16
ATOM     16  C   UNL     1      25.313  46.973   6.212  1.00  0.00     0.000 C 
BRANCH  16  17
ATOM     17  C   UNL     1      25.370  45.473   6.558  1.00  0.00     0.000 C 
BRANCH  17  18
ATOM     18  C   UNL     1      26.750  44.831   6.330  1.00  0.00     0.000 C 
BRANCH  18  19
ATOM     19  C   UNL     1      27.206  43.984   7.531  1.00  0.00     0.000 C 
BRANCH  19  20
ATOM     20  C   UNL     1      27.783  42.622   7.112  1.00  0.00     0.006 C 
BRANCH  20  21
ATOM     21  C   UNL     1      26.722  41.513   7.076  1.00  0.00     0.053 C 
BRANCH  21  22
ATOM     22  C   UNL     1      26.990  40.498   8.144  1.00  0.00     0.041 C 
ATOM     23  O   UNL     1      27.636  40.819   9.176  1.00  0.00    -0.550 OA
ATOM     24  O   UNL     1      26.545  39.192   7.989  1.00  0.00    -0.550 OA
ENDBRANCH  21  22
ENDBRANCH  20  21
ENDBRANCH  19  20
ENDBRANCH  18  19
ENDBRANCH  17  18
ENDBRANCH  16  17
ENDBRANCH  15  16
ENDBRANCH  14  15
ENDBRANCH  13  14
ENDBRANCH   1  13
TORSDOF 20
ENDMDL
MODEL 9
REMARK VINA RESULT:    -3.033      2.471      7.945
REMARK INTER + INTRA:          -9.989
REMARK INTER:                  -7.190
REMARK INTRA:                  -2.799
REMARK UNBOUND:                -3.409
REMARK SMILES CCCCCCCCCCCCCCCCCCCCCC(=O)[O-]
REMARK SMILES IDX 12 1 11 2 10 3 9 4 8 5 7 6 6 7 5 8 4 9 3 10 2 11 1 12 13 13
REMARK SMILES IDX 14 14 15 15 16 16 17 17 18 18 19 19 20 20 21 21 22 22 23 23
REMARK SMILES IDX 24 24
REMARK H PARENT
REMARK Flexibility Score: inf
ROOT
ATOM      1  C   UNL     1      27.105  48.323   9.224  1.00  0.00     0.000 C 
ENDROOT
BRANCH   1   2
ATOM      2  C   UNL     1      28.378  47.465   9.115  1.00  0.00     0.000 C 
BRANCH   2   3
ATOM      3  C   UNL     1      28.723  47.112   7.658  1.00  0.00     0.000 C 
BRANCH   3   4
ATOM      4  C   UNL     1      30.098  46.432   7.533  1.00  0.00    -0.000 C 
BRANCH   4   5
ATOM      5  C   UNL     1      31.136  47.023   8.498  1.00  0.00    -0.000 C 
BRANCH   5   6
ATOM      6  C   UNL     1      31.955  48.162   7.866  1.00  0.00    -0.000 C 
BRANCH   6   7
ATOM      7  C   UNL     1      31.712  48.273   6.346  1.00  0.00    -0.000 C 
BRANCH   7   8
ATOM      8  C   UNL     1      31.288  49.679   5.888  1.00  0.00    -0.000 C 
BRANCH   8   9
ATOM      9  C   UNL     1      31.702  50.779   6.879  1.00  0.00    -0.000 C 
BRANCH   9  10
ATOM     10  C   UNL     1      30.519  51.663   7.304  1.00  0.00    -0.000 C 
BRANCH  10  11
ATOM     11  C   UNL     1      29.560  50.944   8.265  1.00  0.00    -0.003 C 
ATOM     12  C   UNL     1      28.262  51.727   8.432  1.00  0.00     0.004 C 
ENDBRANCH  10  11
ENDBRANCH   9  10
ENDBRANCH   8   9
ENDBRANCH   7   8
ENDBRANCH   6   7
ENDBRANCH   5   6
ENDBRANCH   4   5
ENDBRANCH   3   4
ENDBRANCH   2   3
ENDBRANCH   1   2
BRANCH   1  13
ATOM     13  C   UNL     1      25.822  47.477   9.221  1.00  0.00     0.000 C 
BRANCH  13  14
ATOM     14  C   UNL     1      25.989  46.137   9.952  1.00  0.00     0.000 C 
BRANCH  14  15
ATOM     15  C   UNL     1      25.564  44.972   9.050  1.00  0.00     0.000 C 
BRANCH  15  16
ATOM     16  C   UNL     1      26.778  44.141   8.604  1.00  0.00     0.000 C 
BRANCH  16  17
ATOM     17  C   UNL     1      26.845  43.973   7.074  1.00  0.00     0.000 C 
BRANCH  17  18
ATOM     18  C   UNL     1      25.528  43.492   6.440  1.00  0.00     0.000 C 
BRANCH  18  19
ATOM     19  C   UNL     1      25.573  42.002   6.056  1.00  0.00     0.000 C 
BRANCH  19  20
ATOM     20  C   UNL     1      25.247  41.074   7.237  1.00  0.00     0.006 C 
BRANCH  20  21
ATOM     21  C   UNL     1      26.283  39.957   7.419  1.00  0.00     0.053 C 
BRANCH  21  22
ATOM     22  C   UNL     1      27.554  40.509   7.984  1.00  0.00     0.041 C 
ATOM     23  O   UNL     1      28.551  40.698   7.237  1.00  0.00    -0.550 OA
ATOM     24  O   UNL     1      27.647  40.795   9.339  1.00  0.00    -0.550 OA
ENDBRANCH  21  22
ENDBRANCH  20  21
ENDBRANCH  19  20
ENDBRANCH  18  19
ENDBRANCH  17  18
ENDBRANCH  16  17
ENDBRANCH  15  16
ENDBRANCH  14  15
ENDBRANCH  13  14
ENDBRANCH   1  13
TORSDOF 20
ENDMDL
