MODEL 1
REMARK VINA RESULT:    -7.049      0.000      0.000
REMARK INTER + INTRA:          -9.518
REMARK INTER:                  -8.903
REMARK INTRA:                  -0.615
REMARK UNBOUND:                -0.615
REMARK SMILES Oc1ccc(CCc2cc(O)cc(O)c2)cc1
REMARK SMILES IDX 6 1 5 2 4 3 3 4 2 5 16 6 17 7 1 8 7 10 8 11 15 12 9 13 13 14
REMARK SMILES IDX 10 15 12 16 14 17 11 19
REMARK H PARENT 1 9 14 18 11 20
REMARK Flexibility Score: inf
ROOT
ATOM      1  C   UNL     1      25.250   0.909  28.607  1.00  0.00     0.040 C 
ENDROOT
BRANCH   1   2
ATOM      2  C   UNL     1      25.130   2.401  28.763  1.00  0.00    -0.047 A 
ATOM      3  C   UNL     1      26.215   3.236  28.446  1.00  0.00     0.007 A 
ATOM      4  C   UNL     1      26.092   4.625  28.559  1.00  0.00     0.046 A 
ATOM      5  C   UNL     1      24.884   5.192  28.979  1.00  0.00     0.115 A 
ATOM      6  C   UNL     1      23.915   2.975  29.170  1.00  0.00     0.007 A 
ATOM      7  C   UNL     1      23.796   4.365  29.283  1.00  0.00     0.046 A 
BRANCH   5   8
ATOM      8  O   UNL     1      24.777   6.577  29.088  1.00  0.00    -0.508 OA
ATOM      9  H   UNL     1      25.523   7.136  29.485  1.00  0.00     0.293 HD
ENDBRANCH   5   8
ENDBRANCH   1   2
BRANCH   1  10
ATOM     10  C   UNL     1      26.473   0.553  27.755  1.00  0.00     0.040 C 
BRANCH  10  11
ATOM     11  C   UNL     1      26.049   0.125  26.376  1.00  0.00    -0.040 A 
ATOM     12  C   UNL     1      24.748  -0.353  26.151  1.00  0.00     0.050 A 
ATOM     13  C   UNL     1      26.968   0.148  25.314  1.00  0.00     0.050 A 
ATOM     14  C   UNL     1      24.362  -0.782  24.874  1.00  0.00     0.119 A 
ATOM     15  C   UNL     1      26.583  -0.282  24.037  1.00  0.00     0.119 A 
ATOM     16  C   UNL     1      25.281  -0.742  23.820  1.00  0.00     0.092 A 
BRANCH  14  17
ATOM     17  O   UNL     1      23.070  -1.250  24.642  1.00  0.00    -0.508 OA
ATOM     18  H   UNL     1      22.831  -1.742  23.789  1.00  0.00     0.293 HD
ENDBRANCH  14  17
BRANCH  15  19
ATOM     19  O   UNL     1      27.488  -0.256  22.977  1.00  0.00    -0.508 OA
ATOM     20  H   UNL     1      27.782  -1.105  22.511  1.00  0.00     0.293 HD
ENDBRANCH  15  19
ENDBRANCH  10  11
ENDBRANCH   1  10
TORSDOF 6
ENDMDL
MODEL 2
REMARK VINA RESULT:    -7.040      0.028      2.031
REMARK INTER + INTRA:          -9.507
REMARK INTER:                  -8.894
REMARK INTRA:                  -0.613
REMARK UNBOUND:                -0.615
REMARK SMILES Oc1ccc(CCc2cc(O)cc(O)c2)cc1
REMARK SMILES IDX 6 1 5 2 4 3 3 4 2 5 16 6 17 7 1 8 7 10 8 11 15 12 9 13 13 14
REMARK SMILES IDX 10 15 12 16 14 17 11 19
REMARK H PARENT 1 9 14 18 11 20
REMARK Flexibility Score: inf
ROOT
ATOM      1  C   UNL     1      25.261   0.914  28.590  1.00  0.00     0.040 C 
ENDROOT
BRANCH   1   2
ATOM      2  C   UNL     1      25.138   2.404  28.765  1.00  0.00    -0.047 A 
ATOM      3  C   UNL     1      26.225   3.243  28.470  1.00  0.00     0.007 A 
ATOM      4  C   UNL     1      26.100   4.630  28.600  1.00  0.00     0.046 A 
ATOM      5  C   UNL     1      24.888   5.191  29.015  1.00  0.00     0.115 A 
ATOM      6  C   UNL     1      23.918   2.972  29.167  1.00  0.00     0.007 A 
ATOM      7  C   UNL     1      23.797   4.359  29.297  1.00  0.00     0.046 A 
BRANCH   5   8
ATOM      8  O   UNL     1      24.779   6.575  29.141  1.00  0.00    -0.508 OA
ATOM      9  H   UNL     1      24.545   7.008  30.027  1.00  0.00     0.293 HD
ENDBRANCH   5   8
ENDBRANCH   1   2
BRANCH   1  10
ATOM     10  C   UNL     1      26.492   0.570  27.746  1.00  0.00     0.040 C 
BRANCH  10  11
ATOM     11  C   UNL     1      26.079   0.091  26.381  1.00  0.00    -0.040 A 
ATOM     12  C   UNL     1      26.986   0.133  25.310  1.00  0.00     0.050 A 
ATOM     13  C   UNL     1      24.765  -0.350  26.153  1.00  0.00     0.050 A 
ATOM     14  C   UNL     1      26.593  -0.283  24.032  1.00  0.00     0.119 A 
ATOM     15  C   UNL     1      24.370  -0.766  24.874  1.00  0.00     0.119 A 
ATOM     16  C   UNL     1      25.286  -0.733  23.818  1.00  0.00     0.092 A 
BRANCH  14  17
ATOM     17  O   UNL     1      27.491  -0.250  22.966  1.00  0.00    -0.508 OA
ATOM     18  H   UNL     1      28.489  -0.340  23.113  1.00  0.00     0.293 HD
ENDBRANCH  14  17
BRANCH  15  19
ATOM     19  O   UNL     1      23.070  -1.211  24.643  1.00  0.00    -0.508 OA
ATOM     20  H   UNL     1      22.265  -0.674  24.942  1.00  0.00     0.293 HD
ENDBRANCH  15  19
ENDBRANCH  10  11
ENDBRANCH   1  10
TORSDOF 6
ENDMDL
MODEL 3
REMARK VINA RESULT:    -6.814      1.532      6.285
REMARK INTER + INTRA:          -9.221
REMARK INTER:                  -8.598
REMARK INTRA:                  -0.624
REMARK UNBOUND:                -0.615
REMARK SMILES Oc1ccc(CCc2cc(O)cc(O)c2)cc1
REMARK SMILES IDX 6 1 5 2 4 3 3 4 2 5 16 6 17 7 1 8 7 10 8 11 15 12 9 13 13 14
REMARK SMILES IDX 10 15 12 16 14 17 11 19
REMARK H PARENT 1 9 14 18 11 20
REMARK Flexibility Score: inf
ROOT
ATOM      1  C   UNL     1      25.643  -0.559  27.573  1.00  0.00     0.040 C 
ENDROOT
BRANCH   1   2
ATOM      2  C   UNL     1      25.763  -0.447  26.077  1.00  0.00    -0.047 A 
ATOM      3  C   UNL     1      26.959   0.007  25.495  1.00  0.00     0.007 A 
ATOM      4  C   UNL     1      27.082   0.080  24.103  1.00  0.00     0.046 A 
ATOM      5  C   UNL     1      26.018  -0.309  23.282  1.00  0.00     0.115 A 
ATOM      6  C   UNL     1      24.704  -0.849  25.249  1.00  0.00     0.007 A 
ATOM      7  C   UNL     1      24.829  -0.775  23.858  1.00  0.00     0.046 A 
BRANCH   5   8
ATOM      8  O   UNL     1      26.155  -0.230  21.898  1.00  0.00    -0.508 OA
ATOM      9  H   UNL     1      25.371   0.008  21.301  1.00  0.00     0.293 HD
ENDBRANCH   5   8
ENDBRANCH   1   2
BRANCH   1  10
ATOM     10  C   UNL     1      26.724   0.278  28.264  1.00  0.00     0.040 C 
BRANCH  10  11
ATOM     11  C   UNL     1      26.227   1.675  28.522  1.00  0.00    -0.040 A 
ATOM     12  C   UNL     1      27.102   2.768  28.427  1.00  0.00     0.050 A 
ATOM     13  C   UNL     1      24.895   1.891  28.915  1.00  0.00     0.050 A 
ATOM     14  C   UNL     1      26.648   4.065  28.698  1.00  0.00     0.119 A 
ATOM     15  C   UNL     1      24.440   3.188  29.187  1.00  0.00     0.119 A 
ATOM     16  C   UNL     1      25.317   4.271  29.074  1.00  0.00     0.092 A 
BRANCH  14  17
ATOM     17  O   UNL     1      27.510   5.156  28.598  1.00  0.00    -0.508 OA
ATOM     18  H   UNL     1      27.529   5.882  29.304  1.00  0.00     0.293 HD
ENDBRANCH  14  17
BRANCH  15  19
ATOM     19  O   UNL     1      23.118   3.410  29.571  1.00  0.00    -0.508 OA
ATOM     20  H   UNL     1      22.434   3.780  28.923  1.00  0.00     0.293 HD
ENDBRANCH  15  19
ENDBRANCH  10  11
ENDBRANCH   1  10
TORSDOF 6
ENDMDL
MODEL 4
REMARK VINA RESULT:    -6.802      1.527      5.966
REMARK INTER + INTRA:          -9.206
REMARK INTER:                  -8.573
REMARK INTRA:                  -0.633
REMARK UNBOUND:                -0.615
REMARK SMILES Oc1ccc(CCc2cc(O)cc(O)c2)cc1
REMARK SMILES IDX 6 1 5 2 4 3 3 4 2 5 16 6 17 7 1 8 7 10 8 11 15 12 9 13 13 14
REMARK SMILES IDX 10 15 12 16 14 17 11 19
REMARK H PARENT 1 9 14 18 11 20
REMARK Flexibility Score: inf
ROOT
ATOM      1  C   UNL     1      25.639  -0.533  27.545  1.00  0.00     0.040 C 
ENDROOT
BRANCH   1   2
ATOM      2  C   UNL     1      25.763  -0.426  26.049  1.00  0.00    -0.047 A 
ATOM      3  C   UNL     1      26.950   0.053  25.469  1.00  0.00     0.007 A 
ATOM      4  C   UNL     1      27.077   0.121  24.078  1.00  0.00     0.046 A 
ATOM      5  C   UNL     1      26.026  -0.297  23.254  1.00  0.00     0.115 A 
ATOM      6  C   UNL     1      24.716  -0.858  25.218  1.00  0.00     0.007 A 
ATOM      7  C   UNL     1      24.846  -0.788  23.827  1.00  0.00     0.046 A 
BRANCH   5   8
ATOM      8  O   UNL     1      26.167  -0.223  21.870  1.00  0.00    -0.508 OA
ATOM      9  H   UNL     1      26.527   0.611  21.419  1.00  0.00     0.293 HD
ENDBRANCH   5   8
ENDBRANCH   1   2
BRANCH   1  10
ATOM     10  C   UNL     1      26.733   0.288  28.236  1.00  0.00     0.040 C 
BRANCH  10  11
ATOM     11  C   UNL     1      26.228   1.666  28.568  1.00  0.00    -0.040 A 
ATOM     12  C   UNL     1      24.890   1.859  28.947  1.00  0.00     0.050 A 
ATOM     13  C   UNL     1      27.078   2.779  28.447  1.00  0.00     0.050 A 
ATOM     14  C   UNL     1      24.412   3.146  29.225  1.00  0.00     0.119 A 
ATOM     15  C   UNL     1      26.600   4.066  28.723  1.00  0.00     0.119 A 
ATOM     16  C   UNL     1      25.269   4.246  29.115  1.00  0.00     0.092 A 
BRANCH  14  17
ATOM     17  O   UNL     1      23.087   3.344  29.609  1.00  0.00    -0.508 OA
ATOM     18  H   UNL     1      22.709   4.274  29.746  1.00  0.00     0.293 HD
ENDBRANCH  14  17
BRANCH  15  19
ATOM     19  O   UNL     1      27.439   5.174  28.611  1.00  0.00    -0.508 OA
ATOM     20  H   UNL     1      27.251   6.033  29.113  1.00  0.00     0.293 HD
ENDBRANCH  15  19
ENDBRANCH  10  11
ENDBRANCH   1  10
TORSDOF 6
ENDMDL
MODEL 5
REMARK VINA RESULT:    -6.560      3.620      6.828
REMARK INTER + INTRA:          -8.900
REMARK INTER:                  -8.228
REMARK INTRA:                  -0.673
REMARK UNBOUND:                -0.615
REMARK SMILES Oc1ccc(CCc2cc(O)cc(O)c2)cc1
REMARK SMILES IDX 6 1 5 2 4 3 3 4 2 5 16 6 17 7 1 8 7 10 8 11 15 12 9 13 13 14
REMARK SMILES IDX 10 15 12 16 14 17 11 19
REMARK H PARENT 1 9 14 18 11 20
REMARK Flexibility Score: inf
ROOT
ATOM      1  C   UNL     1      24.099  -3.418  24.601  1.00  0.00     0.040 C 
ENDROOT
BRANCH   1   2
ATOM      2  C   UNL     1      24.464  -4.072  25.907  1.00  0.00    -0.047 A 
ATOM      3  C   UNL     1      23.459  -4.557  26.760  1.00  0.00     0.007 A 
ATOM      4  C   UNL     1      23.800  -5.194  27.959  1.00  0.00     0.046 A 
ATOM      5  C   UNL     1      25.144  -5.361  28.309  1.00  0.00     0.115 A 
ATOM      6  C   UNL     1      25.811  -4.254  26.255  1.00  0.00     0.007 A 
ATOM      7  C   UNL     1      26.149  -4.890  27.454  1.00  0.00     0.046 A 
BRANCH   5   8
ATOM      8  O   UNL     1      25.468  -5.996  29.506  1.00  0.00    -0.508 OA
ATOM      9  H   UNL     1      26.364  -5.849  29.957  1.00  0.00     0.293 HD
ENDBRANCH   5   8
ENDBRANCH   1   2
BRANCH   1  10
ATOM     10  C   UNL     1      23.661  -1.968  24.828  1.00  0.00     0.040 C 
BRANCH  10  11
ATOM     11  C   UNL     1      24.857  -1.054  24.860  1.00  0.00    -0.040 A 
ATOM     12  C   UNL     1      25.558  -0.764  23.679  1.00  0.00     0.050 A 
ATOM     13  C   UNL     1      25.314  -0.530  26.081  1.00  0.00     0.050 A 
ATOM     14  C   UNL     1      26.691   0.061  23.713  1.00  0.00     0.119 A 
ATOM     15  C   UNL     1      26.447   0.294  26.115  1.00  0.00     0.119 A 
ATOM     16  C   UNL     1      27.130   0.589  24.931  1.00  0.00     0.092 A 
BRANCH  14  17
ATOM     17  O   UNL     1      27.388   0.359  22.544  1.00  0.00    -0.508 OA
ATOM     18  H   UNL     1      27.447  -0.304  21.780  1.00  0.00     0.293 HD
ENDBRANCH  14  17
BRANCH  15  19
ATOM     19  O   UNL     1      26.903   0.823  27.322  1.00  0.00    -0.508 OA
ATOM     20  H   UNL     1      26.644   1.754  27.623  1.00  0.00     0.293 HD
ENDBRANCH  15  19
ENDBRANCH  10  11
ENDBRANCH   1  10
TORSDOF 6
ENDMDL
MODEL 6
REMARK VINA RESULT:    -6.508      7.448     10.153
REMARK INTER + INTRA:          -8.835
REMARK INTER:                  -8.400
REMARK INTRA:                  -0.435
REMARK UNBOUND:                -0.615
REMARK SMILES Oc1ccc(CCc2cc(O)cc(O)c2)cc1
REMARK SMILES IDX 6 1 5 2 4 3 3 4 2 5 16 6 17 7 1 8 7 10 8 11 15 12 9 13 13 14
REMARK SMILES IDX 10 15 12 16 14 17 11 19
REMARK H PARENT 1 9 14 18 11 20
REMARK Flexibility Score: inf
ROOT
ATOM      1  C   UNL     1      20.189  -4.470  27.195  1.00  0.00     0.040 C 
ENDROOT
BRANCH   1   2
ATOM      2  C   UNL     1      21.632  -4.496  26.768  1.00  0.00    -0.047 A 
ATOM      3  C   UNL     1      22.045  -3.793  25.624  1.00  0.00     0.007 A 
ATOM      4  C   UNL     1      23.392  -3.790  25.246  1.00  0.00     0.046 A 
ATOM      5  C   UNL     1      24.339  -4.478  26.013  1.00  0.00     0.115 A 
ATOM      6  C   UNL     1      22.588  -5.173  27.543  1.00  0.00     0.007 A 
ATOM      7  C   UNL     1      23.934  -5.168  27.162  1.00  0.00     0.046 A 
BRANCH   5   8
ATOM      8  O   UNL     1      25.676  -4.466  25.624  1.00  0.00    -0.508 OA
ATOM      9  H   UNL     1      26.242  -3.629  25.699  1.00  0.00     0.293 HD
ENDBRANCH   5   8
ENDBRANCH   1   2
BRANCH   1  10
ATOM     10  C   UNL     1      19.749  -5.852  27.688  1.00  0.00     0.040 C 
BRANCH  10  11
ATOM     11  C   UNL     1      18.433  -6.239  27.069  1.00  0.00    -0.040 A 
ATOM     12  C   UNL     1      18.261  -7.515  26.508  1.00  0.00     0.050 A 
ATOM     13  C   UNL     1      17.383  -5.307  26.997  1.00  0.00     0.050 A 
ATOM     14  C   UNL     1      17.047  -7.864  25.903  1.00  0.00     0.119 A 
ATOM     15  C   UNL     1      16.169  -5.656  26.391  1.00  0.00     0.119 A 
ATOM     16  C   UNL     1      16.003  -6.934  25.849  1.00  0.00     0.092 A 
BRANCH  14  17
ATOM     17  O   UNL     1      16.867  -9.131  25.351  1.00  0.00    -0.508 OA
ATOM     18  H   UNL     1      15.989  -9.629  25.444  1.00  0.00     0.293 HD
ENDBRANCH  14  17
BRANCH  15  19
ATOM     19  O   UNL     1      15.122  -4.739  26.322  1.00  0.00    -0.508 OA
ATOM     20  H   UNL     1      14.694  -4.359  27.157  1.00  0.00     0.293 HD
ENDBRANCH  15  19
ENDBRANCH  10  11
ENDBRANCH   1  10
TORSDOF 6
ENDMDL
MODEL 7
REMARK VINA RESULT:    -6.472      7.440     10.093
REMARK INTER + INTRA:          -8.790
REMARK INTER:                  -8.363
REMARK INTRA:                  -0.427
REMARK UNBOUND:                -0.615
REMARK SMILES Oc1ccc(CCc2cc(O)cc(O)c2)cc1
REMARK SMILES IDX 6 1 5 2 4 3 3 4 2 5 16 6 17 7 1 8 7 10 8 11 15 12 9 13 13 14
REMARK SMILES IDX 10 15 12 16 14 17 11 19
REMARK H PARENT 1 9 14 18 11 20
REMARK Flexibility Score: inf
ROOT
ATOM      1  C   UNL     1      20.224  -4.457  27.128  1.00  0.00     0.040 C 
ENDROOT
BRANCH   1   2
ATOM      2  C   UNL     1      21.680  -4.487  26.748  1.00  0.00    -0.047 A 
ATOM      3  C   UNL     1      22.128  -3.799  25.608  1.00  0.00     0.007 A 
ATOM      4  C   UNL     1      23.487  -3.800  25.273  1.00  0.00     0.046 A 
ATOM      5  C   UNL     1      24.409  -4.478  26.077  1.00  0.00     0.115 A 
ATOM      6  C   UNL     1      22.611  -5.154  27.560  1.00  0.00     0.007 A 
ATOM      7  C   UNL     1      23.968  -5.155  27.222  1.00  0.00     0.046 A 
BRANCH   5   8
ATOM      8  O   UNL     1      25.758  -4.471  25.730  1.00  0.00    -0.508 OA
ATOM      9  H   UNL     1      26.135  -5.129  25.057  1.00  0.00     0.293 HD
ENDBRANCH   5   8
ENDBRANCH   1   2
BRANCH   1  10
ATOM     10  C   UNL     1      19.772  -5.828  27.639  1.00  0.00     0.040 C 
BRANCH  10  11
ATOM     11  C   UNL     1      18.483  -6.239  26.980  1.00  0.00    -0.040 A 
ATOM     12  C   UNL     1      17.402  -5.346  26.919  1.00  0.00     0.050 A 
ATOM     13  C   UNL     1      18.332  -7.539  26.470  1.00  0.00     0.050 A 
ATOM     14  C   UNL     1      16.191  -5.738  26.335  1.00  0.00     0.119 A 
ATOM     15  C   UNL     1      17.121  -7.933  25.886  1.00  0.00     0.119 A 
ATOM     16  C   UNL     1      16.055  -7.031  25.817  1.00  0.00     0.092 A 
BRANCH  14  17
ATOM     17  O   UNL     1      15.116  -4.854  26.264  1.00  0.00    -0.508 OA
ATOM     18  H   UNL     1      14.600  -4.717  25.404  1.00  0.00     0.293 HD
ENDBRANCH  14  17
BRANCH  15  19
ATOM     19  O   UNL     1      16.967  -9.220  25.372  1.00  0.00    -0.508 OA
ATOM     20  H   UNL     1      16.132  -9.764  25.549  1.00  0.00     0.293 HD
ENDBRANCH  15  19
ENDBRANCH  10  11
ENDBRANCH   1  10
TORSDOF 6
ENDMDL
MODEL 8
REMARK VINA RESULT:    -6.451      2.008      6.453
REMARK INTER + INTRA:          -8.763
REMARK INTER:                  -8.242
REMARK INTRA:                  -0.520
REMARK UNBOUND:                -0.615
REMARK SMILES Oc1ccc(CCc2cc(O)cc(O)c2)cc1
REMARK SMILES IDX 6 1 5 2 4 3 3 4 2 5 16 6 17 7 1 8 7 10 8 11 15 12 9 13 13 14
REMARK SMILES IDX 10 15 12 16 14 17 11 19
REMARK H PARENT 1 9 14 18 11 20
REMARK Flexibility Score: inf
ROOT
ATOM      1  C   UNL     1      26.755   0.348  26.311  1.00  0.00     0.040 C 
ENDROOT
BRANCH   1   2
ATOM      2  C   UNL     1      25.909  -0.833  25.920  1.00  0.00    -0.047 A 
ATOM      3  C   UNL     1      26.017  -2.045  26.621  1.00  0.00     0.007 A 
ATOM      4  C   UNL     1      25.206  -3.132  26.279  1.00  0.00     0.046 A 
ATOM      5  C   UNL     1      24.274  -3.016  25.242  1.00  0.00     0.115 A 
ATOM      6  C   UNL     1      24.962  -0.716  24.889  1.00  0.00     0.007 A 
ATOM      7  C   UNL     1      24.153  -1.805  24.548  1.00  0.00     0.046 A 
BRANCH   5   8
ATOM      8  O   UNL     1      23.474  -4.108  24.911  1.00  0.00    -0.508 OA
ATOM      9  H   UNL     1      23.188  -4.283  23.955  1.00  0.00     0.293 HD
ENDBRANCH   5   8
ENDBRANCH   1   2
BRANCH   1  10
ATOM     10  C   UNL     1      26.900   0.426  27.834  1.00  0.00     0.040 C 
BRANCH  10  11
ATOM     11  C   UNL     1      26.379   1.741  28.348  1.00  0.00    -0.040 A 
ATOM     12  C   UNL     1      25.027   1.879  28.699  1.00  0.00     0.050 A 
ATOM     13  C   UNL     1      27.230   2.857  28.427  1.00  0.00     0.050 A 
ATOM     14  C   UNL     1      24.535   3.112  29.147  1.00  0.00     0.119 A 
ATOM     15  C   UNL     1      26.738   4.090  28.874  1.00  0.00     0.119 A 
ATOM     16  C   UNL     1      25.392   4.213  29.235  1.00  0.00     0.092 A 
BRANCH  14  17
ATOM     17  O   UNL     1      23.195   3.254  29.504  1.00  0.00    -0.508 OA
ATOM     18  H   UNL     1      22.740   4.160  29.502  1.00  0.00     0.293 HD
ENDBRANCH  14  17
BRANCH  15  19
ATOM     19  O   UNL     1      27.577   5.199  28.961  1.00  0.00    -0.508 OA
ATOM     20  H   UNL     1      28.165   5.481  28.186  1.00  0.00     0.293 HD
ENDBRANCH  15  19
ENDBRANCH  10  11
ENDBRANCH   1  10
TORSDOF 6
ENDMDL
MODEL 9
REMARK VINA RESULT:    -6.432      2.014      6.753
REMARK INTER + INTRA:          -8.738
REMARK INTER:                  -8.223
REMARK INTRA:                  -0.516
REMARK UNBOUND:                -0.615
REMARK SMILES Oc1ccc(CCc2cc(O)cc(O)c2)cc1
REMARK SMILES IDX 6 1 5 2 4 3 3 4 2 5 16 6 17 7 1 8 7 10 8 11 15 12 9 13 13 14
REMARK SMILES IDX 10 15 12 16 14 17 11 19
REMARK H PARENT 1 9 14 18 11 20
REMARK Flexibility Score: inf
ROOT
ATOM      1  C   UNL     1      26.752   0.238  26.432  1.00  0.00     0.040 C 
ENDROOT
BRANCH   1   2
ATOM      2  C   UNL     1      25.881  -0.915  26.015  1.00  0.00    -0.047 A 
ATOM      3  C   UNL     1      25.996  -2.159  26.659  1.00  0.00     0.007 A 
ATOM      4  C   UNL     1      25.162  -3.221  26.293  1.00  0.00     0.046 A 
ATOM      5  C   UNL     1      24.202  -3.049  25.291  1.00  0.00     0.115 A 
ATOM      6  C   UNL     1      24.906  -0.743  25.020  1.00  0.00     0.007 A 
ATOM      7  C   UNL     1      24.074  -1.808  24.656  1.00  0.00     0.046 A 
BRANCH   5   8
ATOM      8  O   UNL     1      23.380  -4.117  24.937  1.00  0.00    -0.508 OA
ATOM      9  H   UNL     1      23.762  -4.974  24.553  1.00  0.00     0.293 HD
ENDBRANCH   5   8
ENDBRANCH   1   2
BRANCH   1  10
ATOM     10  C   UNL     1      26.770   0.376  27.958  1.00  0.00     0.040 C 
BRANCH  10  11
ATOM     11  C   UNL     1      26.243   1.723  28.373  1.00  0.00    -0.040 A 
ATOM     12  C   UNL     1      27.101   2.833  28.431  1.00  0.00     0.050 A 
ATOM     13  C   UNL     1      24.900   1.869  28.760  1.00  0.00     0.050 A 
ATOM     14  C   UNL     1      26.619   4.080  28.848  1.00  0.00     0.119 A 
ATOM     15  C   UNL     1      24.417   3.116  29.178  1.00  0.00     0.119 A 
ATOM     16  C   UNL     1      25.277   4.218  29.218  1.00  0.00     0.092 A 
BRANCH  14  17
ATOM     17  O   UNL     1      27.463   5.187  28.901  1.00  0.00    -0.508 OA
ATOM     18  H   UNL     1      28.406   5.116  29.265  1.00  0.00     0.293 HD
ENDBRANCH  14  17
BRANCH  15  19
ATOM     19  O   UNL     1      23.085   3.270  29.557  1.00  0.00    -0.508 OA
ATOM     20  H   UNL     1      22.782   4.052  30.124  1.00  0.00     0.293 HD
ENDBRANCH  15  19
ENDBRANCH  10  11
ENDBRANCH   1  10
TORSDOF 6
ENDMDL
