MODEL 1
REMARK VINA RESULT:    -7.274      0.000      0.000
REMARK INTER + INTRA:         -11.075
REMARK INTER:                 -10.251
REMARK INTRA:                  -0.825
REMARK UNBOUND:                -0.825
REMARK SMILES COc1ccc(-c2cc(=O)c3c(OC)c(OC)c(OC)c(OC)c3o2)cc1OC
REMARK SMILES IDX 7 1 8 2 9 3 10 4 11 5 24 6 25 7 21 8 18 9 15 10 12 11 6 12
REMARK SMILES IDX 3 13 27 14 4 15 26 16 5 17 2 18 1 19 28 20 29 21 22 22 23 23
REMARK SMILES IDX 13 24 14 25 19 26 20 27 16 28 17 29
REMARK H PARENT
REMARK Flexibility Score: inf
ROOT
ATOM      1  C   UNL     1     168.746 145.625 153.491  1.00  0.00     0.138 A 
ATOM      2  C   UNL     1     168.285 145.553 154.809  1.00  0.00     0.100 A 
ATOM      3  C   UNL     1     169.134 145.074 155.802  1.00  0.00     0.197 A 
ATOM      4  O   UNL     1     168.712 145.028 156.989  1.00  0.00    -0.289 OA
ATOM      5  C   UNL     1     170.445 144.666 155.467  1.00  0.00     0.115 A 
ATOM      6  C   UNL     1     170.837 144.747 154.107  1.00  0.00     0.188 A 
ATOM      7  O   UNL     1     169.982 145.226 153.205  1.00  0.00    -0.452 OA
ATOM      8  C   UNL     1     172.130 144.325 153.708  1.00  0.00     0.209 A 
ATOM      9  C   UNL     1     173.058 143.916 154.696  1.00  0.00     0.211 A 
ATOM     10  C   UNL     1     172.674 143.873 156.043  1.00  0.00     0.208 A 
ATOM     11  C   UNL     1     171.356 144.179 156.428  1.00  0.00     0.179 A 
ENDROOT
BRANCH   1  12
ATOM     12  C   UNL     1     167.891 146.154 152.402  1.00  0.00     0.021 A 
ATOM     13  C   UNL     1     166.235 147.179 150.361  1.00  0.00     0.160 A 
ATOM     14  C   UNL     1     167.563 146.831 150.073  1.00  0.00     0.161 A 
ATOM     15  C   UNL     1     165.742 147.020 151.669  1.00  0.00     0.051 A 
ATOM     16  C   UNL     1     168.387 146.323 151.098  1.00  0.00     0.062 A 
ATOM     17  C   UNL     1     166.563 146.513 152.676  1.00  0.00     0.016 A 
BRANCH  13  18
ATOM     18  O   UNL     1     165.436 147.682 149.321  1.00  0.00    -0.493 OA
ATOM     19  C   UNL     1     164.056 148.011 149.450  1.00  0.00     0.278 C 
ENDBRANCH  13  18
BRANCH  14  20
ATOM     20  O   UNL     1     168.027 147.005 148.760  1.00  0.00    -0.493 OA
ATOM     21  C   UNL     1     169.282 146.536 148.277  1.00  0.00     0.278 C 
ENDBRANCH  14  20
ENDBRANCH   1  12
BRANCH   8  22
ATOM     22  O   UNL     1     172.531 144.298 152.358  1.00  0.00    -0.490 OA
ATOM     23  C   UNL     1     172.345 143.236 151.427  1.00  0.00     0.278 C 
ENDBRANCH   8  22
BRANCH  11  24
ATOM     24  O   UNL     1     170.942 144.005 157.757  1.00  0.00    -0.492 OA
ATOM     25  C   UNL     1     170.728 142.724 158.339  1.00  0.00     0.278 C 
ENDBRANCH  11  24
BRANCH   9  26
ATOM     26  O   UNL     1     174.390 143.547 154.418  1.00  0.00    -0.490 OA
ATOM     27  C   UNL     1     174.864 142.257 154.051  1.00  0.00     0.279 C 
ENDBRANCH   9  26
BRANCH  10  28
ATOM     28  O   UNL     1     173.641 143.536 156.993  1.00  0.00    -0.490 OA
ATOM     29  C   UNL     1     174.321 144.525 157.760  1.00  0.00     0.278 C 
ENDBRANCH  10  28
TORSDOF 7
ENDMDL
MODEL 2
REMARK VINA RESULT:    -7.003      1.446      3.466
REMARK INTER + INTRA:         -10.693
REMARK INTER:                  -9.926
REMARK INTRA:                  -0.767
REMARK UNBOUND:                -0.825
REMARK SMILES COc1ccc(-c2cc(=O)c3c(OC)c(OC)c(OC)c(OC)c3o2)cc1OC
REMARK SMILES IDX 7 1 8 2 9 3 10 4 11 5 24 6 25 7 21 8 18 9 15 10 12 11 6 12
REMARK SMILES IDX 3 13 27 14 4 15 26 16 5 17 2 18 1 19 28 20 29 21 22 22 23 23
REMARK SMILES IDX 13 24 14 25 19 26 20 27 16 28 17 29
REMARK H PARENT
REMARK Flexibility Score: inf
ROOT
ATOM      1  C   UNL     1     170.497 145.069 152.718  1.00  0.00     0.138 A 
ATOM      2  C   UNL     1     171.448 144.217 152.148  1.00  0.00     0.100 A 
ATOM      3  C   UNL     1     172.450 143.681 152.951  1.00  0.00     0.197 A 
ATOM      4  O   UNL     1     173.293 142.903 152.428  1.00  0.00    -0.289 OA
ATOM      5  C   UNL     1     172.495 144.005 154.326  1.00  0.00     0.115 A 
ATOM      6  C   UNL     1     171.511 144.892 154.830  1.00  0.00     0.188 A 
ATOM      7  O   UNL     1     170.571 145.362 154.013  1.00  0.00    -0.452 OA
ATOM      8  C   UNL     1     171.524 145.275 156.195  1.00  0.00     0.209 A 
ATOM      9  C   UNL     1     172.469 144.684 157.069  1.00  0.00     0.211 A 
ATOM     10  C   UNL     1     173.416 143.780 156.569  1.00  0.00     0.208 A 
ATOM     11  C   UNL     1     173.480 143.489 155.195  1.00  0.00     0.179 A 
ENDROOT
BRANCH   1  12
ATOM     12  C   UNL     1     169.393 145.644 151.912  1.00  0.00     0.021 A 
ATOM     13  C   UNL     1     167.271 146.753 150.420  1.00  0.00     0.160 A 
ATOM     14  C   UNL     1     168.495 146.475 149.793  1.00  0.00     0.161 A 
ATOM     15  C   UNL     1     167.115 146.481 151.792  1.00  0.00     0.051 A 
ATOM     16  C   UNL     1     169.553 145.924 150.545  1.00  0.00     0.062 A 
ATOM     17  C   UNL     1     168.166 145.933 152.527  1.00  0.00     0.016 A 
BRANCH  13  18
ATOM     18  O   UNL     1     166.234 147.300 149.647  1.00  0.00    -0.493 OA
ATOM     19  C   UNL     1     165.100 147.977 150.181  1.00  0.00     0.278 C 
ENDBRANCH  13  18
BRANCH  14  20
ATOM     20  O   UNL     1     168.622 146.760 148.425  1.00  0.00    -0.493 OA
ATOM     21  C   UNL     1     169.784 146.491 147.647  1.00  0.00     0.278 C 
ENDBRANCH  14  20
ENDBRANCH   1  12
BRANCH   8  22
ATOM     22  O   UNL     1     170.627 146.225 156.720  1.00  0.00    -0.490 OA
ATOM     23  C   UNL     1     170.769 147.642 156.707  1.00  0.00     0.278 C 
ENDBRANCH   8  22
BRANCH  11  24
ATOM     24  O   UNL     1     174.512 142.689 154.682  1.00  0.00    -0.492 OA
ATOM     25  C   UNL     1     175.860 143.137 154.579  1.00  0.00     0.278 C 
ENDBRANCH  11  24
BRANCH   9  26
ATOM     26  O   UNL     1     172.523 144.937 158.455  1.00  0.00    -0.490 OA
ATOM     27  C   UNL     1     173.171 146.024 159.104  1.00  0.00     0.279 C 
ENDBRANCH   9  26
BRANCH  10  28
ATOM     28  O   UNL     1     174.281 143.164 157.477  1.00  0.00    -0.490 OA
ATOM     29  C   UNL     1     174.072 141.831 157.931  1.00  0.00     0.278 C 
ENDBRANCH  10  28
TORSDOF 7
ENDMDL
MODEL 3
REMARK VINA RESULT:    -6.150      1.463      2.705
REMARK INTER + INTRA:          -9.492
REMARK INTER:                  -8.727
REMARK INTRA:                  -0.765
REMARK UNBOUND:                -0.825
REMARK SMILES COc1ccc(-c2cc(=O)c3c(OC)c(OC)c(OC)c(OC)c3o2)cc1OC
REMARK SMILES IDX 7 1 8 2 9 3 10 4 11 5 24 6 25 7 21 8 18 9 15 10 12 11 6 12
REMARK SMILES IDX 3 13 27 14 4 15 26 16 5 17 2 18 1 19 28 20 29 21 22 22 23 23
REMARK SMILES IDX 13 24 14 25 19 26 20 27 16 28 17 29
REMARK H PARENT
REMARK Flexibility Score: inf
ROOT
ATOM      1  C   UNL     1     170.323 145.107 152.453  1.00  0.00     0.138 A 
ATOM      2  C   UNL     1     169.427 145.440 153.473  1.00  0.00     0.100 A 
ATOM      3  C   UNL     1     169.819 145.290 154.800  1.00  0.00     0.197 A 
ATOM      4  O   UNL     1     169.007 145.607 155.711  1.00  0.00    -0.289 OA
ATOM      5  C   UNL     1     171.111 144.801 155.098  1.00  0.00     0.115 A 
ATOM      6  C   UNL     1     171.959 144.464 154.012  1.00  0.00     0.188 A 
ATOM      7  O   UNL     1     171.530 144.642 152.765  1.00  0.00    -0.452 OA
ATOM      8  C   UNL     1     173.255 143.943 154.251  1.00  0.00     0.209 A 
ATOM      9  C   UNL     1     173.731 143.857 155.582  1.00  0.00     0.211 A 
ATOM     10  C   UNL     1     172.900 144.227 156.648  1.00  0.00     0.208 A 
ATOM     11  C   UNL     1     171.572 144.633 156.421  1.00  0.00     0.179 A 
ENDROOT
BRANCH   1  12
ATOM     12  C   UNL     1     169.964 145.276 151.025  1.00  0.00     0.021 A 
ATOM     13  C   UNL     1     169.310 145.559 148.295  1.00  0.00     0.160 A 
ATOM     14  C   UNL     1     168.511 146.171 149.272  1.00  0.00     0.161 A 
ATOM     15  C   UNL     1     170.429 144.802 148.687  1.00  0.00     0.051 A 
ATOM     16  C   UNL     1     168.840 146.023 150.635  1.00  0.00     0.062 A 
ATOM     17  C   UNL     1     170.751 144.664 150.037  1.00  0.00     0.016 A 
BRANCH  13  18
ATOM     18  O   UNL     1     168.958 145.724 146.945  1.00  0.00    -0.493 OA
ATOM     19  C   UNL     1     168.985 144.684 145.971  1.00  0.00     0.278 C 
ENDBRANCH  13  18
BRANCH  14  20
ATOM     20  O   UNL     1     167.398 146.916 148.851  1.00  0.00    -0.493 OA
ATOM     21  C   UNL     1     166.461 147.536 149.726  1.00  0.00     0.278 C 
ENDBRANCH  14  20
ENDBRANCH   1  12
BRANCH   8  22
ATOM     22  O   UNL     1     174.096 143.505 153.209  1.00  0.00    -0.490 OA
ATOM     23  C   UNL     1     174.158 142.199 152.645  1.00  0.00     0.278 C 
ENDBRANCH   8  22
BRANCH  11  24
ATOM     24  O   UNL     1     170.705 144.873 157.497  1.00  0.00    -0.492 OA
ATOM     25  C   UNL     1     170.115 143.828 158.263  1.00  0.00     0.278 C 
ENDBRANCH  11  24
BRANCH   9  26
ATOM     26  O   UNL     1     175.027 143.425 155.928  1.00  0.00    -0.490 OA
ATOM     27  C   UNL     1     175.450 142.087 156.167  1.00  0.00     0.279 C 
ENDBRANCH   9  26
BRANCH  10  28
ATOM     28  O   UNL     1     173.432 144.198 157.940  1.00  0.00    -0.490 OA
ATOM     29  C   UNL     1     173.882 145.380 158.595  1.00  0.00     0.278 C 
ENDBRANCH  10  28
TORSDOF 7
ENDMDL
MODEL 4
REMARK VINA RESULT:    -6.149      1.649      3.911
REMARK INTER + INTRA:          -9.489
REMARK INTER:                  -8.958
REMARK INTRA:                  -0.532
REMARK UNBOUND:                -0.825
REMARK SMILES COc1ccc(-c2cc(=O)c3c(OC)c(OC)c(OC)c(OC)c3o2)cc1OC
REMARK SMILES IDX 7 1 8 2 9 3 10 4 11 5 24 6 25 7 21 8 18 9 15 10 12 11 6 12
REMARK SMILES IDX 3 13 27 14 4 15 26 16 5 17 2 18 1 19 28 20 29 21 22 22 23 23
REMARK SMILES IDX 13 24 14 25 19 26 20 27 16 28 17 29
REMARK H PARENT
REMARK Flexibility Score: inf
ROOT
ATOM      1  C   UNL     1     169.877 144.928 151.458  1.00  0.00     0.138 A 
ATOM      2  C   UNL     1     170.403 143.883 150.692  1.00  0.00     0.100 A 
ATOM      3  C   UNL     1     171.445 143.118 151.208  1.00  0.00     0.197 A 
ATOM      4  O   UNL     1     171.901 142.170 150.514  1.00  0.00    -0.289 OA
ATOM      5  C   UNL     1     171.957 143.407 152.493  1.00  0.00     0.115 A 
ATOM      6  C   UNL     1     171.389 144.495 153.204  1.00  0.00     0.188 A 
ATOM      7  O   UNL     1     170.386 145.181 152.661  1.00  0.00    -0.452 OA
ATOM      8  C   UNL     1     171.882 144.848 154.485  1.00  0.00     0.209 A 
ATOM      9  C   UNL     1     172.879 144.043 155.088  1.00  0.00     0.211 A 
ATOM     10  C   UNL     1     173.410 142.948 154.393  1.00  0.00     0.208 A 
ATOM     11  C   UNL     1     173.006 142.665 153.075  1.00  0.00     0.179 A 
ENDROOT
BRANCH   1  12
ATOM     12  C   UNL     1     168.749 145.754 150.967  1.00  0.00     0.021 A 
ATOM     13  C   UNL     1     166.614 147.316 149.986  1.00  0.00     0.160 A 
ATOM     14  C   UNL     1     166.606 146.880 151.320  1.00  0.00     0.161 A 
ATOM     15  C   UNL     1     167.687 146.964 149.147  1.00  0.00     0.051 A 
ATOM     16  C   UNL     1     167.673 146.097 151.803  1.00  0.00     0.062 A 
ATOM     17  C   UNL     1     168.741 146.192 149.634  1.00  0.00     0.016 A 
BRANCH  13  18
ATOM     18  O   UNL     1     165.538 148.096 149.532  1.00  0.00    -0.493 OA
ATOM     19  C   UNL     1     164.614 147.688 148.525  1.00  0.00     0.278 C 
ENDBRANCH  13  18
BRANCH  14  20
ATOM     20  O   UNL     1     165.520 147.244 152.132  1.00  0.00    -0.493 OA
ATOM     21  C   UNL     1     164.183 146.789 151.946  1.00  0.00     0.278 C 
ENDBRANCH  14  20
ENDBRANCH   1  12
BRANCH   8  22
ATOM     22  O   UNL     1     171.416 145.976 155.187  1.00  0.00    -0.490 OA
ATOM     23  C   UNL     1     170.252 146.059 156.005  1.00  0.00     0.278 C 
ENDBRANCH   8  22
BRANCH  11  24
ATOM     24  O   UNL     1     173.637 141.651 152.338  1.00  0.00    -0.492 OA
ATOM     25  C   UNL     1     174.986 141.743 151.893  1.00  0.00     0.278 C 
ENDBRANCH  11  24
BRANCH   9  26
ATOM     26  O   UNL     1     173.387 144.260 156.384  1.00  0.00    -0.490 OA
ATOM     27  C   UNL     1     172.780 143.888 157.617  1.00  0.00     0.279 C 
ENDBRANCH   9  26
BRANCH  10  28
ATOM     28  O   UNL     1     174.337 142.136 155.052  1.00  0.00    -0.490 OA
ATOM     29  C   UNL     1     173.962 140.903 155.658  1.00  0.00     0.278 C 
ENDBRANCH  10  28
TORSDOF 7
ENDMDL
MODEL 5
REMARK VINA RESULT:    -6.116      1.898      4.307
REMARK INTER + INTRA:          -9.444
REMARK INTER:                  -8.629
REMARK INTRA:                  -0.815
REMARK UNBOUND:                -0.825
REMARK SMILES COc1ccc(-c2cc(=O)c3c(OC)c(OC)c(OC)c(OC)c3o2)cc1OC
REMARK SMILES IDX 7 1 8 2 9 3 10 4 11 5 24 6 25 7 21 8 18 9 15 10 12 11 6 12
REMARK SMILES IDX 3 13 27 14 4 15 26 16 5 17 2 18 1 19 28 20 29 21 22 22 23 23
REMARK SMILES IDX 13 24 14 25 19 26 20 27 16 28 17 29
REMARK H PARENT
REMARK Flexibility Score: inf
ROOT
ATOM      1  C   UNL     1     171.643 144.094 151.835  1.00  0.00     0.138 A 
ATOM      2  C   UNL     1     172.465 142.964 151.881  1.00  0.00     0.100 A 
ATOM      3  C   UNL     1     172.983 142.547 153.103  1.00  0.00     0.197 A 
ATOM      4  O   UNL     1     173.712 141.518 153.133  1.00  0.00    -0.289 OA
ATOM      5  C   UNL     1     172.675 143.270 154.278  1.00  0.00     0.115 A 
ATOM      6  C   UNL     1     171.852 144.418 154.154  1.00  0.00     0.188 A 
ATOM      7  O   UNL     1     171.378 144.758 152.957  1.00  0.00    -0.452 OA
ATOM      8  C   UNL     1     171.534 145.198 155.293  1.00  0.00     0.209 A 
ATOM      9  C   UNL     1     171.964 144.761 156.571  1.00  0.00     0.211 A 
ATOM     10  C   UNL     1     172.746 143.605 156.689  1.00  0.00     0.208 A 
ATOM     11  C   UNL     1     173.162 142.895 155.548  1.00  0.00     0.179 A 
ENDROOT
BRANCH   1  12
ATOM     12  C   UNL     1     171.043 144.562 150.564  1.00  0.00     0.021 A 
ATOM     13  C   UNL     1     169.912 145.411 148.122  1.00  0.00     0.160 A 
ATOM     14  C   UNL     1     169.575 146.070 149.315  1.00  0.00     0.161 A 
ATOM     15  C   UNL     1     170.808 144.328 148.156  1.00  0.00     0.051 A 
ATOM     16  C   UNL     1     170.140 145.639 150.532  1.00  0.00     0.062 A 
ATOM     17  C   UNL     1     171.365 143.910 149.365  1.00  0.00     0.016 A 
BRANCH  13  18
ATOM     18  O   UNL     1     169.334 145.863 146.925  1.00  0.00    -0.493 OA
ATOM     19  C   UNL     1     168.874 145.011 145.879  1.00  0.00     0.278 C 
ENDBRANCH  13  18
BRANCH  14  20
ATOM     20  O   UNL     1     168.675 147.145 149.250  1.00  0.00    -0.493 OA
ATOM     21  C   UNL     1     167.304 147.077 149.630  1.00  0.00     0.278 C 
ENDBRANCH  14  20
ENDBRANCH   1  12
BRANCH   8  22
ATOM     22  O   UNL     1     170.801 146.397 155.206  1.00  0.00    -0.490 OA
ATOM     23  C   UNL     1     169.396 146.560 155.382  1.00  0.00     0.278 C 
ENDBRANCH   8  22
BRANCH  11  24
ATOM     24  O   UNL     1     174.054 141.819 155.663  1.00  0.00    -0.492 OA
ATOM     25  C   UNL     1     175.437 141.988 155.957  1.00  0.00     0.278 C 
ENDBRANCH  11  24
BRANCH   9  26
ATOM     26  O   UNL     1     171.642 145.419 157.775  1.00  0.00    -0.490 OA
ATOM     27  C   UNL     1     172.302 146.546 158.341  1.00  0.00     0.279 C 
ENDBRANCH   9  26
BRANCH  10  28
ATOM     28  O   UNL     1     173.086 143.169 157.972  1.00  0.00    -0.490 OA
ATOM     29  C   UNL     1     172.376 142.120 158.624  1.00  0.00     0.278 C 
ENDBRANCH  10  28
TORSDOF 7
ENDMDL
MODEL 6
REMARK VINA RESULT:    -5.985      2.515      7.820
REMARK INTER + INTRA:          -9.259
REMARK INTER:                  -8.899
REMARK INTRA:                  -0.361
REMARK UNBOUND:                -0.825
REMARK SMILES COc1ccc(-c2cc(=O)c3c(OC)c(OC)c(OC)c(OC)c3o2)cc1OC
REMARK SMILES IDX 7 1 8 2 9 3 10 4 11 5 24 6 25 7 21 8 18 9 15 10 12 11 6 12
REMARK SMILES IDX 3 13 27 14 4 15 26 16 5 17 2 18 1 19 28 20 29 21 22 22 23 23
REMARK SMILES IDX 13 24 14 25 19 26 20 27 16 28 17 29
REMARK H PARENT
REMARK Flexibility Score: inf
ROOT
ATOM      1  C   UNL     1     171.964 144.889 153.614  1.00  0.00     0.138 A 
ATOM      2  C   UNL     1     172.779 143.788 153.330  1.00  0.00     0.100 A 
ATOM      3  C   UNL     1     172.755 143.234 152.054  1.00  0.00     0.197 A 
ATOM      4  O   UNL     1     173.504 142.251 151.807  1.00  0.00    -0.289 OA
ATOM      5  C   UNL     1     171.909 143.786 151.066  1.00  0.00     0.115 A 
ATOM      6  C   UNL     1     171.094 144.888 151.431  1.00  0.00     0.188 A 
ATOM      7  O   UNL     1     171.172 145.381 152.665  1.00  0.00    -0.452 OA
ATOM      8  C   UNL     1     170.206 145.465 150.489  1.00  0.00     0.209 A 
ATOM      9  C   UNL     1     170.213 144.993 149.154  1.00  0.00     0.211 A 
ATOM     10  C   UNL     1     171.047 143.926 148.792  1.00  0.00     0.208 A 
ATOM     11  C   UNL     1     171.843 143.276 149.752  1.00  0.00     0.179 A 
ENDROOT
BRANCH   1  12
ATOM     12  C   UNL     1     171.974 145.533 154.948  1.00  0.00     0.021 A 
ATOM     13  C   UNL     1     171.945 146.770 157.484  1.00  0.00     0.160 A 
ATOM     14  C   UNL     1     172.997 145.907 157.139  1.00  0.00     0.161 A 
ATOM     15  C   UNL     1     170.909 147.006 156.562  1.00  0.00     0.051 A 
ATOM     16  C   UNL     1     173.004 145.289 155.873  1.00  0.00     0.062 A 
ATOM     17  C   UNL     1     170.926 146.393 155.309  1.00  0.00     0.016 A 
BRANCH  13  18
ATOM     18  O   UNL     1     171.964 147.372 158.753  1.00  0.00    -0.493 OA
ATOM     19  C   UNL     1     171.982 148.779 158.978  1.00  0.00     0.278 C 
ENDBRANCH  13  18
BRANCH  14  20
ATOM     20  O   UNL     1     174.013 145.688 158.082  1.00  0.00    -0.493 OA
ATOM     21  C   UNL     1     175.407 145.809 157.811  1.00  0.00     0.278 C 
ENDBRANCH  14  20
ENDBRANCH   1  12
BRANCH   8  22
ATOM     22  O   UNL     1     169.311 146.497 150.830  1.00  0.00    -0.490 OA
ATOM     23  C   UNL     1     167.988 146.355 151.340  1.00  0.00     0.278 C 
ENDBRANCH   8  22
BRANCH  11  24
ATOM     24  O   UNL     1     172.573 142.126 149.413  1.00  0.00    -0.492 OA
ATOM     25  C   UNL     1     173.847 142.177 148.780  1.00  0.00     0.278 C 
ENDBRANCH  11  24
BRANCH   9  26
ATOM     26  O   UNL     1     169.425 145.542 148.122  1.00  0.00    -0.490 OA
ATOM     27  C   UNL     1     169.725 146.685 147.329  1.00  0.00     0.279 C 
ENDBRANCH   9  26
BRANCH  10  28
ATOM     28  O   UNL     1     171.078 143.540 147.450  1.00  0.00    -0.490 OA
ATOM     29  C   UNL     1     171.940 144.168 146.506  1.00  0.00     0.278 C 
ENDBRANCH  10  28
TORSDOF 7
ENDMDL
MODEL 7
REMARK VINA RESULT:    -5.966      2.102      3.068
REMARK INTER + INTRA:          -9.233
REMARK INTER:                  -8.537
REMARK INTRA:                  -0.696
REMARK UNBOUND:                -0.825
REMARK SMILES COc1ccc(-c2cc(=O)c3c(OC)c(OC)c(OC)c(OC)c3o2)cc1OC
REMARK SMILES IDX 7 1 8 2 9 3 10 4 11 5 24 6 25 7 21 8 18 9 15 10 12 11 6 12
REMARK SMILES IDX 3 13 27 14 4 15 26 16 5 17 2 18 1 19 28 20 29 21 22 22 23 23
REMARK SMILES IDX 13 24 14 25 19 26 20 27 16 28 17 29
REMARK H PARENT
REMARK Flexibility Score: inf
ROOT
ATOM      1  C   UNL     1     170.022 145.233 152.240  1.00  0.00     0.138 A 
ATOM      2  C   UNL     1     168.903 145.425 153.056  1.00  0.00     0.100 A 
ATOM      3  C   UNL     1     169.032 145.282 154.434  1.00  0.00     0.197 A 
ATOM      4  O   UNL     1     168.019 145.471 155.160  1.00  0.00    -0.289 OA
ATOM      5  C   UNL     1     170.287 144.944 154.989  1.00  0.00     0.115 A 
ATOM      6  C   UNL     1     171.373 144.744 154.100  1.00  0.00     0.188 A 
ATOM      7  O   UNL     1     171.188 144.907 152.791  1.00  0.00    -0.452 OA
ATOM      8  C   UNL     1     172.648 144.375 154.597  1.00  0.00     0.209 A 
ATOM      9  C   UNL     1     172.849 144.307 155.998  1.00  0.00     0.211 A 
ATOM     10  C   UNL     1     171.779 144.542 156.872  1.00  0.00     0.208 A 
ATOM     11  C   UNL     1     170.486 144.792 156.378  1.00  0.00     0.179 A 
ENDROOT
BRANCH   1  12
ATOM     12  C   UNL     1     169.944 145.401 150.769  1.00  0.00     0.021 A 
ATOM     13  C   UNL     1     169.765 145.757 147.976  1.00  0.00     0.160 A 
ATOM     14  C   UNL     1     170.852 145.060 148.523  1.00  0.00     0.161 A 
ATOM     15  C   UNL     1     168.774 146.279 148.829  1.00  0.00     0.051 A 
ATOM     16  C   UNL     1     170.939 144.888 149.920  1.00  0.00     0.062 A 
ATOM     17  C   UNL     1     168.866 146.101 150.209  1.00  0.00     0.016 A 
BRANCH  13  18
ATOM     18  O   UNL     1     169.704 145.912 146.582  1.00  0.00    -0.493 OA
ATOM     19  C   UNL     1     170.177 147.056 145.876  1.00  0.00     0.278 C 
ENDBRANCH  13  18
BRANCH  14  20
ATOM     20  O   UNL     1     171.827 144.554 147.648  1.00  0.00    -0.493 OA
ATOM     21  C   UNL     1     172.800 143.575 147.999  1.00  0.00     0.278 C 
ENDBRANCH  14  20
ENDBRANCH   1  12
BRANCH   8  22
ATOM     22  O   UNL     1     173.731 144.074 153.749  1.00  0.00    -0.490 OA
ATOM     23  C   UNL     1     174.145 142.785 153.308  1.00  0.00     0.278 C 
ENDBRANCH   8  22
BRANCH  11  24
ATOM     24  O   UNL     1     169.394 144.892 157.253  1.00  0.00    -0.492 OA
ATOM     25  C   UNL     1     168.695 143.757 157.752  1.00  0.00     0.278 C 
ENDBRANCH  11  24
BRANCH   9  26
ATOM     26  O   UNL     1     174.091 144.023 156.600  1.00  0.00    -0.490 OA
ATOM     27  C   UNL     1     174.560 142.755 157.044  1.00  0.00     0.279 C 
ENDBRANCH   9  26
BRANCH  10  28
ATOM     28  O   UNL     1     172.036 144.538 158.245  1.00  0.00    -0.490 OA
ATOM     29  C   UNL     1     172.371 145.728 158.952  1.00  0.00     0.278 C 
ENDBRANCH  10  28
TORSDOF 7
ENDMDL
