MODEL 1
REMARK VINA RESULT:    -5.168      0.000      0.000
REMARK INTER + INTRA:          -5.748
REMARK INTER:                  -5.622
REMARK INTRA:                  -0.126
REMARK UNBOUND:                -0.126
REMARK SMILES Cc1ccc(C(C)C)cc1O
REMARK SMILES IDX 1 1 2 2 10 3 9 4 5 5 4 6 3 7 11 8 6 10 7 11 8 12
REMARK H PARENT 11 9
REMARK Flexibility Score: inf
ROOT
ATOM      1  C   UNL     1     116.032 121.415 121.481  1.00  0.00     0.048 C 
ATOM      2  C   UNL     1     116.927 120.821 120.429  1.00  0.00    -0.009 A 
ATOM      3  C   UNL     1     118.320 120.797 120.616  1.00  0.00     0.118 A 
ATOM      4  C   UNL     1     119.149 120.241 119.631  1.00  0.00     0.050 A 
ATOM      5  C   UNL     1     118.602 119.705 118.451  1.00  0.00    -0.042 A 
ATOM      6  C   UNL     1     117.208 119.734 118.273  1.00  0.00     0.004 A 
ATOM      7  C   UNL     1     116.379 120.287 119.254  1.00  0.00     0.007 A 
ENDROOT
BRANCH   3   8
ATOM      8  O   UNL     1     118.878 121.324 121.781  1.00  0.00    -0.508 OA
ATOM      9  H   UNL     1     118.300 121.639 122.550  1.00  0.00     0.293 HD
ENDBRANCH   3   8
BRANCH   5  10
ATOM     10  C   UNL     1     119.515 119.108 117.396  1.00  0.00     0.013 C 
ATOM     11  C   UNL     1     120.194 117.834 117.910  1.00  0.00     0.012 C 
ATOM     12  C   UNL     1     118.752 118.840 116.093  1.00  0.00     0.012 C 
ENDBRANCH   5  10
TORSDOF 2
ENDMDL
MODEL 2
REMARK VINA RESULT:    -5.145      2.707      3.046
REMARK INTER + INTRA:          -5.723
REMARK INTER:                  -5.596
REMARK INTRA:                  -0.126
REMARK UNBOUND:                -0.126
REMARK SMILES Cc1ccc(C(C)C)cc1O
REMARK SMILES IDX 1 1 2 2 10 3 9 4 5 5 4 6 3 7 11 8 6 10 7 11 8 12
REMARK H PARENT 11 9
REMARK Flexibility Score: inf
ROOT
ATOM      1  C   UNL     1     116.180 116.006 121.506  1.00  0.00     0.048 C 
ATOM      2  C   UNL     1     116.770 116.901 120.452  1.00  0.00    -0.009 A 
ATOM      3  C   UNL     1     116.831 118.290 120.656  1.00  0.00     0.118 A 
ATOM      4  C   UNL     1     117.382 119.120 119.669  1.00  0.00     0.050 A 
ATOM      5  C   UNL     1     117.878 118.577 118.470  1.00  0.00    -0.042 A 
ATOM      6  C   UNL     1     117.811 117.186 118.275  1.00  0.00     0.004 A 
ATOM      7  C   UNL     1     117.263 116.357 119.257  1.00  0.00     0.007 A 
ENDROOT
BRANCH   3   8
ATOM      8  O   UNL     1     116.345 118.844 121.841  1.00  0.00    -0.508 OA
ATOM      9  H   UNL     1     115.419 118.625 122.189  1.00  0.00     0.293 HD
ENDBRANCH   3   8
BRANCH   5  10
ATOM     10  C   UNL     1     118.470 119.490 117.413  1.00  0.00     0.013 C 
ATOM     11  C   UNL     1     119.726 120.197 117.935  1.00  0.00     0.012 C 
ATOM     12  C   UNL     1     118.768 118.720 116.121  1.00  0.00     0.012 C 
ENDBRANCH   5  10
TORSDOF 2
ENDMDL
MODEL 3
REMARK VINA RESULT:    -5.144      2.584      4.311
REMARK INTER + INTRA:          -5.721
REMARK INTER:                  -5.595
REMARK INTRA:                  -0.126
REMARK UNBOUND:                -0.126
REMARK SMILES Cc1ccc(C(C)C)cc1O
REMARK SMILES IDX 1 1 2 2 10 3 9 4 5 5 4 6 3 7 11 8 6 10 7 11 8 12
REMARK H PARENT 11 9
REMARK Flexibility Score: inf
ROOT
ATOM      1  C   UNL     1     121.625 116.171 121.504  1.00  0.00     0.048 C 
ATOM      2  C   UNL     1     120.748 116.767 120.439  1.00  0.00    -0.009 A 
ATOM      3  C   UNL     1     119.356 116.837 120.624  1.00  0.00     0.118 A 
ATOM      4  C   UNL     1     118.544 117.393 119.625  1.00  0.00     0.050 A 
ATOM      5  C   UNL     1     119.106 117.886 118.435  1.00  0.00    -0.042 A 
ATOM      6  C   UNL     1     120.500 117.811 118.258  1.00  0.00     0.004 A 
ATOM      7  C   UNL     1     121.312 117.257 119.251  1.00  0.00     0.007 A 
ENDROOT
BRANCH   3   8
ATOM      8  O   UNL     1     118.783 116.353 121.800  1.00  0.00    -0.508 OA
ATOM      9  H   UNL     1     118.702 115.360 121.982  1.00  0.00     0.293 HD
ENDBRANCH   3   8
BRANCH   5  10
ATOM     10  C   UNL     1     118.212 118.485 117.365  1.00  0.00     0.013 C 
ATOM     11  C   UNL     1     117.492 119.735 117.884  1.00  0.00     0.012 C 
ATOM     12  C   UNL     1     119.006 118.794 116.090  1.00  0.00     0.012 C 
ENDBRANCH   5  10
TORSDOF 2
ENDMDL
MODEL 4
REMARK VINA RESULT:    -5.137      2.675      3.023
REMARK INTER + INTRA:          -5.714
REMARK INTER:                  -5.588
REMARK INTRA:                  -0.126
REMARK UNBOUND:                -0.126
REMARK SMILES Cc1ccc(C(C)C)cc1O
REMARK SMILES IDX 1 1 2 2 10 3 9 4 5 5 4 6 3 7 11 8 6 10 7 11 8 12
REMARK H PARENT 11 9
REMARK Flexibility Score: inf
ROOT
ATOM      1  C   UNL     1     121.404 121.610 121.502  1.00  0.00     0.048 C 
ATOM      2  C   UNL     1     120.815 120.713 120.451  1.00  0.00    -0.009 A 
ATOM      3  C   UNL     1     120.766 119.322 120.653  1.00  0.00     0.118 A 
ATOM      4  C   UNL     1     120.216 118.490 119.667  1.00  0.00     0.050 A 
ATOM      5  C   UNL     1     119.710 119.031 118.472  1.00  0.00    -0.042 A 
ATOM      6  C   UNL     1     119.764 120.423 118.278  1.00  0.00     0.004 A 
ATOM      7  C   UNL     1     120.311 121.255 119.259  1.00  0.00     0.007 A 
ENDROOT
BRANCH   3   8
ATOM      8  O   UNL     1     121.263 118.771 121.834  1.00  0.00    -0.508 OA
ATOM      9  H   UNL     1     120.735 118.090 122.365  1.00  0.00     0.293 HD
ENDBRANCH   3   8
BRANCH   5  10
ATOM     10  C   UNL     1     119.118 118.116 117.417  1.00  0.00     0.013 C 
ATOM     11  C   UNL     1     117.843 117.435 117.928  1.00  0.00     0.012 C 
ATOM     12  C   UNL     1     118.853 118.875 116.112  1.00  0.00     0.012 C 
ENDBRANCH   5  10
TORSDOF 2
ENDMDL
MODEL 5
REMARK VINA RESULT:    -4.753      2.525      3.195
REMARK INTER + INTRA:          -5.295
REMARK INTER:                  -5.179
REMARK INTRA:                  -0.117
REMARK UNBOUND:                -0.126
REMARK SMILES Cc1ccc(C(C)C)cc1O
REMARK SMILES IDX 1 1 2 2 10 3 9 4 5 5 4 6 3 7 11 8 6 10 7 11 8 12
REMARK H PARENT 11 9
REMARK Flexibility Score: inf
ROOT
ATOM      1  C   UNL     1     121.911 121.539 121.344  1.00  0.00     0.048 C 
ATOM      2  C   UNL     1     120.987 120.796 120.421  1.00  0.00    -0.009 A 
ATOM      3  C   UNL     1     120.658 119.453 120.677  1.00  0.00     0.118 A 
ATOM      4  C   UNL     1     119.796 118.766 119.812  1.00  0.00     0.050 A 
ATOM      5  C   UNL     1     119.251 119.405 118.684  1.00  0.00    -0.042 A 
ATOM      6  C   UNL     1     119.586 120.748 118.436  1.00  0.00     0.004 A 
ATOM      7  C   UNL     1     120.445 121.436 119.296  1.00  0.00     0.007 A 
ENDROOT
BRANCH   3   8
ATOM      8  O   UNL     1     121.190 118.805 121.793  1.00  0.00    -0.508 OA
ATOM      9  H   UNL     1     121.195 119.240 122.707  1.00  0.00     0.293 HD
ENDBRANCH   3   8
BRANCH   5  10
ATOM     10  C   UNL     1     118.319 118.645 117.759  1.00  0.00     0.013 C 
ATOM     11  C   UNL     1     118.878 118.597 116.332  1.00  0.00     0.012 C 
ATOM     12  C   UNL     1     118.041 117.234 118.290  1.00  0.00     0.012 C 
ENDBRANCH   5  10
TORSDOF 2
ENDMDL
MODEL 6
REMARK VINA RESULT:    -4.591      3.280      3.696
REMARK INTER + INTRA:          -5.120
REMARK INTER:                  -5.001
REMARK INTRA:                  -0.118
REMARK UNBOUND:                -0.126
REMARK SMILES Cc1ccc(C(C)C)cc1O
REMARK SMILES IDX 1 1 2 2 10 3 9 4 5 5 4 6 3 7 11 8 6 10 7 11 8 12
REMARK H PARENT 11 9
REMARK Flexibility Score: inf
ROOT
ATOM      1  C   UNL     1     115.991 116.002 121.312  1.00  0.00     0.048 C 
ATOM      2  C   UNL     1     116.654 116.918 120.323  1.00  0.00    -0.009 A 
ATOM      3  C   UNL     1     117.076 116.427 119.075  1.00  0.00     0.118 A 
ATOM      4  C   UNL     1     117.695 117.288 118.157  1.00  0.00     0.050 A 
ATOM      5  C   UNL     1     117.900 118.643 118.469  1.00  0.00    -0.042 A 
ATOM      6  C   UNL     1     117.475 119.125 119.720  1.00  0.00     0.004 A 
ATOM      7  C   UNL     1     116.858 118.270 120.637  1.00  0.00     0.007 A 
ENDROOT
BRANCH   3   8
ATOM      8  O   UNL     1     116.879 115.085 118.750  1.00  0.00    -0.508 OA
ATOM      9  H   UNL     1     116.469 114.807 117.867  1.00  0.00     0.293 HD
ENDBRANCH   3   8
BRANCH   5  10
ATOM     10  C   UNL     1     118.571 119.559 117.463  1.00  0.00     0.013 C 
ATOM     11  C   UNL     1     119.803 120.240 118.073  1.00  0.00     0.012 C 
ATOM     12  C   UNL     1     118.938 118.801 116.182  1.00  0.00     0.012 C 
ENDBRANCH   5  10
TORSDOF 2
ENDMDL
MODEL 7
REMARK VINA RESULT:    -4.530      2.802      3.163
REMARK INTER + INTRA:          -5.053
REMARK INTER:                  -4.928
REMARK INTRA:                  -0.125
REMARK UNBOUND:                -0.126
REMARK SMILES Cc1ccc(C(C)C)cc1O
REMARK SMILES IDX 1 1 2 2 10 3 9 4 5 5 4 6 3 7 11 8 6 10 7 11 8 12
REMARK H PARENT 11 9
REMARK Flexibility Score: inf
ROOT
ATOM      1  C   UNL     1     116.075 115.997 121.612  1.00  0.00     0.048 C 
ATOM      2  C   UNL     1     116.944 116.728 120.628  1.00  0.00    -0.009 A 
ATOM      3  C   UNL     1     117.641 117.884 121.020  1.00  0.00     0.118 A 
ATOM      4  C   UNL     1     118.450 118.562 120.097  1.00  0.00     0.050 A 
ATOM      5  C   UNL     1     118.574 118.098 118.775  1.00  0.00    -0.042 A 
ATOM      6  C   UNL     1     117.872 116.941 118.391  1.00  0.00     0.004 A 
ATOM      7  C   UNL     1     117.066 116.263 119.310  1.00  0.00     0.007 A 
ENDROOT
BRANCH   3   8
ATOM      8  O   UNL     1     117.529 118.356 122.328  1.00  0.00    -0.508 OA
ATOM      9  H   UNL     1     117.152 119.274 122.531  1.00  0.00     0.293 HD
ENDBRANCH   3   8
BRANCH   5  10
ATOM     10  C   UNL     1     119.453 118.844 117.789  1.00  0.00     0.013 C 
ATOM     11  C   UNL     1     118.879 118.766 116.369  1.00  0.00     0.012 C 
ATOM     12  C   UNL     1     119.657 120.301 118.222  1.00  0.00     0.012 C 
ENDBRANCH   5  10
TORSDOF 2
ENDMDL
MODEL 8
REMARK VINA RESULT:    -4.515      1.749      4.288
REMARK INTER + INTRA:          -5.037
REMARK INTER:                  -4.933
REMARK INTRA:                  -0.104
REMARK UNBOUND:                -0.126
REMARK SMILES Cc1ccc(C(C)C)cc1O
REMARK SMILES IDX 1 1 2 2 10 3 9 4 5 5 4 6 3 7 11 8 6 10 7 11 8 12
REMARK H PARENT 11 9
REMARK Flexibility Score: inf
ROOT
ATOM      1  C   UNL     1     122.053 116.839 118.771  1.00  0.00     0.048 C 
ATOM      2  C   UNL     1     120.812 117.680 118.868  1.00  0.00    -0.009 A 
ATOM      3  C   UNL     1     120.460 118.289 120.085  1.00  0.00     0.118 A 
ATOM      4  C   UNL     1     119.300 119.072 120.168  1.00  0.00     0.050 A 
ATOM      5  C   UNL     1     118.478 119.258 119.043  1.00  0.00    -0.042 A 
ATOM      6  C   UNL     1     118.837 118.645 117.829  1.00  0.00     0.004 A 
ATOM      7  C   UNL     1     119.993 117.864 117.743  1.00  0.00     0.007 A 
ENDROOT
BRANCH   3   8
ATOM      8  O   UNL     1     121.266 118.114 121.211  1.00  0.00    -0.508 OA
ATOM      9  H   UNL     1     122.144 117.611 121.162  1.00  0.00     0.293 HD
ENDBRANCH   3   8
BRANCH   5  10
ATOM     10  C   UNL     1     117.227 120.109 119.151  1.00  0.00     0.013 C 
ATOM     11  C   UNL     1     116.022 119.265 119.583  1.00  0.00     0.012 C 
ATOM     12  C   UNL     1     117.442 121.292 120.102  1.00  0.00     0.012 C 
ENDBRANCH   5  10
TORSDOF 2
ENDMDL
MODEL 9
REMARK VINA RESULT:    -4.387      2.883      4.002
REMARK INTER + INTRA:          -4.897
REMARK INTER:                  -4.771
REMARK INTRA:                  -0.126
REMARK UNBOUND:                -0.126
REMARK SMILES Cc1ccc(C(C)C)cc1O
REMARK SMILES IDX 1 1 2 2 10 3 9 4 5 5 4 6 3 7 11 8 6 10 7 11 8 12
REMARK H PARENT 11 9
REMARK Flexibility Score: inf
ROOT
ATOM      1  C   UNL     1     117.151 115.896 118.826  1.00  0.00     0.048 C 
ATOM      2  C   UNL     1     118.077 117.053 119.069  1.00  0.00    -0.009 A 
ATOM      3  C   UNL     1     118.696 117.215 120.321  1.00  0.00     0.118 A 
ATOM      4  C   UNL     1     119.558 118.298 120.541  1.00  0.00     0.050 A 
ATOM      5  C   UNL     1     119.815 119.230 119.520  1.00  0.00    -0.042 A 
ATOM      6  C   UNL     1     119.191 119.061 118.271  1.00  0.00     0.004 A 
ATOM      7  C   UNL     1     118.331 117.982 118.049  1.00  0.00     0.007 A 
ENDROOT
BRANCH   3   8
ATOM      8  O   UNL     1     118.451 116.298 121.344  1.00  0.00    -0.508 OA
ATOM      9  H   UNL     1     117.512 116.003 121.579  1.00  0.00     0.293 HD
ENDBRANCH   3   8
BRANCH   5  10
ATOM     10  C   UNL     1     120.752 120.397 119.777  1.00  0.00     0.013 C 
ATOM     11  C   UNL     1     120.364 121.612 118.926  1.00  0.00     0.012 C 
ATOM     12  C   UNL     1     120.793 120.756 121.266  1.00  0.00     0.012 C 
ENDBRANCH   5  10
TORSDOF 2
ENDMDL
