MODEL 1
REMARK VINA RESULT:    -4.627      0.000      0.000
REMARK INTER + INTRA:          -5.465
REMARK INTER:                  -5.168
REMARK INTRA:                  -0.297
REMARK UNBOUND:                -0.297
REMARK SMILES CC(=O)c1ccc(O)cc1O
REMARK SMILES IDX 4 1 10 2 9 3 7 4 6 5 5 6 2 7 1 8 3 9 11 10 8 12
REMARK H PARENT 11 11 8 13
REMARK Flexibility Score: inf
ROOT
ATOM      1  C   UNL     1       8.210 -33.066  15.637  1.00  0.00     0.059 A 
ATOM      2  C   UNL     1       8.837 -32.325  16.667  1.00  0.00     0.130 A 
ATOM      3  C   UNL     1       8.506 -32.572  18.008  1.00  0.00     0.093 A 
ATOM      4  C   UNL     1       7.548 -33.533  18.339  1.00  0.00     0.119 A 
ATOM      5  C   UNL     1       6.912 -34.255  17.325  1.00  0.00     0.047 A 
ATOM      6  C   UNL     1       7.237 -34.022  15.987  1.00  0.00     0.019 A 
ENDROOT
BRANCH   1   7
ATOM      7  C   UNL     1       8.529 -32.864  14.198  1.00  0.00     0.163 C 
ATOM      8  C   UNL     1       7.485 -32.933  13.125  1.00  0.00     0.093 C 
ATOM      9  O   UNL     1       9.718 -32.622  13.856  1.00  0.00    -0.294 OA
ENDBRANCH   1   7
BRANCH   2  10
ATOM     10  O   UNL     1       9.769 -31.332  16.369  1.00  0.00    -0.507 OA
ATOM     11  H   UNL     1       9.487 -30.383  16.150  1.00  0.00     0.293 HD
ENDBRANCH   2  10
BRANCH   4  12
ATOM     12  O   UNL     1       7.234 -33.760  19.677  1.00  0.00    -0.508 OA
ATOM     13  H   UNL     1       6.276 -33.750  20.006  1.00  0.00     0.293 HD
ENDBRANCH   4  12
TORSDOF 3
ENDMDL
MODEL 2
REMARK VINA RESULT:    -4.217      1.428      1.745
REMARK INTER + INTRA:          -5.007
REMARK INTER:                  -4.701
REMARK INTRA:                  -0.306
REMARK UNBOUND:                -0.297
REMARK SMILES CC(=O)c1ccc(O)cc1O
REMARK SMILES IDX 4 1 10 2 9 3 7 4 6 5 5 6 2 7 1 8 3 9 11 10 8 12
REMARK H PARENT 11 11 8 13
REMARK Flexibility Score: inf
ROOT
ATOM      1  C   UNL     1       7.656 -33.077  15.325  1.00  0.00     0.059 A 
ATOM      2  C   UNL     1       8.936 -32.511  15.537  1.00  0.00     0.130 A 
ATOM      3  C   UNL     1       9.346 -32.175  16.836  1.00  0.00     0.093 A 
ATOM      4  C   UNL     1       8.496 -32.378  17.925  1.00  0.00     0.119 A 
ATOM      5  C   UNL     1       7.223 -32.920  17.719  1.00  0.00     0.047 A 
ATOM      6  C   UNL     1       6.806 -33.264  16.432  1.00  0.00     0.019 A 
ENDROOT
BRANCH   1   7
ATOM      7  C   UNL     1       7.169 -33.471  13.975  1.00  0.00     0.163 C 
ATOM      8  C   UNL     1       6.528 -34.798  13.707  1.00  0.00     0.093 C 
ATOM      9  O   UNL     1       7.293 -32.664  13.014  1.00  0.00    -0.294 OA
ENDBRANCH   1   7
BRANCH   2  10
ATOM     10  O   UNL     1       9.794 -32.260  14.467  1.00  0.00    -0.507 OA
ATOM     11  H   UNL     1      10.788 -32.447  14.524  1.00  0.00     0.293 HD
ENDBRANCH   2  10
BRANCH   4  12
ATOM     12  O   UNL     1       8.923 -32.036  19.206  1.00  0.00    -0.508 OA
ATOM     13  H   UNL     1       8.402 -31.385  19.782  1.00  0.00     0.293 HD
ENDBRANCH   4  12
TORSDOF 3
ENDMDL
MODEL 3
REMARK VINA RESULT:    -4.187      1.245      1.310
REMARK INTER + INTRA:          -4.974
REMARK INTER:                  -4.668
REMARK INTRA:                  -0.306
REMARK UNBOUND:                -0.297
REMARK SMILES CC(=O)c1ccc(O)cc1O
REMARK SMILES IDX 4 1 10 2 9 3 7 4 6 5 5 6 2 7 1 8 3 9 11 10 8 12
REMARK H PARENT 11 11 8 13
REMARK Flexibility Score: inf
ROOT
ATOM      1  C   UNL     1       8.133 -34.048  15.657  1.00  0.00     0.059 A 
ATOM      2  C   UNL     1       8.525 -32.885  16.363  1.00  0.00     0.130 A 
ATOM      3  C   UNL     1       8.228 -32.762  17.728  1.00  0.00     0.093 A 
ATOM      4  C   UNL     1       7.532 -33.769  18.399  1.00  0.00     0.119 A 
ATOM      5  C   UNL     1       7.126 -34.912  17.703  1.00  0.00     0.047 A 
ATOM      6  C   UNL     1       7.421 -35.050  16.345  1.00  0.00     0.019 A 
ENDROOT
BRANCH   1   7
ATOM      7  C   UNL     1       8.433 -34.248  14.214  1.00  0.00     0.163 C 
ATOM      8  C   UNL     1       9.001 -35.527  13.680  1.00  0.00     0.093 C 
ATOM      9  O   UNL     1       8.202 -33.313  13.399  1.00  0.00    -0.294 OA
ENDBRANCH   1   7
BRANCH   2  10
ATOM     10  O   UNL     1       9.187 -31.844  15.714  1.00  0.00    -0.507 OA
ATOM     11  H   UNL     1      10.193 -31.848  15.585  1.00  0.00     0.293 HD
ENDBRANCH   2  10
BRANCH   4  12
ATOM     12  O   UNL     1       7.246 -33.625  19.755  1.00  0.00    -0.508 OA
ATOM     13  H   UNL     1       7.475 -34.349  20.425  1.00  0.00     0.293 HD
ENDBRANCH   4  12
TORSDOF 3
ENDMDL
MODEL 4
REMARK VINA RESULT:    -4.123      1.495      2.328
REMARK INTER + INTRA:          -4.902
REMARK INTER:                  -4.596
REMARK INTRA:                  -0.306
REMARK UNBOUND:                -0.297
REMARK SMILES CC(=O)c1ccc(O)cc1O
REMARK SMILES IDX 4 1 10 2 9 3 7 4 6 5 5 6 2 7 1 8 3 9 11 10 8 12
REMARK H PARENT 11 11 8 13
REMARK Flexibility Score: inf
ROOT
ATOM      1  C   UNL     1       8.159 -33.129  15.520  1.00  0.00     0.059 A 
ATOM      2  C   UNL     1       7.251 -34.117  15.971  1.00  0.00     0.130 A 
ATOM      3  C   UNL     1       6.991 -34.253  17.343  1.00  0.00     0.093 A 
ATOM      4  C   UNL     1       7.633 -33.434  18.274  1.00  0.00     0.119 A 
ATOM      5  C   UNL     1       8.545 -32.469  17.835  1.00  0.00     0.047 A 
ATOM      6  C   UNL     1       8.808 -32.319  16.472  1.00  0.00     0.019 A 
ENDROOT
BRANCH   1   7
ATOM      7  C   UNL     1       8.465 -32.922  14.078  1.00  0.00     0.163 C 
ATOM      8  C   UNL     1       9.864 -32.759  13.568  1.00  0.00     0.093 C 
ATOM      9  O   UNL     1       7.519 -32.883  13.245  1.00  0.00    -0.294 OA
ENDBRANCH   1   7
BRANCH   2  10
ATOM     10  O   UNL     1       6.623 -34.976  15.071  1.00  0.00    -0.507 OA
ATOM     11  H   UNL     1       6.242 -35.869  15.363  1.00  0.00     0.293 HD
ENDBRANCH   2  10
BRANCH   4  12
ATOM     12  O   UNL     1       7.361 -33.588  19.632  1.00  0.00    -0.508 OA
ATOM     13  H   UNL     1       8.101 -33.740  20.306  1.00  0.00     0.293 HD
ENDBRANCH   4  12
TORSDOF 3
ENDMDL
MODEL 5
REMARK VINA RESULT:    -3.946      1.926      3.755
REMARK INTER + INTRA:          -4.704
REMARK INTER:                  -4.549
REMARK INTRA:                  -0.155
REMARK UNBOUND:                -0.297
REMARK SMILES CC(=O)c1ccc(O)cc1O
REMARK SMILES IDX 4 1 10 2 9 3 7 4 6 5 5 6 2 7 1 8 3 9 11 10 8 12
REMARK H PARENT 11 11 8 13
REMARK Flexibility Score: inf
ROOT
ATOM      1  C   UNL     1       8.650 -32.467  17.475  1.00  0.00     0.059 A 
ATOM      2  C   UNL     1       7.735 -33.308  18.151  1.00  0.00     0.130 A 
ATOM      3  C   UNL     1       6.908 -34.173  17.418  1.00  0.00     0.093 A 
ATOM      4  C   UNL     1       6.966 -34.202  16.024  1.00  0.00     0.119 A 
ATOM      5  C   UNL     1       7.856 -33.360  15.350  1.00  0.00     0.047 A 
ATOM      6  C   UNL     1       8.688 -32.499  16.067  1.00  0.00     0.019 A 
ENDROOT
BRANCH   1   7
ATOM      7  C   UNL     1       9.567 -31.540  18.193  1.00  0.00     0.163 C 
ATOM      8  C   UNL     1      10.503 -30.617  17.475  1.00  0.00     0.093 C 
ATOM      9  O   UNL     1       9.562 -31.521  19.454  1.00  0.00    -0.294 OA
ENDBRANCH   1   7
BRANCH   2  10
ATOM     10  O   UNL     1       7.625 -33.276  19.540  1.00  0.00    -0.507 OA
ATOM     11  H   UNL     1       7.808 -34.094  20.110  1.00  0.00     0.293 HD
ENDBRANCH   2  10
BRANCH   4  12
ATOM     12  O   UNL     1       6.134 -35.068  15.317  1.00  0.00    -0.508 OA
ATOM     13  H   UNL     1       5.199 -35.286  15.641  1.00  0.00     0.293 HD
ENDBRANCH   4  12
TORSDOF 3
ENDMDL
MODEL 6
REMARK VINA RESULT:    -3.738      1.775      4.044
REMARK INTER + INTRA:          -4.472
REMARK INTER:                  -4.167
REMARK INTRA:                  -0.305
REMARK UNBOUND:                -0.297
REMARK SMILES CC(=O)c1ccc(O)cc1O
REMARK SMILES IDX 4 1 10 2 9 3 7 4 6 5 5 6 2 7 1 8 3 9 11 10 8 12
REMARK H PARENT 11 11 8 13
REMARK Flexibility Score: inf
ROOT
ATOM      1  C   UNL     1       8.098 -34.514  16.043  1.00  0.00     0.059 A 
ATOM      2  C   UNL     1       8.197 -33.127  16.303  1.00  0.00     0.130 A 
ATOM      3  C   UNL     1       9.011 -32.320  15.493  1.00  0.00     0.093 A 
ATOM      4  C   UNL     1       9.741 -32.874  14.441  1.00  0.00     0.119 A 
ATOM      5  C   UNL     1       9.661 -34.248  14.191  1.00  0.00     0.047 A 
ATOM      6  C   UNL     1       8.850 -35.061  14.985  1.00  0.00     0.019 A 
ENDROOT
BRANCH   1   7
ATOM      7  C   UNL     1       7.239 -35.421  16.852  1.00  0.00     0.163 C 
ATOM      8  C   UNL     1       6.215 -36.323  16.234  1.00  0.00     0.093 C 
ATOM      9  O   UNL     1       7.372 -35.442  18.106  1.00  0.00    -0.294 OA
ENDBRANCH   1   7
BRANCH   2  10
ATOM     10  O   UNL     1       7.511 -32.548  17.370  1.00  0.00    -0.507 OA
ATOM     11  H   UNL     1       6.527 -32.728  17.533  1.00  0.00     0.293 HD
ENDBRANCH   2  10
BRANCH   4  12
ATOM     12  O   UNL     1      10.544 -32.054  13.651  1.00  0.00    -0.508 OA
ATOM     13  H   UNL     1      10.350 -31.065  13.547  1.00  0.00     0.293 HD
ENDBRANCH   4  12
TORSDOF 3
ENDMDL
MODEL 7
REMARK VINA RESULT:    -3.683      1.779      4.381
REMARK INTER + INTRA:          -4.410
REMARK INTER:                  -4.104
REMARK INTRA:                  -0.306
REMARK UNBOUND:                -0.297
REMARK SMILES CC(=O)c1ccc(O)cc1O
REMARK SMILES IDX 4 1 10 2 9 3 7 4 6 5 5 6 2 7 1 8 3 9 11 10 8 12
REMARK H PARENT 11 11 8 13
REMARK Flexibility Score: inf
ROOT
ATOM      1  C   UNL     1       8.459 -33.285  16.776  1.00  0.00     0.059 A 
ATOM      2  C   UNL     1       8.369 -34.689  16.619  1.00  0.00     0.130 A 
ATOM      3  C   UNL     1       8.515 -35.261  15.346  1.00  0.00     0.093 A 
ATOM      4  C   UNL     1       8.733 -34.457  14.226  1.00  0.00     0.119 A 
ATOM      5  C   UNL     1       8.805 -33.068  14.372  1.00  0.00     0.047 A 
ATOM      6  C   UNL     1       8.667 -32.487  15.635  1.00  0.00     0.019 A 
ENDROOT
BRANCH   1   7
ATOM      7  C   UNL     1       8.331 -32.618  18.101  1.00  0.00     0.163 C 
ATOM      8  C   UNL     1       9.315 -31.599  18.587  1.00  0.00     0.093 C 
ATOM      9  O   UNL     1       7.359 -32.912  18.849  1.00  0.00    -0.294 OA
ENDBRANCH   1   7
BRANCH   2  10
ATOM     10  O   UNL     1       8.113 -35.516  17.712  1.00  0.00    -0.507 OA
ATOM     11  H   UNL     1       7.239 -36.020  17.807  1.00  0.00     0.293 HD
ENDBRANCH   2  10
BRANCH   4  12
ATOM     12  O   UNL     1       8.873 -35.047  12.971  1.00  0.00    -0.508 OA
ATOM     13  H   UNL     1       9.766 -35.401  12.650  1.00  0.00     0.293 HD
ENDBRANCH   4  12
TORSDOF 3
ENDMDL
MODEL 8
REMARK VINA RESULT:    -3.677      2.397      3.187
REMARK INTER + INTRA:          -4.404
REMARK INTER:                  -4.124
REMARK INTRA:                  -0.279
REMARK UNBOUND:                -0.297
REMARK SMILES CC(=O)c1ccc(O)cc1O
REMARK SMILES IDX 4 1 10 2 9 3 7 4 6 5 5 6 2 7 1 8 3 9 11 10 8 12
REMARK H PARENT 11 11 8 13
REMARK Flexibility Score: inf
ROOT
ATOM      1  C   UNL     1       8.079 -34.850  15.653  1.00  0.00     0.059 A 
ATOM      2  C   UNL     1       7.451 -35.079  16.900  1.00  0.00     0.130 A 
ATOM      3  C   UNL     1       7.388 -34.049  17.851  1.00  0.00     0.093 A 
ATOM      4  C   UNL     1       7.955 -32.801  17.588  1.00  0.00     0.119 A 
ATOM      5  C   UNL     1       8.593 -32.574  16.364  1.00  0.00     0.047 A 
ATOM      6  C   UNL     1       8.657 -33.589  15.407  1.00  0.00     0.019 A 
ENDROOT
BRANCH   1   7
ATOM      7  C   UNL     1       8.164 -35.893  14.596  1.00  0.00     0.163 C 
ATOM      8  C   UNL     1       9.290 -35.947  13.607  1.00  0.00     0.093 C 
ATOM      9  O   UNL     1       7.263 -36.772  14.520  1.00  0.00    -0.294 OA
ENDBRANCH   1   7
BRANCH   2  10
ATOM     10  O   UNL     1       6.909 -36.326  17.210  1.00  0.00    -0.507 OA
ATOM     11  H   UNL     1       6.894 -36.680  18.159  1.00  0.00     0.293 HD
ENDBRANCH   2  10
BRANCH   4  12
ATOM     12  O   UNL     1       7.881 -31.794  18.548  1.00  0.00    -0.508 OA
ATOM     13  H   UNL     1       8.596 -31.081  18.623  1.00  0.00     0.293 HD
ENDBRANCH   4  12
TORSDOF 3
ENDMDL
