MODEL 1
REMARK VINA RESULT:    -2.159      0.000      0.000
REMARK INTER + INTRA:          -3.592
REMARK INTER:                  -2.917
REMARK INTRA:                  -0.675
REMARK UNBOUND:                -0.675
REMARK SMILES O=c1c(-c2ccc(O)cc2)coc2c([C@@H]3O[C@H](CO)[C@H](O)[C@@H](O)[C@@H]3O)c(O)ccc12
REMARK SMILES IDX 3 1 11 2 12 3 13 4 30 5 2 6 1 7 29 8 28 9 26 10 14 11 4 12
REMARK SMILES IDX 5 13 6 14 7 15 10 16 9 17 8 18 15 20 24 21 16 22 22 23 17 24
REMARK SMILES IDX 20 25 25 26 23 28 18 30 19 31 21 33 27 35
REMARK H PARENT 8 19 25 27 23 29 19 32 21 34 27 36
REMARK Flexibility Score: inf
ROOT
ATOM      1  C   UNL     1      12.776  15.320 163.734  1.00  0.00     0.065 A 
ATOM      2  C   UNL     1      11.870  14.732 164.631  1.00  0.00     0.208 A 
ATOM      3  O   UNL     1      10.767  15.370 164.999  1.00  0.00    -0.463 OA
ATOM      4  C   UNL     1      10.443  16.584 164.561  1.00  0.00     0.147 A 
ATOM      5  C   UNL     1      11.300  17.250 163.652  1.00  0.00     0.066 A 
ATOM      6  C   UNL     1      12.485  16.607 163.248  1.00  0.00     0.200 A 
ATOM      7  O   UNL     1      13.293  17.192 162.474  1.00  0.00    -0.288 OA
ATOM      8  C   UNL     1      10.955  18.526 163.180  1.00  0.00     0.020 A 
ATOM      9  C   UNL     1       9.764  19.125 163.586  1.00  0.00     0.047 A 
ATOM     10  C   UNL     1       8.909  18.476 164.483  1.00  0.00     0.125 A 
ATOM     11  C   UNL     1       9.248  17.206 165.002  1.00  0.00     0.069 A 
ENDROOT
BRANCH   1  12
ATOM     12  C   UNL     1      14.008  14.589 163.343  1.00  0.00    -0.011 A 
ATOM     13  C   UNL     1      13.950  13.218 163.033  1.00  0.00     0.013 A 
ATOM     14  C   UNL     1      15.103  12.531 162.643  1.00  0.00     0.047 A 
ATOM     15  C   UNL     1      16.328  13.205 162.556  1.00  0.00     0.115 A 
ATOM     16  C   UNL     1      15.243  15.259 163.254  1.00  0.00     0.013 A 
ATOM     17  C   UNL     1      16.394  14.566 162.866  1.00  0.00     0.047 A 
BRANCH  15  18
ATOM     18  O   UNL     1      17.480  12.534 162.151  1.00  0.00    -0.508 OA
ATOM     19  H   UNL     1      18.381  12.737 162.565  1.00  0.00     0.293 HD
ENDBRANCH  15  18
ENDBRANCH   1  12
BRANCH  11  20
ATOM     20  C   UNL     1       8.282  16.505 165.954  1.00  0.00     0.188 C 
ATOM     21  C   UNL     1       8.620  16.847 167.430  1.00  0.00     0.179 C 
ATOM     22  O   UNL     1       6.942  16.848 165.649  1.00  0.00    -0.362 OA
ATOM     23  C   UNL     1       7.576  16.261 168.420  1.00  0.00     0.177 C 
ATOM     24  C   UNL     1       5.968  16.164 166.437  1.00  0.00     0.176 C 
ATOM     25  C   UNL     1       6.525  15.411 167.691  1.00  0.00     0.177 C 
BRANCH  21  26
ATOM     26  O   UNL     1       8.745  18.237 167.616  1.00  0.00    -0.387 OA
ATOM     27  H   UNL     1       9.684  18.416 167.888  1.00  0.00     0.211 HD
ENDBRANCH  21  26
BRANCH  23  28
ATOM     28  O   UNL     1       8.233  15.463 169.372  1.00  0.00    -0.387 OA
ATOM     29  H   UNL     1       9.208  15.631 169.285  1.00  0.00     0.211 HD
ENDBRANCH  23  28
BRANCH  24  30
ATOM     30  C   UNL     1       4.875  17.181 166.820  1.00  0.00     0.191 C 
BRANCH  30  31
ATOM     31  O   UNL     1       5.267  18.479 166.457  1.00  0.00    -0.394 OA
ATOM     32  H   UNL     1       5.552  18.440 165.507  1.00  0.00     0.210 HD
ENDBRANCH  30  31
ENDBRANCH  24  30
BRANCH  25  33
ATOM     33  O   UNL     1       5.496  15.066 168.582  1.00  0.00    -0.388 OA
ATOM     34  H   UNL     1       5.772  14.225 169.028  1.00  0.00     0.211 HD
ENDBRANCH  25  33
ENDBRANCH  11  20
BRANCH  10  35
ATOM     35  O   UNL     1       7.717  19.095 164.860  1.00  0.00    -0.507 OA
ATOM     36  H   UNL     1       7.691  19.811 165.574  1.00  0.00     0.293 HD
ENDBRANCH  10  35
TORSDOF 9
ENDMDL
MODEL 2
REMARK VINA RESULT:    -1.508      1.681      8.339
REMARK INTER + INTRA:          -2.713
REMARK INTER:                  -2.053
REMARK INTRA:                  -0.660
REMARK UNBOUND:                -0.675
REMARK SMILES O=c1c(-c2ccc(O)cc2)coc2c([C@@H]3O[C@H](CO)[C@H](O)[C@@H](O)[C@@H]3O)c(O)ccc12
REMARK SMILES IDX 3 1 11 2 12 3 13 4 30 5 2 6 1 7 29 8 28 9 26 10 14 11 4 12
REMARK SMILES IDX 5 13 6 14 7 15 10 16 9 17 8 18 15 20 24 21 16 22 22 23 17 24
REMARK SMILES IDX 20 25 25 26 23 28 18 30 19 31 21 33 27 35
REMARK H PARENT 8 19 25 27 23 29 19 32 21 34 27 36
REMARK Flexibility Score: inf
ROOT
ATOM      1  C   UNL     1       8.639  16.046 166.948  1.00  0.00     0.065 A 
ATOM      2  C   UNL     1       9.573  15.044 166.646  1.00  0.00     0.208 A 
ATOM      3  O   UNL     1      10.455  15.208 165.668  1.00  0.00    -0.463 OA
ATOM      4  C   UNL     1      10.517  16.304 164.916  1.00  0.00     0.147 A 
ATOM      5  C   UNL     1       9.613  17.366 165.153  1.00  0.00     0.066 A 
ATOM      6  C   UNL     1       8.657  17.222 166.177  1.00  0.00     0.200 A 
ATOM      7  O   UNL     1       7.806  18.131 166.384  1.00  0.00    -0.288 OA
ATOM      8  C   UNL     1       9.684  18.528 164.369  1.00  0.00     0.020 A 
ATOM      9  C   UNL     1      10.655  18.644 163.377  1.00  0.00     0.047 A 
ATOM     10  C   UNL     1      11.556  17.601 163.134  1.00  0.00     0.125 A 
ATOM     11  C   UNL     1      11.484  16.406 163.885  1.00  0.00     0.069 A 
ENDROOT
BRANCH   1  12
ATOM     12  C   UNL     1       7.657  15.836 168.043  1.00  0.00    -0.011 A 
ATOM     13  C   UNL     1       6.277  15.855 167.770  1.00  0.00     0.013 A 
ATOM     14  C   UNL     1       5.350  15.636 168.793  1.00  0.00     0.047 A 
ATOM     15  C   UNL     1       5.790  15.393 170.101  1.00  0.00     0.115 A 
ATOM     16  C   UNL     1       8.091  15.593 169.360  1.00  0.00     0.013 A 
ATOM     17  C   UNL     1       7.160  15.377 170.380  1.00  0.00     0.047 A 
BRANCH  15  18
ATOM     18  O   UNL     1       4.875  15.157 171.125  1.00  0.00    -0.508 OA
ATOM     19  H   UNL     1       4.729  14.226 171.495  1.00  0.00     0.293 HD
ENDBRANCH  15  18
ENDBRANCH   1  12
BRANCH  11  20
ATOM     20  C   UNL     1      12.499  15.297 163.622  1.00  0.00     0.188 C 
ATOM     21  C   UNL     1      12.098  14.470 162.371  1.00  0.00     0.179 C 
ATOM     22  O   UNL     1      13.802  15.834 163.478  1.00  0.00    -0.362 OA
ATOM     23  C   UNL     1      13.179  13.419 161.994  1.00  0.00     0.177 C 
ATOM     24  C   UNL     1      14.827  14.853 163.319  1.00  0.00     0.176 C 
ATOM     25  C   UNL     1      14.327  13.402 163.014  1.00  0.00     0.177 C 
BRANCH  21  26
ATOM     26  O   UNL     1      11.825  15.307 161.272  1.00  0.00    -0.387 OA
ATOM     27  H   UNL     1      12.639  15.323 160.703  1.00  0.00     0.211 HD
ENDBRANCH  21  26
BRANCH  23  28
ATOM     28  O   UNL     1      12.590  12.143 161.943  1.00  0.00    -0.387 OA
ATOM     29  H   UNL     1      11.760  12.216 161.402  1.00  0.00     0.211 HD
ENDBRANCH  23  28
BRANCH  24  30
ATOM     30  C   UNL     1      15.799  15.362 162.236  1.00  0.00     0.191 C 
BRANCH  30  31
ATOM     31  O   UNL     1      17.039  14.713 162.348  1.00  0.00    -0.394 OA
ATOM     32  H   UNL     1      16.849  13.766 162.580  1.00  0.00     0.210 HD
ENDBRANCH  30  31
ENDBRANCH  24  30
BRANCH  25  33
ATOM     33  O   UNL     1      15.369  12.589 162.538  1.00  0.00    -0.388 OA
ATOM     34  H   UNL     1      16.189  12.859 163.025  1.00  0.00     0.211 HD
ENDBRANCH  25  33
ENDBRANCH  11  20
BRANCH  10  35
ATOM     35  O   UNL     1      12.526  17.753 162.144  1.00  0.00    -0.507 OA
ATOM     36  H   UNL     1      12.923  16.958 161.660  1.00  0.00     0.293 HD
ENDBRANCH  10  35
TORSDOF 9
ENDMDL
MODEL 3
REMARK VINA RESULT:    -0.712      2.697      8.491
REMARK INTER + INTRA:          -1.637
REMARK INTER:                  -2.230
REMARK INTRA:                   0.593
REMARK UNBOUND:                -0.675
REMARK SMILES O=c1c(-c2ccc(O)cc2)coc2c([C@@H]3O[C@H](CO)[C@H](O)[C@@H](O)[C@@H]3O)c(O)ccc12
REMARK SMILES IDX 3 1 11 2 12 3 13 4 30 5 2 6 1 7 29 8 28 9 26 10 14 11 4 12
REMARK SMILES IDX 5 13 6 14 7 15 10 16 9 17 8 18 15 20 24 21 16 22 22 23 17 24
REMARK SMILES IDX 20 25 25 26 23 28 18 30 19 31 21 33 27 35
REMARK H PARENT 8 19 25 27 23 29 19 32 21 34 27 36
REMARK Flexibility Score: inf
ROOT
ATOM      1  C   UNL     1       9.227  16.802 165.475  1.00  0.00     0.065 A 
ATOM      2  C   UNL     1       9.529  17.245 164.178  1.00  0.00     0.208 A 
ATOM      3  O   UNL     1      10.538  16.717 163.497  1.00  0.00    -0.463 OA
ATOM      4  C   UNL     1      11.322  15.756 163.979  1.00  0.00     0.147 A 
ATOM      5  C   UNL     1      11.087  15.249 165.279  1.00  0.00     0.066 A 
ATOM      6  C   UNL     1      10.031  15.793 166.034  1.00  0.00     0.200 A 
ATOM      7  O   UNL     1       9.823  15.396 167.214  1.00  0.00    -0.288 OA
ATOM      8  C   UNL     1      11.906  14.227 165.785  1.00  0.00     0.020 A 
ATOM      9  C   UNL     1      12.931  13.699 165.003  1.00  0.00     0.047 A 
ATOM     10  C   UNL     1      13.172  14.191 163.715  1.00  0.00     0.125 A 
ATOM     11  C   UNL     1      12.386  15.244 163.194  1.00  0.00     0.069 A 
ENDROOT
BRANCH   1  12
ATOM     12  C   UNL     1       8.096  17.413 166.220  1.00  0.00    -0.011 A 
ATOM     13  C   UNL     1       6.817  16.828 166.171  1.00  0.00     0.013 A 
ATOM     14  C   UNL     1       5.756  17.387 166.888  1.00  0.00     0.047 A 
ATOM     15  C   UNL     1       5.959  18.536 167.664  1.00  0.00     0.115 A 
ATOM     16  C   UNL     1       8.292  18.568 167.001  1.00  0.00     0.013 A 
ATOM     17  C   UNL     1       7.226  19.125 167.714  1.00  0.00     0.047 A 
BRANCH  15  18
ATOM     18  O   UNL     1       4.912  19.092 168.397  1.00  0.00    -0.508 OA
ATOM     19  H   UNL     1       3.977  19.156 168.014  1.00  0.00     0.293 HD
ENDBRANCH  15  18
ENDBRANCH   1  12
BRANCH  11  20
ATOM     20  C   UNL     1      12.648  15.740 161.775  1.00  0.00     0.188 C 
ATOM     21  C   UNL     1      13.010  14.557 160.837  1.00  0.00     0.179 C 
ATOM     22  O   UNL     1      11.530  16.454 161.280  1.00  0.00    -0.362 OA
ATOM     23  C   UNL     1      13.151  15.006 159.357  1.00  0.00     0.177 C 
ATOM     24  C   UNL     1      11.727  17.031 159.989  1.00  0.00     0.176 C 
ATOM     25  C   UNL     1      12.989  16.526 159.212  1.00  0.00     0.177 C 
BRANCH  21  26
ATOM     26  O   UNL     1      12.071  13.514 160.945  1.00  0.00    -0.387 OA
ATOM     27  H   UNL     1      12.475  12.707 160.529  1.00  0.00     0.211 HD
ENDBRANCH  21  26
BRANCH  23  28
ATOM     28  O   UNL     1      14.417  14.631 158.874  1.00  0.00    -0.387 OA
ATOM     29  H   UNL     1      15.059  15.348 159.121  1.00  0.00     0.211 HD
ENDBRANCH  23  28
BRANCH  24  30
ATOM     30  C   UNL     1      10.434  16.818 159.177  1.00  0.00     0.191 C 
BRANCH  30  31
ATOM     31  O   UNL     1       9.693  15.752 159.709  1.00  0.00    -0.394 OA
ATOM     32  H   UNL     1       8.757  16.071 159.808  1.00  0.00     0.210 HD
ENDBRANCH  30  31
ENDBRANCH  24  30
BRANCH  25  33
ATOM     33  O   UNL     1      12.925  16.868 157.851  1.00  0.00    -0.388 OA
ATOM     34  H   UNL     1      12.565  16.077 157.373  1.00  0.00     0.211 HD
ENDBRANCH  25  33
ENDBRANCH  11  20
BRANCH  10  35
ATOM     35  O   UNL     1      14.196  13.632 162.951  1.00  0.00    -0.507 OA
ATOM     36  H   UNL     1      14.209  13.709 161.942  1.00  0.00     0.293 HD
ENDBRANCH  10  35
TORSDOF 9
ENDMDL
MODEL 4
REMARK VINA RESULT:     0.122      2.159      8.724
REMARK INTER + INTRA:          -0.511
REMARK INTER:                  -0.349
REMARK INTRA:                  -0.162
REMARK UNBOUND:                -0.675
REMARK SMILES O=c1c(-c2ccc(O)cc2)coc2c([C@@H]3O[C@H](CO)[C@H](O)[C@@H](O)[C@@H]3O)c(O)ccc12
REMARK SMILES IDX 3 1 11 2 12 3 13 4 30 5 2 6 1 7 29 8 28 9 26 10 14 11 4 12
REMARK SMILES IDX 5 13 6 14 7 15 10 16 9 17 8 18 15 20 24 21 16 22 22 23 17 24
REMARK SMILES IDX 20 25 25 26 23 28 18 30 19 31 21 33 27 35
REMARK H PARENT 8 19 25 27 23 29 19 32 21 34 27 36
REMARK Flexibility Score: inf
ROOT
ATOM      1  C   UNL     1      10.195  16.332 164.923  1.00  0.00     0.065 A 
ATOM      2  C   UNL     1      11.530  16.036 165.238  1.00  0.00     0.208 A 
ATOM      3  O   UNL     1      12.394  15.701 164.288  1.00  0.00    -0.463 OA
ATOM      4  C   UNL     1      12.070  15.619 163.000  1.00  0.00     0.147 A 
ATOM      5  C   UNL     1      10.745  15.902 162.595  1.00  0.00     0.066 A 
ATOM      6  C   UNL     1       9.798  16.251 163.576  1.00  0.00     0.200 A 
ATOM      7  O   UNL     1       8.597  16.465 163.254  1.00  0.00    -0.288 OA
ATOM      8  C   UNL     1      10.403  15.827 161.235  1.00  0.00     0.020 A 
ATOM      9  C   UNL     1      11.370  15.497 160.288  1.00  0.00     0.047 A 
ATOM     10  C   UNL     1      12.684  15.216 160.677  1.00  0.00     0.125 A 
ATOM     11  C   UNL     1      13.048  15.249 162.042  1.00  0.00     0.069 A 
ENDROOT
BRANCH   1  12
ATOM     12  C   UNL     1       9.244  16.697 166.005  1.00  0.00    -0.011 A 
ATOM     13  C   UNL     1       8.590  17.943 165.981  1.00  0.00     0.013 A 
ATOM     14  C   UNL     1       7.678  18.282 166.984  1.00  0.00     0.047 A 
ATOM     15  C   UNL     1       7.407  17.381 168.022  1.00  0.00     0.115 A 
ATOM     16  C   UNL     1       8.966  15.798 167.051  1.00  0.00     0.013 A 
ATOM     17  C   UNL     1       8.056  16.143 168.055  1.00  0.00     0.047 A 
BRANCH  15  18
ATOM     18  O   UNL     1       6.486  17.702 169.019  1.00  0.00    -0.508 OA
ATOM     19  H   UNL     1       6.713  18.360 169.753  1.00  0.00     0.293 HD
ENDBRANCH  15  18
ENDBRANCH   1  12
BRANCH  11  20
ATOM     20  C   UNL     1      14.495  14.971 162.437  1.00  0.00     0.188 C 
ATOM     21  C   UNL     1      14.590  13.687 163.305  1.00  0.00     0.179 C 
ATOM     22  O   UNL     1      15.316  14.868 161.288  1.00  0.00    -0.362 OA
ATOM     23  C   UNL     1      16.063  13.297 163.612  1.00  0.00     0.177 C 
ATOM     24  C   UNL     1      16.705  14.697 161.573  1.00  0.00     0.176 C 
ATOM     25  C   UNL     1      17.048  14.337 163.058  1.00  0.00     0.177 C 
BRANCH  21  26
ATOM     26  O   UNL     1      13.915  12.610 162.699  1.00  0.00    -0.387 OA
ATOM     27  H   UNL     1      13.918  11.857 163.347  1.00  0.00     0.211 HD
ENDBRANCH  21  26
BRANCH  23  28
ATOM     28  O   UNL     1      16.237  13.195 165.004  1.00  0.00    -0.387 OA
ATOM     29  H   UNL     1      15.894  14.032 165.413  1.00  0.00     0.211 HD
ENDBRANCH  23  28
BRANCH  24  30
ATOM     30  C   UNL     1      17.261  13.649 160.589  1.00  0.00     0.191 C 
BRANCH  30  31
ATOM     31  O   UNL     1      17.053  14.063 159.264  1.00  0.00    -0.394 OA
ATOM     32  H   UNL     1      16.643  13.297 158.783  1.00  0.00     0.210 HD
ENDBRANCH  30  31
ENDBRANCH  24  30
BRANCH  25  33
ATOM     33  O   UNL     1      18.362  13.855 163.179  1.00  0.00    -0.388 OA
ATOM     34  H   UNL     1      18.298  12.872 163.287  1.00  0.00     0.211 HD
ENDBRANCH  25  33
ENDBRANCH  11  20
BRANCH  10  35
ATOM     35  O   UNL     1      13.633  14.903 159.704  1.00  0.00    -0.507 OA
ATOM     36  H   UNL     1      14.529  15.371 159.664  1.00  0.00     0.293 HD
ENDBRANCH  10  35
TORSDOF 9
ENDMDL
