MODEL 1
REMARK VINA RESULT:    -3.268      0.000      0.000
REMARK INTER + INTRA:          -4.210
REMARK INTER:                  -4.127
REMARK INTRA:                  -0.083
REMARK UNBOUND:                -0.083
REMARK SMILES CCCCCCO
REMARK SMILES IDX 4 1 3 2 2 3 1 4 5 5 6 6 7 7
REMARK H PARENT 7 8
REMARK Flexibility Score: inf
ROOT
ATOM      1  C   UNL     1     165.509 178.385 167.099  1.00  0.00     0.002 C 
ENDROOT
BRANCH   1   2
ATOM      2  C   UNL     1     164.594 177.605 168.055  1.00  0.00    -0.000 C 
BRANCH   2   3
ATOM      3  C   UNL     1     163.456 178.468 168.621  1.00  0.00    -0.003 C 
ATOM      4  C   UNL     1     163.008 178.019 170.010  1.00  0.00     0.004 C 
ENDBRANCH   2   3
ENDBRANCH   1   2
BRANCH   1   5
ATOM      5  C   UNL     1     166.114 177.457 166.040  1.00  0.00     0.028 C 
BRANCH   5   6
ATOM      6  C   UNL     1     165.695 176.003 166.274  1.00  0.00     0.156 C 
BRANCH   6   7
ATOM      7  O   UNL     1     166.815 175.222 166.588  1.00  0.00    -0.396 OA
ATOM      8  H   UNL     1     166.648 174.834 167.487  1.00  0.00     0.210 HD
ENDBRANCH   6   7
ENDBRANCH   5   6
ENDBRANCH   1   5
TORSDOF 5
ENDMDL
MODEL 2
REMARK VINA RESULT:    -3.218     17.622     18.503
REMARK INTER + INTRA:          -4.147
REMARK INTER:                  -4.022
REMARK INTRA:                  -0.125
REMARK UNBOUND:                -0.083
REMARK SMILES CCCCCCO
REMARK SMILES IDX 4 1 3 2 2 3 1 4 5 5 6 6 7 7
REMARK H PARENT 7 8
REMARK Flexibility Score: inf
ROOT
ATOM      1  C   UNL     1     174.441 162.410 169.533  1.00  0.00     0.002 C 
ENDROOT
BRANCH   1   2
ATOM      2  C   UNL     1     175.776 161.651 169.507  1.00  0.00    -0.000 C 
BRANCH   2   3
ATOM      3  C   UNL     1     176.599 161.945 168.243  1.00  0.00    -0.003 C 
ATOM      4  C   UNL     1     177.529 163.146 168.410  1.00  0.00     0.004 C 
ENDBRANCH   2   3
ENDBRANCH   1   2
BRANCH   1   5
ATOM      5  C   UNL     1     173.646 162.165 168.244  1.00  0.00     0.028 C 
BRANCH   5   6
ATOM      6  C   UNL     1     172.323 161.453 168.539  1.00  0.00     0.156 C 
BRANCH   6   7
ATOM      7  O   UNL     1     172.214 161.183 169.909  1.00  0.00    -0.396 OA
ATOM      8  H   UNL     1     172.149 162.061 170.368  1.00  0.00     0.210 HD
ENDBRANCH   6   7
ENDBRANCH   5   6
ENDBRANCH   1   5
TORSDOF 5
ENDMDL
MODEL 3
REMARK VINA RESULT:    -3.209     11.227     12.404
REMARK INTER + INTRA:          -4.136
REMARK INTER:                  -3.922
REMARK INTRA:                  -0.214
REMARK UNBOUND:                -0.083
REMARK SMILES CCCCCCO
REMARK SMILES IDX 4 1 3 2 2 3 1 4 5 5 6 6 7 7
REMARK H PARENT 7 8
REMARK Flexibility Score: inf
ROOT
ATOM      1  C   UNL     1     176.967 174.031 170.058  1.00  0.00     0.002 C 
ENDROOT
BRANCH   1   2
ATOM      2  C   UNL     1     177.207 173.341 168.706  1.00  0.00    -0.000 C 
BRANCH   2   3
ATOM      3  C   UNL     1     176.473 174.038 167.549  1.00  0.00    -0.003 C 
ATOM      4  C   UNL     1     174.954 173.915 167.654  1.00  0.00     0.004 C 
ENDBRANCH   2   3
ENDBRANCH   1   2
BRANCH   1   5
ATOM      5  C   UNL     1     177.724 175.362 170.136  1.00  0.00     0.028 C 
BRANCH   5   6
ATOM      6  C   UNL     1     176.753 176.545 170.205  1.00  0.00     0.156 C 
BRANCH   6   7
ATOM      7  O   UNL     1     175.464 176.095 170.519  1.00  0.00    -0.396 OA
ATOM      8  H   UNL     1     175.083 176.751 171.161  1.00  0.00     0.210 HD
ENDBRANCH   6   7
ENDBRANCH   5   6
ENDBRANCH   1   5
TORSDOF 5
ENDMDL
MODEL 4
REMARK VINA RESULT:    -3.200     11.609     12.677
REMARK INTER + INTRA:          -4.125
REMARK INTER:                  -4.061
REMARK INTRA:                  -0.064
REMARK UNBOUND:                -0.083
REMARK SMILES CCCCCCO
REMARK SMILES IDX 4 1 3 2 2 3 1 4 5 5 6 6 7 7
REMARK H PARENT 7 8
REMARK Flexibility Score: inf
ROOT
ATOM      1  C   UNL     1     177.547 174.337 167.954  1.00  0.00     0.002 C 
ENDROOT
BRANCH   1   2
ATOM      2  C   UNL     1     177.817 173.238 168.993  1.00  0.00    -0.000 C 
BRANCH   2   3
ATOM      3  C   UNL     1     177.668 173.741 170.438  1.00  0.00    -0.003 C 
ATOM      4  C   UNL     1     178.989 173.734 171.205  1.00  0.00     0.004 C 
ENDBRANCH   2   3
ENDBRANCH   1   2
BRANCH   1   5
ATOM      5  C   UNL     1     176.108 174.855 168.065  1.00  0.00     0.028 C 
BRANCH   5   6
ATOM      6  C   UNL     1     175.098 173.716 167.896  1.00  0.00     0.156 C 
BRANCH   6   7
ATOM      7  O   UNL     1     174.336 173.914 166.737  1.00  0.00    -0.396 OA
ATOM      8  H   UNL     1     174.978 174.104 166.004  1.00  0.00     0.210 HD
ENDBRANCH   6   7
ENDBRANCH   5   6
ENDBRANCH   1   5
TORSDOF 5
ENDMDL
MODEL 5
REMARK VINA RESULT:    -3.194     10.851     11.831
REMARK INTER + INTRA:          -4.117
REMARK INTER:                  -3.970
REMARK INTRA:                  -0.147
REMARK UNBOUND:                -0.083
REMARK SMILES CCCCCCO
REMARK SMILES IDX 4 1 3 2 2 3 1 4 5 5 6 6 7 7
REMARK H PARENT 7 8
REMARK Flexibility Score: inf
ROOT
ATOM      1  C   UNL     1     177.198 173.436 168.761  1.00  0.00     0.002 C 
ENDROOT
BRANCH   1   2
ATOM      2  C   UNL     1     176.828 174.187 170.048  1.00  0.00    -0.000 C 
BRANCH   2   3
ATOM      3  C   UNL     1     177.358 175.629 170.064  1.00  0.00    -0.003 C 
ATOM      4  C   UNL     1     176.263 176.659 170.338  1.00  0.00     0.004 C 
ENDBRANCH   2   3
ENDBRANCH   1   2
BRANCH   1   5
ATOM      5  C   UNL     1     176.425 173.992 167.559  1.00  0.00     0.028 C 
BRANCH   5   6
ATOM      6  C   UNL     1     174.913 173.939 167.803  1.00  0.00     0.156 C 
BRANCH   6   7
ATOM      7  O   UNL     1     174.237 173.726 166.594  1.00  0.00    -0.396 OA
ATOM      8  H   UNL     1     173.926 172.783 166.605  1.00  0.00     0.210 HD
ENDBRANCH   6   7
ENDBRANCH   5   6
ENDBRANCH   1   5
TORSDOF 5
ENDMDL
MODEL 6
REMARK VINA RESULT:    -3.179     17.469     18.040
REMARK INTER + INTRA:          -4.098
REMARK INTER:                  -4.029
REMARK INTRA:                  -0.069
REMARK UNBOUND:                -0.083
REMARK SMILES CCCCCCO
REMARK SMILES IDX 4 1 3 2 2 3 1 4 5 5 6 6 7 7
REMARK H PARENT 7 8
REMARK Flexibility Score: inf
ROOT
ATOM      1  C   UNL     1     173.843 162.277 167.838  1.00  0.00     0.002 C 
ENDROOT
BRANCH   1   2
ATOM      2  C   UNL     1     172.378 161.820 167.899  1.00  0.00    -0.000 C 
BRANCH   2   3
ATOM      3  C   UNL     1     171.716 161.770 166.513  1.00  0.00    -0.003 C 
ATOM      4  C   UNL     1     172.672 162.162 165.388  1.00  0.00     0.004 C 
ENDBRANCH   2   3
ENDBRANCH   1   2
BRANCH   1   5
ATOM      5  C   UNL     1     174.437 162.405 169.246  1.00  0.00     0.028 C 
BRANCH   5   6
ATOM      6  C   UNL     1     175.747 161.620 169.367  1.00  0.00     0.156 C 
BRANCH   6   7
ATOM      7  O   UNL     1     175.908 161.149 170.677  1.00  0.00    -0.396 OA
ATOM      8  H   UNL     1     176.862 161.291 170.914  1.00  0.00     0.210 HD
ENDBRANCH   6   7
ENDBRANCH   5   6
ENDBRANCH   1   5
TORSDOF 5
ENDMDL
MODEL 7
REMARK VINA RESULT:    -3.116     15.882     17.623
REMARK INTER + INTRA:          -4.018
REMARK INTER:                  -3.941
REMARK INTRA:                  -0.077
REMARK UNBOUND:                -0.083
REMARK SMILES CCCCCCO
REMARK SMILES IDX 4 1 3 2 2 3 1 4 5 5 6 6 7 7
REMARK H PARENT 7 8
REMARK Flexibility Score: inf
ROOT
ATOM      1  C   UNL     1     174.236 162.284 167.708  1.00  0.00     0.002 C 
ENDROOT
BRANCH   1   2
ATOM      2  C   UNL     1     174.557 162.287 169.210  1.00  0.00    -0.000 C 
BRANCH   2   3
ATOM      3  C   UNL     1     176.016 161.906 169.503  1.00  0.00    -0.003 C 
ATOM      4  C   UNL     1     177.014 162.679 168.643  1.00  0.00     0.004 C 
ENDBRANCH   2   3
ENDBRANCH   1   2
BRANCH   1   5
ATOM      5  C   UNL     1     172.724 162.376 167.469  1.00  0.00     0.028 C 
BRANCH   5   6
ATOM      6  C   UNL     1     172.360 163.663 166.724  1.00  0.00     0.156 C 
BRANCH   6   7
ATOM      7  O   UNL     1     173.484 164.174 166.063  1.00  0.00    -0.396 OA
ATOM      8  H   UNL     1     173.802 164.948 166.598  1.00  0.00     0.210 HD
ENDBRANCH   6   7
ENDBRANCH   5   6
ENDBRANCH   1   5
TORSDOF 5
ENDMDL
MODEL 8
REMARK VINA RESULT:    -3.099     13.714     14.766
REMARK INTER + INTRA:          -3.997
REMARK INTER:                  -3.940
REMARK INTRA:                  -0.058
REMARK UNBOUND:                -0.083
REMARK SMILES CCCCCCO
REMARK SMILES IDX 4 1 3 2 2 3 1 4 5 5 6 6 7 7
REMARK H PARENT 7 8
REMARK Flexibility Score: inf
ROOT
ATOM      1  C   UNL     1     160.425 164.156 168.426  1.00  0.00     0.002 C 
ENDROOT
BRANCH   1   2
ATOM      2  C   UNL     1     160.168 162.706 167.992  1.00  0.00    -0.000 C 
BRANCH   2   3
ATOM      3  C   UNL     1     160.986 161.691 168.806  1.00  0.00    -0.003 C 
ATOM      4  C   UNL     1     160.275 161.250 170.085  1.00  0.00     0.004 C 
ENDBRANCH   2   3
ENDBRANCH   1   2
BRANCH   1   5
ATOM      5  C   UNL     1     159.598 165.136 167.585  1.00  0.00     0.028 C 
BRANCH   5   6
ATOM      6  C   UNL     1     159.154 166.341 168.419  1.00  0.00     0.156 C 
BRANCH   6   7
ATOM      7  O   UNL     1     159.692 166.260 169.711  1.00  0.00    -0.396 OA
ATOM      8  H   UNL     1     160.625 166.595 169.652  1.00  0.00     0.210 HD
ENDBRANCH   6   7
ENDBRANCH   5   6
ENDBRANCH   1   5
TORSDOF 5
ENDMDL
MODEL 9
REMARK VINA RESULT:    -3.059      2.684      4.046
REMARK INTER + INTRA:          -3.947
REMARK INTER:                  -3.790
REMARK INTRA:                  -0.156
REMARK UNBOUND:                -0.083
REMARK SMILES CCCCCCO
REMARK SMILES IDX 4 1 3 2 2 3 1 4 5 5 6 6 7 7
REMARK H PARENT 7 8
REMARK Flexibility Score: inf
ROOT
ATOM      1  C   UNL     1     163.498 178.266 167.364  1.00  0.00     0.002 C 
ENDROOT
BRANCH   1   2
ATOM      2  C   UNL     1     164.889 177.831 167.848  1.00  0.00    -0.000 C 
BRANCH   2   3
ATOM      3  C   UNL     1     165.994 178.813 167.430  1.00  0.00    -0.003 C 
ATOM      4  C   UNL     1     165.441 180.100 166.820  1.00  0.00     0.004 C 
ENDBRANCH   2   3
ENDBRANCH   1   2
BRANCH   1   5
ATOM      5  C   UNL     1     162.551 178.494 168.549  1.00  0.00     0.028 C 
BRANCH   5   6
ATOM      6  C   UNL     1     163.185 178.021 169.861  1.00  0.00     0.156 C 
BRANCH   6   7
ATOM      7  O   UNL     1     162.354 177.083 170.488  1.00  0.00    -0.396 OA
ATOM      8  H   UNL     1     161.491 177.541 170.665  1.00  0.00     0.210 HD
ENDBRANCH   6   7
ENDBRANCH   5   6
ENDBRANCH   1   5
TORSDOF 5
ENDMDL
