MODEL 1
REMARK VINA RESULT:     0.260      0.000      0.000
REMARK INTER + INTRA:           0.260
REMARK INTER:                   0.260
REMARK INTRA:                   0.000
REMARK UNBOUND:                 0.000
REMARK SMILES C=C1[C@H]2CC[C@H](C2)C1(C)C
REMARK SMILES IDX 9 1 8 2 6 3 5 4 4 5 3 6 7 7 2 8 1 9 10 10
REMARK H PARENT
REMARK Flexibility Score: inf
ROOT
ATOM      1  C   UNL     1     137.160 139.609 163.564  1.00  0.00     0.016 C 
ATOM      2  C   UNL     1     135.857 138.816 163.313  1.00  0.00    -0.012 C 
ATOM      3  C   UNL     1     136.082 137.279 163.091  1.00  0.00    -0.001 C 
ATOM      4  C   UNL     1     137.205 137.021 162.058  1.00  0.00     0.005 C 
ATOM      5  C   UNL     1     136.581 137.526 160.739  1.00  0.00     0.008 C 
ATOM      6  C   UNL     1     135.150 137.904 161.157  1.00  0.00     0.015 C 
ATOM      7  C   UNL     1     134.875 136.888 162.243  1.00  0.00     0.012 C 
ATOM      8  C   UNL     1     135.237 139.162 161.980  1.00  0.00    -0.068 C 
ATOM      9  C   UNL     1     134.876 140.382 161.564  1.00  0.00     0.008 C 
ATOM     10  C   UNL     1     134.877 139.078 164.476  1.00  0.00     0.016 C 
ENDROOT
TORSDOF 0
ENDMDL
MODEL 2
REMARK VINA RESULT:     0.334      1.058      3.179
REMARK INTER + INTRA:           0.334
REMARK INTER:                   0.334
REMARK INTRA:                   0.000
REMARK UNBOUND:                 0.000
REMARK SMILES C=C1[C@H]2CC[C@H](C2)C1(C)C
REMARK SMILES IDX 9 1 8 2 6 3 5 4 4 5 3 6 7 7 2 8 1 9 10 10
REMARK H PARENT
REMARK Flexibility Score: inf
ROOT
ATOM      1  C   UNL     1     134.875 138.216 160.507  1.00  0.00     0.016 C 
ATOM      2  C   UNL     1     135.350 137.826 161.926  1.00  0.00    -0.012 C 
ATOM      3  C   UNL     1     134.875 138.813 163.049  1.00  0.00    -0.001 C 
ATOM      4  C   UNL     1     135.153 140.284 162.655  1.00  0.00     0.005 C 
ATOM      5  C   UNL     1     136.695 140.362 162.684  1.00  0.00     0.008 C 
ATOM      6  C   UNL     1     137.101 138.968 163.194  1.00  0.00     0.015 C 
ATOM      7  C   UNL     1     135.950 138.639 164.118  1.00  0.00     0.012 C 
ATOM      8  C   UNL     1     136.844 137.987 162.081  1.00  0.00    -0.068 C 
ATOM      9  C   UNL     1     137.788 137.410 161.330  1.00  0.00     0.008 C 
ATOM     10  C   UNL     1     134.905 136.378 162.226  1.00  0.00     0.016 C 
ENDROOT
TORSDOF 0
ENDMDL
MODEL 3
REMARK VINA RESULT:     0.557      0.936      2.610
REMARK INTER + INTRA:           0.557
REMARK INTER:                   0.557
REMARK INTRA:                   0.000
REMARK UNBOUND:                 0.000
REMARK SMILES C=C1[C@H]2CC[C@H](C2)C1(C)C
REMARK SMILES IDX 9 1 8 2 6 3 5 4 4 5 3 6 7 7 2 8 1 9 10 10
REMARK H PARENT
REMARK Flexibility Score: inf
ROOT
ATOM      1  C   UNL     1     134.876 140.405 162.685  1.00  0.00     0.016 C 
ATOM      2  C   UNL     1     136.158 139.551 162.555  1.00  0.00    -0.012 C 
ATOM      3  C   UNL     1     136.197 138.654 161.268  1.00  0.00    -0.001 C 
ATOM      4  C   UNL     1     134.875 137.868 161.095  1.00  0.00     0.005 C 
ATOM      5  C   UNL     1     134.911 136.872 162.274  1.00  0.00     0.008 C 
ATOM      6  C   UNL     1     136.289 137.135 162.906  1.00  0.00     0.015 C 
ATOM      7  C   UNL     1     137.110 137.508 161.692  1.00  0.00     0.012 C 
ATOM      8  C   UNL     1     136.218 138.466 163.605  1.00  0.00    -0.068 C 
ATOM      9  C   UNL     1     136.161 138.639 164.930  1.00  0.00     0.008 C 
ATOM     10  C   UNL     1     137.390 140.478 162.631  1.00  0.00     0.016 C 
ENDROOT
TORSDOF 0
ENDMDL
MODEL 4
REMARK VINA RESULT:     1.045      1.178      1.684
REMARK INTER + INTRA:           1.045
REMARK INTER:                   1.045
REMARK INTRA:                   0.000
REMARK UNBOUND:                 0.000
REMARK SMILES C=C1[C@H]2CC[C@H](C2)C1(C)C
REMARK SMILES IDX 9 1 8 2 6 3 5 4 4 5 3 6 7 7 2 8 1 9 10 10
REMARK H PARENT
REMARK Flexibility Score: inf
ROOT
ATOM      1  C   UNL     1     136.515 139.128 164.827  1.00  0.00     0.016 C 
ATOM      2  C   UNL     1     135.762 139.412 163.507  1.00  0.00    -0.012 C 
ATOM      3  C   UNL     1     134.928 138.194 162.977  1.00  0.00    -0.001 C 
ATOM      4  C   UNL     1     135.772 136.897 162.973  1.00  0.00     0.005 C 
ATOM      5  C   UNL     1     136.819 137.171 161.872  1.00  0.00     0.008 C 
ATOM      6  C   UNL     1     136.379 138.534 161.310  1.00  0.00     0.015 C 
ATOM      7  C   UNL     1     134.878 138.458 161.474  1.00  0.00     0.012 C 
ATOM      8  C   UNL     1     136.712 139.577 162.344  1.00  0.00    -0.068 C 
ATOM      9  C   UNL     1     137.717 140.456 162.257  1.00  0.00     0.008 C 
ATOM     10  C   UNL     1     134.875 140.662 163.693  1.00  0.00     0.016 C 
ENDROOT
TORSDOF 0
ENDMDL
MODEL 5
REMARK VINA RESULT:     1.216      0.941      3.027
REMARK INTER + INTRA:           1.216
REMARK INTER:                   1.216
REMARK INTRA:                   0.000
REMARK UNBOUND:                 0.000
REMARK SMILES C=C1[C@H]2CC[C@H](C2)C1(C)C
REMARK SMILES IDX 9 1 8 2 6 3 5 4 4 5 3 6 7 7 2 8 1 9 10 10
REMARK H PARENT
REMARK Flexibility Score: inf
ROOT
ATOM      1  C   UNL     1     134.913 136.671 162.281  1.00  0.00     0.016 C 
ATOM      2  C   UNL     1     136.042 137.713 162.120  1.00  0.00    -0.012 C 
ATOM      3  C   UNL     1     136.608 138.253 163.481  1.00  0.00    -0.001 C 
ATOM      4  C   UNL     1     135.464 138.680 164.431  1.00  0.00     0.005 C 
ATOM      5  C   UNL     1     134.876 139.921 163.726  1.00  0.00     0.008 C 
ATOM      6  C   UNL     1     135.819 140.114 162.525  1.00  0.00     0.015 C 
ATOM      7  C   UNL     1     137.134 139.633 163.095  1.00  0.00     0.012 C 
ATOM      8  C   UNL     1     135.529 139.011 161.542  1.00  0.00    -0.068 C 
ATOM      9  C   UNL     1     134.877 139.163 160.384  1.00  0.00     0.008 C 
ATOM     10  C   UNL     1     137.163 137.110 161.246  1.00  0.00     0.016 C 
ENDROOT
TORSDOF 0
ENDMDL
MODEL 6
REMARK VINA RESULT:     1.845     13.589     15.303
REMARK INTER + INTRA:           1.845
REMARK INTER:                   1.845
REMARK INTRA:                   0.000
REMARK UNBOUND:                 0.000
REMARK SMILES C=C1[C@H]2CC[C@H](C2)C1(C)C
REMARK SMILES IDX 9 1 8 2 6 3 5 4 4 5 3 6 7 7 2 8 1 9 10 10
REMARK H PARENT
REMARK Flexibility Score: inf
ROOT
ATOM      1  C   UNL     1     148.768 134.875 161.567  1.00  0.00     0.016 C 
ATOM      2  C   UNL     1     150.212 135.344 161.274  1.00  0.00    -0.012 C 
ATOM      3  C   UNL     1     151.261 134.876 162.342  1.00  0.00    -0.001 C 
ATOM      4  C   UNL     1     150.766 135.168 163.778  1.00  0.00     0.005 C 
ATOM      5  C   UNL     1     150.793 136.711 163.844  1.00  0.00     0.008 C 
ATOM      6  C   UNL     1     151.401 137.102 162.486  1.00  0.00     0.015 C 
ATOM      7  C   UNL     1     152.343 135.947 162.233  1.00  0.00     0.012 C 
ATOM      8  C   UNL     1     150.359 136.838 161.432  1.00  0.00    -0.068 C 
ATOM      9  C   UNL     1     149.653 137.779 160.794  1.00  0.00     0.008 C 
ATOM     10  C   UNL     1     150.611 134.884 159.855  1.00  0.00     0.016 C 
ENDROOT
TORSDOF 0
ENDMDL
MODEL 7
REMARK VINA RESULT:     2.382      1.062      3.148
REMARK INTER + INTRA:           2.382
REMARK INTER:                   2.382
REMARK INTRA:                   0.000
REMARK UNBOUND:                 0.000
REMARK SMILES C=C1[C@H]2CC[C@H](C2)C1(C)C
REMARK SMILES IDX 9 1 8 2 6 3 5 4 4 5 3 6 7 7 2 8 1 9 10 10
REMARK H PARENT
REMARK Flexibility Score: inf
ROOT
ATOM      1  C   UNL     1     137.484 136.220 163.205  1.00  0.00     0.016 C 
ATOM      2  C   UNL     1     137.005 137.277 162.184  1.00  0.00    -0.012 C 
ATOM      3  C   UNL     1     137.049 138.749 162.726  1.00  0.00    -0.001 C 
ATOM      4  C   UNL     1     136.387 138.851 164.122  1.00  0.00     0.005 C 
ATOM      5  C   UNL     1     134.897 138.584 163.816  1.00  0.00     0.008 C 
ATOM      6  C   UNL     1     134.875 138.473 162.281  1.00  0.00     0.015 C 
ATOM      7  C   UNL     1     135.972 139.439 161.894  1.00  0.00     0.012 C 
ATOM      8  C   UNL     1     135.524 137.165 161.914  1.00  0.00    -0.068 C 
ATOM      9  C   UNL     1     134.875 136.079 161.477  1.00  0.00     0.008 C 
ATOM     10  C   UNL     1     137.829 137.133 160.886  1.00  0.00     0.016 C 
ENDROOT
TORSDOF 0
ENDMDL
MODEL 8
REMARK VINA RESULT:     2.811     13.207     14.902
REMARK INTER + INTRA:           2.811
REMARK INTER:                   2.811
REMARK INTRA:                   0.000
REMARK UNBOUND:                 0.000
REMARK SMILES C=C1[C@H]2CC[C@H](C2)C1(C)C
REMARK SMILES IDX 9 1 8 2 6 3 5 4 4 5 3 6 7 7 2 8 1 9 10 10
REMARK H PARENT
REMARK Flexibility Score: inf
ROOT
ATOM      1  C   UNL     1     151.370 137.260 162.852  1.00  0.00     0.016 C 
ATOM      2  C   UNL     1     151.142 135.939 162.083  1.00  0.00    -0.012 C 
ATOM      3  C   UNL     1     150.810 136.137 160.562  1.00  0.00    -0.001 C 
ATOM      4  C   UNL     1     149.701 137.199 160.366  1.00  0.00     0.005 C 
ATOM      5  C   UNL     1     148.454 136.508 160.958  1.00  0.00     0.008 C 
ATOM      6  C   UNL     1     148.975 135.105 161.316  1.00  0.00     0.015 C 
ATOM      7  C   UNL     1     150.007 134.882 160.233  1.00  0.00     0.012 C 
ATOM      8  C   UNL     1     149.870 135.249 162.518  1.00  0.00    -0.068 C 
ATOM      9  C   UNL     1     149.554 134.875 163.763  1.00  0.00     0.008 C 
ATOM     10  C   UNL     1     152.373 135.026 162.274  1.00  0.00     0.016 C 
ENDROOT
TORSDOF 0
ENDMDL
