MODEL 1
REMARK VINA RESULT:    -2.322      0.000      0.000
REMARK INTER + INTRA:          -2.778
REMARK INTER:                  -2.525
REMARK INTRA:                  -0.253
REMARK UNBOUND:                -0.253
REMARK SMILES O=C([O-])c1ccccc1O
REMARK SMILES IDX 4 1 9 2 5 3 8 4 6 5 7 6 2 7 1 8 3 9 10 10
REMARK H PARENT 10 11
REMARK Flexibility Score: inf
ROOT
ATOM      1  C   UNL     1       8.243  11.038  27.543  1.00  0.00     0.039 A 
ATOM      2  C   UNL     1       7.462  12.218  27.449  1.00  0.00     0.124 A 
ATOM      3  C   UNL     1       7.836   9.894  26.831  1.00  0.00     0.014 A 
ATOM      4  C   UNL     1       6.274  12.205  26.706  1.00  0.00     0.047 A 
ATOM      5  C   UNL     1       6.661   9.904  26.078  1.00  0.00     0.001 A 
ATOM      6  C   UNL     1       5.875  11.054  26.023  1.00  0.00     0.004 A 
ENDROOT
BRANCH   1   7
ATOM      7  C   UNL     1       9.452  10.953  28.392  1.00  0.00     0.075 C 
ATOM      8  O   UNL     1       9.631   9.955  29.139  1.00  0.00    -0.545 OA
ATOM      9  O   UNL     1      10.368  11.997  28.432  1.00  0.00    -0.545 OA
ENDBRANCH   1   7
BRANCH   2  10
ATOM     10  O   UNL     1       7.844  13.423  28.042  1.00  0.00    -0.507 OA
ATOM     11  H   UNL     1       8.412  13.476  28.876  1.00  0.00     0.293 HD
ENDBRANCH   2  10
TORSDOF 2
ENDMDL
MODEL 2
REMARK VINA RESULT:    -2.307      1.449      2.347
REMARK INTER + INTRA:          -2.763
REMARK INTER:                  -2.516
REMARK INTRA:                  -0.247
REMARK UNBOUND:                -0.253
REMARK SMILES O=C([O-])c1ccccc1O
REMARK SMILES IDX 4 1 9 2 5 3 8 4 6 5 7 6 2 7 1 8 3 9 10 10
REMARK H PARENT 10 11
REMARK Flexibility Score: inf
ROOT
ATOM      1  C   UNL     1       8.198  11.978  27.644  1.00  0.00     0.039 A 
ATOM      2  C   UNL     1       7.054  11.281  27.180  1.00  0.00     0.124 A 
ATOM      3  C   UNL     1       8.174  13.386  27.667  1.00  0.00     0.014 A 
ATOM      4  C   UNL     1       5.954  12.000  26.695  1.00  0.00     0.047 A 
ATOM      5  C   UNL     1       7.061  14.087  27.200  1.00  0.00     0.001 A 
ATOM      6  C   UNL     1       5.956  13.396  26.706  1.00  0.00     0.004 A 
ENDROOT
BRANCH   1   7
ATOM      7  C   UNL     1       9.432  11.282  28.073  1.00  0.00     0.075 C 
ATOM      8  O   UNL     1       9.358  10.236  28.771  1.00  0.00    -0.545 OA
ATOM      9  O   UNL     1      10.683  11.806  27.775  1.00  0.00    -0.545 OA
ENDBRANCH   1   7
BRANCH   2  10
ATOM     10  O   UNL     1       6.956   9.888  27.215  1.00  0.00    -0.507 OA
ATOM     11  H   UNL     1       7.590   9.274  26.724  1.00  0.00     0.293 HD
ENDBRANCH   2  10
TORSDOF 2
ENDMDL
MODEL 3
REMARK VINA RESULT:    -2.302     26.736     27.512
REMARK INTER + INTRA:          -2.758
REMARK INTER:                  -2.512
REMARK INTRA:                  -0.245
REMARK UNBOUND:                -0.253
REMARK SMILES O=C([O-])c1ccccc1O
REMARK SMILES IDX 4 1 9 2 5 3 8 4 6 5 7 6 2 7 1 8 3 9 10 10
REMARK H PARENT 10 11
REMARK Flexibility Score: inf
ROOT
ATOM      1  C   UNL     1      24.319  29.116  14.473  1.00  0.00     0.039 A 
ATOM      2  C   UNL     1      25.044  28.365  15.433  1.00  0.00     0.124 A 
ATOM      3  C   UNL     1      23.308  29.991  14.915  1.00  0.00     0.014 A 
ATOM      4  C   UNL     1      24.702  28.460  16.788  1.00  0.00     0.047 A 
ATOM      5  C   UNL     1      22.995  30.090  16.272  1.00  0.00     0.001 A 
ATOM      6  C   UNL     1      23.684  29.318  17.207  1.00  0.00     0.004 A 
ENDROOT
BRANCH   1   7
ATOM      7  C   UNL     1      24.558  28.986  13.018  1.00  0.00     0.075 C 
ATOM      8  O   UNL     1      25.733  28.870  12.579  1.00  0.00    -0.545 OA
ATOM      9  O   UNL     1      23.505  29.060  12.115  1.00  0.00    -0.545 OA
ENDBRANCH   1   7
BRANCH   2  10
ATOM     10  O   UNL     1      26.124  27.550  15.090  1.00  0.00    -0.507 OA
ATOM     11  H   UNL     1      26.652  27.657  14.236  1.00  0.00     0.293 HD
ENDBRANCH   2  10
TORSDOF 2
ENDMDL
MODEL 4
REMARK VINA RESULT:    -2.224      1.900      3.802
REMARK INTER + INTRA:          -2.673
REMARK INTER:                  -2.426
REMARK INTRA:                  -0.247
REMARK UNBOUND:                -0.253
REMARK SMILES O=C([O-])c1ccccc1O
REMARK SMILES IDX 4 1 9 2 5 3 8 4 6 5 7 6 2 7 1 8 3 9 10 10
REMARK H PARENT 10 11
REMARK Flexibility Score: inf
ROOT
ATOM      1  C   UNL     1       6.454  12.928  26.270  1.00  0.00     0.039 A 
ATOM      2  C   UNL     1       7.347  12.735  27.356  1.00  0.00     0.124 A 
ATOM      3  C   UNL     1       5.877  11.801  25.655  1.00  0.00     0.014 A 
ATOM      4  C   UNL     1       7.685  11.435  27.751  1.00  0.00     0.047 A 
ATOM      5  C   UNL     1       6.209  10.512  26.076  1.00  0.00     0.001 A 
ATOM      6  C   UNL     1       7.119  10.328  27.116  1.00  0.00     0.004 A 
ENDROOT
BRANCH   1   7
ATOM      7  C   UNL     1       6.134  14.270  25.735  1.00  0.00     0.075 C 
ATOM      8  O   UNL     1       5.942  15.235  26.522  1.00  0.00    -0.545 OA
ATOM      9  O   UNL     1       5.972  14.471  24.370  1.00  0.00    -0.545 OA
ENDBRANCH   1   7
BRANCH   2  10
ATOM     10  O   UNL     1       7.886  13.797  28.084  1.00  0.00    -0.507 OA
ATOM     11  H   UNL     1       8.108  13.741  29.068  1.00  0.00     0.293 HD
ENDBRANCH   2  10
TORSDOF 2
ENDMDL
MODEL 5
REMARK VINA RESULT:    -2.208     26.618     27.353
REMARK INTER + INTRA:          -2.655
REMARK INTER:                  -2.403
REMARK INTRA:                  -0.252
REMARK UNBOUND:                -0.253
REMARK SMILES O=C([O-])c1ccccc1O
REMARK SMILES IDX 4 1 9 2 5 3 8 4 6 5 7 6 2 7 1 8 3 9 10 10
REMARK H PARENT 10 11
REMARK Flexibility Score: inf
ROOT
ATOM      1  C   UNL     1      24.819  28.529  14.728  1.00  0.00     0.039 A 
ATOM      2  C   UNL     1      24.135  29.224  15.758  1.00  0.00     0.124 A 
ATOM      3  C   UNL     1      25.781  27.564  15.080  1.00  0.00     0.014 A 
ATOM      4  C   UNL     1      24.473  28.986  17.096  1.00  0.00     0.047 A 
ATOM      5  C   UNL     1      26.091  27.323  16.420  1.00  0.00     0.001 A 
ATOM      6  C   UNL     1      25.445  28.039  17.427  1.00  0.00     0.004 A 
ENDROOT
BRANCH   1   7
ATOM      7  C   UNL     1      24.585  28.806  13.293  1.00  0.00     0.075 C 
ATOM      8  O   UNL     1      25.558  28.877  12.496  1.00  0.00    -0.545 OA
ATOM      9  O   UNL     1      23.304  29.060  12.818  1.00  0.00    -0.545 OA
ENDBRANCH   1   7
BRANCH   2  10
ATOM     10  O   UNL     1      23.100  30.124  15.499  1.00  0.00    -0.507 OA
ATOM     11  H   UNL     1      23.235  31.123  15.432  1.00  0.00     0.293 HD
ENDBRANCH   2  10
TORSDOF 2
ENDMDL
MODEL 6
REMARK VINA RESULT:    -2.094      2.398      3.561
REMARK INTER + INTRA:          -2.531
REMARK INTER:                  -2.287
REMARK INTRA:                  -0.244
REMARK UNBOUND:                -0.253
REMARK SMILES O=C([O-])c1ccccc1O
REMARK SMILES IDX 4 1 9 2 5 3 8 4 6 5 7 6 2 7 1 8 3 9 10 10
REMARK H PARENT 10 11
REMARK Flexibility Score: inf
ROOT
ATOM      1  C   UNL     1       6.846  12.902  26.745  1.00  0.00     0.039 A 
ATOM      2  C   UNL     1       6.324  12.319  25.562  1.00  0.00     0.124 A 
ATOM      3  C   UNL     1       7.365  12.061  27.747  1.00  0.00     0.014 A 
ATOM      4  C   UNL     1       6.276  10.924  25.441  1.00  0.00     0.047 A 
ATOM      5  C   UNL     1       7.330  10.673  27.601  1.00  0.00     0.001 A 
ATOM      6  C   UNL     1       6.777  10.104  26.454  1.00  0.00     0.004 A 
ENDROOT
BRANCH   1   7
ATOM      7  C   UNL     1       6.832  14.363  26.982  1.00  0.00     0.075 C 
ATOM      8  O   UNL     1       7.653  14.881  27.784  1.00  0.00    -0.545 OA
ATOM      9  O   UNL     1       5.875  15.171  26.381  1.00  0.00    -0.545 OA
ENDBRANCH   1   7
BRANCH   2  10
ATOM     10  O   UNL     1       5.880  13.081  24.480  1.00  0.00    -0.507 OA
ATOM     11  H   UNL     1       5.353  13.937  24.582  1.00  0.00     0.293 HD
ENDBRANCH   2  10
TORSDOF 2
ENDMDL
MODEL 7
REMARK VINA RESULT:    -2.053     26.122     26.774
REMARK INTER + INTRA:          -2.486
REMARK INTER:                  -2.236
REMARK INTRA:                  -0.250
REMARK UNBOUND:                -0.253
REMARK SMILES O=C([O-])c1ccccc1O
REMARK SMILES IDX 4 1 9 2 5 3 8 4 6 5 7 6 2 7 1 8 3 9 10 10
REMARK H PARENT 10 11
REMARK Flexibility Score: inf
ROOT
ATOM      1  C   UNL     1      23.818  27.395  14.059  1.00  0.00     0.039 A 
ATOM      2  C   UNL     1      25.081  28.035  13.984  1.00  0.00     0.124 A 
ATOM      3  C   UNL     1      22.855  27.671  13.069  1.00  0.00     0.014 A 
ATOM      4  C   UNL     1      25.324  28.972  12.970  1.00  0.00     0.047 A 
ATOM      5  C   UNL     1      23.121  28.591  12.053  1.00  0.00     0.001 A 
ATOM      6  C   UNL     1      24.350  29.248  12.009  1.00  0.00     0.004 A 
ENDROOT
BRANCH   1   7
ATOM      7  C   UNL     1      23.459  26.474  15.160  1.00  0.00     0.075 C 
ATOM      8  O   UNL     1      23.822  26.727  16.339  1.00  0.00    -0.545 OA
ATOM      9  O   UNL     1      22.781  25.289  14.903  1.00  0.00    -0.545 OA
ENDBRANCH   1   7
BRANCH   2  10
ATOM     10  O   UNL     1      26.124  27.746  14.865  1.00  0.00    -0.507 OA
ATOM     11  H   UNL     1      26.157  26.910  15.432  1.00  0.00     0.293 HD
ENDBRANCH   2  10
TORSDOF 2
ENDMDL
MODEL 8
REMARK VINA RESULT:    -2.039     26.489     27.135
REMARK INTER + INTRA:          -2.471
REMARK INTER:                  -2.225
REMARK INTRA:                  -0.245
REMARK UNBOUND:                -0.253
REMARK SMILES O=C([O-])c1ccccc1O
REMARK SMILES IDX 4 1 9 2 5 3 8 4 6 5 7 6 2 7 1 8 3 9 10 10
REMARK H PARENT 10 11
REMARK Flexibility Score: inf
ROOT
ATOM      1  C   UNL     1      25.153  28.304  15.334  1.00  0.00     0.039 A 
ATOM      2  C   UNL     1      24.167  29.246  15.724  1.00  0.00     0.124 A 
ATOM      3  C   UNL     1      25.507  28.214  13.974  1.00  0.00     0.014 A 
ATOM      4  C   UNL     1      23.522  30.018  14.749  1.00  0.00     0.047 A 
ATOM      5  C   UNL     1      24.870  29.006  13.018  1.00  0.00     0.001 A 
ATOM      6  C   UNL     1      23.872  29.901  13.403  1.00  0.00     0.004 A 
ENDROOT
BRANCH   1   7
ATOM      7  C   UNL     1      25.799  27.385  16.297  1.00  0.00     0.075 C 
ATOM      8  O   UNL     1      26.118  27.795  17.445  1.00  0.00    -0.545 OA
ATOM      9  O   UNL     1      26.125  26.086  15.931  1.00  0.00    -0.545 OA
ENDBRANCH   1   7
BRANCH   2  10
ATOM     10  O   UNL     1      23.828  29.469  17.060  1.00  0.00    -0.507 OA
ATOM     11  H   UNL     1      22.893  29.346  17.424  1.00  0.00     0.293 HD
ENDBRANCH   2  10
TORSDOF 2
ENDMDL
