MODEL 1
REMARK VINA RESULT:     1.632      0.000      0.000
REMARK INTER + INTRA:           4.360
REMARK INTER:                   2.968
REMARK INTRA:                   1.392
REMARK UNBOUND:                 1.392
REMARK SMILES CCCCCCCCCCCCCCCC(=O)[O-]
REMARK SMILES IDX 9 1 10 2 11 3 12 4 13 5 14 6 15 7 16 8 17 9 18 10 8 11 7 12
REMARK SMILES IDX 6 13 5 14 4 15 3 16 2 17 1 18
REMARK H PARENT
REMARK Flexibility Score: inf
ROOT
ATOM      1  C   UNL     1      35.797 -33.828  -8.918  1.00  0.00     0.000 C 
ENDROOT
BRANCH   1   2
ATOM      2  C   UNL     1      36.541 -32.608  -9.482  1.00  0.00     0.000 C 
BRANCH   2   3
ATOM      3  C   UNL     1      38.066 -32.808  -9.522  1.00  0.00     0.000 C 
BRANCH   3   4
ATOM      4  C   UNL     1      38.573 -33.156 -10.940  1.00  0.00     0.000 C 
BRANCH   4   5
ATOM      5  C   UNL     1      38.089 -34.527 -11.450  1.00  0.00     0.000 C 
BRANCH   5   6
ATOM      6  C   UNL     1      39.124 -35.663 -11.333  1.00  0.00     0.006 C 
BRANCH   6   7
ATOM      7  C   UNL     1      38.574 -36.956 -10.708  1.00  0.00     0.053 C 
BRANCH   7   8
ATOM      8  C   UNL     1      38.125 -36.746  -9.294  1.00  0.00     0.041 C 
ATOM      9  O   UNL     1      36.896 -36.717  -9.018  1.00  0.00    -0.550 OA
ATOM     10  O   UNL     1      39.062 -36.550  -8.288  1.00  0.00    -0.550 OA
ENDBRANCH   7   8
ENDBRANCH   6   7
ENDBRANCH   5   6
ENDBRANCH   4   5
ENDBRANCH   3   4
ENDBRANCH   2   3
ENDBRANCH   1   2
BRANCH   1  11
ATOM     11  C   UNL     1      34.536 -34.178  -9.723  1.00  0.00     0.000 C 
BRANCH  11  12
ATOM     12  C   UNL     1      34.886 -34.485 -11.186  1.00  0.00    -0.000 C 
BRANCH  12  13
ATOM     13  C   UNL     1      35.565 -35.855 -11.366  1.00  0.00    -0.000 C 
BRANCH  13  14
ATOM     14  C   UNL     1      34.638 -36.984 -11.863  1.00  0.00    -0.000 C 
BRANCH  14  15
ATOM     15  C   UNL     1      33.310 -37.124 -11.098  1.00  0.00    -0.000 C 
BRANCH  15  16
ATOM     16  C   UNL     1      32.083 -37.076 -12.020  1.00  0.00    -0.000 C 
BRANCH  16  17
ATOM     17  C   UNL     1      31.354 -35.734 -11.895  1.00  0.00    -0.003 C 
ATOM     18  C   UNL     1      32.308 -34.565 -12.122  1.00  0.00     0.004 C 
ENDBRANCH  16  17
ENDBRANCH  15  16
ENDBRANCH  14  15
ENDBRANCH  13  14
ENDBRANCH  12  13
ENDBRANCH  11  12
ENDBRANCH   1  11
TORSDOF 14
ENDMDL
