MODEL 1
REMARK VINA RESULT:    -3.131      0.000      0.000
REMARK INTER + INTRA:          -4.430
REMARK INTER:                  -4.047
REMARK INTRA:                  -0.383
REMARK UNBOUND:                -0.383
REMARK SMILES CCCCCCC(=O)[O-]
REMARK SMILES IDX 5 1 6 2 7 3 8 4 9 5 4 6 3 7 2 8 1 9
REMARK H PARENT
REMARK Flexibility Score: inf
ROOT
ATOM      1  C   UNL     1      -0.686   9.391  39.164  1.00  0.00     0.006 C 
ENDROOT
BRANCH   1   2
ATOM      2  C   UNL     1      -1.736   9.648  38.074  1.00  0.00     0.053 C 
BRANCH   2   3
ATOM      3  C   UNL     1      -1.240   9.247  36.719  1.00  0.00     0.041 C 
ATOM      4  O   UNL     1      -0.428   8.292  36.599  1.00  0.00    -0.550 OA
ATOM      5  O   UNL     1      -1.647   9.950  35.593  1.00  0.00    -0.550 OA
ENDBRANCH   2   3
ENDBRANCH   1   2
BRANCH   1   6
ATOM      6  C   UNL     1      -1.051   8.194  40.055  1.00  0.00     0.000 C 
BRANCH   6   7
ATOM      7  C   UNL     1      -2.554   7.890  39.976  1.00  0.00    -0.000 C 
BRANCH   7   8
ATOM      8  C   UNL     1      -2.844   6.398  39.756  1.00  0.00    -0.003 C 
ATOM      9  C   UNL     1      -2.003   5.792  38.633  1.00  0.00     0.004 C 
ENDBRANCH   7   8
ENDBRANCH   6   7
ENDBRANCH   1   6
TORSDOF 5
ENDMDL
MODEL 2
REMARK VINA RESULT:    -2.945      1.455      3.103
REMARK INTER + INTRA:          -4.189
REMARK INTER:                  -3.798
REMARK INTRA:                  -0.391
REMARK UNBOUND:                -0.383
REMARK SMILES CCCCCCC(=O)[O-]
REMARK SMILES IDX 5 1 6 2 7 3 8 4 9 5 4 6 3 7 2 8 1 9
REMARK H PARENT
REMARK Flexibility Score: inf
ROOT
ATOM      1  C   UNL     1      -1.667   8.348  38.848  1.00  0.00     0.006 C 
ENDROOT
BRANCH   1   2
ATOM      2  C   UNL     1      -1.624   9.625  37.997  1.00  0.00     0.053 C 
BRANCH   2   3
ATOM      3  C   UNL     1      -1.135   9.352  36.608  1.00  0.00     0.041 C 
ATOM      4  O   UNL     1      -1.731   9.852  35.617  1.00  0.00    -0.550 OA
ATOM      5  O   UNL     1      -0.044   8.518  36.405  1.00  0.00    -0.550 OA
ENDBRANCH   2   3
ENDBRANCH   1   2
BRANCH   1   6
ATOM      6  C   UNL     1      -0.875   8.492  40.156  1.00  0.00     0.000 C 
BRANCH   6   7
ATOM      7  C   UNL     1       0.628   8.299  39.911  1.00  0.00    -0.000 C 
BRANCH   7   8
ATOM      8  C   UNL     1       1.424   9.604  40.066  1.00  0.00    -0.003 C 
ATOM      9  C   UNL     1       2.152  10.008  38.784  1.00  0.00     0.004 C 
ENDBRANCH   7   8
ENDBRANCH   6   7
ENDBRANCH   1   6
TORSDOF 5
ENDMDL
MODEL 3
REMARK VINA RESULT:    -2.932      3.014      4.624
REMARK INTER + INTRA:          -4.173
REMARK INTER:                  -3.824
REMARK INTRA:                  -0.349
REMARK UNBOUND:                -0.383
REMARK SMILES CCCCCCC(=O)[O-]
REMARK SMILES IDX 5 1 6 2 7 3 8 4 9 5 4 6 3 7 2 8 1 9
REMARK H PARENT
REMARK Flexibility Score: inf
ROOT
ATOM      1  C   UNL     1      -1.648   7.854  39.031  1.00  0.00     0.006 C 
ENDROOT
BRANCH   1   2
ATOM      2  C   UNL     1      -2.635   7.592  40.177  1.00  0.00     0.053 C 
BRANCH   2   3
ATOM      3  C   UNL     1      -1.942   7.523  41.503  1.00  0.00     0.041 C 
ATOM      4  O   UNL     1      -0.905   8.206  41.712  1.00  0.00    -0.550 OA
ATOM      5  O   UNL     1      -2.421   6.680  42.496  1.00  0.00    -0.550 OA
ENDBRANCH   2   3
ENDBRANCH   1   2
BRANCH   1   6
ATOM      6  C   UNL     1      -1.830   9.248  38.413  1.00  0.00     0.000 C 
BRANCH   6   7
ATOM      7  C   UNL     1      -0.594  10.124  38.661  1.00  0.00    -0.000 C 
BRANCH   7   8
ATOM      8  C   UNL     1       0.718   9.328  38.594  1.00  0.00    -0.003 C 
ATOM      9  C   UNL     1       1.711   9.731  39.684  1.00  0.00     0.004 C 
ENDBRANCH   7   8
ENDBRANCH   6   7
ENDBRANCH   1   6
TORSDOF 5
ENDMDL
MODEL 4
REMARK VINA RESULT:    -2.932      2.102      2.946
REMARK INTER + INTRA:          -4.172
REMARK INTER:                  -3.901
REMARK INTRA:                  -0.271
REMARK UNBOUND:                -0.383
REMARK SMILES CCCCCCC(=O)[O-]
REMARK SMILES IDX 5 1 6 2 7 3 8 4 9 5 4 6 3 7 2 8 1 9
REMARK H PARENT
REMARK Flexibility Score: inf
ROOT
ATOM      1  C   UNL     1       0.441   9.780  39.373  1.00  0.00     0.006 C 
ENDROOT
BRANCH   1   2
ATOM      2  C   UNL     1       1.869  10.014  38.860  1.00  0.00     0.053 C 
BRANCH   2   3
ATOM      3  C   UNL     1       2.093   9.374  37.525  1.00  0.00     0.041 C 
ATOM      4  O   UNL     1       2.454  10.071  36.541  1.00  0.00    -0.550 OA
ATOM      5  O   UNL     1       1.870   8.014  37.359  1.00  0.00    -0.550 OA
ENDBRANCH   2   3
ENDBRANCH   1   2
BRANCH   1   6
ATOM      6  C   UNL     1      -0.620  10.125  38.318  1.00  0.00     0.000 C 
BRANCH   6   7
ATOM      7  C   UNL     1      -1.888   9.283  38.518  1.00  0.00    -0.000 C 
BRANCH   7   8
ATOM      8  C   UNL     1      -1.579   7.849  38.975  1.00  0.00    -0.003 C 
ATOM      9  C   UNL     1      -2.565   7.336  40.023  1.00  0.00     0.004 C 
ENDBRANCH   7   8
ENDBRANCH   6   7
ENDBRANCH   1   6
TORSDOF 5
ENDMDL
MODEL 5
REMARK VINA RESULT:    -2.919      1.973      3.687
REMARK INTER + INTRA:          -4.156
REMARK INTER:                  -3.788
REMARK INTRA:                  -0.368
REMARK UNBOUND:                -0.383
REMARK SMILES CCCCCCC(=O)[O-]
REMARK SMILES IDX 5 1 6 2 7 3 8 4 9 5 4 6 3 7 2 8 1 9
REMARK H PARENT
REMARK Flexibility Score: inf
ROOT
ATOM      1  C   UNL     1      -0.924   8.502  39.980  1.00  0.00     0.006 C 
ENDROOT
BRANCH   1   2
ATOM      2  C   UNL     1      -2.325   7.907  39.781  1.00  0.00     0.053 C 
BRANCH   2   3
ATOM      3  C   UNL     1      -2.264   6.492  39.295  1.00  0.00     0.041 C 
ATOM      4  O   UNL     1      -3.025   5.619  39.791  1.00  0.00    -0.550 OA
ATOM      5  O   UNL     1      -1.346   6.129  38.319  1.00  0.00    -0.550 OA
ENDBRANCH   2   3
ENDBRANCH   1   2
BRANCH   1   6
ATOM      6  C   UNL     1      -0.624   9.632  38.983  1.00  0.00     0.000 C 
BRANCH   6   7
ATOM      7  C   UNL     1      -1.847   9.927  38.103  1.00  0.00    -0.000 C 
BRANCH   7   8
ATOM      8  C   UNL     1      -1.530   9.841  36.603  1.00  0.00    -0.003 C 
ATOM      9  C   UNL     1      -0.344   8.925  36.301  1.00  0.00     0.004 C 
ENDBRANCH   7   8
ENDBRANCH   6   7
ENDBRANCH   1   6
TORSDOF 5
ENDMDL
MODEL 6
REMARK VINA RESULT:    -2.887      2.408      4.117
REMARK INTER + INTRA:          -4.115
REMARK INTER:                  -3.870
REMARK INTRA:                  -0.244
REMARK UNBOUND:                -0.383
REMARK SMILES CCCCCCC(=O)[O-]
REMARK SMILES IDX 5 1 6 2 7 3 8 4 9 5 4 6 3 7 2 8 1 9
REMARK H PARENT
REMARK Flexibility Score: inf
ROOT
ATOM      1  C   UNL     1      -1.595   9.020  38.248  1.00  0.00     0.006 C 
ENDROOT
BRANCH   1   2
ATOM      2  C   UNL     1      -2.181   8.279  39.458  1.00  0.00     0.053 C 
BRANCH   2   3
ATOM      3  C   UNL     1      -2.118   6.793  39.284  1.00  0.00     0.041 C 
ATOM      4  O   UNL     1      -3.109   6.078  39.587  1.00  0.00    -0.550 OA
ATOM      5  O   UNL     1      -0.955   6.195  38.819  1.00  0.00    -0.550 OA
ENDBRANCH   2   3
ENDBRANCH   1   2
BRANCH   1   6
ATOM      6  C   UNL     1      -0.573  10.090  38.659  1.00  0.00     0.000 C 
BRANCH   6   7
ATOM      7  C   UNL     1       0.427   9.530  39.680  1.00  0.00    -0.000 C 
BRANCH   7   8
ATOM      8  C   UNL     1       1.870   9.980  39.402  1.00  0.00    -0.003 C 
ATOM      9  C   UNL     1       2.276   9.792  37.941  1.00  0.00     0.004 C 
ENDBRANCH   7   8
ENDBRANCH   6   7
ENDBRANCH   1   6
TORSDOF 5
ENDMDL
MODEL 7
REMARK VINA RESULT:    -2.859     12.242     13.273
REMARK INTER + INTRA:          -4.077
REMARK INTER:                  -3.653
REMARK INTRA:                  -0.424
REMARK UNBOUND:                -0.383
REMARK SMILES CCCCCCC(=O)[O-]
REMARK SMILES IDX 5 1 6 2 7 3 8 4 9 5 4 6 3 7 2 8 1 9
REMARK H PARENT
REMARK Flexibility Score: inf
ROOT
ATOM      1  C   UNL     1      11.222  10.109  42.033  1.00  0.00     0.006 C 
ENDROOT
BRANCH   1   2
ATOM      2  C   UNL     1      12.654   9.556  41.989  1.00  0.00     0.053 C 
BRANCH   2   3
ATOM      3  C   UNL     1      12.712   8.215  41.323  1.00  0.00     0.041 C 
ATOM      4  O   UNL     1      12.594   8.123  40.073  1.00  0.00    -0.550 OA
ATOM      5  O   UNL     1      12.862   7.065  42.086  1.00  0.00    -0.550 OA
ENDBRANCH   2   3
ENDBRANCH   1   2
BRANCH   1   6
ATOM      6  C   UNL     1      10.323   9.321  42.997  1.00  0.00     0.000 C 
BRANCH   6   7
ATOM      7  C   UNL     1       8.901   9.185  42.434  1.00  0.00    -0.000 C 
BRANCH   7   8
ATOM      8  C   UNL     1       8.889   8.760  40.958  1.00  0.00    -0.003 C 
ATOM      9  C   UNL     1       9.103   7.257  40.774  1.00  0.00     0.004 C 
ENDBRANCH   7   8
ENDBRANCH   6   7
ENDBRANCH   1   6
TORSDOF 5
ENDMDL
MODEL 8
REMARK VINA RESULT:    -2.845      1.830      3.546
REMARK INTER + INTRA:          -4.060
REMARK INTER:                  -3.714
REMARK INTRA:                  -0.346
REMARK UNBOUND:                -0.383
REMARK SMILES CCCCCCC(=O)[O-]
REMARK SMILES IDX 5 1 6 2 7 3 8 4 9 5 4 6 3 7 2 8 1 9
REMARK H PARENT
REMARK Flexibility Score: inf
ROOT
ATOM      1  C   UNL     1      -1.633   6.708  39.849  1.00  0.00     0.006 C 
ENDROOT
BRANCH   1   2
ATOM      2  C   UNL     1      -2.261   5.712  38.864  1.00  0.00     0.053 C 
BRANCH   2   3
ATOM      3  C   UNL     1      -1.442   5.571  37.619  1.00  0.00     0.041 C 
ATOM      4  O   UNL     1      -1.884   4.911  36.641  1.00  0.00    -0.550 OA
ATOM      5  O   UNL     1      -0.177   6.137  37.549  1.00  0.00    -0.550 OA
ENDBRANCH   2   3
ENDBRANCH   1   2
BRANCH   1   6
ATOM      6  C   UNL     1      -2.258   8.107  39.742  1.00  0.00     0.000 C 
BRANCH   6   7
ATOM      7  C   UNL     1      -1.274   9.100  39.107  1.00  0.00    -0.000 C 
BRANCH   7   8
ATOM      8  C   UNL     1      -1.877   9.842  37.905  1.00  0.00    -0.003 C 
ATOM      9  C   UNL     1      -1.233   9.440  36.578  1.00  0.00     0.004 C 
ENDBRANCH   7   8
ENDBRANCH   6   7
ENDBRANCH   1   6
TORSDOF 5
ENDMDL
MODEL 9
REMARK VINA RESULT:    -2.812      2.142      3.150
REMARK INTER + INTRA:          -4.017
REMARK INTER:                  -3.704
REMARK INTRA:                  -0.313
REMARK UNBOUND:                -0.383
REMARK SMILES CCCCCCC(=O)[O-]
REMARK SMILES IDX 5 1 6 2 7 3 8 4 9 5 4 6 3 7 2 8 1 9
REMARK H PARENT
REMARK Flexibility Score: inf
ROOT
ATOM      1  C   UNL     1      -0.353   8.016  37.081  1.00  0.00     0.006 C 
ENDROOT
BRANCH   1   2
ATOM      2  C   UNL     1       0.962   8.202  36.311  1.00  0.00     0.053 C 
BRANCH   2   3
ATOM      3  C   UNL     1       1.885   9.154  37.008  1.00  0.00     0.041 C 
ATOM      4  O   UNL     1       2.384  10.125  36.380  1.00  0.00    -0.550 OA
ATOM      5  O   UNL     1       2.220   8.950  38.339  1.00  0.00    -0.550 OA
ENDBRANCH   2   3
ENDBRANCH   1   2
BRANCH   1   6
ATOM      6  C   UNL     1      -1.157   9.321  37.182  1.00  0.00     0.000 C 
BRANCH   6   7
ATOM      7  C   UNL     1      -1.871   9.422  38.537  1.00  0.00    -0.000 C 
BRANCH   7   8
ATOM      8  C   UNL     1      -1.439   8.320  39.516  1.00  0.00    -0.003 C 
ATOM      9  C   UNL     1      -2.625   7.559  40.110  1.00  0.00     0.004 C 
ENDBRANCH   7   8
ENDBRANCH   6   7
ENDBRANCH   1   6
TORSDOF 5
ENDMDL
