MODEL 1
REMARK VINA RESULT:    -5.073      0.000      0.000
REMARK INTER + INTRA:          -5.827
REMARK INTER:                  -5.666
REMARK INTRA:                  -0.160
REMARK UNBOUND:                -0.160
REMARK SMILES C=CCc1ccc2c(c1)OCO2
REMARK SMILES IDX 3 1 2 2 1 3 4 4 9 5 5 6 8 7 6 8 7 9 10 10 12 11 11 12
REMARK H PARENT
REMARK Flexibility Score: inf
ROOT
ATOM      1  C   UNL     1     -23.270 -50.543 103.325  1.00  0.00     0.062 C 
ENDROOT
BRANCH   1   2
ATOM      2  C   UNL     1     -24.031 -49.323 103.762  1.00  0.00    -0.030 C 
ATOM      3  C   UNL     1     -23.556 -48.496 104.698  1.00  0.00     0.004 C 
ENDBRANCH   1   2
BRANCH   1   4
ATOM      4  C   UNL     1     -24.208 -51.690 103.058  1.00  0.00    -0.040 A 
ATOM      5  C   UNL     1     -25.136 -52.087 104.046  1.00  0.00     0.054 A 
ATOM      6  C   UNL     1     -24.136 -52.403 101.834  1.00  0.00     0.008 A 
ATOM      7  C   UNL     1     -25.965 -53.170 103.767  1.00  0.00     0.166 A 
ATOM      8  C   UNL     1     -24.993 -53.493 101.593  1.00  0.00     0.051 A 
ATOM      9  C   UNL     1     -25.897 -53.843 102.591  1.00  0.00     0.165 A 
ATOM     10  O   UNL     1     -26.941 -53.735 104.564  1.00  0.00    -0.454 OA
ATOM     11  O   UNL     1     -26.827 -54.864 102.589  1.00  0.00    -0.454 OA
ATOM     12  C   UNL     1     -27.523 -54.831 103.843  1.00  0.00     0.468 C 
ENDBRANCH   1   4
TORSDOF 2
ENDMDL
MODEL 2
REMARK VINA RESULT:    -5.049      2.120      4.775
REMARK INTER + INTRA:          -5.800
REMARK INTER:                  -5.595
REMARK INTRA:                  -0.205
REMARK UNBOUND:                -0.160
REMARK SMILES C=CCc1ccc2c(c1)OCO2
REMARK SMILES IDX 3 1 2 2 1 3 4 4 9 5 5 6 8 7 6 8 7 9 10 10 12 11 11 12
REMARK H PARENT
REMARK Flexibility Score: inf
ROOT
ATOM      1  C   UNL     1     -27.371 -54.610 104.045  1.00  0.00     0.062 C 
ENDROOT
BRANCH   1   2
ATOM      2  C   UNL     1     -28.105 -55.371 102.977  1.00  0.00    -0.030 C 
ATOM      3  C   UNL     1     -29.324 -55.008 102.567  1.00  0.00     0.004 C 
ENDBRANCH   1   2
BRANCH   1   4
ATOM      4  C   UNL     1     -26.255 -53.795 103.446  1.00  0.00    -0.040 A 
ATOM      5  C   UNL     1     -25.741 -52.680 104.146  1.00  0.00     0.054 A 
ATOM      6  C   UNL     1     -25.746 -54.113 102.161  1.00  0.00     0.008 A 
ATOM      7  C   UNL     1     -24.730 -51.939 103.542  1.00  0.00     0.166 A 
ATOM      8  C   UNL     1     -24.723 -53.337 101.587  1.00  0.00     0.051 A 
ATOM      9  C   UNL     1     -24.241 -52.253 102.316  1.00  0.00     0.165 A 
ATOM     10  O   UNL     1     -24.074 -50.823 104.026  1.00  0.00    -0.454 OA
ATOM     11  O   UNL     1     -23.254 -51.353 101.969  1.00  0.00    -0.454 OA
ATOM     12  C   UNL     1     -23.113 -50.412 103.042  1.00  0.00     0.468 C 
ENDBRANCH   1   4
TORSDOF 2
ENDMDL
MODEL 3
REMARK VINA RESULT:    -4.830      2.744      4.927
REMARK INTER + INTRA:          -5.555
REMARK INTER:                  -5.398
REMARK INTRA:                  -0.157
REMARK UNBOUND:                -0.160
REMARK SMILES C=CCc1ccc2c(c1)OCO2
REMARK SMILES IDX 3 1 2 2 1 3 4 4 9 5 5 6 8 7 6 8 7 9 10 10 12 11 11 12
REMARK H PARENT
REMARK Flexibility Score: inf
ROOT
ATOM      1  C   UNL     1     -25.500 -53.467 102.818  1.00  0.00     0.062 C 
ENDROOT
BRANCH   1   2
ATOM      2  C   UNL     1     -26.340 -53.506 104.064  1.00  0.00    -0.030 C 
ATOM      3  C   UNL     1     -27.436 -54.266 104.148  1.00  0.00     0.004 C 
ENDBRANCH   1   2
BRANCH   1   4
ATOM      4  C   UNL     1     -24.731 -52.175 102.735  1.00  0.00    -0.040 A 
ATOM      5  C   UNL     1     -24.378 -51.486 103.917  1.00  0.00     0.054 A 
ATOM      6  C   UNL     1     -24.395 -51.622 101.472  1.00  0.00     0.008 A 
ATOM      7  C   UNL     1     -23.692 -50.281 103.790  1.00  0.00     0.166 A 
ATOM      8  C   UNL     1     -23.701 -50.401 101.390  1.00  0.00     0.051 A 
ATOM      9  C   UNL     1     -23.367 -49.761 102.580  1.00  0.00     0.165 A 
ATOM     10  O   UNL     1     -23.242 -49.438 104.788  1.00  0.00    -0.454 OA
ATOM     11  O   UNL     1     -22.696 -48.568 102.756  1.00  0.00    -0.454 OA
ATOM     12  C   UNL     1     -22.593 -48.320 104.165  1.00  0.00     0.468 C 
ENDBRANCH   1   4
TORSDOF 2
ENDMDL
MODEL 4
REMARK VINA RESULT:    -4.811      6.357      8.008
REMARK INTER + INTRA:          -5.534
REMARK INTER:                  -5.369
REMARK INTRA:                  -0.165
REMARK UNBOUND:                -0.160
REMARK SMILES C=CCc1ccc2c(c1)OCO2
REMARK SMILES IDX 3 1 2 2 1 3 4 4 9 5 5 6 8 7 6 8 7 9 10 10 12 11 11 12
REMARK H PARENT
REMARK Flexibility Score: inf
ROOT
ATOM      1  C   UNL     1     -23.071 -56.055 100.918  1.00  0.00     0.062 C 
ENDROOT
BRANCH   1   2
ATOM      2  C   UNL     1     -23.974 -54.932 100.492  1.00  0.00    -0.030 C 
ATOM      3  C   UNL     1     -24.695 -54.236 101.376  1.00  0.00     0.004 C 
ENDBRANCH   1   2
BRANCH   1   4
ATOM      4  C   UNL     1     -22.225 -56.525  99.765  1.00  0.00    -0.040 A 
ATOM      5  C   UNL     1     -20.863 -56.840  99.970  1.00  0.00     0.054 A 
ATOM      6  C   UNL     1     -22.777 -56.612  98.460  1.00  0.00     0.008 A 
ATOM      7  C   UNL     1     -20.112 -57.244  98.870  1.00  0.00     0.166 A 
ATOM      8  C   UNL     1     -21.982 -57.024  97.376  1.00  0.00     0.051 A 
ATOM      9  C   UNL     1     -20.648 -57.333  97.626  1.00  0.00     0.165 A 
ATOM     10  O   UNL     1     -18.779 -57.603  98.822  1.00  0.00    -0.454 OA
ATOM     11  O   UNL     1     -19.680 -57.753  96.736  1.00  0.00    -0.454 OA
ATOM     12  C   UNL     1     -18.459 -57.939  97.464  1.00  0.00     0.468 C 
ENDBRANCH   1   4
TORSDOF 2
ENDMDL
MODEL 5
REMARK VINA RESULT:    -4.710      4.285      6.832
REMARK INTER + INTRA:          -5.421
REMARK INTER:                  -5.263
REMARK INTRA:                  -0.158
REMARK UNBOUND:                -0.160
REMARK SMILES C=CCc1ccc2c(c1)OCO2
REMARK SMILES IDX 3 1 2 2 1 3 4 4 9 5 5 6 8 7 6 8 7 9 10 10 12 11 11 12
REMARK H PARENT
REMARK Flexibility Score: inf
ROOT
ATOM      1  C   UNL     1     -24.327 -50.718 103.323  1.00  0.00     0.062 C 
ENDROOT
BRANCH   1   2
ATOM      2  C   UNL     1     -24.351 -51.248 101.917  1.00  0.00    -0.030 C 
ATOM      3  C   UNL     1     -24.626 -52.529 101.653  1.00  0.00     0.004 C 
ENDBRANCH   1   2
BRANCH   1   4
ATOM      4  C   UNL     1     -23.615 -49.393 103.382  1.00  0.00    -0.040 A 
ATOM      5  C   UNL     1     -22.981 -48.880 102.228  1.00  0.00     0.054 A 
ATOM      6  C   UNL     1     -23.540 -48.674 104.603  1.00  0.00     0.008 A 
ATOM      7  C   UNL     1     -22.312 -47.665 102.335  1.00  0.00     0.166 A 
ATOM      8  C   UNL     1     -22.852 -47.449 104.667  1.00  0.00     0.051 A 
ATOM      9  C   UNL     1     -22.250 -46.978 103.504  1.00  0.00     0.165 A 
ATOM     10  O   UNL     1     -21.628 -46.969 101.357  1.00  0.00    -0.454 OA
ATOM     11  O   UNL     1     -21.526 -45.817 103.319  1.00  0.00    -0.454 OA
ATOM     12  C   UNL     1     -21.105 -45.771 101.949  1.00  0.00     0.468 C 
ENDBRANCH   1   4
TORSDOF 2
ENDMDL
MODEL 6
REMARK VINA RESULT:    -4.554      5.101      7.638
REMARK INTER + INTRA:          -5.247
REMARK INTER:                  -5.087
REMARK INTRA:                  -0.160
REMARK UNBOUND:                -0.160
REMARK SMILES C=CCc1ccc2c(c1)OCO2
REMARK SMILES IDX 3 1 2 2 1 3 4 4 9 5 5 6 8 7 6 8 7 9 10 10 12 11 11 12
REMARK H PARENT
REMARK Flexibility Score: inf
ROOT
ATOM      1  C   UNL     1     -24.003 -48.983 103.956  1.00  0.00     0.062 C 
ENDROOT
BRANCH   1   2
ATOM      2  C   UNL     1     -24.031 -50.137 102.992  1.00  0.00    -0.030 C 
ATOM      3  C   UNL     1     -24.395 -51.364 103.376  1.00  0.00     0.004 C 
ENDBRANCH   1   2
BRANCH   1   4
ATOM      4  C   UNL     1     -22.967 -47.971 103.547  1.00  0.00    -0.040 A 
ATOM      5  C   UNL     1     -22.501 -47.937 102.213  1.00  0.00     0.054 A 
ATOM      6  C   UNL     1     -22.422 -47.077 104.504  1.00  0.00     0.008 A 
ATOM      7  C   UNL     1     -21.522 -47.003 101.886  1.00  0.00     0.166 A 
ATOM      8  C   UNL     1     -21.433 -46.149 104.131  1.00  0.00     0.051 A 
ATOM      9  C   UNL     1     -21.010 -46.146 102.805  1.00  0.00     0.165 A 
ATOM     10  O   UNL     1     -20.920 -46.780 100.663  1.00  0.00    -0.454 OA
ATOM     11  O   UNL     1     -20.063 -45.340 102.206  1.00  0.00    -0.454 OA
ATOM     12  C   UNL     1     -19.971 -45.715 100.825  1.00  0.00     0.468 C 
ENDBRANCH   1   4
TORSDOF 2
ENDMDL
MODEL 7
REMARK VINA RESULT:    -4.537      5.164      7.678
REMARK INTER + INTRA:          -5.228
REMARK INTER:                  -5.056
REMARK INTRA:                  -0.172
REMARK UNBOUND:                -0.160
REMARK SMILES C=CCc1ccc2c(c1)OCO2
REMARK SMILES IDX 3 1 2 2 1 3 4 4 9 5 5 6 8 7 6 8 7 9 10 10 12 11 11 12
REMARK H PARENT
REMARK Flexibility Score: inf
ROOT
ATOM      1  C   UNL     1     -24.061 -48.945 103.876  1.00  0.00     0.062 C 
ENDROOT
BRANCH   1   2
ATOM      2  C   UNL     1     -24.014 -50.174 103.012  1.00  0.00    -0.030 C 
ATOM      3  C   UNL     1     -24.444 -51.360 103.454  1.00  0.00     0.004 C 
ENDBRANCH   1   2
BRANCH   1   4
ATOM      4  C   UNL     1     -22.995 -47.964 103.466  1.00  0.00    -0.040 A 
ATOM      5  C   UNL     1     -22.506 -47.021 104.398  1.00  0.00     0.054 A 
ATOM      6  C   UNL     1     -22.508 -47.952 102.133  1.00  0.00     0.008 A 
ATOM      7  C   UNL     1     -21.540 -46.116 103.966  1.00  0.00     0.166 A 
ATOM      8  C   UNL     1     -21.532 -47.019 101.739  1.00  0.00     0.051 A 
ATOM      9  C   UNL     1     -21.073 -46.115 102.692  1.00  0.00     0.165 A 
ATOM     10  O   UNL     1     -20.916 -45.115 104.685  1.00  0.00    -0.454 OA
ATOM     11  O   UNL     1     -20.132 -45.116 102.548  1.00  0.00    -0.454 OA
ATOM     12  C   UNL     1     -19.999 -44.445 103.809  1.00  0.00     0.468 C 
ENDBRANCH   1   4
TORSDOF 2
ENDMDL
MODEL 8
REMARK VINA RESULT:    -4.446      5.533      6.870
REMARK INTER + INTRA:          -5.126
REMARK INTER:                  -4.889
REMARK INTRA:                  -0.237
REMARK UNBOUND:                -0.160
REMARK SMILES C=CCc1ccc2c(c1)OCO2
REMARK SMILES IDX 3 1 2 2 1 3 4 4 9 5 5 6 8 7 6 8 7 9 10 10 12 11 11 12
REMARK H PARENT
REMARK Flexibility Score: inf
ROOT
ATOM      1  C   UNL     1     -21.724 -49.599 107.763  1.00  0.00     0.062 C 
ENDROOT
BRANCH   1   2
ATOM      2  C   UNL     1     -21.059 -50.938 107.921  1.00  0.00    -0.030 C 
ATOM      3  C   UNL     1     -21.398 -51.984 107.162  1.00  0.00     0.004 C 
ENDBRANCH   1   2
BRANCH   1   4
ATOM      4  C   UNL     1     -21.405 -49.000 106.419  1.00  0.00    -0.040 A 
ATOM      5  C   UNL     1     -22.427 -48.846 105.455  1.00  0.00     0.054 A 
ATOM      6  C   UNL     1     -20.074 -48.630 106.098  1.00  0.00     0.008 A 
ATOM      7  C   UNL     1     -22.080 -48.314 104.216  1.00  0.00     0.166 A 
ATOM      8  C   UNL     1     -19.768 -48.096 104.834  1.00  0.00     0.051 A 
ATOM      9  C   UNL     1     -20.807 -47.954 103.918  1.00  0.00     0.165 A 
ATOM     10  O   UNL     1     -22.894 -48.067 103.127  1.00  0.00    -0.454 OA
ATOM     11  O   UNL     1     -20.756 -47.462 102.629  1.00  0.00    -0.454 OA
ATOM     12  C   UNL     1     -22.080 -47.518 102.081  1.00  0.00     0.468 C 
ENDBRANCH   1   4
TORSDOF 2
ENDMDL
MODEL 9
REMARK VINA RESULT:    -4.430      4.482      7.125
REMARK INTER + INTRA:          -5.108
REMARK INTER:                  -4.922
REMARK INTRA:                  -0.187
REMARK UNBOUND:                -0.160
REMARK SMILES C=CCc1ccc2c(c1)OCO2
REMARK SMILES IDX 3 1 2 2 1 3 4 4 9 5 5 6 8 7 6 8 7 9 10 10 12 11 11 12
REMARK H PARENT
REMARK Flexibility Score: inf
ROOT
ATOM      1  C   UNL     1     -24.414 -49.088 103.812  1.00  0.00     0.062 C 
ENDROOT
BRANCH   1   2
ATOM      2  C   UNL     1     -24.156 -50.496 103.354  1.00  0.00    -0.030 C 
ATOM      3  C   UNL     1     -24.237 -50.842 102.066  1.00  0.00     0.004 C 
ENDBRANCH   1   2
BRANCH   1   4
ATOM      4  C   UNL     1     -23.126 -48.402 104.180  1.00  0.00    -0.040 A 
ATOM      5  C   UNL     1     -22.167 -49.076 104.969  1.00  0.00     0.054 A 
ATOM      6  C   UNL     1     -22.886 -47.063 103.775  1.00  0.00     0.008 A 
ATOM      7  C   UNL     1     -21.003 -48.393 105.309  1.00  0.00     0.166 A 
ATOM      8  C   UNL     1     -21.696 -46.410 104.141  1.00  0.00     0.051 A 
ATOM      9  C   UNL     1     -20.776 -47.116 104.911  1.00  0.00     0.165 A 
ATOM     10  O   UNL     1     -19.931 -48.838 106.059  1.00  0.00    -0.454 OA
ATOM     11  O   UNL     1     -19.552 -46.694 105.390  1.00  0.00    -0.454 OA
ATOM     12  C   UNL     1     -18.972 -47.773 106.137  1.00  0.00     0.468 C 
ENDBRANCH   1   4
TORSDOF 2
ENDMDL
