MODEL 1
REMARK VINA RESULT:    -3.799      0.000      0.000
REMARK INTER + INTRA:          -4.494
REMARK INTER:                  -4.465
REMARK INTRA:                  -0.029
REMARK UNBOUND:                -0.029
REMARK SMILES O=C([O-])CCC(=O)[O-]
REMARK SMILES IDX 4 1 2 2 1 3 3 4 5 5 6 6 7 7 8 8
REMARK H PARENT
REMARK Flexibility Score: inf
ROOT
ATOM      1  C   UNL     1      52.684 -41.495  -1.886  1.00  0.00     0.059 C 
ENDROOT
BRANCH   1   2
ATOM      2  C   UNL     1      54.095 -40.992  -1.853  1.00  0.00     0.042 C 
ATOM      3  O   UNL     1      55.057 -41.804  -1.806  1.00  0.00    -0.550 OA
ATOM      4  O   UNL     1      54.346 -39.626  -1.834  1.00  0.00    -0.550 OA
ENDBRANCH   1   2
BRANCH   1   5
ATOM      5  C   UNL     1      51.822 -40.691  -2.864  1.00  0.00     0.059 C 
BRANCH   5   6
ATOM      6  C   UNL     1      50.417 -41.207  -2.913  1.00  0.00     0.042 C 
ATOM      7  O   UNL     1      50.178 -42.354  -3.377  1.00  0.00    -0.550 OA
ATOM      8  O   UNL     1      49.366 -40.408  -2.483  1.00  0.00    -0.550 OA
ENDBRANCH   5   6
ENDBRANCH   1   5
TORSDOF 3
ENDMDL
MODEL 2
REMARK VINA RESULT:    -3.797      0.879      4.148
REMARK INTER + INTRA:          -4.492
REMARK INTER:                  -4.459
REMARK INTRA:                  -0.032
REMARK UNBOUND:                -0.029
REMARK SMILES O=C([O-])CCC(=O)[O-]
REMARK SMILES IDX 4 1 2 2 1 3 3 4 5 5 6 6 7 7 8 8
REMARK H PARENT
REMARK Flexibility Score: inf
ROOT
ATOM      1  C   UNL     1      51.721 -40.514  -2.868  1.00  0.00     0.059 C 
ENDROOT
BRANCH   1   2
ATOM      2  C   UNL     1      50.627 -41.155  -3.666  1.00  0.00     0.042 C 
ATOM      3  O   UNL     1      50.065 -42.201  -3.246  1.00  0.00    -0.550 OA
ATOM      4  O   UNL     1      50.255 -40.620  -4.893  1.00  0.00    -0.550 OA
ENDBRANCH   1   2
BRANCH   1   5
ATOM      5  C   UNL     1      52.589 -41.559  -2.161  1.00  0.00     0.059 C 
BRANCH   5   6
ATOM      6  C   UNL     1      53.968 -41.039  -1.891  1.00  0.00     0.042 C 
ATOM      7  O   UNL     1      54.936 -41.836  -1.775  1.00  0.00    -0.550 OA
ATOM      8  O   UNL     1      54.178 -39.675  -1.727  1.00  0.00    -0.550 OA
ENDBRANCH   5   6
ENDBRANCH   1   5
TORSDOF 3
ENDMDL
MODEL 3
REMARK VINA RESULT:    -3.788      0.885      1.497
REMARK INTER + INTRA:          -4.481
REMARK INTER:                  -4.446
REMARK INTRA:                  -0.035
REMARK UNBOUND:                -0.029
REMARK SMILES O=C([O-])CCC(=O)[O-]
REMARK SMILES IDX 4 1 2 2 1 3 3 4 5 5 6 6 7 7 8 8
REMARK H PARENT
REMARK Flexibility Score: inf
ROOT
ATOM      1  C   UNL     1      52.525 -41.534  -2.182  1.00  0.00     0.059 C 
ENDROOT
BRANCH   1   2
ATOM      2  C   UNL     1      53.889 -40.990  -1.888  1.00  0.00     0.042 C 
ATOM      3  O   UNL     1      54.063 -39.749  -1.758  1.00  0.00    -0.550 OA
ATOM      4  O   UNL     1      54.976 -41.850  -1.799  1.00  0.00    -0.550 OA
ENDBRANCH   1   2
BRANCH   1   5
ATOM      5  C   UNL     1      51.679 -40.535  -2.978  1.00  0.00     0.059 C 
BRANCH   5   6
ATOM      6  C   UNL     1      50.586 -41.222  -3.738  1.00  0.00     0.042 C 
ATOM      7  O   UNL     1      50.139 -42.332  -3.344  1.00  0.00    -0.550 OA
ATOM      8  O   UNL     1      50.087 -40.656  -4.904  1.00  0.00    -0.550 OA
ENDBRANCH   5   6
ENDBRANCH   1   5
TORSDOF 3
ENDMDL
MODEL 4
REMARK VINA RESULT:    -3.429      1.275      1.535
REMARK INTER + INTRA:          -4.059
REMARK INTER:                  -4.024
REMARK INTRA:                  -0.035
REMARK UNBOUND:                -0.029
REMARK SMILES O=C([O-])CCC(=O)[O-]
REMARK SMILES IDX 4 1 2 2 1 3 3 4 5 5 6 6 7 7 8 8
REMARK H PARENT
REMARK Flexibility Score: inf
ROOT
ATOM      1  C   UNL     1      51.683 -40.535  -2.958  1.00  0.00     0.059 C 
ENDROOT
BRANCH   1   2
ATOM      2  C   UNL     1      52.904 -40.922  -2.179  1.00  0.00     0.042 C 
ATOM      3  O   UNL     1      53.033 -42.097  -1.745  1.00  0.00    -0.550 OA
ATOM      4  O   UNL     1      53.879 -39.973  -1.899  1.00  0.00    -0.550 OA
ENDBRANCH   1   2
BRANCH   1   5
ATOM      5  C   UNL     1      50.806 -41.751  -3.271  1.00  0.00     0.059 C 
BRANCH   5   6
ATOM      6  C   UNL     1      49.418 -41.344  -3.661  1.00  0.00     0.042 C 
ATOM      7  O   UNL     1      49.100 -41.255  -4.876  1.00  0.00    -0.550 OA
ATOM      8  O   UNL     1      48.487 -41.023  -2.682  1.00  0.00    -0.550 OA
ENDBRANCH   5   6
ENDBRANCH   1   5
TORSDOF 3
ENDMDL
MODEL 5
REMARK VINA RESULT:    -3.391      2.118      4.697
REMARK INTER + INTRA:          -4.015
REMARK INTER:                  -3.894
REMARK INTRA:                  -0.122
REMARK UNBOUND:                -0.029
REMARK SMILES O=C([O-])CCC(=O)[O-]
REMARK SMILES IDX 4 1 2 2 1 3 3 4 5 5 6 6 7 7 8 8
REMARK H PARENT
REMARK Flexibility Score: inf
ROOT
ATOM      1  C   UNL     1      49.363 -41.341  -3.093  1.00  0.00     0.059 C 
ENDROOT
BRANCH   1   2
ATOM      2  C   UNL     1      48.738 -40.848  -4.363  1.00  0.00     0.042 C 
ATOM      3  O   UNL     1      49.444 -40.674  -5.391  1.00  0.00    -0.550 OA
ATOM      4  O   UNL     1      47.383 -40.544  -4.398  1.00  0.00    -0.550 OA
ENDBRANCH   1   2
BRANCH   1   5
ATOM      5  C   UNL     1      50.753 -41.935  -3.343  1.00  0.00     0.059 C 
BRANCH   5   6
ATOM      6  C   UNL     1      51.829 -41.104  -2.715  1.00  0.00     0.042 C 
ATOM      7  O   UNL     1      51.984 -39.902  -3.058  1.00  0.00    -0.550 OA
ATOM      8  O   UNL     1      52.688 -41.668  -1.780  1.00  0.00    -0.550 OA
ENDBRANCH   5   6
ENDBRANCH   1   5
TORSDOF 3
ENDMDL
MODEL 6
REMARK VINA RESULT:    -3.386     14.589     15.275
REMARK INTER + INTRA:          -4.009
REMARK INTER:                  -3.915
REMARK INTRA:                  -0.094
REMARK UNBOUND:                -0.029
REMARK SMILES O=C([O-])CCC(=O)[O-]
REMARK SMILES IDX 4 1 2 2 1 3 3 4 5 5 6 6 7 7 8 8
REMARK H PARENT
REMARK Flexibility Score: inf
ROOT
ATOM      1  C   UNL     1      50.001 -34.228  10.083  1.00  0.00     0.059 C 
ENDROOT
BRANCH   1   2
ATOM      2  C   UNL     1      50.654 -35.390   9.399  1.00  0.00     0.042 C 
ATOM      3  O   UNL     1      50.531 -35.546   8.156  1.00  0.00    -0.550 OA
ATOM      4  O   UNL     1      51.366 -36.323  10.143  1.00  0.00    -0.550 OA
ENDBRANCH   1   2
BRANCH   1   5
ATOM      5  C   UNL     1      51.027 -33.351  10.808  1.00  0.00     0.059 C 
BRANCH   5   6
ATOM      6  C   UNL     1      50.884 -33.451  12.296  1.00  0.00     0.042 C 
ATOM      7  O   UNL     1      49.811 -33.874  12.803  1.00  0.00    -0.550 OA
ATOM      8  O   UNL     1      51.920 -33.040  13.124  1.00  0.00    -0.550 OA
ENDBRANCH   5   6
ENDBRANCH   1   5
TORSDOF 3
ENDMDL
MODEL 7
REMARK VINA RESULT:    -3.335      2.362      3.396
REMARK INTER + INTRA:          -3.948
REMARK INTER:                  -3.831
REMARK INTRA:                  -0.117
REMARK UNBOUND:                -0.029
REMARK SMILES O=C([O-])CCC(=O)[O-]
REMARK SMILES IDX 4 1 2 2 1 3 3 4 5 5 6 6 7 7 8 8
REMARK H PARENT
REMARK Flexibility Score: inf
ROOT
ATOM      1  C   UNL     1      49.741 -42.028  -3.386  1.00  0.00     0.059 C 
ENDROOT
BRANCH   1   2
ATOM      2  C   UNL     1      51.054 -41.359  -3.114  1.00  0.00     0.042 C 
ATOM      3  O   UNL     1      51.208 -40.136  -3.372  1.00  0.00    -0.550 OA
ATOM      4  O   UNL     1      52.119 -42.096  -2.613  1.00  0.00    -0.550 OA
ENDBRANCH   1   2
BRANCH   1   5
ATOM      5  C   UNL     1      48.799 -41.119  -4.181  1.00  0.00     0.059 C 
BRANCH   5   6
ATOM      6  C   UNL     1      47.652 -40.645  -3.343  1.00  0.00     0.042 C 
ATOM      7  O   UNL     1      46.479 -40.670  -3.800  1.00  0.00    -0.550 OA
ATOM      8  O   UNL     1      47.883 -40.139  -2.070  1.00  0.00    -0.550 OA
ENDBRANCH   5   6
ENDBRANCH   1   5
TORSDOF 3
ENDMDL
MODEL 8
REMARK VINA RESULT:    -3.323      2.348      5.078
REMARK INTER + INTRA:          -3.935
REMARK INTER:                  -3.815
REMARK INTRA:                  -0.120
REMARK UNBOUND:                -0.029
REMARK SMILES O=C([O-])CCC(=O)[O-]
REMARK SMILES IDX 4 1 2 2 1 3 3 4 5 5 6 6 7 7 8 8
REMARK H PARENT
REMARK Flexibility Score: inf
ROOT
ATOM      1  C   UNL     1      48.866 -41.091  -4.180  1.00  0.00     0.059 C 
ENDROOT
BRANCH   1   2
ATOM      2  C   UNL     1      47.703 -40.621  -3.360  1.00  0.00     0.042 C 
ATOM      3  O   UNL     1      46.529 -40.732  -3.802  1.00  0.00    -0.550 OA
ATOM      4  O   UNL     1      47.920 -40.024  -2.125  1.00  0.00    -0.550 OA
ENDBRANCH   1   2
BRANCH   1   5
ATOM      5  C   UNL     1      49.770 -42.038  -3.384  1.00  0.00     0.059 C 
BRANCH   5   6
ATOM      6  C   UNL     1      51.082 -41.396  -3.052  1.00  0.00     0.042 C 
ATOM      7  O   UNL     1      51.237 -40.155  -3.199  1.00  0.00    -0.550 OA
ATOM      8  O   UNL     1      52.147 -42.174  -2.617  1.00  0.00    -0.550 OA
ENDBRANCH   5   6
ENDBRANCH   1   5
TORSDOF 3
ENDMDL
MODEL 9
REMARK VINA RESULT:    -3.238     11.698     12.431
REMARK INTER + INTRA:          -3.835
REMARK INTER:                  -3.678
REMARK INTRA:                  -0.158
REMARK UNBOUND:                -0.029
REMARK SMILES O=C([O-])CCC(=O)[O-]
REMARK SMILES IDX 4 1 2 2 1 3 3 4 5 5 6 6 7 7 8 8
REMARK H PARENT
REMARK Flexibility Score: inf
ROOT
ATOM      1  C   UNL     1      50.997 -38.432   7.939  1.00  0.00     0.059 C 
ENDROOT
BRANCH   1   2
ATOM      2  C   UNL     1      49.799 -39.122   8.515  1.00  0.00     0.042 C 
ATOM      3  O   UNL     1      48.699 -39.102   7.902  1.00  0.00    -0.550 OA
ATOM      4  O   UNL     1      49.887 -39.754   9.749  1.00  0.00    -0.550 OA
ENDBRANCH   1   2
BRANCH   1   5
ATOM      5  C   UNL     1      51.758 -37.639   9.007  1.00  0.00     0.059 C 
BRANCH   5   6
ATOM      6  C   UNL     1      51.046 -36.370   9.362  1.00  0.00     0.042 C 
ATOM      7  O   UNL     1      50.731 -36.132  10.559  1.00  0.00    -0.550 OA
ATOM      8  O   UNL     1      50.695 -35.467   8.367  1.00  0.00    -0.550 OA
ENDBRANCH   5   6
ENDBRANCH   1   5
TORSDOF 3
ENDMDL
