MODEL 1
REMARK VINA RESULT:    -4.679      0.000      0.000
REMARK INTER + INTRA:          -4.971
REMARK INTER:                  -4.952
REMARK INTRA:                  -0.019
REMARK UNBOUND:                -0.019
REMARK SMILES O=C([O-])c1cccnc1
REMARK SMILES IDX 4 1 5 2 9 3 6 4 8 5 7 6 2 7 1 8 3 9
REMARK H PARENT
REMARK Flexibility Score: inf
ROOT
ATOM      1  C   UNL     1     -15.582 -32.079 -14.928  1.00  0.00     0.016 A 
ATOM      2  C   UNL     1     -15.858 -33.220 -14.157  1.00  0.00     0.013 A 
ATOM      3  C   UNL     1     -16.323 -30.909 -14.680  1.00  0.00     0.120 A 
ATOM      4  C   UNL     1     -16.846 -33.178 -13.172  1.00  0.00     0.021 A 
ATOM      5  N   UNL     1     -17.280 -30.896 -13.714  1.00  0.00    -0.264 NA
ATOM      6  C   UNL     1     -17.554 -31.995 -12.963  1.00  0.00     0.111 A 
ENDROOT
BRANCH   1   7
ATOM      7  C   UNL     1     -14.537 -32.111 -15.974  1.00  0.00     0.073 C 
ATOM      8  O   UNL     1     -13.389 -32.565 -15.719  1.00  0.00    -0.545 OA
ATOM      9  O   UNL     1     -14.806 -31.639 -17.253  1.00  0.00    -0.545 OA
ENDBRANCH   1   7
TORSDOF 1
ENDMDL
MODEL 2
REMARK VINA RESULT:    -4.658      1.647      2.078
REMARK INTER + INTRA:          -4.950
REMARK INTER:                  -4.933
REMARK INTRA:                  -0.017
REMARK UNBOUND:                -0.019
REMARK SMILES O=C([O-])c1cccnc1
REMARK SMILES IDX 4 1 5 2 9 3 6 4 8 5 7 6 2 7 1 8 3 9
REMARK H PARENT
REMARK Flexibility Score: inf
ROOT
ATOM      1  C   UNL     1     -15.598 -32.919 -14.482  1.00  0.00     0.016 A 
ATOM      2  C   UNL     1     -16.615 -33.091 -13.529  1.00  0.00     0.013 A 
ATOM      3  C   UNL     1     -15.436 -31.649 -15.066  1.00  0.00     0.120 A 
ATOM      4  C   UNL     1     -17.439 -32.019 -13.181  1.00  0.00     0.021 A 
ATOM      5  N   UNL     1     -16.253 -30.622 -14.709  1.00  0.00    -0.264 NA
ATOM      6  C   UNL     1     -17.240 -30.779 -13.788  1.00  0.00     0.111 A 
ENDROOT
BRANCH   1   7
ATOM      7  C   UNL     1     -14.718 -34.047 -14.858  1.00  0.00     0.073 C 
ATOM      8  O   UNL     1     -15.191 -35.061 -15.438  1.00  0.00    -0.545 OA
ATOM      9  O   UNL     1     -13.359 -34.004 -14.577  1.00  0.00    -0.545 OA
ENDBRANCH   1   7
TORSDOF 1
ENDMDL
MODEL 3
REMARK VINA RESULT:    -4.619      0.921      1.600
REMARK INTER + INTRA:          -4.909
REMARK INTER:                  -4.889
REMARK INTRA:                  -0.019
REMARK UNBOUND:                -0.019
REMARK SMILES O=C([O-])c1cccnc1
REMARK SMILES IDX 4 1 5 2 9 3 6 4 8 5 7 6 2 7 1 8 3 9
REMARK H PARENT
REMARK Flexibility Score: inf
ROOT
ATOM      1  C   UNL     1     -15.588 -32.098 -14.938  1.00  0.00     0.016 A 
ATOM      2  C   UNL     1     -16.376 -30.957 -14.714  1.00  0.00     0.013 A 
ATOM      3  C   UNL     1     -15.793 -33.224 -14.120  1.00  0.00     0.120 A 
ATOM      4  C   UNL     1     -17.335 -30.956 -13.700  1.00  0.00     0.021 A 
ATOM      5  N   UNL     1     -16.735 -33.195 -13.139  1.00  0.00    -0.264 NA
ATOM      6  C   UNL     1     -17.502 -32.097 -12.915  1.00  0.00     0.111 A 
ENDROOT
BRANCH   1   7
ATOM      7  C   UNL     1     -14.568 -32.111 -16.009  1.00  0.00     0.073 C 
ATOM      8  O   UNL     1     -13.403 -32.532 -15.779  1.00  0.00    -0.545 OA
ATOM      9  O   UNL     1     -14.882 -31.659 -17.285  1.00  0.00    -0.545 OA
ENDBRANCH   1   7
TORSDOF 1
ENDMDL
MODEL 4
REMARK VINA RESULT:    -4.605      1.971      2.428
REMARK INTER + INTRA:          -4.894
REMARK INTER:                  -4.877
REMARK INTRA:                  -0.017
REMARK UNBOUND:                -0.019
REMARK SMILES O=C([O-])c1cccnc1
REMARK SMILES IDX 4 1 5 2 9 3 6 4 8 5 7 6 2 7 1 8 3 9
REMARK H PARENT
REMARK Flexibility Score: inf
ROOT
ATOM      1  C   UNL     1     -15.932 -31.197 -16.024  1.00  0.00     0.016 A 
ATOM      2  C   UNL     1     -17.125 -31.784 -15.571  1.00  0.00     0.013 A 
ATOM      3  C   UNL     1     -15.899 -29.803 -16.205  1.00  0.00     0.120 A 
ATOM      4  C   UNL     1     -18.243 -30.988 -15.312  1.00  0.00     0.021 A 
ATOM      5  N   UNL     1     -17.002 -29.052 -15.945  1.00  0.00    -0.264 NA
ATOM      6  C   UNL     1     -18.161 -29.610 -15.507  1.00  0.00     0.111 A 
ENDROOT
BRANCH   1   7
ATOM      7  C   UNL     1     -14.741 -32.029 -16.301  1.00  0.00     0.073 C 
ATOM      8  O   UNL     1     -14.701 -32.770 -17.320  1.00  0.00    -0.545 OA
ATOM      9  O   UNL     1     -13.650 -32.006 -15.441  1.00  0.00    -0.545 OA
ENDBRANCH   1   7
TORSDOF 1
ENDMDL
MODEL 5
REMARK VINA RESULT:    -4.594      2.860      3.803
REMARK INTER + INTRA:          -4.882
REMARK INTER:                  -4.866
REMARK INTRA:                  -0.016
REMARK UNBOUND:                -0.019
REMARK SMILES O=C([O-])c1cccnc1
REMARK SMILES IDX 4 1 5 2 9 3 6 4 8 5 7 6 2 7 1 8 3 9
REMARK H PARENT
REMARK Flexibility Score: inf
ROOT
ATOM      1  C   UNL     1     -16.164 -32.260 -14.389  1.00  0.00     0.016 A 
ATOM      2  C   UNL     1     -15.128 -31.449 -14.881  1.00  0.00     0.013 A 
ATOM      3  C   UNL     1     -16.121 -33.639 -14.661  1.00  0.00     0.120 A 
ATOM      4  C   UNL     1     -14.088 -32.014 -15.621  1.00  0.00     0.021 A 
ATOM      5  N   UNL     1     -15.096 -34.163 -15.384  1.00  0.00    -0.264 NA
ATOM      6  C   UNL     1     -14.089 -33.387 -15.865  1.00  0.00     0.111 A 
ENDROOT
BRANCH   1   7
ATOM      7  C   UNL     1     -17.271 -31.673 -13.603  1.00  0.00     0.073 C 
ATOM      8  O   UNL     1     -17.293 -31.782 -12.348  1.00  0.00    -0.545 OA
ATOM      9  O   UNL     1     -18.304 -30.995 -14.239  1.00  0.00    -0.545 OA
ENDBRANCH   1   7
TORSDOF 1
ENDMDL
MODEL 6
REMARK VINA RESULT:    -4.508      2.762      3.316
REMARK INTER + INTRA:          -4.790
REMARK INTER:                  -4.774
REMARK INTRA:                  -0.017
REMARK UNBOUND:                -0.019
REMARK SMILES O=C([O-])c1cccnc1
REMARK SMILES IDX 4 1 5 2 9 3 6 4 8 5 7 6 2 7 1 8 3 9
REMARK H PARENT
REMARK Flexibility Score: inf
ROOT
ATOM      1  C   UNL     1     -16.810 -30.593 -14.321  1.00  0.00     0.016 A 
ATOM      2  C   UNL     1     -17.517 -31.508 -13.524  1.00  0.00     0.013 A 
ATOM      3  C   UNL     1     -15.660 -31.043 -14.994  1.00  0.00     0.120 A 
ATOM      4  C   UNL     1     -17.077 -32.828 -13.412  1.00  0.00     0.021 A 
ATOM      5  N   UNL     1     -15.253 -32.334 -14.868  1.00  0.00    -0.264 NA
ATOM      6  C   UNL     1     -15.931 -33.226 -14.099  1.00  0.00     0.111 A 
ENDROOT
BRANCH   1   7
ATOM      7  C   UNL     1     -17.267 -29.192 -14.447  1.00  0.00     0.073 C 
ATOM      8  O   UNL     1     -17.088 -28.373 -13.507  1.00  0.00    -0.545 OA
ATOM      9  O   UNL     1     -17.902 -28.761 -15.606  1.00  0.00    -0.545 OA
ENDBRANCH   1   7
TORSDOF 1
ENDMDL
MODEL 7
REMARK VINA RESULT:    -4.485      3.308      3.861
REMARK INTER + INTRA:          -4.766
REMARK INTER:                  -4.743
REMARK INTRA:                  -0.024
REMARK UNBOUND:                -0.019
REMARK SMILES O=C([O-])c1cccnc1
REMARK SMILES IDX 4 1 5 2 9 3 6 4 8 5 7 6 2 7 1 8 3 9
REMARK H PARENT
REMARK Flexibility Score: inf
ROOT
ATOM      1  C   UNL     1     -16.888 -31.029 -15.735  1.00  0.00     0.016 A 
ATOM      2  C   UNL     1     -17.056 -32.418 -15.851  1.00  0.00     0.013 A 
ATOM      3  C   UNL     1     -15.685 -30.461 -16.191  1.00  0.00     0.120 A 
ATOM      4  C   UNL     1     -16.045 -33.203 -16.407  1.00  0.00     0.021 A 
ATOM      5  N   UNL     1     -14.716 -31.249 -16.728  1.00  0.00    -0.264 NA
ATOM      6  C   UNL     1     -14.869 -32.594 -16.845  1.00  0.00     0.111 A 
ENDROOT
BRANCH   1   7
ATOM      7  C   UNL     1     -17.953 -30.187 -15.147  1.00  0.00     0.073 C 
ATOM      8  O   UNL     1     -18.952 -30.715 -14.590  1.00  0.00    -0.545 OA
ATOM      9  O   UNL     1     -17.866 -28.802 -15.204  1.00  0.00    -0.545 OA
ENDBRANCH   1   7
TORSDOF 1
ENDMDL
MODEL 8
REMARK VINA RESULT:    -4.471      2.575      3.470
REMARK INTER + INTRA:          -4.752
REMARK INTER:                  -4.728
REMARK INTRA:                  -0.024
REMARK UNBOUND:                -0.019
REMARK SMILES O=C([O-])c1cccnc1
REMARK SMILES IDX 4 1 5 2 9 3 6 4 8 5 7 6 2 7 1 8 3 9
REMARK H PARENT
REMARK Flexibility Score: inf
ROOT
ATOM      1  C   UNL     1     -16.058 -31.746 -15.548  1.00  0.00     0.016 A 
ATOM      2  C   UNL     1     -14.694 -31.483 -15.754  1.00  0.00     0.013 A 
ATOM      3  C   UNL     1     -16.439 -33.045 -15.166  1.00  0.00     0.120 A 
ATOM      4  C   UNL     1     -13.751 -32.498 -15.582  1.00  0.00     0.021 A 
ATOM      5  N   UNL     1     -15.499 -34.015 -15.005  1.00  0.00    -0.264 NA
ATOM      6  C   UNL     1     -14.177 -33.770 -15.203  1.00  0.00     0.111 A 
ENDROOT
BRANCH   1   7
ATOM      7  C   UNL     1     -17.067 -30.678 -15.727  1.00  0.00     0.073 C 
ATOM      8  O   UNL     1     -16.734 -29.555 -16.190  1.00  0.00    -0.545 OA
ATOM      9  O   UNL     1     -18.395 -30.901 -15.385  1.00  0.00    -0.545 OA
ENDBRANCH   1   7
TORSDOF 1
ENDMDL
MODEL 9
REMARK VINA RESULT:    -4.446      3.244      4.126
REMARK INTER + INTRA:          -4.726
REMARK INTER:                  -4.702
REMARK INTRA:                  -0.023
REMARK UNBOUND:                -0.019
REMARK SMILES O=C([O-])c1cccnc1
REMARK SMILES IDX 4 1 5 2 9 3 6 4 8 5 7 6 2 7 1 8 3 9
REMARK H PARENT
REMARK Flexibility Score: inf
ROOT
ATOM      1  C   UNL     1     -17.240 -29.158 -15.951  1.00  0.00     0.016 A 
ATOM      2  C   UNL     1     -18.314 -29.854 -15.374  1.00  0.00     0.013 A 
ATOM      3  C   UNL     1     -15.966 -29.755 -15.928  1.00  0.00     0.120 A 
ATOM      4  C   UNL     1     -18.108 -31.107 -14.795  1.00  0.00     0.021 A 
ATOM      5  N   UNL     1     -15.793 -30.977 -15.357  1.00  0.00    -0.264 NA
ATOM      6  C   UNL     1     -16.827 -31.658 -14.796  1.00  0.00     0.111 A 
ENDROOT
BRANCH   1   7
ATOM      7  C   UNL     1     -17.446 -27.830 -16.569  1.00  0.00     0.073 C 
ATOM      8  O   UNL     1     -16.460 -27.113 -16.890  1.00  0.00    -0.545 OA
ATOM      9  O   UNL     1     -18.730 -27.355 -16.804  1.00  0.00    -0.545 OA
ENDBRANCH   1   7
TORSDOF 1
ENDMDL
