MODEL 1
REMARK VINA RESULT:    -4.455      0.000      0.000
REMARK INTER + INTRA:          -7.487
REMARK INTER:                  -6.017
REMARK INTRA:                  -1.470
REMARK UNBOUND:                -1.470
REMARK SMILES CC(=O)CCC=C(C)CCC=C(C)C
REMARK SMILES IDX 7 1 6 2 8 3 9 4 10 5 11 6 13 7 12 8 14 9 5 10 4 11 2 12 3 13
REMARK SMILES IDX 1 14
REMARK H PARENT
REMARK Flexibility Score: inf
ROOT
ATOM      1  C   UNL     1      59.151  68.018  31.397  1.00  0.00    -0.077 C 
ATOM      2  C   UNL     1      58.611  68.733  30.384  1.00  0.00    -0.028 C 
ATOM      3  C   UNL     1      58.304  67.449  32.510  1.00  0.00     0.039 C 
ENDROOT
BRANCH   1   4
ATOM      4  C   UNL     1      60.649  67.790  31.421  1.00  0.00     0.034 C 
BRANCH   4   5
ATOM      5  C   UNL     1      61.428  69.072  31.091  1.00  0.00     0.032 C 
BRANCH   5   6
ATOM      6  C   UNL     1      61.473  70.020  32.268  1.00  0.00    -0.028 C 
ATOM      7  C   UNL     1      61.065  72.125  33.499  1.00  0.00     0.039 C 
ATOM      8  C   UNL     1      60.992  71.282  32.252  1.00  0.00    -0.080 C 
ATOM      9  C   UNL     1      60.439  71.915  30.999  1.00  0.00     0.039 C 
ENDBRANCH   5   6
ENDBRANCH   4   5
ENDBRANCH   1   4
BRANCH   2  10
ATOM     10  C   UNL     1      57.133  68.973  30.203  1.00  0.00     0.035 C 
BRANCH  10  11
ATOM     11  C   UNL     1      56.776  70.424  30.536  1.00  0.00     0.079 C 
BRANCH  11  12
ATOM     12  C   UNL     1      56.392  70.559  31.986  1.00  0.00     0.130 C 
ATOM     13  O   UNL     1      55.270  70.231  32.342  1.00  0.00    -0.300 OA
ATOM     14  C   UNL     1      57.350  71.103  33.002  1.00  0.00     0.087 C 
ENDBRANCH  11  12
ENDBRANCH  10  11
ENDBRANCH   2  10
TORSDOF 6
ENDMDL
MODEL 2
REMARK VINA RESULT:    -4.435     17.758     19.463
REMARK INTER + INTRA:          -7.460
REMARK INTER:                  -6.199
REMARK INTRA:                  -1.262
REMARK UNBOUND:                -1.470
REMARK SMILES CC(=O)CCC=C(C)CCC=C(C)C
REMARK SMILES IDX 7 1 6 2 8 3 9 4 10 5 11 6 13 7 12 8 14 9 5 10 4 11 2 12 3 13
REMARK SMILES IDX 1 14
REMARK H PARENT
REMARK Flexibility Score: inf
ROOT
ATOM      1  C   UNL     1      44.271  59.401  27.933  1.00  0.00    -0.077 C 
ATOM      2  C   UNL     1      43.454  58.370  27.617  1.00  0.00    -0.028 C 
ATOM      3  C   UNL     1      43.787  60.581  28.743  1.00  0.00     0.039 C 
ENDROOT
BRANCH   1   4
ATOM      4  C   UNL     1      45.707  59.378  27.451  1.00  0.00     0.034 C 
BRANCH   4   5
ATOM      5  C   UNL     1      46.125  57.982  26.967  1.00  0.00     0.032 C 
BRANCH   5   6
ATOM      6  C   UNL     1      46.915  57.236  28.017  1.00  0.00    -0.028 C 
ATOM      7  C   UNL     1      47.514  55.331  29.475  1.00  0.00     0.039 C 
ATOM      8  C   UNL     1      46.633  55.985  28.442  1.00  0.00    -0.080 C 
ATOM      9  C   UNL     1      45.414  55.233  27.969  1.00  0.00     0.039 C 
ENDBRANCH   5   6
ENDBRANCH   4   5
ENDBRANCH   1   4
BRANCH   2  10
ATOM     10  C   UNL     1      42.029  58.235  28.092  1.00  0.00     0.035 C 
BRANCH  10  11
ATOM     11  C   UNL     1      41.876  57.014  29.004  1.00  0.00     0.079 C 
BRANCH  11  12
ATOM     12  C   UNL     1      42.543  57.255  30.332  1.00  0.00     0.130 C 
ATOM     13  O   UNL     1      42.255  58.252  30.977  1.00  0.00    -0.300 OA
ATOM     14  C   UNL     1      43.566  56.304  30.877  1.00  0.00     0.087 C 
ENDBRANCH  11  12
ENDBRANCH  10  11
ENDBRANCH   2  10
TORSDOF 6
ENDMDL
MODEL 3
REMARK VINA RESULT:    -4.353     17.139     19.676
REMARK INTER + INTRA:          -7.349
REMARK INTER:                  -6.239
REMARK INTRA:                  -1.111
REMARK UNBOUND:                -1.470
REMARK SMILES CC(=O)CCC=C(C)CCC=C(C)C
REMARK SMILES IDX 7 1 6 2 8 3 9 4 10 5 11 6 13 7 12 8 14 9 5 10 4 11 2 12 3 13
REMARK SMILES IDX 1 14
REMARK H PARENT
REMARK Flexibility Score: inf
ROOT
ATOM      1  C   UNL     1      43.605  59.286  27.871  1.00  0.00    -0.077 C 
ATOM      2  C   UNL     1      44.671  58.754  27.231  1.00  0.00    -0.028 C 
ATOM      3  C   UNL     1      43.731  60.509  28.749  1.00  0.00     0.039 C 
ENDROOT
BRANCH   1   4
ATOM      4  C   UNL     1      42.248  58.631  27.713  1.00  0.00     0.034 C 
BRANCH   4   5
ATOM      5  C   UNL     1      41.875  57.784  28.938  1.00  0.00     0.032 C 
BRANCH   5   6
ATOM      6  C   UNL     1      42.198  56.322  28.730  1.00  0.00    -0.028 C 
ATOM      7  C   UNL     1      43.421  54.200  29.071  1.00  0.00     0.039 C 
ATOM      8  C   UNL     1      43.217  55.670  29.333  1.00  0.00    -0.080 C 
ATOM      9  C   UNL     1      44.213  56.380  30.216  1.00  0.00     0.039 C 
ENDBRANCH   5   6
ENDBRANCH   4   5
ENDBRANCH   1   4
BRANCH   2  10
ATOM     10  C   UNL     1      46.058  59.348  27.248  1.00  0.00     0.035 C 
BRANCH  10  11
ATOM     11  C   UNL     1      47.116  58.244  27.333  1.00  0.00     0.079 C 
BRANCH  11  12
ATOM     12  C   UNL     1      47.315  57.804  28.759  1.00  0.00     0.130 C 
ATOM     13  O   UNL     1      47.099  58.594  29.667  1.00  0.00    -0.300 OA
ATOM     14  C   UNL     1      47.789  56.422  29.093  1.00  0.00     0.087 C 
ENDBRANCH  11  12
ENDBRANCH  10  11
ENDBRANCH   2  10
TORSDOF 6
ENDMDL
MODEL 4
REMARK VINA RESULT:    -4.289     17.817     19.561
REMARK INTER + INTRA:          -7.263
REMARK INTER:                  -5.835
REMARK INTRA:                  -1.428
REMARK UNBOUND:                -1.470
REMARK SMILES CC(=O)CCC=C(C)CCC=C(C)C
REMARK SMILES IDX 7 1 6 2 8 3 9 4 10 5 11 6 13 7 12 8 14 9 5 10 4 11 2 12 3 13
REMARK SMILES IDX 1 14
REMARK H PARENT
REMARK Flexibility Score: inf
ROOT
ATOM      1  C   UNL     1      46.256  56.663  28.173  1.00  0.00    -0.077 C 
ATOM      2  C   UNL     1      45.243  56.096  27.479  1.00  0.00    -0.028 C 
ATOM      3  C   UNL     1      46.685  56.142  29.524  1.00  0.00     0.039 C 
ENDROOT
BRANCH   1   4
ATOM      4  C   UNL     1      46.972  57.862  27.584  1.00  0.00     0.034 C 
BRANCH   4   5
ATOM      5  C   UNL     1      46.000  58.822  26.883  1.00  0.00     0.032 C 
BRANCH   5   6
ATOM      6  C   UNL     1      45.357  59.781  27.859  1.00  0.00    -0.028 C 
ATOM      7  C   UNL     1      43.511  60.812  29.141  1.00  0.00     0.039 C 
ATOM      8  C   UNL     1      44.033  59.832  28.122  1.00  0.00    -0.080 C 
ATOM      9  C   UNL     1      43.033  58.982  27.377  1.00  0.00     0.039 C 
ENDBRANCH   5   6
ENDBRANCH   4   5
ENDBRANCH   1   4
BRANCH   2  10
ATOM     10  C   UNL     1      44.496  54.861  27.917  1.00  0.00     0.035 C 
BRANCH  10  11
ATOM     11  C   UNL     1      43.080  55.221  28.375  1.00  0.00     0.079 C 
BRANCH  11  12
ATOM     12  C   UNL     1      43.045  55.460  29.862  1.00  0.00     0.130 C 
ATOM     13  O   UNL     1      43.010  54.504  30.623  1.00  0.00    -0.300 OA
ATOM     14  C   UNL     1      43.038  56.847  30.431  1.00  0.00     0.087 C 
ENDBRANCH  11  12
ENDBRANCH  10  11
ENDBRANCH   2  10
TORSDOF 6
ENDMDL
MODEL 5
REMARK VINA RESULT:    -4.200     16.828     18.942
REMARK INTER + INTRA:          -7.143
REMARK INTER:                  -5.944
REMARK INTRA:                  -1.199
REMARK UNBOUND:                -1.470
REMARK SMILES CC(=O)CCC=C(C)CCC=C(C)C
REMARK SMILES IDX 7 1 6 2 8 3 9 4 10 5 11 6 13 7 12 8 14 9 5 10 4 11 2 12 3 13
REMARK SMILES IDX 1 14
REMARK H PARENT
REMARK Flexibility Score: inf
ROOT
ATOM      1  C   UNL     1      42.886  57.226  28.745  1.00  0.00    -0.077 C 
ATOM      2  C   UNL     1      43.373  57.441  29.989  1.00  0.00    -0.028 C 
ATOM      3  C   UNL     1      41.878  58.156  28.112  1.00  0.00     0.039 C 
ENDROOT
BRANCH   1   4
ATOM      4  C   UNL     1      43.358  56.012  27.969  1.00  0.00     0.034 C 
BRANCH   4   5
ATOM      5  C   UNL     1      44.449  56.373  26.951  1.00  0.00     0.032 C 
BRANCH   5   6
ATOM      6  C   UNL     1      45.788  56.594  27.618  1.00  0.00    -0.028 C 
ATOM      7  C   UNL     1      47.737  57.892  28.414  1.00  0.00     0.039 C 
ATOM      8  C   UNL     1      46.416  57.788  27.695  1.00  0.00    -0.080 C 
ATOM      9  C   UNL     1      45.876  59.025  27.021  1.00  0.00     0.039 C 
ENDBRANCH   5   6
ENDBRANCH   4   5
ENDBRANCH   1   4
BRANCH   2  10
ATOM     10  C   UNL     1      43.041  58.643  30.838  1.00  0.00     0.035 C 
BRANCH  10  11
ATOM     11  C   UNL     1      44.297  59.479  31.102  1.00  0.00     0.079 C 
BRANCH  11  12
ATOM     12  C   UNL     1      44.146  60.863  30.527  1.00  0.00     0.130 C 
ATOM     13  O   UNL     1      44.401  61.834  31.224  1.00  0.00    -0.300 OA
ATOM     14  C   UNL     1      43.676  61.078  29.120  1.00  0.00     0.087 C 
ENDBRANCH  11  12
ENDBRANCH  10  11
ENDBRANCH   2  10
TORSDOF 6
ENDMDL
MODEL 6
REMARK VINA RESULT:    -4.169      1.936      2.662
REMARK INTER + INTRA:          -7.102
REMARK INTER:                  -6.108
REMARK INTRA:                  -0.994
REMARK UNBOUND:                -1.470
REMARK SMILES CC(=O)CCC=C(C)CCC=C(C)C
REMARK SMILES IDX 7 1 6 2 8 3 9 4 10 5 11 6 13 7 12 8 14 9 5 10 4 11 2 12 3 13
REMARK SMILES IDX 1 14
REMARK H PARENT
REMARK Flexibility Score: inf
ROOT
ATOM      1  C   UNL     1      60.599  68.786  31.151  1.00  0.00    -0.077 C 
ATOM      2  C   UNL     1      59.484  69.423  30.726  1.00  0.00    -0.028 C 
ATOM      3  C   UNL     1      60.615  67.298  31.414  1.00  0.00     0.039 C 
ENDROOT
BRANCH   1   4
ATOM      4  C   UNL     1      61.863  69.589  31.382  1.00  0.00     0.034 C 
BRANCH   4   5
ATOM      5  C   UNL     1      61.809  70.375  32.700  1.00  0.00     0.032 C 
BRANCH   5   6
ATOM      6  C   UNL     1      62.057  69.485  33.896  1.00  0.00    -0.028 C 
ATOM      7  C   UNL     1      61.458  68.128  35.875  1.00  0.00     0.039 C 
ATOM      8  C   UNL     1      61.093  69.038  34.731  1.00  0.00    -0.080 C 
ATOM      9  C   UNL     1      59.655  69.476  34.604  1.00  0.00     0.039 C 
ENDBRANCH   5   6
ENDBRANCH   4   5
ENDBRANCH   1   4
BRANCH   2  10
ATOM     10  C   UNL     1      58.184  68.735  30.391  1.00  0.00     0.035 C 
BRANCH  10  11
ATOM     11  C   UNL     1      57.223  68.787  31.583  1.00  0.00     0.079 C 
BRANCH  11  12
ATOM     12  C   UNL     1      55.982  69.564  31.233  1.00  0.00     0.130 C 
ATOM     13  O   UNL     1      56.071  70.545  30.508  1.00  0.00    -0.300 OA
ATOM     14  C   UNL     1      54.637  69.171  31.765  1.00  0.00     0.087 C 
ENDBRANCH  11  12
ENDBRANCH  10  11
ENDBRANCH   2  10
TORSDOF 6
ENDMDL
MODEL 7
REMARK VINA RESULT:    -4.157     17.992     20.224
REMARK INTER + INTRA:          -7.084
REMARK INTER:                  -6.056
REMARK INTRA:                  -1.028
REMARK UNBOUND:                -1.470
REMARK SMILES CC(=O)CCC=C(C)CCC=C(C)C
REMARK SMILES IDX 7 1 6 2 8 3 9 4 10 5 11 6 13 7 12 8 14 9 5 10 4 11 2 12 3 13
REMARK SMILES IDX 1 14
REMARK H PARENT
REMARK Flexibility Score: inf
ROOT
ATOM      1  C   UNL     1      42.743  56.934  29.989  1.00  0.00    -0.077 C 
ATOM      2  C   UNL     1      42.423  57.720  31.042  1.00  0.00    -0.028 C 
ATOM      3  C   UNL     1      43.932  56.002  30.023  1.00  0.00     0.039 C 
ENDROOT
BRANCH   1   4
ATOM      4  C   UNL     1      41.893  56.997  28.736  1.00  0.00     0.034 C 
BRANCH   4   5
ATOM      5  C   UNL     1      42.107  58.308  27.967  1.00  0.00     0.032 C 
BRANCH   5   6
ATOM      6  C   UNL     1      43.521  58.431  27.448  1.00  0.00    -0.028 C 
ATOM      7  C   UNL     1      45.803  59.371  27.286  1.00  0.00     0.039 C 
ATOM      8  C   UNL     1      44.406  59.368  27.853  1.00  0.00    -0.080 C 
ATOM      9  C   UNL     1      44.028  60.468  28.812  1.00  0.00     0.039 C 
ENDBRANCH   5   6
ENDBRANCH   4   5
ENDBRANCH   1   4
BRANCH   2  10
ATOM     10  C   UNL     1      43.141  57.702  32.369  1.00  0.00     0.035 C 
BRANCH  10  11
ATOM     11  C   UNL     1      42.452  56.743  33.343  1.00  0.00     0.079 C 
BRANCH  11  12
ATOM     12  C   UNL     1      43.466  56.041  34.207  1.00  0.00     0.130 C 
ATOM     13  O   UNL     1      43.377  56.122  35.423  1.00  0.00    -0.300 OA
ATOM     14  C   UNL     1      44.593  55.254  33.608  1.00  0.00     0.087 C 
ENDBRANCH  11  12
ENDBRANCH  10  11
ENDBRANCH   2  10
TORSDOF 6
ENDMDL
MODEL 8
REMARK VINA RESULT:    -4.122     17.395     19.551
REMARK INTER + INTRA:          -7.037
REMARK INTER:                  -5.729
REMARK INTRA:                  -1.308
REMARK UNBOUND:                -1.470
REMARK SMILES CC(=O)CCC=C(C)CCC=C(C)C
REMARK SMILES IDX 7 1 6 2 8 3 9 4 10 5 11 6 13 7 12 8 14 9 5 10 4 11 2 12 3 13
REMARK SMILES IDX 1 14
REMARK H PARENT
REMARK Flexibility Score: inf
ROOT
ATOM      1  C   UNL     1      43.400  56.560  27.625  1.00  0.00    -0.077 C 
ATOM      2  C   UNL     1      43.583  57.827  27.186  1.00  0.00    -0.028 C 
ATOM      3  C   UNL     1      42.430  56.236  28.738  1.00  0.00     0.039 C 
ENDROOT
BRANCH   1   4
ATOM      4  C   UNL     1      44.196  55.438  26.992  1.00  0.00     0.034 C 
BRANCH   4   5
ATOM      5  C   UNL     1      44.917  54.583  28.044  1.00  0.00     0.032 C 
BRANCH   5   6
ATOM      6  C   UNL     1      46.252  55.178  28.432  1.00  0.00    -0.028 C 
ATOM      7  C   UNL     1      47.949  56.140  29.951  1.00  0.00     0.039 C 
ATOM      8  C   UNL     1      46.572  55.592  29.677  1.00  0.00    -0.080 C 
ATOM      9  C   UNL     1      45.571  55.592  30.806  1.00  0.00     0.039 C 
ENDBRANCH   5   6
ENDBRANCH   4   5
ENDBRANCH   1   4
BRANCH   2  10
ATOM     10  C   UNL     1      42.806  59.021  27.681  1.00  0.00     0.035 C 
BRANCH  10  11
ATOM     11  C   UNL     1      43.737  60.024  28.368  1.00  0.00     0.079 C 
BRANCH  11  12
ATOM     12  C   UNL     1      44.190  59.501  29.706  1.00  0.00     0.130 C 
ATOM     13  O   UNL     1      43.359  59.264  30.570  1.00  0.00    -0.300 OA
ATOM     14  C   UNL     1      45.641  59.279  30.009  1.00  0.00     0.087 C 
ENDBRANCH  11  12
ENDBRANCH  10  11
ENDBRANCH   2  10
TORSDOF 6
ENDMDL
