MODEL 1
REMARK VINA RESULT:    -5.076      0.000      0.000
REMARK INTER + INTRA:         -17.214
REMARK INTER:                 -13.385
REMARK INTRA:                  -3.828
REMARK UNBOUND:                -3.828
REMARK SMILES CCCCCCCCCCCCCCCCCCCCCCCCCCCCCC(=O)[O-]
REMARK SMILES IDX 16 1 17 2 18 3 19 4 20 5 21 6 22 7 23 8 24 9 25 10 26 11
REMARK SMILES IDX 27 12 28 13 29 14 30 15 31 16 32 17 15 18 14 19 13 20 12 21
REMARK SMILES IDX 11 22 10 23 9 24 8 25 7 26 6 27 5 28 4 29 3 30 2 31 1 32
REMARK H PARENT
REMARK Flexibility Score: inf
ROOT
ATOM      1  C   UNL     1      -4.409   6.152  14.890  1.00  0.00     0.000 C 
ENDROOT
BRANCH   1   2
ATOM      2  C   UNL     1      -4.880   4.862  14.187  1.00  0.00     0.000 C 
BRANCH   2   3
ATOM      3  C   UNL     1      -5.381   3.761  15.145  1.00  0.00     0.000 C 
BRANCH   3   4
ATOM      4  C   UNL     1      -4.735   3.846  16.542  1.00  0.00     0.000 C 
BRANCH   4   5
ATOM      5  C   UNL     1      -3.602   2.827  16.742  1.00  0.00     0.000 C 
BRANCH   5   6
ATOM      6  C   UNL     1      -2.325   3.195  15.967  1.00  0.00     0.000 C 
BRANCH   6   7
ATOM      7  C   UNL     1      -1.267   3.880  16.853  1.00  0.00     0.000 C 
BRANCH   7   8
ATOM      8  C   UNL     1      -1.022   5.374  16.552  1.00  0.00     0.000 C 
BRANCH   8   9
ATOM      9  C   UNL     1      -0.094   6.095  17.546  1.00  0.00     0.000 C 
BRANCH   9  10
ATOM     10  C   UNL     1       0.845   7.101  16.855  1.00  0.00     0.000 C 
BRANCH  10  11
ATOM     11  C   UNL     1       1.337   8.195  17.817  1.00  0.00     0.000 C 
BRANCH  11  12
ATOM     12  C   UNL     1       0.407   8.365  19.031  1.00  0.00     0.000 C 
BRANCH  12  13
ATOM     13  C   UNL     1       0.974   7.726  20.309  1.00  0.00     0.006 C 
BRANCH  13  14
ATOM     14  C   UNL     1      -0.048   6.842  21.039  1.00  0.00     0.053 C 
BRANCH  14  15
ATOM     15  C   UNL     1       0.273   6.764  22.499  1.00  0.00     0.041 C 
ATOM     16  O   UNL     1      -0.653   6.779  23.352  1.00  0.00    -0.550 OA
ATOM     17  O   UNL     1       1.595   6.657  22.917  1.00  0.00    -0.550 OA
ENDBRANCH  14  15
ENDBRANCH  13  14
ENDBRANCH  12  13
ENDBRANCH  11  12
ENDBRANCH  10  11
ENDBRANCH   9  10
ENDBRANCH   8   9
ENDBRANCH   7   8
ENDBRANCH   6   7
ENDBRANCH   5   6
ENDBRANCH   4   5
ENDBRANCH   3   4
ENDBRANCH   2   3
ENDBRANCH   1   2
BRANCH   1  18
ATOM     18  C   UNL     1      -4.297   7.394  13.990  1.00  0.00     0.000 C 
BRANCH  18  19
ATOM     19  C   UNL     1      -3.021   7.475  13.130  1.00  0.00     0.000 C 
BRANCH  19  20
ATOM     20  C   UNL     1      -3.260   7.969  11.687  1.00  0.00     0.000 C 
BRANCH  20  21
ATOM     21  C   UNL     1      -4.665   7.619  11.166  1.00  0.00     0.000 C 
BRANCH  21  22
ATOM     22  C   UNL     1      -4.651   6.429  10.195  1.00  0.00     0.000 C 
BRANCH  22  23
ATOM     23  C   UNL     1      -6.055   5.842   9.967  1.00  0.00     0.000 C 
BRANCH  23  24
ATOM     24  C   UNL     1      -6.399   4.741  10.983  1.00  0.00    -0.000 C 
BRANCH  24  25
ATOM     25  C   UNL     1      -7.624   5.096  11.842  1.00  0.00    -0.000 C 
BRANCH  25  26
ATOM     26  C   UNL     1      -8.331   6.376  11.366  1.00  0.00    -0.000 C 
BRANCH  26  27
ATOM     27  C   UNL     1      -8.419   7.500  12.416  1.00  0.00    -0.000 C 
BRANCH  27  28
ATOM     28  C   UNL     1      -7.937   7.081  13.822  1.00  0.00    -0.000 C 
BRANCH  28  29
ATOM     29  C   UNL     1      -9.101   6.675  14.745  1.00  0.00    -0.000 C 
BRANCH  29  30
ATOM     30  C   UNL     1      -8.733   6.771  16.234  1.00  0.00    -0.000 C 
BRANCH  30  31
ATOM     31  C   UNL     1      -7.296   7.262  16.457  1.00  0.00    -0.003 C 
ATOM     32  C   UNL     1      -6.920   7.199  17.932  1.00  0.00     0.004 C 
ENDBRANCH  30  31
ENDBRANCH  29  30
ENDBRANCH  28  29
ENDBRANCH  27  28
ENDBRANCH  26  27
ENDBRANCH  25  26
ENDBRANCH  24  25
ENDBRANCH  23  24
ENDBRANCH  22  23
ENDBRANCH  21  22
ENDBRANCH  20  21
ENDBRANCH  19  20
ENDBRANCH  18  19
ENDBRANCH   1  18
TORSDOF 28
ENDMDL
MODEL 2
REMARK VINA RESULT:    -4.970      2.483      8.428
REMARK INTER + INTRA:         -16.933
REMARK INTER:                 -13.250
REMARK INTRA:                  -3.683
REMARK UNBOUND:                -3.828
REMARK SMILES CCCCCCCCCCCCCCCCCCCCCCCCCCCCCC(=O)[O-]
REMARK SMILES IDX 16 1 17 2 18 3 19 4 20 5 21 6 22 7 23 8 24 9 25 10 26 11
REMARK SMILES IDX 27 12 28 13 29 14 30 15 31 16 32 17 15 18 14 19 13 20 12 21
REMARK SMILES IDX 11 22 10 23 9 24 8 25 7 26 6 27 5 28 4 29 3 30 2 31 1 32
REMARK H PARENT
REMARK Flexibility Score: inf
ROOT
ATOM      1  C   UNL     1      -4.716   4.488  15.947  1.00  0.00     0.000 C 
ENDROOT
BRANCH   1   2
ATOM      2  C   UNL     1      -6.080   4.035  15.388  1.00  0.00     0.000 C 
BRANCH   2   3
ATOM      3  C   UNL     1      -6.251   4.254  13.870  1.00  0.00     0.000 C 
BRANCH   3   4
ATOM      4  C   UNL     1      -7.703   4.592  13.476  1.00  0.00     0.000 C 
BRANCH   4   5
ATOM      5  C   UNL     1      -7.871   4.847  11.970  1.00  0.00     0.000 C 
BRANCH   5   6
ATOM      6  C   UNL     1      -6.558   4.678  11.186  1.00  0.00     0.000 C 
BRANCH   6   7
ATOM      7  C   UNL     1      -6.173   5.940  10.390  1.00  0.00     0.000 C 
BRANCH   7   8
ATOM      8  C   UNL     1      -4.712   6.407  10.562  1.00  0.00     0.000 C 
BRANCH   8   9
ATOM      9  C   UNL     1      -4.275   6.660  12.017  1.00  0.00     0.000 C 
BRANCH   9  10
ATOM     10  C   UNL     1      -3.916   8.134  12.277  1.00  0.00     0.000 C 
BRANCH  10  11
ATOM     11  C   UNL     1      -4.949   8.836  13.176  1.00  0.00     0.000 C 
BRANCH  11  12
ATOM     12  C   UNL     1      -6.164   7.940  13.475  1.00  0.00     0.000 C 
BRANCH  12  13
ATOM     13  C   UNL     1      -6.886   8.332  14.774  1.00  0.00     0.006 C 
BRANCH  13  14
ATOM     14  C   UNL     1      -6.061   8.025  16.032  1.00  0.00     0.053 C 
BRANCH  14  15
ATOM     15  C   UNL     1      -6.878   7.255  17.022  1.00  0.00     0.041 C 
ATOM     16  O   UNL     1      -6.437   7.050  18.184  1.00  0.00    -0.550 OA
ATOM     17  O   UNL     1      -8.135   6.779  16.668  1.00  0.00    -0.550 OA
ENDBRANCH  14  15
ENDBRANCH  13  14
ENDBRANCH  12  13
ENDBRANCH  11  12
ENDBRANCH  10  11
ENDBRANCH   9  10
ENDBRANCH   8   9
ENDBRANCH   7   8
ENDBRANCH   6   7
ENDBRANCH   5   6
ENDBRANCH   4   5
ENDBRANCH   3   4
ENDBRANCH   2   3
ENDBRANCH   1   2
BRANCH   1  18
ATOM     18  C   UNL     1      -3.899   3.400  16.664  1.00  0.00     0.000 C 
BRANCH  18  19
ATOM     19  C   UNL     1      -2.583   2.995  15.971  1.00  0.00     0.000 C 
BRANCH  19  20
ATOM     20  C   UNL     1      -1.309   3.445  16.718  1.00  0.00     0.000 C 
BRANCH  20  21
ATOM     21  C   UNL     1      -0.708   4.738  16.139  1.00  0.00     0.000 C 
BRANCH  21  22
ATOM     22  C   UNL     1      -0.138   5.659  17.228  1.00  0.00     0.000 C 
BRANCH  22  23
ATOM     23  C   UNL     1       1.010   6.542  16.707  1.00  0.00     0.000 C 
BRANCH  23  24
ATOM     24  C   UNL     1       0.510   7.897  16.180  1.00  0.00    -0.000 C 
BRANCH  24  25
ATOM     25  C   UNL     1       1.060   9.082  16.991  1.00  0.00    -0.000 C 
BRANCH  25  26
ATOM     26  C   UNL     1       2.110   8.653  18.029  1.00  0.00    -0.000 C 
BRANCH  26  27
ATOM     27  C   UNL     1       1.700   8.868  19.499  1.00  0.00    -0.000 C 
BRANCH  27  28
ATOM     28  C   UNL     1       0.303   8.308  19.846  1.00  0.00    -0.000 C 
BRANCH  28  29
ATOM     29  C   UNL     1       0.378   6.954  20.575  1.00  0.00    -0.000 C 
BRANCH  29  30
ATOM     30  C   UNL     1       1.516   6.901  21.606  1.00  0.00    -0.000 C 
BRANCH  30  31
ATOM     31  C   UNL     1       1.001   6.764  23.046  1.00  0.00    -0.003 C 
ATOM     32  C   UNL     1      -0.496   6.482  23.067  1.00  0.00     0.004 C 
ENDBRANCH  30  31
ENDBRANCH  29  30
ENDBRANCH  28  29
ENDBRANCH  27  28
ENDBRANCH  26  27
ENDBRANCH  25  26
ENDBRANCH  24  25
ENDBRANCH  23  24
ENDBRANCH  22  23
ENDBRANCH  21  22
ENDBRANCH  20  21
ENDBRANCH  19  20
ENDBRANCH  18  19
ENDBRANCH   1  18
TORSDOF 28
ENDMDL
MODEL 3
REMARK VINA RESULT:    -4.871      2.322      8.752
REMARK INTER + INTRA:         -16.671
REMARK INTER:                 -12.955
REMARK INTRA:                  -3.716
REMARK UNBOUND:                -3.828
REMARK SMILES CCCCCCCCCCCCCCCCCCCCCCCCCCCCCC(=O)[O-]
REMARK SMILES IDX 16 1 17 2 18 3 19 4 20 5 21 6 22 7 23 8 24 9 25 10 26 11
REMARK SMILES IDX 27 12 28 13 29 14 30 15 31 16 32 17 15 18 14 19 13 20 12 21
REMARK SMILES IDX 11 22 10 23 9 24 8 25 7 26 6 27 5 28 4 29 3 30 2 31 1 32
REMARK H PARENT
REMARK Flexibility Score: inf
ROOT
ATOM      1  C   UNL     1      -4.408   5.756  15.454  1.00  0.00     0.000 C 
ENDROOT
BRANCH   1   2
ATOM      2  C   UNL     1      -3.601   6.393  14.304  1.00  0.00     0.000 C 
BRANCH   2   3
ATOM      3  C   UNL     1      -4.466   6.990  13.174  1.00  0.00     0.000 C 
BRANCH   3   4
ATOM      4  C   UNL     1      -3.625   7.530  11.999  1.00  0.00     0.000 C 
BRANCH   4   5
ATOM      5  C   UNL     1      -4.355   7.445  10.650  1.00  0.00     0.000 C 
BRANCH   5   6
ATOM      6  C   UNL     1      -4.686   5.999  10.240  1.00  0.00     0.000 C 
BRANCH   6   7
ATOM      7  C   UNL     1      -6.182   5.663  10.396  1.00  0.00     0.000 C 
BRANCH   7   8
ATOM      8  C   UNL     1      -6.491   4.409  11.240  1.00  0.00     0.000 C 
BRANCH   8   9
ATOM      9  C   UNL     1      -7.269   4.674  12.541  1.00  0.00     0.000 C 
BRANCH   9  10
ATOM     10  C   UNL     1      -8.159   5.928  12.452  1.00  0.00     0.000 C 
BRANCH  10  11
ATOM     11  C   UNL     1      -8.069   6.797  13.718  1.00  0.00     0.000 C 
BRANCH  11  12
ATOM     12  C   UNL     1      -8.011   5.951  15.002  1.00  0.00     0.000 C 
BRANCH  12  13
ATOM     13  C   UNL     1      -8.378   6.755  16.261  1.00  0.00     0.006 C 
BRANCH  13  14
ATOM     14  C   UNL     1      -7.248   6.786  17.300  1.00  0.00     0.053 C 
BRANCH  14  15
ATOM     15  C   UNL     1      -6.498   8.079  17.223  1.00  0.00     0.041 C 
ATOM     16  O   UNL     1      -6.128   8.659  18.277  1.00  0.00    -0.550 OA
ATOM     17  O   UNL     1      -6.194   8.635  15.986  1.00  0.00    -0.550 OA
ENDBRANCH  14  15
ENDBRANCH  13  14
ENDBRANCH  12  13
ENDBRANCH  11  12
ENDBRANCH  10  11
ENDBRANCH   9  10
ENDBRANCH   8   9
ENDBRANCH   7   8
ENDBRANCH   6   7
ENDBRANCH   5   6
ENDBRANCH   4   5
ENDBRANCH   3   4
ENDBRANCH   2   3
ENDBRANCH   1   2
BRANCH   1  18
ATOM     18  C   UNL     1      -4.661   4.245  15.328  1.00  0.00     0.000 C 
BRANCH  18  19
ATOM     19  C   UNL     1      -4.915   3.504  16.656  1.00  0.00     0.000 C 
BRANCH  19  20
ATOM     20  C   UNL     1      -3.842   2.452  17.009  1.00  0.00     0.000 C 
BRANCH  20  21
ATOM     21  C   UNL     1      -2.522   2.674  16.250  1.00  0.00     0.000 C 
BRANCH  21  22
ATOM     22  C   UNL     1      -1.513   3.504  17.057  1.00  0.00     0.000 C 
BRANCH  22  23
ATOM     23  C   UNL     1      -1.031   4.749  16.289  1.00  0.00     0.000 C 
BRANCH  23  24
ATOM     24  C   UNL     1       0.222   5.375  16.923  1.00  0.00    -0.000 C 
BRANCH  24  25
ATOM     25  C   UNL     1      -0.103   6.185  18.189  1.00  0.00    -0.000 C 
BRANCH  25  26
ATOM     26  C   UNL     1       0.625   7.539  18.230  1.00  0.00    -0.000 C 
BRANCH  26  27
ATOM     27  C   UNL     1       0.600   8.252  19.595  1.00  0.00    -0.000 C 
BRANCH  27  28
ATOM     28  C   UNL     1       1.994   8.683  20.101  1.00  0.00    -0.000 C 
BRANCH  28  29
ATOM     29  C   UNL     1       2.331   8.082  21.478  1.00  0.00    -0.000 C 
BRANCH  29  30
ATOM     30  C   UNL     1       1.601   6.755  21.737  1.00  0.00    -0.000 C 
BRANCH  30  31
ATOM     31  C   UNL     1       0.938   6.706  23.121  1.00  0.00    -0.003 C 
ATOM     32  C   UNL     1      -0.545   6.374  23.005  1.00  0.00     0.004 C 
ENDBRANCH  30  31
ENDBRANCH  29  30
ENDBRANCH  28  29
ENDBRANCH  27  28
ENDBRANCH  26  27
ENDBRANCH  25  26
ENDBRANCH  24  25
ENDBRANCH  23  24
ENDBRANCH  22  23
ENDBRANCH  21  22
ENDBRANCH  20  21
ENDBRANCH  19  20
ENDBRANCH  18  19
ENDBRANCH   1  18
TORSDOF 28
ENDMDL
MODEL 4
REMARK VINA RESULT:    -4.834      1.325      3.413
REMARK INTER + INTRA:         -16.575
REMARK INTER:                 -12.211
REMARK INTRA:                  -4.364
REMARK UNBOUND:                -3.828
REMARK SMILES CCCCCCCCCCCCCCCCCCCCCCCCCCCCCC(=O)[O-]
REMARK SMILES IDX 16 1 17 2 18 3 19 4 20 5 21 6 22 7 23 8 24 9 25 10 26 11
REMARK SMILES IDX 27 12 28 13 29 14 30 15 31 16 32 17 15 18 14 19 13 20 12 21
REMARK SMILES IDX 11 22 10 23 9 24 8 25 7 26 6 27 5 28 4 29 3 30 2 31 1 32
REMARK H PARENT
REMARK Flexibility Score: inf
ROOT
ATOM      1  C   UNL     1      -8.565   7.128  15.035  1.00  0.00     0.000 C 
ENDROOT
BRANCH   1   2
ATOM      2  C   UNL     1      -7.979   6.869  16.438  1.00  0.00     0.000 C 
BRANCH   2   3
ATOM      3  C   UNL     1      -6.562   7.443  16.652  1.00  0.00     0.000 C 
BRANCH   3   4
ATOM      4  C   UNL     1      -5.450   6.441  16.282  1.00  0.00     0.000 C 
BRANCH   4   5
ATOM      5  C   UNL     1      -5.380   5.242  17.241  1.00  0.00     0.000 C 
BRANCH   5   6
ATOM      6  C   UNL     1      -4.960   3.939  16.538  1.00  0.00     0.000 C 
BRANCH   6   7
ATOM      7  C   UNL     1      -3.644   4.085  15.752  1.00  0.00     0.000 C 
BRANCH   7   8
ATOM      8  C   UNL     1      -2.601   5.033  16.382  1.00  0.00     0.000 C 
BRANCH   8   9
ATOM      9  C   UNL     1      -1.204   4.420  16.590  1.00  0.00     0.000 C 
BRANCH   9  10
ATOM     10  C   UNL     1      -0.125   5.486  16.855  1.00  0.00     0.000 C 
BRANCH  10  11
ATOM     11  C   UNL     1      -0.153   5.995  18.306  1.00  0.00     0.000 C 
BRANCH  11  12
ATOM     12  C   UNL     1       0.558   7.350  18.461  1.00  0.00     0.000 C 
BRANCH  12  13
ATOM     13  C   UNL     1       0.578   7.849  19.915  1.00  0.00     0.006 C 
BRANCH  13  14
ATOM     14  C   UNL     1      -0.152   6.903  20.880  1.00  0.00     0.053 C 
BRANCH  14  15
ATOM     15  C   UNL     1       0.649   6.706  22.130  1.00  0.00     0.041 C 
ATOM     16  O   UNL     1       1.903   6.816  22.101  1.00  0.00    -0.550 OA
ATOM     17  O   UNL     1       0.009   6.418  23.329  1.00  0.00    -0.550 OA
ENDBRANCH  14  15
ENDBRANCH  13  14
ENDBRANCH  12  13
ENDBRANCH  11  12
ENDBRANCH  10  11
ENDBRANCH   9  10
ENDBRANCH   8   9
ENDBRANCH   7   8
ENDBRANCH   6   7
ENDBRANCH   5   6
ENDBRANCH   4   5
ENDBRANCH   3   4
ENDBRANCH   2   3
ENDBRANCH   1   2
BRANCH   1  18
ATOM     18  C   UNL     1      -8.810   5.875  14.178  1.00  0.00     0.000 C 
BRANCH  18  19
ATOM     19  C   UNL     1      -7.835   4.705  14.422  1.00  0.00     0.000 C 
BRANCH  19  20
ATOM     20  C   UNL     1      -7.101   4.217  13.155  1.00  0.00     0.000 C 
BRANCH  20  21
ATOM     21  C   UNL     1      -5.835   5.037  12.851  1.00  0.00     0.000 C 
BRANCH  21  22
ATOM     22  C   UNL     1      -5.628   5.260  11.345  1.00  0.00     0.000 C 
BRANCH  22  23
ATOM     23  C   UNL     1      -6.896   4.956  10.527  1.00  0.00     0.000 C 
BRANCH  23  24
ATOM     24  C   UNL     1      -7.486   6.217   9.875  1.00  0.00    -0.000 C 
BRANCH  24  25
ATOM     25  C   UNL     1      -8.355   7.029  10.849  1.00  0.00    -0.000 C 
BRANCH  25  26
ATOM     26  C   UNL     1      -7.998   8.525  10.856  1.00  0.00    -0.000 C 
BRANCH  26  27
ATOM     27  C   UNL     1      -8.003   9.190  12.245  1.00  0.00    -0.000 C 
BRANCH  27  28
ATOM     28  C   UNL     1      -6.606   9.634  12.731  1.00  0.00    -0.000 C 
BRANCH  28  29
ATOM     29  C   UNL     1      -5.545   9.558  11.618  1.00  0.00    -0.000 C 
BRANCH  29  30
ATOM     30  C   UNL     1      -4.486   8.478  11.885  1.00  0.00    -0.000 C 
BRANCH  30  31
ATOM     31  C   UNL     1      -4.170   8.318  13.379  1.00  0.00    -0.003 C 
ATOM     32  C   UNL     1      -2.898   7.504  13.584  1.00  0.00     0.004 C 
ENDBRANCH  30  31
ENDBRANCH  29  30
ENDBRANCH  28  29
ENDBRANCH  27  28
ENDBRANCH  26  27
ENDBRANCH  25  26
ENDBRANCH  24  25
ENDBRANCH  23  24
ENDBRANCH  22  23
ENDBRANCH  21  22
ENDBRANCH  20  21
ENDBRANCH  19  20
ENDBRANCH  18  19
ENDBRANCH   1  18
TORSDOF 28
ENDMDL
MODEL 5
REMARK VINA RESULT:    -4.794      1.116      3.030
REMARK INTER + INTRA:         -16.469
REMARK INTER:                 -12.774
REMARK INTRA:                  -3.695
REMARK UNBOUND:                -3.828
REMARK SMILES CCCCCCCCCCCCCCCCCCCCCCCCCCCCCC(=O)[O-]
REMARK SMILES IDX 16 1 17 2 18 3 19 4 20 5 21 6 22 7 23 8 24 9 25 10 26 11
REMARK SMILES IDX 27 12 28 13 29 14 30 15 31 16 32 17 15 18 14 19 13 20 12 21
REMARK SMILES IDX 11 22 10 23 9 24 8 25 7 26 6 27 5 28 4 29 3 30 2 31 1 32
REMARK H PARENT
REMARK Flexibility Score: inf
ROOT
ATOM      1  C   UNL     1      -5.265   3.811  16.203  1.00  0.00     0.000 C 
ENDROOT
BRANCH   1   2
ATOM      2  C   UNL     1      -3.782   3.605  16.572  1.00  0.00     0.000 C 
BRANCH   2   3
ATOM      3  C   UNL     1      -2.803   3.765  15.390  1.00  0.00     0.000 C 
BRANCH   3   4
ATOM      4  C   UNL     1      -1.797   4.915  15.600  1.00  0.00     0.000 C 
BRANCH   4   5
ATOM      5  C   UNL     1      -0.701   4.573  16.621  1.00  0.00     0.000 C 
BRANCH   5   6
ATOM      6  C   UNL     1      -0.214   5.803  17.408  1.00  0.00     0.000 C 
BRANCH   6   7
ATOM      7  C   UNL     1       0.987   6.499  16.741  1.00  0.00     0.000 C 
BRANCH   7   8
ATOM      8  C   UNL     1       0.704   7.908  16.178  1.00  0.00     0.000 C 
BRANCH   8   9
ATOM      9  C   UNL     1       0.956   9.065  17.162  1.00  0.00     0.000 C 
BRANCH   9  10
ATOM     10  C   UNL     1       2.289   8.918  17.918  1.00  0.00     0.000 C 
BRANCH  10  11
ATOM     11  C   UNL     1       2.104   8.985  19.443  1.00  0.00     0.000 C 
BRANCH  11  12
ATOM     12  C   UNL     1       0.719   8.482  19.884  1.00  0.00     0.000 C 
BRANCH  12  13
ATOM     13  C   UNL     1       0.746   7.031  20.393  1.00  0.00     0.006 C 
BRANCH  13  14
ATOM     14  C   UNL     1      -0.483   6.673  21.242  1.00  0.00     0.053 C 
BRANCH  14  15
ATOM     15  C   UNL     1      -0.136   6.680  22.698  1.00  0.00     0.041 C 
ATOM     16  O   UNL     1       1.070   6.689  23.061  1.00  0.00    -0.550 OA
ATOM     17  O   UNL     1      -1.144   6.693  23.654  1.00  0.00    -0.550 OA
ENDBRANCH  14  15
ENDBRANCH  13  14
ENDBRANCH  12  13
ENDBRANCH  11  12
ENDBRANCH  10  11
ENDBRANCH   9  10
ENDBRANCH   8   9
ENDBRANCH   7   8
ENDBRANCH   6   7
ENDBRANCH   5   6
ENDBRANCH   4   5
ENDBRANCH   3   4
ENDBRANCH   2   3
ENDBRANCH   1   2
BRANCH   1  18
ATOM     18  C   UNL     1      -5.589   3.750  14.701  1.00  0.00     0.000 C 
BRANCH  18  19
ATOM     19  C   UNL     1      -6.870   4.491  14.268  1.00  0.00     0.000 C 
BRANCH  19  20
ATOM     20  C   UNL     1      -7.314   4.197  12.820  1.00  0.00     0.000 C 
BRANCH  20  21
ATOM     21  C   UNL     1      -8.002   5.402  12.155  1.00  0.00     0.000 C 
BRANCH  21  22
ATOM     22  C   UNL     1      -7.318   5.820  10.845  1.00  0.00     0.000 C 
BRANCH  22  23
ATOM     23  C   UNL     1      -5.826   5.441  10.816  1.00  0.00     0.000 C 
BRANCH  23  24
ATOM     24  C   UNL     1      -4.956   6.543  10.189  1.00  0.00    -0.000 C 
BRANCH  24  25
ATOM     25  C   UNL     1      -3.910   7.095  11.171  1.00  0.00    -0.000 C 
BRANCH  25  26
ATOM     26  C   UNL     1      -4.412   8.327  11.943  1.00  0.00    -0.000 C 
BRANCH  26  27
ATOM     27  C   UNL     1      -5.477   8.034  13.017  1.00  0.00    -0.000 C 
BRANCH  27  28
ATOM     28  C   UNL     1      -4.897   7.484  14.338  1.00  0.00    -0.000 C 
BRANCH  28  29
ATOM     29  C   UNL     1      -5.621   8.045  15.576  1.00  0.00    -0.000 C 
BRANCH  29  30
ATOM     30  C   UNL     1      -7.131   7.762  15.555  1.00  0.00    -0.000 C 
BRANCH  30  31
ATOM     31  C   UNL     1      -7.603   6.985  16.792  1.00  0.00    -0.003 C 
ATOM     32  C   UNL     1      -6.482   6.853  17.816  1.00  0.00     0.004 C 
ENDBRANCH  30  31
ENDBRANCH  29  30
ENDBRANCH  28  29
ENDBRANCH  27  28
ENDBRANCH  26  27
ENDBRANCH  25  26
ENDBRANCH  24  25
ENDBRANCH  23  24
ENDBRANCH  22  23
ENDBRANCH  21  22
ENDBRANCH  20  21
ENDBRANCH  19  20
ENDBRANCH  18  19
ENDBRANCH   1  18
TORSDOF 28
ENDMDL
MODEL 6
REMARK VINA RESULT:    -4.776      1.393      3.685
REMARK INTER + INTRA:         -16.422
REMARK INTER:                 -12.764
REMARK INTRA:                  -3.658
REMARK UNBOUND:                -3.828
REMARK SMILES CCCCCCCCCCCCCCCCCCCCCCCCCCCCCC(=O)[O-]
REMARK SMILES IDX 16 1 17 2 18 3 19 4 20 5 21 6 22 7 23 8 24 9 25 10 26 11
REMARK SMILES IDX 27 12 28 13 29 14 30 15 31 16 32 17 15 18 14 19 13 20 12 21
REMARK SMILES IDX 11 22 10 23 9 24 8 25 7 26 6 27 5 28 4 29 3 30 2 31 1 32
REMARK H PARENT
REMARK Flexibility Score: inf
ROOT
ATOM      1  C   UNL     1      -5.347   3.960  16.606  1.00  0.00     0.000 C 
ENDROOT
BRANCH   1   2
ATOM      2  C   UNL     1      -3.906   3.469  16.853  1.00  0.00     0.000 C 
BRANCH   2   3
ATOM      3  C   UNL     1      -3.029   3.406  15.585  1.00  0.00     0.000 C 
BRANCH   3   4
ATOM      4  C   UNL     1      -1.990   4.544  15.520  1.00  0.00     0.000 C 
BRANCH   4   5
ATOM      5  C   UNL     1      -0.874   4.396  16.567  1.00  0.00     0.000 C 
BRANCH   5   6
ATOM      6  C   UNL     1      -0.535   5.723  17.269  1.00  0.00     0.000 C 
BRANCH   6   7
ATOM      7  C   UNL     1       0.791   6.335  16.778  1.00  0.00     0.000 C 
BRANCH   7   8
ATOM      8  C   UNL     1       0.668   7.717  16.102  1.00  0.00     0.000 C 
BRANCH   8   9
ATOM      9  C   UNL     1       0.867   8.921  17.040  1.00  0.00     0.000 C 
BRANCH   9  10
ATOM     10  C   UNL     1       2.212   8.871  17.788  1.00  0.00     0.000 C 
BRANCH  10  11
ATOM     11  C   UNL     1       2.033   8.954  19.314  1.00  0.00     0.000 C 
BRANCH  11  12
ATOM     12  C   UNL     1       0.657   8.438  19.768  1.00  0.00     0.000 C 
BRANCH  12  13
ATOM     13  C   UNL     1       0.732   7.062  20.449  1.00  0.00     0.006 C 
BRANCH  13  14
ATOM     14  C   UNL     1      -0.485   6.769  21.339  1.00  0.00     0.053 C 
BRANCH  14  15
ATOM     15  C   UNL     1      -0.060   6.558  22.759  1.00  0.00     0.041 C 
ATOM     16  O   UNL     1       1.149   6.692  23.084  1.00  0.00    -0.550 OA
ATOM     17  O   UNL     1      -1.003   6.232  23.726  1.00  0.00    -0.550 OA
ENDBRANCH  14  15
ENDBRANCH  13  14
ENDBRANCH  12  13
ENDBRANCH  11  12
ENDBRANCH  10  11
ENDBRANCH   9  10
ENDBRANCH   8   9
ENDBRANCH   7   8
ENDBRANCH   6   7
ENDBRANCH   5   6
ENDBRANCH   4   5
ENDBRANCH   3   4
ENDBRANCH   2   3
ENDBRANCH   1   2
BRANCH   1  18
ATOM     18  C   UNL     1      -5.746   4.130  15.131  1.00  0.00     0.000 C 
BRANCH  18  19
ATOM     19  C   UNL     1      -7.037   4.936  14.883  1.00  0.00     0.000 C 
BRANCH  19  20
ATOM     20  C   UNL     1      -7.804   4.526  13.608  1.00  0.00     0.000 C 
BRANCH  20  21
ATOM     21  C   UNL     1      -8.541   5.708  12.954  1.00  0.00     0.000 C 
BRANCH  21  22
ATOM     22  C   UNL     1      -8.409   5.708  11.423  1.00  0.00     0.000 C 
BRANCH  22  23
ATOM     23  C   UNL     1      -7.204   4.882  10.939  1.00  0.00     0.000 C 
BRANCH  23  24
ATOM     24  C   UNL     1      -6.355   5.640   9.906  1.00  0.00    -0.000 C 
BRANCH  24  25
ATOM     25  C   UNL     1      -4.973   6.030  10.454  1.00  0.00    -0.000 C 
BRANCH  25  26
ATOM     26  C   UNL     1      -4.802   7.551  10.605  1.00  0.00    -0.000 C 
BRANCH  26  27
ATOM     27  C   UNL     1      -5.704   8.206  11.668  1.00  0.00    -0.000 C 
BRANCH  27  28
ATOM     28  C   UNL     1      -5.041   8.331  13.058  1.00  0.00    -0.000 C 
BRANCH  28  29
ATOM     29  C   UNL     1      -4.233   7.077  13.439  1.00  0.00    -0.000 C 
BRANCH  29  30
ATOM     30  C   UNL     1      -2.766   7.396  13.762  1.00  0.00    -0.000 C 
BRANCH  30  31
ATOM     31  C   UNL     1      -2.400   8.857  13.466  1.00  0.00    -0.003 C 
ATOM     32  C   UNL     1      -1.580   8.967  12.186  1.00  0.00     0.004 C 
ENDBRANCH  30  31
ENDBRANCH  29  30
ENDBRANCH  28  29
ENDBRANCH  27  28
ENDBRANCH  26  27
ENDBRANCH  25  26
ENDBRANCH  24  25
ENDBRANCH  23  24
ENDBRANCH  22  23
ENDBRANCH  21  22
ENDBRANCH  20  21
ENDBRANCH  19  20
ENDBRANCH  18  19
ENDBRANCH   1  18
TORSDOF 28
ENDMDL
MODEL 7
REMARK VINA RESULT:    -4.303      6.088     10.369
REMARK INTER + INTRA:         -15.176
REMARK INTER:                 -13.083
REMARK INTRA:                  -2.093
REMARK UNBOUND:                -3.828
REMARK SMILES CCCCCCCCCCCCCCCCCCCCCCCCCCCCCC(=O)[O-]
REMARK SMILES IDX 16 1 17 2 18 3 19 4 20 5 21 6 22 7 23 8 24 9 25 10 26 11
REMARK SMILES IDX 27 12 28 13 29 14 30 15 31 16 32 17 15 18 14 19 13 20 12 21
REMARK SMILES IDX 11 22 10 23 9 24 8 25 7 26 6 27 5 28 4 29 3 30 2 31 1 32
REMARK H PARENT
REMARK Flexibility Score: inf
ROOT
ATOM      1  C   UNL     1      -4.984   3.181  16.935  1.00  0.00     0.000 C 
ENDROOT
BRANCH   1   2
ATOM      2  C   UNL     1      -5.349   1.696  17.138  1.00  0.00     0.000 C 
BRANCH   2   3
ATOM      3  C   UNL     1      -5.017   1.145  18.541  1.00  0.00     0.000 C 
BRANCH   3   4
ATOM      4  C   UNL     1      -5.745  -0.179  18.849  1.00  0.00     0.000 C 
BRANCH   4   5
ATOM      5  C   UNL     1      -6.463  -0.767  17.625  1.00  0.00     0.000 C 
BRANCH   5   6
ATOM      6  C   UNL     1      -7.678  -1.633  18.004  1.00  0.00     0.000 C 
BRANCH   6   7
ATOM      7  C   UNL     1      -8.078  -1.482  19.484  1.00  0.00     0.000 C 
BRANCH   7   8
ATOM      8  C   UNL     1      -8.823  -2.689  20.092  1.00  0.00     0.000 C 
BRANCH   8   9
ATOM      9  C   UNL     1      -8.822  -3.960  19.224  1.00  0.00     0.000 C 
BRANCH   9  10
ATOM     10  C   UNL     1      -8.793  -5.250  20.065  1.00  0.00     0.000 C 
BRANCH  10  11
ATOM     11  C   UNL     1      -7.513  -6.069  19.832  1.00  0.00     0.000 C 
BRANCH  11  12
ATOM     12  C   UNL     1      -6.362  -5.208  19.282  1.00  0.00     0.000 C 
BRANCH  12  13
ATOM     13  C   UNL     1      -5.153  -5.154  20.230  1.00  0.00     0.006 C 
BRANCH  13  14
ATOM     14  C   UNL     1      -5.516  -4.644  21.632  1.00  0.00     0.053 C 
BRANCH  14  15
ATOM     15  C   UNL     1      -4.686  -5.330  22.672  1.00  0.00     0.041 C 
ATOM     16  O   UNL     1      -3.787  -6.142  22.330  1.00  0.00    -0.550 OA
ATOM     17  O   UNL     1      -4.895  -5.059  24.020  1.00  0.00    -0.550 OA
ENDBRANCH  14  15
ENDBRANCH  13  14
ENDBRANCH  12  13
ENDBRANCH  11  12
ENDBRANCH  10  11
ENDBRANCH   9  10
ENDBRANCH   8   9
ENDBRANCH   7   8
ENDBRANCH   6   7
ENDBRANCH   5   6
ENDBRANCH   4   5
ENDBRANCH   3   4
ENDBRANCH   2   3
ENDBRANCH   1   2
BRANCH   1  18
ATOM     18  C   UNL     1      -5.341   3.769  15.560  1.00  0.00     0.000 C 
BRANCH  18  19
ATOM     19  C   UNL     1      -4.741   5.156  15.256  1.00  0.00     0.000 C 
BRANCH  19  20
ATOM     20  C   UNL     1      -3.268   5.318  15.691  1.00  0.00     0.000 C 
BRANCH  20  21
ATOM     21  C   UNL     1      -2.404   4.101  15.317  1.00  0.00     0.000 C 
BRANCH  21  22
ATOM     22  C   UNL     1      -1.039   4.112  16.023  1.00  0.00     0.000 C 
BRANCH  22  23
ATOM     23  C   UNL     1      -1.049   4.964  17.305  1.00  0.00     0.000 C 
BRANCH  23  24
ATOM     24  C   UNL     1       0.300   5.658  17.554  1.00  0.00    -0.000 C 
BRANCH  24  25
ATOM     25  C   UNL     1       0.532   6.847  16.607  1.00  0.00    -0.000 C 
BRANCH  25  26
ATOM     26  C   UNL     1       1.317   7.990  17.272  1.00  0.00    -0.000 C 
BRANCH  26  27
ATOM     27  C   UNL     1       0.675   8.565  18.549  1.00  0.00    -0.000 C 
BRANCH  27  28
ATOM     28  C   UNL     1       1.464   8.252  19.840  1.00  0.00    -0.000 C 
BRANCH  28  29
ATOM     29  C   UNL     1       0.676   7.347  20.804  1.00  0.00    -0.000 C 
BRANCH  29  30
ATOM     30  C   UNL     1       1.478   6.988  22.064  1.00  0.00    -0.000 C 
BRANCH  30  31
ATOM     31  C   UNL     1       0.656   6.178  23.077  1.00  0.00    -0.003 C 
ATOM     32  C   UNL     1      -0.800   6.626  23.083  1.00  0.00     0.004 C 
ENDBRANCH  30  31
ENDBRANCH  29  30
ENDBRANCH  28  29
ENDBRANCH  27  28
ENDBRANCH  26  27
ENDBRANCH  25  26
ENDBRANCH  24  25
ENDBRANCH  23  24
ENDBRANCH  22  23
ENDBRANCH  21  22
ENDBRANCH  20  21
ENDBRANCH  19  20
ENDBRANCH  18  19
ENDBRANCH   1  18
TORSDOF 28
ENDMDL
MODEL 8
REMARK VINA RESULT:    -4.264      1.308      3.666
REMARK INTER + INTRA:         -15.072
REMARK INTER:                 -11.429
REMARK INTRA:                  -3.643
REMARK UNBOUND:                -3.828
REMARK SMILES CCCCCCCCCCCCCCCCCCCCCCCCCCCCCC(=O)[O-]
REMARK SMILES IDX 16 1 17 2 18 3 19 4 20 5 21 6 22 7 23 8 24 9 25 10 26 11
REMARK SMILES IDX 27 12 28 13 29 14 30 15 31 16 32 17 15 18 14 19 13 20 12 21
REMARK SMILES IDX 11 22 10 23 9 24 8 25 7 26 6 27 5 28 4 29 3 30 2 31 1 32
REMARK H PARENT
REMARK Flexibility Score: inf
ROOT
ATOM      1  C   UNL     1      -6.809   7.179  15.724  1.00  0.00     0.000 C 
ENDROOT
BRANCH   1   2
ATOM      2  C   UNL     1      -6.568   6.028  16.722  1.00  0.00     0.000 C 
BRANCH   2   3
ATOM      3  C   UNL     1      -5.111   5.908  17.216  1.00  0.00     0.000 C 
BRANCH   3   4
ATOM      4  C   UNL     1      -4.327   4.790  16.499  1.00  0.00     0.000 C 
BRANCH   4   5
ATOM      5  C   UNL     1      -3.044   5.298  15.822  1.00  0.00     0.000 C 
BRANCH   5   6
ATOM      6  C   UNL     1      -2.055   4.166  15.494  1.00  0.00     0.000 C 
BRANCH   6   7
ATOM      7  C   UNL     1      -0.907   4.063  16.516  1.00  0.00     0.000 C 
BRANCH   7   8
ATOM      8  C   UNL     1      -0.631   5.346  17.328  1.00  0.00     0.000 C 
BRANCH   8   9
ATOM      9  C   UNL     1      -0.203   6.566  16.494  1.00  0.00     0.000 C 
BRANCH   9  10
ATOM     10  C   UNL     1       1.163   7.129  16.928  1.00  0.00     0.000 C 
BRANCH  10  11
ATOM     11  C   UNL     1       1.051   8.551  17.504  1.00  0.00     0.000 C 
BRANCH  11  12
ATOM     12  C   UNL     1       1.403   8.603  19.001  1.00  0.00     0.000 C 
BRANCH  12  13
ATOM     13  C   UNL     1       0.288   8.035  19.894  1.00  0.00     0.006 C 
BRANCH  13  14
ATOM     14  C   UNL     1       0.668   6.697  20.545  1.00  0.00     0.053 C 
BRANCH  14  15
ATOM     15  C   UNL     1       0.450   6.752  22.025  1.00  0.00     0.041 C 
ATOM     16  O   UNL     1      -0.720   6.767  22.492  1.00  0.00    -0.550 OA
ATOM     17  O   UNL     1       1.538   6.771  22.890  1.00  0.00    -0.550 OA
ENDBRANCH  14  15
ENDBRANCH  13  14
ENDBRANCH  12  13
ENDBRANCH  11  12
ENDBRANCH  10  11
ENDBRANCH   9  10
ENDBRANCH   8   9
ENDBRANCH   7   8
ENDBRANCH   6   7
ENDBRANCH   5   6
ENDBRANCH   4   5
ENDBRANCH   3   4
ENDBRANCH   2   3
ENDBRANCH   1   2
BRANCH   1  18
ATOM     18  C   UNL     1      -8.245   7.303  15.190  1.00  0.00     0.000 C 
BRANCH  18  19
ATOM     19  C   UNL     1      -8.892   5.986  14.716  1.00  0.00     0.000 C 
BRANCH  19  20
ATOM     20  C   UNL     1      -9.074   5.884  13.186  1.00  0.00     0.000 C 
BRANCH  20  21
ATOM     21  C   UNL     1      -8.930   7.244  12.481  1.00  0.00     0.000 C 
BRANCH  21  22
ATOM     22  C   UNL     1      -8.449   7.104  11.029  1.00  0.00     0.000 C 
BRANCH  22  23
ATOM     23  C   UNL     1      -8.184   8.468  10.365  1.00  0.00     0.000 C 
BRANCH  23  24
ATOM     24  C   UNL     1      -6.977   9.192  10.983  1.00  0.00    -0.000 C 
BRANCH  24  25
ATOM     25  C   UNL     1      -5.665   8.883  10.244  1.00  0.00    -0.000 C 
BRANCH  25  26
ATOM     26  C   UNL     1      -4.436   9.492  10.940  1.00  0.00    -0.000 C 
BRANCH  26  27
ATOM     27  C   UNL     1      -3.231   8.542  11.084  1.00  0.00    -0.000 C 
BRANCH  27  28
ATOM     28  C   UNL     1      -3.085   7.928  12.494  1.00  0.00    -0.000 C 
BRANCH  28  29
ATOM     29  C   UNL     1      -4.395   7.294  12.997  1.00  0.00    -0.000 C 
BRANCH  29  30
ATOM     30  C   UNL     1      -4.781   6.034  12.208  1.00  0.00    -0.000 C 
BRANCH  30  31
ATOM     31  C   UNL     1      -5.567   5.024  13.056  1.00  0.00    -0.003 C 
ATOM     32  C   UNL     1      -6.248   3.983  12.175  1.00  0.00     0.004 C 
ENDBRANCH  30  31
ENDBRANCH  29  30
ENDBRANCH  28  29
ENDBRANCH  27  28
ENDBRANCH  26  27
ENDBRANCH  25  26
ENDBRANCH  24  25
ENDBRANCH  23  24
ENDBRANCH  22  23
ENDBRANCH  21  22
ENDBRANCH  20  21
ENDBRANCH  19  20
ENDBRANCH  18  19
ENDBRANCH   1  18
TORSDOF 28
ENDMDL
MODEL 9
REMARK VINA RESULT:    -4.180      4.612      7.839
REMARK INTER + INTRA:         -14.850
REMARK INTER:                 -12.159
REMARK INTRA:                  -2.691
REMARK UNBOUND:                -3.828
REMARK SMILES CCCCCCCCCCCCCCCCCCCCCCCCCCCCCC(=O)[O-]
REMARK SMILES IDX 16 1 17 2 18 3 19 4 20 5 21 6 22 7 23 8 24 9 25 10 26 11
REMARK SMILES IDX 27 12 28 13 29 14 30 15 31 16 32 17 15 18 14 19 13 20 12 21
REMARK SMILES IDX 11 22 10 23 9 24 8 25 7 26 6 27 5 28 4 29 3 30 2 31 1 32
REMARK H PARENT
REMARK Flexibility Score: inf
ROOT
ATOM      1  C   UNL     1      -0.083   6.276  18.043  1.00  0.00     0.000 C 
ENDROOT
BRANCH   1   2
ATOM      2  C   UNL     1      -0.445   5.643  16.684  1.00  0.00     0.000 C 
BRANCH   2   3
ATOM      3  C   UNL     1      -1.661   4.693  16.728  1.00  0.00     0.000 C 
BRANCH   3   4
ATOM      4  C   UNL     1      -1.265   3.227  16.992  1.00  0.00     0.000 C 
BRANCH   4   5
ATOM      5  C   UNL     1      -2.448   2.255  16.872  1.00  0.00     0.000 C 
BRANCH   5   6
ATOM      6  C   UNL     1      -3.788   2.973  16.631  1.00  0.00     0.000 C 
BRANCH   6   7
ATOM      7  C   UNL     1      -4.980   2.241  17.277  1.00  0.00     0.000 C 
BRANCH   7   8
ATOM      8  C   UNL     1      -4.638   1.396  18.522  1.00  0.00     0.000 C 
BRANCH   8   9
ATOM      9  C   UNL     1      -5.591   0.218  18.792  1.00  0.00     0.000 C 
BRANCH   9  10
ATOM     10  C   UNL     1      -6.178  -0.376  17.499  1.00  0.00     0.000 C 
BRANCH  10  11
ATOM     11  C   UNL     1      -7.145  -1.538  17.778  1.00  0.00     0.000 C 
BRANCH  11  12
ATOM     12  C   UNL     1      -7.552  -1.614  19.260  1.00  0.00     0.000 C 
BRANCH  12  13
ATOM     13  C   UNL     1      -7.648  -3.059  19.777  1.00  0.00     0.006 C 
BRANCH  13  14
ATOM     14  C   UNL     1      -6.461  -3.930  19.341  1.00  0.00     0.053 C 
BRANCH  14  15
ATOM     15  C   UNL     1      -5.658  -4.357  20.529  1.00  0.00     0.041 C 
ATOM     16  O   UNL     1      -4.512  -4.855  20.373  1.00  0.00    -0.550 OA
ATOM     17  O   UNL     1      -6.168  -4.189  21.811  1.00  0.00    -0.550 OA
ENDBRANCH  14  15
ENDBRANCH  13  14
ENDBRANCH  12  13
ENDBRANCH  11  12
ENDBRANCH  10  11
ENDBRANCH   9  10
ENDBRANCH   8   9
ENDBRANCH   7   8
ENDBRANCH   6   7
ENDBRANCH   5   6
ENDBRANCH   4   5
ENDBRANCH   3   4
ENDBRANCH   2   3
ENDBRANCH   1   2
BRANCH   1  18
ATOM     18  C   UNL     1       0.632   7.636  17.971  1.00  0.00     0.000 C 
BRANCH  18  19
ATOM     19  C   UNL     1       1.496   7.864  16.715  1.00  0.00     0.000 C 
BRANCH  19  20
ATOM     20  C   UNL     1       1.601   9.340  16.277  1.00  0.00     0.000 C 
BRANCH  20  21
ATOM     21  C   UNL     1       0.263   9.901  15.762  1.00  0.00     0.000 C 
BRANCH  21  22
ATOM     22  C   UNL     1       0.204   9.962  14.229  1.00  0.00     0.000 C 
BRANCH  22  23
ATOM     23  C   UNL     1      -1.241  10.026  13.700  1.00  0.00     0.000 C 
BRANCH  23  24
ATOM     24  C   UNL     1      -1.759   8.650  13.250  1.00  0.00    -0.000 C 
BRANCH  24  25
ATOM     25  C   UNL     1      -3.282   8.515  13.409  1.00  0.00    -0.000 C 
BRANCH  25  26
ATOM     26  C   UNL     1      -3.702   7.133  13.937  1.00  0.00    -0.000 C 
BRANCH  26  27
ATOM     27  C   UNL     1      -5.171   7.028  14.390  1.00  0.00    -0.000 C 
BRANCH  27  28
ATOM     28  C   UNL     1      -5.377   6.146  15.642  1.00  0.00    -0.000 C 
BRANCH  28  29
ATOM     29  C   UNL     1      -6.576   5.191  15.496  1.00  0.00    -0.000 C 
BRANCH  29  30
ATOM     30  C   UNL     1      -6.417   4.221  14.315  1.00  0.00    -0.000 C 
BRANCH  30  31
ATOM     31  C   UNL     1      -7.570   4.326  13.307  1.00  0.00    -0.003 C 
ATOM     32  C   UNL     1      -8.671   5.241  13.828  1.00  0.00     0.004 C 
ENDBRANCH  30  31
ENDBRANCH  29  30
ENDBRANCH  28  29
ENDBRANCH  27  28
ENDBRANCH  26  27
ENDBRANCH  25  26
ENDBRANCH  24  25
ENDBRANCH  23  24
ENDBRANCH  22  23
ENDBRANCH  21  22
ENDBRANCH  20  21
ENDBRANCH  19  20
ENDBRANCH  18  19
ENDBRANCH   1  18
TORSDOF 28
ENDMDL
