MODEL 1
REMARK VINA RESULT:    -4.714      0.000      0.000
REMARK INTER + INTRA:          -5.309
REMARK INTER:                  -5.265
REMARK INTRA:                  -0.044
REMARK UNBOUND:                -0.044
REMARK SMILES O=C([O-])c1ccc(O)c(O)c1
REMARK SMILES IDX 4 1 11 2 5 3 9 4 6 5 7 6 2 7 1 8 3 9 10 10 8 12
REMARK H PARENT 10 11 8 13
REMARK Flexibility Score: inf
ROOT
ATOM      1  C   UNL     1       8.029  -6.422  -7.575  1.00  0.00     0.001 A 
ATOM      2  C   UNL     1       8.054  -5.327  -6.694  1.00  0.00     0.060 A 
ATOM      3  C   UNL     1       7.862  -7.716  -7.051  1.00  0.00     0.014 A 
ATOM      4  C   UNL     1       7.916  -5.520  -5.312  1.00  0.00     0.158 A 
ATOM      5  C   UNL     1       7.724  -7.908  -5.673  1.00  0.00     0.051 A 
ATOM      6  C   UNL     1       7.750  -6.813  -4.801  1.00  0.00     0.157 A 
ENDROOT
BRANCH   1   7
ATOM      7  C   UNL     1       8.176  -6.223  -9.034  1.00  0.00     0.072 C 
ATOM      8  O   UNL     1       8.553  -5.112  -9.494  1.00  0.00    -0.545 OA
ATOM      9  O   UNL     1       7.898  -7.258  -9.918  1.00  0.00    -0.545 OA
ENDBRANCH   1   7
BRANCH   4  10
ATOM     10  O   UNL     1       7.941  -4.432  -4.441  1.00  0.00    -0.504 OA
ATOM     11  H   UNL     1       7.495  -3.553  -4.676  1.00  0.00     0.293 HD
ENDBRANCH   4  10
BRANCH   6  12
ATOM     12  O   UNL     1       7.613  -7.001  -3.427  1.00  0.00    -0.504 OA
ATOM     13  H   UNL     1       7.755  -6.242  -2.771  1.00  0.00     0.293 HD
ENDBRANCH   6  12
TORSDOF 3
ENDMDL
MODEL 2
REMARK VINA RESULT:    -4.627      1.866      2.319
REMARK INTER + INTRA:          -5.212
REMARK INTER:                  -5.174
REMARK INTRA:                  -0.038
REMARK UNBOUND:                -0.044
REMARK SMILES O=C([O-])c1ccc(O)c(O)c1
REMARK SMILES IDX 4 1 11 2 5 3 9 4 6 5 7 6 2 7 1 8 3 9 10 10 8 12
REMARK H PARENT 10 11 8 13
REMARK Flexibility Score: inf
ROOT
ATOM      1  C   UNL     1       9.324  -6.868  -8.197  1.00  0.00     0.001 A 
ATOM      2  C   UNL     1      10.164  -6.068  -7.401  1.00  0.00     0.060 A 
ATOM      3  C   UNL     1       7.956  -6.946  -7.882  1.00  0.00     0.014 A 
ATOM      4  C   UNL     1       9.645  -5.357  -6.309  1.00  0.00     0.158 A 
ATOM      5  C   UNL     1       7.440  -6.236  -6.794  1.00  0.00     0.051 A 
ATOM      6  C   UNL     1       8.280  -5.442  -6.005  1.00  0.00     0.157 A 
ENDROOT
BRANCH   1   7
ATOM      7  C   UNL     1       9.868  -7.620  -9.349  1.00  0.00     0.072 C 
ATOM      8  O   UNL     1       9.401  -7.446 -10.506  1.00  0.00    -0.545 OA
ATOM      9  O   UNL     1      10.903  -8.531  -9.171  1.00  0.00    -0.545 OA
ENDBRANCH   1   7
BRANCH   4  10
ATOM     10  O   UNL     1      10.479  -4.565  -5.522  1.00  0.00    -0.504 OA
ATOM     11  H   UNL     1      11.273  -4.076  -5.917  1.00  0.00     0.293 HD
ENDBRANCH   4  10
BRANCH   6  12
ATOM     12  O   UNL     1       7.769  -4.734  -4.919  1.00  0.00    -0.504 OA
ATOM     13  H   UNL     1       8.229  -4.744  -4.016  1.00  0.00     0.293 HD
ENDBRANCH   6  12
TORSDOF 3
ENDMDL
MODEL 3
REMARK VINA RESULT:    -4.605      2.443      3.057
REMARK INTER + INTRA:          -5.187
REMARK INTER:                  -5.151
REMARK INTRA:                  -0.036
REMARK UNBOUND:                -0.044
REMARK SMILES O=C([O-])c1ccc(O)c(O)c1
REMARK SMILES IDX 4 1 11 2 5 3 9 4 6 5 7 6 2 7 1 8 3 9 10 10 8 12
REMARK H PARENT 10 11 8 13
REMARK Flexibility Score: inf
ROOT
ATOM      1  C   UNL     1       8.467  -7.170  -9.390  1.00  0.00     0.001 A 
ATOM      2  C   UNL     1       7.804  -6.242  -8.567  1.00  0.00     0.060 A 
ATOM      3  C   UNL     1       9.841  -7.395  -9.196  1.00  0.00     0.014 A 
ATOM      4  C   UNL     1       8.503  -5.550  -7.567  1.00  0.00     0.158 A 
ATOM      5  C   UNL     1      10.536  -6.705  -8.199  1.00  0.00     0.051 A 
ATOM      6  C   UNL     1       9.871  -5.782  -7.383  1.00  0.00     0.157 A 
ENDROOT
BRANCH   1   7
ATOM      7  C   UNL     1       7.733  -7.902 -10.446  1.00  0.00     0.072 C 
ATOM      8  O   UNL     1       7.108  -8.962 -10.175  1.00  0.00    -0.545 OA
ATOM      9  O   UNL     1       7.725  -7.431 -11.754  1.00  0.00    -0.545 OA
ENDBRANCH   1   7
BRANCH   4  10
ATOM     10  O   UNL     1       7.843  -4.630  -6.753  1.00  0.00    -0.504 OA
ATOM     11  H   UNL     1       7.661  -4.822  -5.775  1.00  0.00     0.293 HD
ENDBRANCH   4  10
BRANCH   6  12
ATOM     12  O   UNL     1      10.562  -5.092  -6.388  1.00  0.00    -0.504 OA
ATOM     13  H   UNL     1      10.579  -5.420  -5.430  1.00  0.00     0.293 HD
ENDBRANCH   6  12
TORSDOF 3
ENDMDL
MODEL 4
REMARK VINA RESULT:    -4.582     17.357     19.266
REMARK INTER + INTRA:          -5.162
REMARK INTER:                  -5.122
REMARK INTRA:                  -0.040
REMARK UNBOUND:                -0.044
REMARK SMILES O=C([O-])c1ccc(O)c(O)c1
REMARK SMILES IDX 4 1 11 2 5 3 9 4 6 5 7 6 2 7 1 8 3 9 10 10 8 12
REMARK H PARENT 10 11 8 13
REMARK Flexibility Score: inf
ROOT
ATOM      1  C   UNL     1      20.840   0.275 -20.484  1.00  0.00     0.001 A 
ATOM      2  C   UNL     1      21.362   0.795 -19.286  1.00  0.00     0.060 A 
ATOM      3  C   UNL     1      19.707  -0.556 -20.431  1.00  0.00     0.014 A 
ATOM      4  C   UNL     1      20.762   0.492 -18.056  1.00  0.00     0.158 A 
ATOM      5  C   UNL     1      19.109  -0.857 -19.203  1.00  0.00     0.051 A 
ATOM      6  C   UNL     1      19.634  -0.336 -18.014  1.00  0.00     0.157 A 
ENDROOT
BRANCH   1   7
ATOM      7  C   UNL     1      21.471   0.592 -21.784  1.00  0.00     0.072 C 
ATOM      8  O   UNL     1      21.797   1.776 -22.066  1.00  0.00    -0.545 OA
ATOM      9  O   UNL     1      21.712  -0.412 -22.714  1.00  0.00    -0.545 OA
ENDBRANCH   1   7
BRANCH   4  10
ATOM     10  O   UNL     1      21.283   1.009 -16.870  1.00  0.00    -0.504 OA
ATOM     11  H   UNL     1      20.710   1.115 -16.041  1.00  0.00     0.293 HD
ENDBRANCH   4  10
BRANCH   6  12
ATOM     12  O   UNL     1      19.040  -0.636 -16.789  1.00  0.00    -0.504 OA
ATOM     13  H   UNL     1      19.073   0.013 -16.011  1.00  0.00     0.293 HD
ENDBRANCH   6  12
TORSDOF 3
ENDMDL
MODEL 5
REMARK VINA RESULT:    -4.524     17.708     19.725
REMARK INTER + INTRA:          -5.097
REMARK INTER:                  -5.058
REMARK INTRA:                  -0.039
REMARK UNBOUND:                -0.044
REMARK SMILES O=C([O-])c1ccc(O)c(O)c1
REMARK SMILES IDX 4 1 11 2 5 3 9 4 6 5 7 6 2 7 1 8 3 9 10 10 8 12
REMARK H PARENT 10 11 8 13
REMARK Flexibility Score: inf
ROOT
ATOM      1  C   UNL     1      21.162   0.746 -20.676  1.00  0.00     0.001 A 
ATOM      2  C   UNL     1      20.052  -0.118 -20.718  1.00  0.00     0.060 A 
ATOM      3  C   UNL     1      21.689   1.118 -19.427  1.00  0.00     0.014 A 
ATOM      4  C   UNL     1      19.479  -0.600 -19.533  1.00  0.00     0.158 A 
ATOM      5  C   UNL     1      21.117   0.636 -18.246  1.00  0.00     0.051 A 
ATOM      6  C   UNL     1      20.013  -0.223 -18.295  1.00  0.00     0.157 A 
ENDROOT
BRANCH   1   7
ATOM      7  C   UNL     1      21.769   1.258 -21.924  1.00  0.00     0.072 C 
ATOM      8  O   UNL     1      21.945   2.494 -22.091  1.00  0.00    -0.545 OA
ATOM      9  O   UNL     1      22.153   0.381 -22.932  1.00  0.00    -0.545 OA
ENDBRANCH   1   7
BRANCH   4  10
ATOM     10  O   UNL     1      18.379  -1.456 -19.578  1.00  0.00    -0.504 OA
ATOM     11  H   UNL     1      18.052  -1.944 -18.753  1.00  0.00     0.293 HD
ENDBRANCH   4  10
BRANCH   6  12
ATOM     12  O   UNL     1      19.440  -0.705 -17.119  1.00  0.00    -0.504 OA
ATOM     13  H   UNL     1      18.584  -0.310 -16.746  1.00  0.00     0.293 HD
ENDBRANCH   6  12
TORSDOF 3
ENDMDL
MODEL 6
REMARK VINA RESULT:    -4.522     17.931     19.781
REMARK INTER + INTRA:          -5.095
REMARK INTER:                  -5.058
REMARK INTRA:                  -0.037
REMARK UNBOUND:                -0.044
REMARK SMILES O=C([O-])c1ccc(O)c(O)c1
REMARK SMILES IDX 4 1 11 2 5 3 9 4 6 5 7 6 2 7 1 8 3 9 10 10 8 12
REMARK H PARENT 10 11 8 13
REMARK Flexibility Score: inf
ROOT
ATOM      1  C   UNL     1      20.968   0.260 -18.492  1.00  0.00     0.001 A 
ATOM      2  C   UNL     1      21.457   1.008 -19.578  1.00  0.00     0.060 A 
ATOM      3  C   UNL     1      20.341  -0.973 -18.739  1.00  0.00     0.014 A 
ATOM      4  C   UNL     1      21.322   0.531 -20.890  1.00  0.00     0.158 A 
ATOM      5  C   UNL     1      20.207  -1.448 -20.047  1.00  0.00     0.051 A 
ATOM      6  C   UNL     1      20.696  -0.700 -21.125  1.00  0.00     0.157 A 
ENDROOT
BRANCH   1   7
ATOM      7  C   UNL     1      21.108   0.761 -17.106  1.00  0.00     0.072 C 
ATOM      8  O   UNL     1      20.090   1.062 -16.428  1.00  0.00    -0.545 OA
ATOM      9  O   UNL     1      22.366   0.907 -16.534  1.00  0.00    -0.545 OA
ENDBRANCH   1   7
BRANCH   4  10
ATOM     10  O   UNL     1      21.807   1.274 -21.965  1.00  0.00    -0.504 OA
ATOM     11  H   UNL     1      21.185   1.683 -22.651  1.00  0.00     0.293 HD
ENDBRANCH   4  10
BRANCH   6  12
ATOM     12  O   UNL     1      20.563  -1.171 -22.430  1.00  0.00    -0.504 OA
ATOM     13  H   UNL     1      21.148  -0.823 -23.181  1.00  0.00     0.293 HD
ENDBRANCH   6  12
TORSDOF 3
ENDMDL
MODEL 7
REMARK VINA RESULT:    -4.476      2.590      3.654
REMARK INTER + INTRA:          -5.044
REMARK INTER:                  -5.002
REMARK INTRA:                  -0.041
REMARK UNBOUND:                -0.044
REMARK SMILES O=C([O-])c1ccc(O)c(O)c1
REMARK SMILES IDX 4 1 11 2 5 3 9 4 6 5 7 6 2 7 1 8 3 9 10 10 8 12
REMARK H PARENT 10 11 8 13
REMARK Flexibility Score: inf
ROOT
ATOM      1  C   UNL     1       8.581  -7.104  -9.713  1.00  0.00     0.001 A 
ATOM      2  C   UNL     1       9.953  -6.796  -9.764  1.00  0.00     0.060 A 
ATOM      3  C   UNL     1       7.846  -6.760  -8.565  1.00  0.00     0.014 A 
ATOM      4  C   UNL     1      10.579  -6.154  -8.686  1.00  0.00     0.158 A 
ATOM      5  C   UNL     1       8.472  -6.120  -7.491  1.00  0.00     0.051 A 
ATOM      6  C   UNL     1       9.837  -5.815  -7.548  1.00  0.00     0.157 A 
ENDROOT
BRANCH   1   7
ATOM      7  C   UNL     1       7.917  -7.782 -10.848  1.00  0.00     0.072 C 
ATOM      8  O   UNL     1       7.001  -8.623 -10.645  1.00  0.00    -0.545 OA
ATOM      9  O   UNL     1       8.295  -7.501 -12.156  1.00  0.00    -0.545 OA
ENDBRANCH   1   7
BRANCH   4  10
ATOM     10  O   UNL     1      11.939  -5.849  -8.740  1.00  0.00    -0.504 OA
ATOM     11  H   UNL     1      12.270  -4.893  -8.691  1.00  0.00     0.293 HD
ENDBRANCH   4  10
BRANCH   6  12
ATOM     12  O   UNL     1      10.464  -5.178  -6.478  1.00  0.00    -0.504 OA
ATOM     13  H   UNL     1      11.322  -5.536  -6.077  1.00  0.00     0.293 HD
ENDBRANCH   6  12
TORSDOF 3
ENDMDL
MODEL 8
REMARK VINA RESULT:    -4.390      2.177      3.008
REMARK INTER + INTRA:          -4.947
REMARK INTER:                  -4.907
REMARK INTRA:                  -0.040
REMARK UNBOUND:                -0.044
REMARK SMILES O=C([O-])c1ccc(O)c(O)c1
REMARK SMILES IDX 4 1 11 2 5 3 9 4 6 5 7 6 2 7 1 8 3 9 10 10 8 12
REMARK H PARENT 10 11 8 13
REMARK Flexibility Score: inf
ROOT
ATOM      1  C   UNL     1       9.179  -5.712  -9.542  1.00  0.00     0.001 A 
ATOM      2  C   UNL     1       7.914  -5.111  -9.414  1.00  0.00     0.060 A 
ATOM      3  C   UNL     1       9.876  -6.092  -8.382  1.00  0.00     0.014 A 
ATOM      4  C   UNL     1       7.354  -4.894  -8.146  1.00  0.00     0.158 A 
ATOM      5  C   UNL     1       9.317  -5.875  -7.119  1.00  0.00     0.051 A 
ATOM      6  C   UNL     1       8.057  -5.277  -6.997  1.00  0.00     0.157 A 
ENDROOT
BRANCH   1   7
ATOM      7  C   UNL     1       9.774  -5.943 -10.878  1.00  0.00     0.072 C 
ATOM      8  O   UNL     1       9.077  -6.411 -11.817  1.00  0.00    -0.545 OA
ATOM      9  O   UNL     1      11.111  -5.646 -11.114  1.00  0.00    -0.545 OA
ENDBRANCH   1   7
BRANCH   4  10
ATOM     10  O   UNL     1       6.100  -4.298  -8.022  1.00  0.00    -0.504 OA
ATOM     11  H   UNL     1       5.253  -4.851  -7.968  1.00  0.00     0.293 HD
ENDBRANCH   4  10
BRANCH   6  12
ATOM     12  O   UNL     1       7.497  -5.058  -5.739  1.00  0.00    -0.504 OA
ATOM     13  H   UNL     1       6.771  -5.661  -5.371  1.00  0.00     0.293 HD
ENDBRANCH   6  12
TORSDOF 3
ENDMDL
MODEL 9
REMARK VINA RESULT:    -4.287     16.278     18.522
REMARK INTER + INTRA:          -4.833
REMARK INTER:                  -4.794
REMARK INTRA:                  -0.038
REMARK UNBOUND:                -0.044
REMARK SMILES O=C([O-])c1ccc(O)c(O)c1
REMARK SMILES IDX 4 1 11 2 5 3 9 4 6 5 7 6 2 7 1 8 3 9 10 10 8 12
REMARK H PARENT 10 11 8 13
REMARK Flexibility Score: inf
ROOT
ATOM      1  C   UNL     1      19.492  -0.347 -17.911  1.00  0.00     0.001 A 
ATOM      2  C   UNL     1      20.628   0.454 -17.702  1.00  0.00     0.060 A 
ATOM      3  C   UNL     1      19.130  -0.687 -19.227  1.00  0.00     0.014 A 
ATOM      4  C   UNL     1      21.391   0.908 -18.787  1.00  0.00     0.158 A 
ATOM      5  C   UNL     1      19.891  -0.235 -20.308  1.00  0.00     0.051 A 
ATOM      6  C   UNL     1      21.021   0.563 -20.093  1.00  0.00     0.157 A 
ENDROOT
BRANCH   1   7
ATOM      7  C   UNL     1      18.684  -0.827 -16.768  1.00  0.00     0.072 C 
ATOM      8  O   UNL     1      18.216  -0.014 -15.928  1.00  0.00    -0.545 OA
ATOM      9  O   UNL     1      18.432  -2.184 -16.605  1.00  0.00    -0.545 OA
ENDBRANCH   1   7
BRANCH   4  10
ATOM     10  O   UNL     1      22.517   1.703 -18.576  1.00  0.00    -0.504 OA
ATOM     11  H   UNL     1      22.530   2.426 -17.867  1.00  0.00     0.293 HD
ENDBRANCH   4  10
BRANCH   6  12
ATOM     12  O   UNL     1      21.781   1.016 -21.170  1.00  0.00    -0.504 OA
ATOM     13  H   UNL     1      22.082   0.390 -21.907  1.00  0.00     0.293 HD
ENDBRANCH   6  12
TORSDOF 3
ENDMDL
