MODEL 1
REMARK VINA RESULT:    -7.150      0.000      0.000
REMARK INTER + INTRA:         -12.034
REMARK INTER:                  -9.658
REMARK INTRA:                  -2.376
REMARK UNBOUND:                -2.376
REMARK SMILES CC[C@H](CC[C@@H](C)[C@H]1CC[C@H]2[C@@H]3CC(=O)C4=CC(=O)CC[C@]4(C)[C@@H]3CC[C@@]12C)C(C)C
REMARK SMILES IDX 4 1 3 2 2 3 1 4 29 5 30 6 31 7 5 8 6 9 7 10 8 11 9 12 27 13
REMARK SMILES IDX 10 14 11 15 26 16 28 17 12 18 25 19 24 20 13 21 22 22 14 23
REMARK SMILES IDX 16 24 21 25 23 26 15 27 17 28 20 29 18 30 19 31
REMARK H PARENT
REMARK Flexibility Score: inf
ROOT
ATOM      1  C   UNL     1      10.360  19.799 -19.313  1.00  0.00     0.004 C 
ENDROOT
BRANCH   1   2
ATOM      2  C   UNL     1      11.274  18.544 -19.222  1.00  0.00    -0.009 C 
BRANCH   2   3
ATOM      3  C   UNL     1      10.418  17.267 -18.979  1.00  0.00     0.000 C 
ATOM      4  C   UNL     1       8.935  17.578 -18.765  1.00  0.00     0.004 C 
ENDBRANCH   2   3
BRANCH   2   5
ATOM      5  C   UNL     1      12.220  18.400 -20.464  1.00  0.00    -0.014 C 
ATOM      6  C   UNL     1      13.703  18.483 -20.065  1.00  0.00     0.007 C 
ATOM      7  C   UNL     1      11.961  17.132 -21.294  1.00  0.00     0.007 C 
ENDBRANCH   2   5
ENDBRANCH   1   2
BRANCH   1   8
ATOM      8  C   UNL     1      10.696  20.719 -20.507  1.00  0.00     0.004 C 
BRANCH   8   9
ATOM      9  C   UNL     1       9.483  20.927 -21.458  1.00  0.00    -0.011 C 
ATOM     10  C   UNL     1       9.094  22.419 -21.482  1.00  0.00     0.008 C 
BRANCH   9  11
ATOM     11  C   UNL     1       9.681  20.416 -22.938  1.00  0.00    -0.002 C 
ATOM     12  C   UNL     1      11.130  20.203 -23.401  1.00  0.00     0.005 C 
ATOM     13  C   UNL     1       8.884  19.153 -23.386  1.00  0.00    -0.026 C 
ATOM     14  C   UNL     1      11.076  19.155 -24.512  1.00  0.00     0.005 C 
ATOM     15  C   UNL     1       9.596  18.794 -24.722  1.00  0.00    -0.001 C 
ATOM     16  C   UNL     1       9.007  17.986 -22.371  1.00  0.00     0.007 C 
ATOM     17  C   UNL     1       7.391  19.532 -23.593  1.00  0.00     0.012 C 
ATOM     18  C   UNL     1       9.409  17.339 -25.259  1.00  0.00     0.004 C 
ATOM     19  C   UNL     1       8.610  16.621 -22.952  1.00  0.00     0.005 C 
ATOM     20  C   UNL     1       9.521  16.250 -24.147  1.00  0.00     0.003 C 
ATOM     21  C   UNL     1       8.106  17.216 -26.073  1.00  0.00     0.085 C 
ATOM     22  C   UNL     1       9.352  14.774 -24.711  1.00  0.00    -0.000 C 
ATOM     23  C   UNL     1       7.881  15.829 -26.574  1.00  0.00     0.159 C 
ATOM     24  C   UNL     1       8.208  14.667 -25.721  1.00  0.00     0.005 C 
ATOM     25  C   UNL     1       9.107  13.752 -23.554  1.00  0.00     0.020 C 
ATOM     26  C   UNL     1      10.662  14.383 -25.450  1.00  0.00     0.017 C 
ATOM     27  O   UNL     1       7.338  15.665 -27.701  1.00  0.00    -0.295 OA
ATOM     28  C   UNL     1       7.600  13.486 -25.953  1.00  0.00     0.055 C 
ATOM     29  C   UNL     1       8.911  12.314 -24.052  1.00  0.00     0.081 C 
ATOM     30  C   UNL     1       7.922  12.274 -25.180  1.00  0.00     0.156 C 
ATOM     31  O   UNL     1       7.377  11.181 -25.487  1.00  0.00    -0.295 OA
ENDBRANCH   9  11
ENDBRANCH   8   9
ENDBRANCH   1   8
TORSDOF 6
ENDMDL
MODEL 2
REMARK VINA RESULT:    -7.065      3.202      6.717
REMARK INTER + INTRA:         -11.919
REMARK INTER:                 -10.118
REMARK INTRA:                  -1.801
REMARK UNBOUND:                -2.376
REMARK SMILES CC[C@H](CC[C@@H](C)[C@H]1CC[C@H]2[C@@H]3CC(=O)C4=CC(=O)CC[C@]4(C)[C@@H]3CC[C@@]12C)C(C)C
REMARK SMILES IDX 4 1 3 2 2 3 1 4 29 5 30 6 31 7 5 8 6 9 7 10 8 11 9 12 27 13
REMARK SMILES IDX 10 14 11 15 26 16 28 17 12 18 25 19 24 20 13 21 22 22 14 23
REMARK SMILES IDX 16 24 21 25 23 26 15 27 17 28 20 29 18 30 19 31
REMARK H PARENT
REMARK Flexibility Score: inf
ROOT
ATOM      1  C   UNL     1      12.435  17.898 -21.950  1.00  0.00     0.004 C 
ENDROOT
BRANCH   1   2
ATOM      2  C   UNL     1      11.995  17.365 -20.556  1.00  0.00    -0.009 C 
BRANCH   2   3
ATOM      3  C   UNL     1      13.005  17.814 -19.461  1.00  0.00     0.000 C 
ATOM      4  C   UNL     1      14.462  17.556 -19.855  1.00  0.00     0.004 C 
ENDBRANCH   2   3
BRANCH   2   5
ATOM      5  C   UNL     1      10.519  17.760 -20.203  1.00  0.00    -0.014 C 
ATOM      6  C   UNL     1      10.149  17.361 -18.764  1.00  0.00     0.007 C 
ATOM      7  C   UNL     1      10.202  19.245 -20.443  1.00  0.00     0.007 C 
ENDBRANCH   2   5
ENDBRANCH   1   2
BRANCH   1   8
ATOM      8  C   UNL     1      12.496  16.801 -23.036  1.00  0.00     0.004 C 
BRANCH   8   9
ATOM      9  C   UNL     1      12.004  17.308 -24.422  1.00  0.00    -0.011 C 
ATOM     10  C   UNL     1      12.570  16.402 -25.534  1.00  0.00     0.008 C 
BRANCH   9  11
ATOM     11  C   UNL     1      10.440  17.426 -24.590  1.00  0.00    -0.002 C 
ATOM     12  C   UNL     1       9.584  16.853 -23.450  1.00  0.00     0.005 C 
ATOM     13  C   UNL     1       9.846  18.829 -24.926  1.00  0.00    -0.026 C 
ATOM     14  C   UNL     1       8.258  17.613 -23.485  1.00  0.00     0.005 C 
ATOM     15  C   UNL     1       8.331  18.594 -24.668  1.00  0.00    -0.001 C 
ATOM     16  C   UNL     1      10.394  19.940 -23.992  1.00  0.00     0.007 C 
ATOM     17  C   UNL     1      10.149  19.174 -26.410  1.00  0.00     0.012 C 
ATOM     18  C   UNL     1       7.442  19.860 -24.445  1.00  0.00     0.004 C 
ATOM     19  C   UNL     1       9.546  21.221 -23.999  1.00  0.00     0.005 C 
ATOM     20  C   UNL     1       8.105  20.925 -23.516  1.00  0.00     0.003 C 
ATOM     21  C   UNL     1       6.987  20.456 -25.791  1.00  0.00     0.085 C 
ATOM     22  C   UNL     1       7.181  22.196 -23.281  1.00  0.00    -0.000 C 
ATOM     23  C   UNL     1       6.162  21.687 -25.614  1.00  0.00     0.159 C 
ATOM     24  C   UNL     1       6.511  22.673 -24.570  1.00  0.00     0.005 C 
ATOM     25  C   UNL     1       7.996  23.379 -22.664  1.00  0.00     0.020 C 
ATOM     26  C   UNL     1       6.053  21.800 -22.288  1.00  0.00     0.017 C 
ATOM     27  O   UNL     1       5.214  21.910 -26.417  1.00  0.00    -0.295 OA
ATOM     28  C   UNL     1       6.093  23.949 -24.700  1.00  0.00     0.055 C 
ATOM     29  C   UNL     1       7.151  24.641 -22.441  1.00  0.00     0.081 C 
ATOM     30  C   UNL     1       6.353  24.968 -23.669  1.00  0.00     0.156 C 
ATOM     31  O   UNL     1       5.878  26.125 -23.808  1.00  0.00    -0.295 OA
ENDBRANCH   9  11
ENDBRANCH   8   9
ENDBRANCH   1   8
TORSDOF 6
ENDMDL
MODEL 3
REMARK VINA RESULT:    -7.044      0.578      1.529
REMARK INTER + INTRA:         -11.891
REMARK INTER:                  -9.846
REMARK INTRA:                  -2.045
REMARK UNBOUND:                -2.376
REMARK SMILES CC[C@H](CC[C@@H](C)[C@H]1CC[C@H]2[C@@H]3CC(=O)C4=CC(=O)CC[C@]4(C)[C@@H]3CC[C@@]12C)C(C)C
REMARK SMILES IDX 4 1 3 2 2 3 1 4 29 5 30 6 31 7 5 8 6 9 7 10 8 11 9 12 27 13
REMARK SMILES IDX 10 14 11 15 26 16 28 17 12 18 25 19 24 20 13 21 22 22 14 23
REMARK SMILES IDX 16 24 21 25 23 26 15 27 17 28 20 29 18 30 19 31
REMARK H PARENT
REMARK Flexibility Score: inf
ROOT
ATOM      1  C   UNL     1      10.376  20.383 -19.620  1.00  0.00     0.004 C 
ENDROOT
BRANCH   1   2
ATOM      2  C   UNL     1      10.610  18.866 -19.870  1.00  0.00    -0.009 C 
BRANCH   2   3
ATOM      3  C   UNL     1      12.101  18.601 -20.226  1.00  0.00     0.000 C 
ATOM      4  C   UNL     1      12.272  17.554 -21.330  1.00  0.00     0.004 C 
ENDBRANCH   2   3
BRANCH   2   5
ATOM      5  C   UNL     1      10.115  17.978 -18.676  1.00  0.00    -0.014 C 
ATOM      6  C   UNL     1      10.283  18.692 -17.325  1.00  0.00     0.007 C 
ATOM      7  C   UNL     1       8.671  17.474 -18.839  1.00  0.00     0.007 C 
ENDBRANCH   2   5
ENDBRANCH   1   2
BRANCH   1   8
ATOM      8  C   UNL     1      10.577  21.252 -20.881  1.00  0.00     0.004 C 
BRANCH   8   9
ATOM      9  C   UNL     1       9.308  21.300 -21.780  1.00  0.00    -0.011 C 
ATOM     10  C   UNL     1       8.802  22.753 -21.885  1.00  0.00     0.008 C 
BRANCH   9  11
ATOM     11  C   UNL     1       9.476  20.700 -23.229  1.00  0.00    -0.002 C 
ATOM     12  C   UNL     1      10.916  20.488 -23.720  1.00  0.00     0.005 C 
ATOM     13  C   UNL     1       8.695  19.394 -23.574  1.00  0.00    -0.026 C 
ATOM     14  C   UNL     1      10.855  19.370 -24.761  1.00  0.00     0.005 C 
ATOM     15  C   UNL     1       9.378  18.966 -24.904  1.00  0.00    -0.001 C 
ATOM     16  C   UNL     1       8.873  18.298 -22.491  1.00  0.00     0.007 C 
ATOM     17  C   UNL     1       7.189  19.728 -23.760  1.00  0.00     0.012 C 
ATOM     18  C   UNL     1       9.208  17.476 -25.343  1.00  0.00     0.004 C 
ATOM     19  C   UNL     1       8.490  16.890 -22.973  1.00  0.00     0.005 C 
ATOM     20  C   UNL     1       9.376  16.463 -24.168  1.00  0.00     0.003 C 
ATOM     21  C   UNL     1       7.886  17.275 -26.109  1.00  0.00     0.085 C 
ATOM     22  C   UNL     1       9.224  14.951 -24.633  1.00  0.00    -0.000 C 
ATOM     23  C   UNL     1       7.679  15.854 -26.515  1.00  0.00     0.159 C 
ATOM     24  C   UNL     1       8.055  14.756 -25.600  1.00  0.00     0.005 C 
ATOM     25  C   UNL     1       9.034  14.000 -23.408  1.00  0.00     0.020 C 
ATOM     26  C   UNL     1      10.522  14.540 -25.384  1.00  0.00     0.017 C 
ATOM     27  O   UNL     1       7.108  15.608 -27.613  1.00  0.00    -0.295 OA
ATOM     28  C   UNL     1       7.468  13.550 -25.739  1.00  0.00     0.055 C 
ATOM     29  C   UNL     1       8.857  12.529 -23.808  1.00  0.00     0.081 C 
ATOM     30  C   UNL     1       7.838  12.396 -24.901  1.00  0.00     0.156 C 
ATOM     31  O   UNL     1       7.309  11.275 -25.122  1.00  0.00    -0.295 OA
ENDBRANCH   9  11
ENDBRANCH   8   9
ENDBRANCH   1   8
TORSDOF 6
ENDMDL
MODEL 4
REMARK VINA RESULT:    -6.964      3.143      7.232
REMARK INTER + INTRA:         -11.783
REMARK INTER:                  -9.857
REMARK INTRA:                  -1.926
REMARK UNBOUND:                -2.376
REMARK SMILES CC[C@H](CC[C@@H](C)[C@H]1CC[C@H]2[C@@H]3CC(=O)C4=CC(=O)CC[C@]4(C)[C@@H]3CC[C@@]12C)C(C)C
REMARK SMILES IDX 4 1 3 2 2 3 1 4 29 5 30 6 31 7 5 8 6 9 7 10 8 11 9 12 27 13
REMARK SMILES IDX 10 14 11 15 26 16 28 17 12 18 25 19 24 20 13 21 22 22 14 23
REMARK SMILES IDX 16 24 21 25 23 26 15 27 17 28 20 29 18 30 19 31
REMARK H PARENT
REMARK Flexibility Score: inf
ROOT
ATOM      1  C   UNL     1      11.410  13.044 -25.715  1.00  0.00     0.004 C 
ENDROOT
BRANCH   1   2
ATOM      2  C   UNL     1       9.881  12.884 -25.480  1.00  0.00    -0.009 C 
BRANCH   2   3
ATOM      3  C   UNL     1       9.344  11.638 -26.241  1.00  0.00     0.000 C 
ATOM      4  C   UNL     1       7.979  11.880 -26.889  1.00  0.00     0.004 C 
ENDBRANCH   2   3
BRANCH   2   5
ATOM      5  C   UNL     1       9.507  12.859 -23.958  1.00  0.00    -0.014 C 
ATOM      6  C   UNL     1       8.807  14.157 -23.520  1.00  0.00     0.007 C 
ATOM      7  C   UNL     1       8.670  11.636 -23.547  1.00  0.00     0.007 C 
ENDBRANCH   2   5
ENDBRANCH   1   2
BRANCH   1   8
ATOM      8  C   UNL     1      11.756  13.881 -26.966  1.00  0.00     0.004 C 
BRANCH   8   9
ATOM      9  C   UNL     1      12.523  15.188 -26.615  1.00  0.00    -0.011 C 
ATOM     10  C   UNL     1      13.474  15.556 -27.772  1.00  0.00     0.008 C 
BRANCH   9  11
ATOM     11  C   UNL     1      11.622  16.434 -26.263  1.00  0.00    -0.002 C 
ATOM     12  C   UNL     1      10.106  16.254 -26.433  1.00  0.00     0.005 C 
ATOM     13  C   UNL     1      11.833  17.120 -24.878  1.00  0.00    -0.026 C 
ATOM     14  C   UNL     1       9.446  17.246 -25.476  1.00  0.00     0.005 C 
ATOM     15  C   UNL     1      10.575  18.030 -24.787  1.00  0.00    -0.001 C 
ATOM     16  C   UNL     1      11.852  16.097 -23.711  1.00  0.00     0.007 C 
ATOM     17  C   UNL     1      13.156  17.935 -24.902  1.00  0.00     0.012 C 
ATOM     18  C   UNL     1      10.166  18.538 -23.368  1.00  0.00     0.004 C 
ATOM     19  C   UNL     1      11.632  16.735 -22.331  1.00  0.00     0.005 C 
ATOM     20  C   UNL     1      10.254  17.435 -22.267  1.00  0.00     0.003 C 
ATOM     21  C   UNL     1      10.951  19.809 -22.990  1.00  0.00     0.085 C 
ATOM     22  C   UNL     1       9.812  17.960 -20.833  1.00  0.00    -0.000 C 
ATOM     23  C   UNL     1      10.607  20.302 -21.624  1.00  0.00     0.159 C 
ATOM     24  C   UNL     1      10.383  19.345 -20.522  1.00  0.00     0.005 C 
ATOM     25  C   UNL     1      10.249  16.965 -19.709  1.00  0.00     0.020 C 
ATOM     26  C   UNL     1       8.263  18.080 -20.815  1.00  0.00     0.017 C 
ATOM     27  O   UNL     1      10.587  21.545 -21.409  1.00  0.00    -0.295 OA
ATOM     28  C   UNL     1      10.535  19.758 -19.247  1.00  0.00     0.055 C 
ATOM     29  C   UNL     1       9.867  17.441 -18.301  1.00  0.00     0.081 C 
ATOM     30  C   UNL     1      10.270  18.873 -18.099  1.00  0.00     0.156 C 
ATOM     31  O   UNL     1      10.358  19.332 -16.930  1.00  0.00    -0.295 OA
ENDBRANCH   9  11
ENDBRANCH   8   9
ENDBRANCH   1   8
TORSDOF 6
ENDMDL
MODEL 5
REMARK VINA RESULT:    -6.786      4.002      6.888
REMARK INTER + INTRA:         -11.542
REMARK INTER:                  -9.851
REMARK INTRA:                  -1.691
REMARK UNBOUND:                -2.376
REMARK SMILES CC[C@H](CC[C@@H](C)[C@H]1CC[C@H]2[C@@H]3CC(=O)C4=CC(=O)CC[C@]4(C)[C@@H]3CC[C@@]12C)C(C)C
REMARK SMILES IDX 4 1 3 2 2 3 1 4 29 5 30 6 31 7 5 8 6 9 7 10 8 11 9 12 27 13
REMARK SMILES IDX 10 14 11 15 26 16 28 17 12 18 25 19 24 20 13 21 22 22 14 23
REMARK SMILES IDX 16 24 21 25 23 26 15 27 17 28 20 29 18 30 19 31
REMARK H PARENT
REMARK Flexibility Score: inf
ROOT
ATOM      1  C   UNL     1       6.967  21.313 -24.206  1.00  0.00     0.004 C 
ENDROOT
BRANCH   1   2
ATOM      2  C   UNL     1       7.177  22.535 -23.267  1.00  0.00    -0.009 C 
BRANCH   2   3
ATOM      3  C   UNL     1       8.660  23.003 -23.312  1.00  0.00     0.000 C 
ATOM      4  C   UNL     1       9.460  22.337 -24.435  1.00  0.00     0.004 C 
ENDBRANCH   2   3
BRANCH   2   5
ATOM      5  C   UNL     1       6.173  23.701 -23.566  1.00  0.00    -0.014 C 
ATOM      6  C   UNL     1       6.024  23.953 -25.076  1.00  0.00     0.007 C 
ATOM      7  C   UNL     1       4.793  23.510 -22.917  1.00  0.00     0.007 C 
ENDBRANCH   2   5
ENDBRANCH   1   2
BRANCH   1   8
ATOM      8  C   UNL     1       6.573  20.022 -23.457  1.00  0.00     0.004 C 
BRANCH   8   9
ATOM      9  C   UNL     1       6.804  20.129 -21.922  1.00  0.00    -0.011 C 
ATOM     10  C   UNL     1       5.445  20.211 -21.198  1.00  0.00     0.008 C 
BRANCH   9  11
ATOM     11  C   UNL     1       7.670  18.977 -21.280  1.00  0.00    -0.002 C 
ATOM     12  C   UNL     1       7.400  17.553 -21.791  1.00  0.00     0.005 C 
ATOM     13  C   UNL     1       9.219  19.152 -21.259  1.00  0.00    -0.026 C 
ATOM     14  C   UNL     1       8.691  16.765 -21.566  1.00  0.00     0.005 C 
ATOM     15  C   UNL     1       9.689  17.717 -20.887  1.00  0.00    -0.001 C 
ATOM     16  C   UNL     1       9.784  19.571 -22.642  1.00  0.00     0.007 C 
ATOM     17  C   UNL     1       9.604  20.202 -20.179  1.00  0.00     0.012 C 
ATOM     18  C   UNL     1      11.174  17.350 -21.208  1.00  0.00     0.004 C 
ATOM     19  C   UNL     1      11.297  19.347 -22.781  1.00  0.00     0.005 C 
ATOM     20  C   UNL     1      11.645  17.848 -22.610  1.00  0.00     0.003 C 
ATOM     21  C   UNL     1      12.112  17.809 -20.075  1.00  0.00     0.085 C 
ATOM     22  C   UNL     1      13.148  17.447 -22.932  1.00  0.00    -0.000 C 
ATOM     23  C   UNL     1      13.543  17.502 -20.366  1.00  0.00     0.159 C 
ATOM     24  C   UNL     1      14.076  17.663 -21.734  1.00  0.00     0.005 C 
ATOM     25  C   UNL     1      13.698  18.254 -24.153  1.00  0.00     0.020 C 
ATOM     26  C   UNL     1      13.184  15.933 -23.281  1.00  0.00     0.017 C 
ATOM     27  O   UNL     1      14.305  17.178 -19.414  1.00  0.00    -0.295 OA
ATOM     28  C   UNL     1      15.401  17.842 -21.911  1.00  0.00     0.055 C 
ATOM     29  C   UNL     1      15.158  17.920 -24.488  1.00  0.00     0.081 C 
ATOM     30  C   UNL     1      16.006  17.950 -23.250  1.00  0.00     0.156 C 
ATOM     31  O   UNL     1      17.256  18.044 -23.358  1.00  0.00    -0.295 OA
ENDBRANCH   9  11
ENDBRANCH   8   9
ENDBRANCH   1   8
TORSDOF 6
ENDMDL
MODEL 6
REMARK VINA RESULT:    -6.751      3.793      7.113
REMARK INTER + INTRA:         -11.495
REMARK INTER:                  -9.219
REMARK INTRA:                  -2.276
REMARK UNBOUND:                -2.376
REMARK SMILES CC[C@H](CC[C@@H](C)[C@H]1CC[C@H]2[C@@H]3CC(=O)C4=CC(=O)CC[C@]4(C)[C@@H]3CC[C@@]12C)C(C)C
REMARK SMILES IDX 4 1 3 2 2 3 1 4 29 5 30 6 31 7 5 8 6 9 7 10 8 11 9 12 27 13
REMARK SMILES IDX 10 14 11 15 26 16 28 17 12 18 25 19 24 20 13 21 22 22 14 23
REMARK SMILES IDX 16 24 21 25 23 26 15 27 17 28 20 29 18 30 19 31
REMARK H PARENT
REMARK Flexibility Score: inf
ROOT
ATOM      1  C   UNL     1       6.804  21.196 -27.176  1.00  0.00     0.004 C 
ENDROOT
BRANCH   1   2
ATOM      2  C   UNL     1       6.451  19.683 -27.118  1.00  0.00    -0.009 C 
BRANCH   2   3
ATOM      3  C   UNL     1       5.540  19.293 -28.317  1.00  0.00     0.000 C 
ATOM      4  C   UNL     1       5.845  20.100 -29.582  1.00  0.00     0.004 C 
ENDBRANCH   2   3
BRANCH   2   5
ATOM      5  C   UNL     1       7.724  18.773 -27.016  1.00  0.00    -0.014 C 
ATOM      6  C   UNL     1       9.003  19.534 -27.404  1.00  0.00     0.007 C 
ATOM      7  C   UNL     1       7.897  18.104 -25.642  1.00  0.00     0.007 C 
ENDBRANCH   2   5
ENDBRANCH   1   2
BRANCH   1   8
ATOM      8  C   UNL     1       5.848  22.083 -26.349  1.00  0.00     0.004 C 
BRANCH   8   9
ATOM      9  C   UNL     1       6.576  22.830 -25.195  1.00  0.00    -0.011 C 
ATOM     10  C   UNL     1       5.944  24.222 -24.998  1.00  0.00     0.008 C 
BRANCH   9  11
ATOM     11  C   UNL     1       6.615  22.074 -23.810  1.00  0.00    -0.002 C 
ATOM     12  C   UNL     1       5.839  20.750 -23.731  1.00  0.00     0.005 C 
ATOM     13  C   UNL     1       8.008  21.809 -23.162  1.00  0.00    -0.026 C 
ATOM     14  C   UNL     1       6.510  19.925 -22.633  1.00  0.00     0.005 C 
ATOM     15  C   UNL     1       7.643  20.785 -22.049  1.00  0.00    -0.001 C 
ATOM     16  C   UNL     1       9.017  21.189 -24.164  1.00  0.00     0.007 C 
ATOM     17  C   UNL     1       8.569  23.138 -22.584  1.00  0.00     0.012 C 
ATOM     18  C   UNL     1       8.807  19.920 -21.469  1.00  0.00     0.004 C 
ATOM     19  C   UNL     1      10.229  20.531 -23.489  1.00  0.00     0.005 C 
ATOM     20  C   UNL     1       9.778  19.376 -22.563  1.00  0.00     0.003 C 
ATOM     21  C   UNL     1       9.548  20.675 -20.348  1.00  0.00     0.085 C 
ATOM     22  C   UNL     1      10.944  18.479 -21.961  1.00  0.00    -0.000 C 
ATOM     23  C   UNL     1      10.689  19.887 -19.794  1.00  0.00     0.159 C 
ATOM     24  C   UNL     1      11.545  19.085 -20.691  1.00  0.00     0.005 C 
ATOM     25  C   UNL     1      12.083  18.257 -23.008  1.00  0.00     0.020 C 
ATOM     26  C   UNL     1      10.346  17.097 -21.578  1.00  0.00     0.017 C 
ATOM     27  O   UNL     1      10.955  19.979 -18.564  1.00  0.00    -0.295 OA
ATOM     28  C   UNL     1      12.797  18.769 -20.302  1.00  0.00     0.055 C 
ATOM     29  C   UNL     1      13.246  17.417 -22.463  1.00  0.00     0.081 C 
ATOM     30  C   UNL     1      13.683  17.924 -21.120  1.00  0.00     0.156 C 
ATOM     31  O   UNL     1      14.815  17.600 -20.675  1.00  0.00    -0.295 OA
ENDBRANCH   9  11
ENDBRANCH   8   9
ENDBRANCH   1   8
TORSDOF 6
ENDMDL
MODEL 7
REMARK VINA RESULT:    -6.746      3.647      6.691
REMARK INTER + INTRA:         -11.489
REMARK INTER:                 -10.622
REMARK INTRA:                  -0.867
REMARK UNBOUND:                -2.376
REMARK SMILES CC[C@H](CC[C@@H](C)[C@H]1CC[C@H]2[C@@H]3CC(=O)C4=CC(=O)CC[C@]4(C)[C@@H]3CC[C@@]12C)C(C)C
REMARK SMILES IDX 4 1 3 2 2 3 1 4 29 5 30 6 31 7 5 8 6 9 7 10 8 11 9 12 27 13
REMARK SMILES IDX 10 14 11 15 26 16 28 17 12 18 25 19 24 20 13 21 22 22 14 23
REMARK SMILES IDX 16 24 21 25 23 26 15 27 17 28 20 29 18 30 19 31
REMARK H PARENT
REMARK Flexibility Score: inf
ROOT
ATOM      1  C   UNL     1       6.365  23.917 -24.781  1.00  0.00     0.004 C 
ENDROOT
BRANCH   1   2
ATOM      2  C   UNL     1       6.206  24.995 -23.672  1.00  0.00    -0.009 C 
BRANCH   2   3
ATOM      3  C   UNL     1       4.798  24.893 -23.016  1.00  0.00     0.000 C 
ATOM      4  C   UNL     1       3.917  26.111 -23.307  1.00  0.00     0.004 C 
ENDBRANCH   2   3
BRANCH   2   5
ATOM      5  C   UNL     1       7.362  24.942 -22.614  1.00  0.00    -0.014 C 
ATOM      6  C   UNL     1       6.822  24.992 -21.175  1.00  0.00     0.007 C 
ATOM      7  C   UNL     1       8.305  23.740 -22.790  1.00  0.00     0.007 C 
ENDBRANCH   2   5
ENDBRANCH   1   2
BRANCH   1   8
ATOM      8  C   UNL     1       5.212  22.889 -24.809  1.00  0.00     0.004 C 
BRANCH   8   9
ATOM      9  C   UNL     1       5.554  21.634 -25.662  1.00  0.00    -0.011 C 
ATOM     10  C   UNL     1       6.936  21.817 -26.321  1.00  0.00     0.008 C 
BRANCH   9  11
ATOM     11  C   UNL     1       5.521  20.257 -24.892  1.00  0.00    -0.002 C 
ATOM     12  C   UNL     1       5.657  18.989 -25.749  1.00  0.00     0.005 C 
ATOM     13  C   UNL     1       6.485  20.076 -23.679  1.00  0.00    -0.026 C 
ATOM     14  C   UNL     1       6.237  17.912 -24.833  1.00  0.00     0.005 C 
ATOM     15  C   UNL     1       6.396  18.542 -23.439  1.00  0.00    -0.001 C 
ATOM     16  C   UNL     1       7.941  20.492 -24.016  1.00  0.00     0.007 C 
ATOM     17  C   UNL     1       5.955  20.897 -22.471  1.00  0.00     0.012 C 
ATOM     18  C   UNL     1       7.550  17.882 -22.617  1.00  0.00     0.004 C 
ATOM     19  C   UNL     1       8.981  19.947 -23.026  1.00  0.00     0.005 C 
ATOM     20  C   UNL     1       8.967  18.399 -23.017  1.00  0.00     0.003 C 
ATOM     21  C   UNL     1       7.286  18.002 -21.103  1.00  0.00     0.085 C 
ATOM     22  C   UNL     1      10.132  17.703 -22.189  1.00  0.00    -0.000 C 
ATOM     23  C   UNL     1       8.387  17.410 -20.288  1.00  0.00     0.159 C 
ATOM     24  C   UNL     1       9.795  17.583 -20.702  1.00  0.00     0.005 C 
ATOM     25  C   UNL     1      11.478  18.483 -22.344  1.00  0.00     0.020 C 
ATOM     26  C   UNL     1      10.326  16.263 -22.740  1.00  0.00     0.017 C 
ATOM     27  O   UNL     1       8.102  16.829 -19.205  1.00  0.00    -0.295 OA
ATOM     28  C   UNL     1      10.773  17.475 -19.779  1.00  0.00     0.055 C 
ATOM     29  C   UNL     1      12.629  17.863 -21.541  1.00  0.00     0.081 C 
ATOM     30  C   UNL     1      12.199  17.577 -20.133  1.00  0.00     0.156 C 
ATOM     31  O   UNL     1      13.071  17.397 -19.243  1.00  0.00    -0.295 OA
ENDBRANCH   9  11
ENDBRANCH   8   9
ENDBRANCH   1   8
TORSDOF 6
ENDMDL
MODEL 8
REMARK VINA RESULT:    -6.658      2.935      7.362
REMARK INTER + INTRA:         -11.370
REMARK INTER:                  -9.416
REMARK INTRA:                  -1.954
REMARK UNBOUND:                -2.376
REMARK SMILES CC[C@H](CC[C@@H](C)[C@H]1CC[C@H]2[C@@H]3CC(=O)C4=CC(=O)CC[C@]4(C)[C@@H]3CC[C@@]12C)C(C)C
REMARK SMILES IDX 4 1 3 2 2 3 1 4 29 5 30 6 31 7 5 8 6 9 7 10 8 11 9 12 27 13
REMARK SMILES IDX 10 14 11 15 26 16 28 17 12 18 25 19 24 20 13 21 22 22 14 23
REMARK SMILES IDX 16 24 21 25 23 26 15 27 17 28 20 29 18 30 19 31
REMARK H PARENT
REMARK Flexibility Score: inf
ROOT
ATOM      1  C   UNL     1       7.011  12.386 -26.725  1.00  0.00     0.004 C 
ENDROOT
BRANCH   1   2
ATOM      2  C   UNL     1       8.204  12.314 -25.729  1.00  0.00    -0.009 C 
BRANCH   2   3
ATOM      3  C   UNL     1       7.784  11.560 -24.435  1.00  0.00     0.000 C 
ATOM      4  C   UNL     1       8.892  11.529 -23.379  1.00  0.00     0.004 C 
ENDBRANCH   2   3
BRANCH   2   5
ATOM      5  C   UNL     1       9.494  11.706 -26.382  1.00  0.00    -0.014 C 
ATOM      6  C   UNL     1       9.211  11.134 -27.781  1.00  0.00     0.007 C 
ATOM      7  C   UNL     1      10.679  12.684 -26.434  1.00  0.00     0.007 C 
ENDBRANCH   2   5
ENDBRANCH   1   2
BRANCH   1   8
ATOM      8  C   UNL     1       6.626  13.829 -27.120  1.00  0.00     0.004 C 
BRANCH   8   9
ATOM      9  C   UNL     1       7.856  14.780 -27.174  1.00  0.00    -0.011 C 
ATOM     10  C   UNL     1       8.401  14.840 -28.616  1.00  0.00     0.008 C 
BRANCH   9  11
ATOM     11  C   UNL     1       7.608  16.247 -26.648  1.00  0.00    -0.002 C 
ATOM     12  C   UNL     1       6.154  16.620 -26.322  1.00  0.00     0.005 C 
ATOM     13  C   UNL     1       8.473  16.749 -25.452  1.00  0.00    -0.026 C 
ATOM     14  C   UNL     1       6.222  17.738 -25.280  1.00  0.00     0.005 C 
ATOM     15  C   UNL     1       7.710  18.040 -25.038  1.00  0.00    -0.001 C 
ATOM     16  C   UNL     1       8.505  15.733 -24.280  1.00  0.00     0.007 C 
ATOM     17  C   UNL     1       9.916  17.046 -25.947  1.00  0.00     0.012 C 
ATOM     18  C   UNL     1       7.978  18.594 -23.602  1.00  0.00     0.004 C 
ATOM     19  C   UNL     1       8.972  16.344 -22.950  1.00  0.00     0.005 C 
ATOM     20  C   UNL     1       8.021  17.482 -22.508  1.00  0.00     0.003 C 
ATOM     21  C   UNL     1       9.233  19.487 -23.581  1.00  0.00     0.085 C 
ATOM     22  C   UNL     1       8.271  18.063 -21.049  1.00  0.00    -0.000 C 
ATOM     23  C   UNL     1       9.536  20.008 -22.216  1.00  0.00     0.159 C 
ATOM     24  C   UNL     1       9.355  19.141 -21.033  1.00  0.00     0.005 C 
ATOM     25  C   UNL     1       8.667  16.928 -20.050  1.00  0.00     0.020 C 
ATOM     26  C   UNL     1       6.952  18.721 -20.555  1.00  0.00     0.017 C 
ATOM     27  O   UNL     1      10.020  21.167 -22.096  1.00  0.00    -0.295 OA
ATOM     28  C   UNL     1      10.039  19.415 -19.903  1.00  0.00     0.055 C 
ATOM     29  C   UNL     1       8.944  17.443 -18.632  1.00  0.00     0.081 C 
ATOM     30  C   UNL     1       9.862  18.629 -18.669  1.00  0.00     0.156 C 
ATOM     31  O   UNL     1      10.471  18.974 -17.623  1.00  0.00    -0.295 OA
ENDBRANCH   9  11
ENDBRANCH   8   9
ENDBRANCH   1   8
TORSDOF 6
ENDMDL
MODEL 9
REMARK VINA RESULT:    -6.649      2.986      7.618
REMARK INTER + INTRA:         -11.357
REMARK INTER:                  -8.957
REMARK INTRA:                  -2.400
REMARK UNBOUND:                -2.376
REMARK SMILES CC[C@H](CC[C@@H](C)[C@H]1CC[C@H]2[C@@H]3CC(=O)C4=CC(=O)CC[C@]4(C)[C@@H]3CC[C@@]12C)C(C)C
REMARK SMILES IDX 4 1 3 2 2 3 1 4 29 5 30 6 31 7 5 8 6 9 7 10 8 11 9 12 27 13
REMARK SMILES IDX 10 14 11 15 26 16 28 17 12 18 25 19 24 20 13 21 22 22 14 23
REMARK SMILES IDX 16 24 21 25 23 26 15 27 17 28 20 29 18 30 19 31
REMARK H PARENT
REMARK Flexibility Score: inf
ROOT
ATOM      1  C   UNL     1       7.708  12.462 -27.682  1.00  0.00     0.004 C 
ENDROOT
BRANCH   1   2
ATOM      2  C   UNL     1       6.612  13.351 -27.027  1.00  0.00    -0.009 C 
BRANCH   2   3
ATOM      3  C   UNL     1       6.422  12.963 -25.533  1.00  0.00     0.000 C 
ATOM      4  C   UNL     1       7.320  11.800 -25.102  1.00  0.00     0.004 C 
ENDBRANCH   2   3
BRANCH   2   5
ATOM      5  C   UNL     1       6.891  14.882 -27.215  1.00  0.00    -0.014 C 
ATOM      6  C   UNL     1       6.052  15.481 -28.357  1.00  0.00     0.007 C 
ATOM      7  C   UNL     1       6.707  15.706 -25.929  1.00  0.00     0.007 C 
ENDBRANCH   2   5
ENDBRANCH   1   2
BRANCH   1   8
ATOM      8  C   UNL     1       8.857  13.273 -28.319  1.00  0.00     0.004 C 
BRANCH   8   9
ATOM      9  C   UNL     1      10.200  13.110 -27.550  1.00  0.00    -0.011 C 
ATOM     10  C   UNL     1      11.195  12.305 -28.410  1.00  0.00     0.008 C 
BRANCH   9  11
ATOM     11  C   UNL     1      10.883  14.451 -27.077  1.00  0.00    -0.002 C 
ATOM     12  C   UNL     1      10.314  15.752 -27.663  1.00  0.00     0.005 C 
ATOM     13  C   UNL     1      11.042  14.689 -25.544  1.00  0.00    -0.026 C 
ATOM     14  C   UNL     1      10.628  16.853 -26.649  1.00  0.00     0.005 C 
ATOM     15  C   UNL     1      11.415  16.198 -25.501  1.00  0.00    -0.001 C 
ATOM     16  C   UNL     1       9.724  14.430 -24.768  1.00  0.00     0.007 C 
ATOM     17  C   UNL     1      12.178  13.781 -24.997  1.00  0.00     0.012 C 
ATOM     18  C   UNL     1      11.213  16.942 -24.142  1.00  0.00     0.004 C 
ATOM     19  C   UNL     1       9.709  15.044 -23.360  1.00  0.00     0.005 C 
ATOM     20  C   UNL     1       9.870  16.582 -23.434  1.00  0.00     0.003 C 
ATOM     21  C   UNL     1      12.434  16.749 -23.222  1.00  0.00     0.085 C 
ATOM     22  C   UNL     1       9.667  17.363 -22.065  1.00  0.00    -0.000 C 
ATOM     23  C   UNL     1      12.258  17.421 -21.901  1.00  0.00     0.159 C 
ATOM     24  C   UNL     1      10.945  17.402 -21.224  1.00  0.00     0.005 C 
ATOM     25  C   UNL     1       8.520  16.726 -21.216  1.00  0.00     0.020 C 
ATOM     26  C   UNL     1       9.283  18.832 -22.395  1.00  0.00     0.017 C 
ATOM     27  O   UNL     1      13.264  17.936 -21.338  1.00  0.00    -0.295 OA
ATOM     28  C   UNL     1      10.888  17.577 -19.888  1.00  0.00     0.055 C 
ATOM     29  C   UNL     1       8.303  17.431 -19.870  1.00  0.00     0.081 C 
ATOM     30  C   UNL     1       9.609  17.628 -19.159  1.00  0.00     0.156 C 
ATOM     31  O   UNL     1       9.611  17.866 -17.922  1.00  0.00    -0.295 OA
ENDBRANCH   9  11
ENDBRANCH   8   9
ENDBRANCH   1   8
TORSDOF 6
ENDMDL
