MODEL 1
REMARK VINA RESULT:    -3.619      0.000      0.000
REMARK INTER + INTRA:          -4.480
REMARK INTER:                  -4.253
REMARK INTRA:                  -0.227
REMARK UNBOUND:                -0.227
REMARK SMILES [NH3+][C@@H](CO)C(=O)[O-]
REMARK SMILES IDX 3 1 2 2 1 3 5 7 6 8 7 9 4 10
REMARK H PARENT 1 4 1 5 1 6 4 11
REMARK Flexibility Score: inf
ROOT
ATOM      1  C   UNL     1      -7.111  -4.958 -15.605  1.00  0.00     0.227 C 
ENDROOT
BRANCH   1   2
ATOM      2  C   UNL     1      -8.413  -5.398 -14.912  1.00  0.00     0.253 C 
BRANCH   2   3
ATOM      3  N   UNL     1      -9.122  -4.239 -14.358  1.00  0.00    -0.348 N 
ATOM      4  H   UNL     1      -9.883  -3.943 -15.012  1.00  0.00     0.345 HD
ATOM      5  H   UNL     1      -9.559  -4.495 -13.443  1.00  0.00     0.345 HD
ATOM      6  H   UNL     1      -8.466  -3.436 -14.213  1.00  0.00     0.345 HD
ENDBRANCH   2   3
BRANCH   2   7
ATOM      7  C   UNL     1      -8.127  -6.406 -13.830  1.00  0.00     0.102 C 
ATOM      8  O   UNL     1      -8.520  -6.207 -12.650  1.00  0.00    -0.544 OA
ATOM      9  O   UNL     1      -7.409  -7.558 -14.127  1.00  0.00    -0.544 OA
ENDBRANCH   2   7
ENDBRANCH   1   2
BRANCH   1  10
ATOM     10  O   UNL     1      -5.991  -5.342 -14.852  1.00  0.00    -0.390 OA
ATOM     11  H   UNL     1      -6.042  -4.847 -13.994  1.00  0.00     0.210 HD
ENDBRANCH   1  10
TORSDOF 4
ENDMDL
MODEL 2
REMARK VINA RESULT:    -3.608      2.232      3.020
REMARK INTER + INTRA:          -4.468
REMARK INTER:                  -4.230
REMARK INTRA:                  -0.238
REMARK UNBOUND:                -0.227
REMARK SMILES [NH3+][C@@H](CO)C(=O)[O-]
REMARK SMILES IDX 3 1 2 2 1 3 5 7 6 8 7 9 4 10
REMARK H PARENT 1 4 1 5 1 6 4 11
REMARK Flexibility Score: inf
ROOT
ATOM      1  C   UNL     1      -7.794  -6.184 -12.434  1.00  0.00     0.227 C 
ENDROOT
BRANCH   1   2
ATOM      2  C   UNL     1      -7.908  -6.353 -13.960  1.00  0.00     0.253 C 
BRANCH   2   3
ATOM      3  N   UNL     1      -6.720  -5.813 -14.631  1.00  0.00    -0.348 N 
ATOM      4  H   UNL     1      -6.957  -4.905 -15.094  1.00  0.00     0.345 HD
ATOM      5  H   UNL     1      -5.965  -5.635 -13.929  1.00  0.00     0.345 HD
ATOM      6  H   UNL     1      -6.365  -6.482 -15.354  1.00  0.00     0.345 HD
ENDBRANCH   2   3
BRANCH   2   7
ATOM      7  C   UNL     1      -9.154  -5.684 -14.479  1.00  0.00     0.102 C 
ATOM      8  O   UNL     1     -10.267  -6.269 -14.417  1.00  0.00    -0.544 OA
ATOM      9  O   UNL     1      -9.077  -4.418 -15.045  1.00  0.00    -0.544 OA
ENDBRANCH   2   7
ENDBRANCH   1   2
BRANCH   1  10
ATOM     10  O   UNL     1      -8.985  -6.567 -11.800  1.00  0.00    -0.390 OA
ATOM     11  H   UNL     1      -9.228  -7.457 -12.166  1.00  0.00     0.210 HD
ENDBRANCH   1  10
TORSDOF 4
ENDMDL
MODEL 3
REMARK VINA RESULT:    -3.575      1.998      2.792
REMARK INTER + INTRA:          -4.429
REMARK INTER:                  -4.410
REMARK INTRA:                  -0.019
REMARK UNBOUND:                -0.227
REMARK SMILES [NH3+][C@@H](CO)C(=O)[O-]
REMARK SMILES IDX 3 1 2 2 1 3 5 7 6 8 7 9 4 10
REMARK H PARENT 1 4 1 5 1 6 4 11
REMARK Flexibility Score: inf
ROOT
ATOM      1  C   UNL     1      -7.914  -6.702 -13.988  1.00  0.00     0.227 C 
ENDROOT
BRANCH   1   2
ATOM      2  C   UNL     1      -9.048  -5.666 -14.087  1.00  0.00     0.253 C 
BRANCH   2   3
ATOM      3  N   UNL     1     -10.328  -6.324 -14.375  1.00  0.00    -0.348 N 
ATOM      4  H   UNL     1     -11.038  -6.045 -13.659  1.00  0.00     0.345 HD
ATOM      5  H   UNL     1     -10.677  -6.025 -15.315  1.00  0.00     0.345 HD
ATOM      6  H   UNL     1     -10.221  -7.365 -14.363  1.00  0.00     0.345 HD
ENDBRANCH   2   3
BRANCH   2   7
ATOM      7  C   UNL     1      -8.738  -4.635 -15.141  1.00  0.00     0.102 C 
ATOM      8  O   UNL     1      -9.612  -3.802 -15.498  1.00  0.00    -0.544 OA
ATOM      9  O   UNL     1      -7.484  -4.610 -15.739  1.00  0.00    -0.544 OA
ENDBRANCH   2   7
ENDBRANCH   1   2
BRANCH   1  10
ATOM     10  O   UNL     1      -7.544  -6.909 -12.651  1.00  0.00    -0.390 OA
ATOM     11  H   UNL     1      -6.650  -6.494 -12.536  1.00  0.00     0.210 HD
ENDBRANCH   1  10
TORSDOF 4
ENDMDL
MODEL 4
REMARK VINA RESULT:    -3.541      2.294      2.947
REMARK INTER + INTRA:          -4.388
REMARK INTER:                  -4.159
REMARK INTRA:                  -0.230
REMARK UNBOUND:                -0.227
REMARK SMILES [NH3+][C@@H](CO)C(=O)[O-]
REMARK SMILES IDX 3 1 2 2 1 3 5 7 6 8 7 9 4 10
REMARK H PARENT 1 4 1 5 1 6 4 11
REMARK Flexibility Score: inf
ROOT
ATOM      1  C   UNL     1      -7.538  -7.577 -14.038  1.00  0.00     0.227 C 
ENDROOT
BRANCH   1   2
ATOM      2  C   UNL     1      -8.148  -6.308 -13.416  1.00  0.00     0.253 C 
BRANCH   2   3
ATOM      3  N   UNL     1      -8.703  -6.597 -12.089  1.00  0.00    -0.348 N 
ATOM      4  H   UNL     1      -9.055  -7.582 -12.059  1.00  0.00     0.345 HD
ATOM      5  H   UNL     1      -7.958  -6.495 -11.362  1.00  0.00     0.345 HD
ATOM      6  H   UNL     1      -9.492  -5.947 -11.866  1.00  0.00     0.345 HD
ENDBRANCH   2   3
BRANCH   2   7
ATOM      7  C   UNL     1      -9.211  -5.731 -14.315  1.00  0.00     0.102 C 
ATOM      8  O   UNL     1     -10.335  -6.289 -14.415  1.00  0.00    -0.544 OA
ATOM      9  O   UNL     1      -8.947  -4.584 -15.053  1.00  0.00    -0.544 OA
ENDBRANCH   2   7
ENDBRANCH   1   2
BRANCH   1  10
ATOM     10  O   UNL     1      -8.532  -8.532 -14.297  1.00  0.00    -0.390 OA
ATOM     11  H   UNL     1      -9.256  -8.374 -13.637  1.00  0.00     0.210 HD
ENDBRANCH   1  10
TORSDOF 4
ENDMDL
MODEL 5
REMARK VINA RESULT:    -3.534      2.386      2.728
REMARK INTER + INTRA:          -4.381
REMARK INTER:                  -4.152
REMARK INTRA:                  -0.229
REMARK UNBOUND:                -0.227
REMARK SMILES [NH3+][C@@H](CO)C(=O)[O-]
REMARK SMILES IDX 3 1 2 2 1 3 5 7 6 8 7 9 4 10
REMARK H PARENT 1 4 1 5 1 6 4 11
REMARK Flexibility Score: inf
ROOT
ATOM      1  C   UNL     1      -9.898  -4.156 -16.988  1.00  0.00     0.227 C 
ENDROOT
BRANCH   1   2
ATOM      2  C   UNL     1      -9.556  -3.865 -15.515  1.00  0.00     0.253 C 
BRANCH   2   3
ATOM      3  N   UNL     1      -9.013  -2.509 -15.368  1.00  0.00    -0.348 N 
ATOM      4  H   UNL     1      -9.762  -1.805 -15.562  1.00  0.00     0.345 HD
ATOM      5  H   UNL     1      -8.675  -2.367 -14.388  1.00  0.00     0.345 HD
ATOM      6  H   UNL     1      -8.219  -2.353 -16.032  1.00  0.00     0.345 HD
ENDBRANCH   2   3
BRANCH   2   7
ATOM      7  C   UNL     1      -8.582  -4.882 -14.982  1.00  0.00     0.102 C 
ATOM      8  O   UNL     1      -8.914  -5.658 -14.048  1.00  0.00    -0.544 OA
ATOM      9  O   UNL     1      -7.300  -4.958 -15.512  1.00  0.00    -0.544 OA
ENDBRANCH   2   7
ENDBRANCH   1   2
BRANCH   1  10
ATOM     10  O   UNL     1      -8.797  -3.893 -17.816  1.00  0.00    -0.390 OA
ATOM     11  H   UNL     1      -8.052  -4.461 -17.487  1.00  0.00     0.210 HD
ENDBRANCH   1  10
TORSDOF 4
ENDMDL
MODEL 6
REMARK VINA RESULT:    -3.507      2.396      3.313
REMARK INTER + INTRA:          -4.349
REMARK INTER:                  -4.342
REMARK INTRA:                  -0.007
REMARK UNBOUND:                -0.227
REMARK SMILES [NH3+][C@@H](CO)C(=O)[O-]
REMARK SMILES IDX 3 1 2 2 1 3 5 7 6 8 7 9 4 10
REMARK H PARENT 1 4 1 5 1 6 4 11
REMARK Flexibility Score: inf
ROOT
ATOM      1  C   UNL     1     -10.686  -6.303 -14.756  1.00  0.00     0.227 C 
ENDROOT
BRANCH   1   2
ATOM      2  C   UNL     1      -9.213  -6.222 -14.317  1.00  0.00     0.253 C 
BRANCH   2   3
ATOM      3  N   UNL     1      -9.111  -6.167 -12.854  1.00  0.00    -0.348 N 
ATOM      4  H   UNL     1      -9.363  -5.209 -12.517  1.00  0.00     0.345 HD
ATOM      5  H   UNL     1      -9.777  -6.850 -12.425  1.00  0.00     0.345 HD
ATOM      6  H   UNL     1      -8.138  -6.393 -12.540  1.00  0.00     0.345 HD
ENDBRANCH   2   3
BRANCH   2   7
ATOM      7  C   UNL     1      -8.537  -5.027 -14.936  1.00  0.00     0.102 C 
ATOM      8  O   UNL     1      -9.159  -3.941 -15.076  1.00  0.00    -0.544 OA
ATOM      9  O   UNL     1      -7.221  -5.123 -15.371  1.00  0.00    -0.544 OA
ENDBRANCH   2   7
ENDBRANCH   1   2
BRANCH   1  10
ATOM     10  O   UNL     1     -11.129  -7.633 -14.773  1.00  0.00    -0.390 OA
ATOM     11  H   UNL     1     -10.903  -7.996 -15.668  1.00  0.00     0.210 HD
ENDBRANCH   1  10
TORSDOF 4
ENDMDL
MODEL 7
REMARK VINA RESULT:    -3.495      1.847      2.341
REMARK INTER + INTRA:          -4.335
REMARK INTER:                  -4.112
REMARK INTRA:                  -0.223
REMARK UNBOUND:                -0.227
REMARK SMILES [NH3+][C@@H](CO)C(=O)[O-]
REMARK SMILES IDX 3 1 2 2 1 3 5 7 6 8 7 9 4 10
REMARK H PARENT 1 4 1 5 1 6 4 11
REMARK Flexibility Score: inf
ROOT
ATOM      1  C   UNL     1      -9.599  -5.514 -14.729  1.00  0.00     0.227 C 
ENDROOT
BRANCH   1   2
ATOM      2  C   UNL     1      -8.931  -6.623 -13.897  1.00  0.00     0.253 C 
BRANCH   2   3
ATOM      3  N   UNL     1      -8.973  -6.295 -12.467  1.00  0.00    -0.348 N 
ATOM      4  H   UNL     1      -8.257  -5.564 -12.251  1.00  0.00     0.345 HD
ATOM      5  H   UNL     1      -9.915  -5.915 -12.218  1.00  0.00     0.345 HD
ATOM      6  H   UNL     1      -8.780  -7.144 -11.885  1.00  0.00     0.345 HD
ENDBRANCH   2   3
BRANCH   2   7
ATOM      7  C   UNL     1      -7.509  -6.842 -14.344  1.00  0.00     0.102 C 
ATOM      8  O   UNL     1      -6.839  -5.893 -14.832  1.00  0.00    -0.544 OA
ATOM      9  O   UNL     1      -6.932  -8.101 -14.233  1.00  0.00    -0.544 OA
ENDBRANCH   2   7
ENDBRANCH   1   2
BRANCH   1  10
ATOM     10  O   UNL     1      -9.144  -4.249 -14.329  1.00  0.00    -0.390 OA
ATOM     11  H   UNL     1      -9.879  -3.609 -14.518  1.00  0.00     0.210 HD
ENDBRANCH   1  10
TORSDOF 4
ENDMDL
MODEL 8
REMARK VINA RESULT:    -3.484      2.403      2.575
REMARK INTER + INTRA:          -4.322
REMARK INTER:                  -4.097
REMARK INTRA:                  -0.226
REMARK UNBOUND:                -0.227
REMARK SMILES [NH3+][C@@H](CO)C(=O)[O-]
REMARK SMILES IDX 3 1 2 2 1 3 5 7 6 8 7 9 4 10
REMARK H PARENT 1 4 1 5 1 6 4 11
REMARK Flexibility Score: inf
ROOT
ATOM      1  C   UNL     1      -8.923  -4.188 -15.404  1.00  0.00     0.227 C 
ENDROOT
BRANCH   1   2
ATOM      2  C   UNL     1      -8.707  -5.262 -14.323  1.00  0.00     0.253 C 
BRANCH   2   3
ATOM      3  N   UNL     1      -7.322  -5.748 -14.346  1.00  0.00    -0.348 N 
ATOM      4  H   UNL     1      -7.192  -6.480 -13.610  1.00  0.00     0.345 HD
ATOM      5  H   UNL     1      -7.112  -6.178 -15.276  1.00  0.00     0.345 HD
ATOM      6  H   UNL     1      -6.651  -4.965 -14.169  1.00  0.00     0.345 HD
ENDBRANCH   2   3
BRANCH   2   7
ATOM      7  C   UNL     1      -9.668  -6.407 -14.510  1.00  0.00     0.102 C 
ATOM      8  O   UNL     1     -10.874  -6.189 -14.799  1.00  0.00    -0.544 OA
ATOM      9  O   UNL     1      -9.229  -7.715 -14.347  1.00  0.00    -0.544 OA
ENDBRANCH   2   7
ENDBRANCH   1   2
BRANCH   1  10
ATOM     10  O   UNL     1     -10.015  -3.369 -15.082  1.00  0.00    -0.390 OA
ATOM     11  H   UNL     1     -10.011  -2.620 -15.732  1.00  0.00     0.210 HD
ENDBRANCH   1  10
TORSDOF 4
ENDMDL
MODEL 9
REMARK VINA RESULT:    -3.433      1.383      2.651
REMARK INTER + INTRA:          -4.262
REMARK INTER:                  -4.071
REMARK INTRA:                  -0.191
REMARK UNBOUND:                -0.227
REMARK SMILES [NH3+][C@@H](CO)C(=O)[O-]
REMARK SMILES IDX 3 1 2 2 1 3 5 7 6 8 7 9 4 10
REMARK H PARENT 1 4 1 5 1 6 4 11
REMARK Flexibility Score: inf
ROOT
ATOM      1  C   UNL     1      -9.976  -6.885 -14.562  1.00  0.00     0.227 C 
ENDROOT
BRANCH   1   2
ATOM      2  C   UNL     1      -8.871  -6.035 -13.909  1.00  0.00     0.253 C 
BRANCH   2   3
ATOM      3  N   UNL     1      -9.041  -4.617 -14.245  1.00  0.00    -0.348 N 
ATOM      4  H   UNL     1      -8.305  -4.325 -14.929  1.00  0.00     0.345 HD
ATOM      5  H   UNL     1      -9.977  -4.466 -14.687  1.00  0.00     0.345 HD
ATOM      6  H   UNL     1      -8.965  -4.020 -13.388  1.00  0.00     0.345 HD
ENDBRANCH   2   3
BRANCH   2   7
ATOM      7  C   UNL     1      -7.508  -6.516 -14.333  1.00  0.00     0.102 C 
ATOM      8  O   UNL     1      -7.115  -7.674 -14.030  1.00  0.00    -0.544 OA
ATOM      9  O   UNL     1      -6.668  -5.675 -15.051  1.00  0.00    -0.544 OA
ENDBRANCH   2   7
ENDBRANCH   1   2
BRANCH   1  10
ATOM     10  O   UNL     1      -9.740  -8.252 -14.358  1.00  0.00    -0.390 OA
ATOM     11  H   UNL     1      -8.876  -8.460 -14.800  1.00  0.00     0.210 HD
ENDBRANCH   1  10
TORSDOF 4
ENDMDL
