MODEL 1
REMARK VINA RESULT:    -9.380      0.000      0.000
REMARK INTER + INTRA:         -11.049
REMARK INTER:                 -10.750
REMARK INTRA:                  -0.299
REMARK UNBOUND:                -0.299
REMARK SMILES CC1(C)CC[C@@]23CO[C@]4(C=C[C@@H]5[C@]6(C)CC[C@H](O)[C@@](C)(CO)[C@@H]6CC[C@]5(C)[C@]4(C)C[C@H]2O)[C@@H]3C1
REMARK SMILES IDX 1 1 2 2 4 3 5 4 6 5 7 6 8 7 9 8 33 9 34 10 10 11 11 12 12 13
REMARK SMILES IDX 13 14 15 15 16 16 17 17 19 18 23 19 24 20 25 21 26 22 28 23
REMARK SMILES IDX 30 24 31 25 29 26 27 27 20 28 14 29 3 30 32 31 21 33 22 34
REMARK SMILES IDX 18 36
REMARK H PARENT 32 32 22 35 18 37
REMARK Flexibility Score: inf
ROOT
ATOM      1  C   UNL     1      18.944  -1.835 -17.291  1.00  0.00     0.011 C 
ATOM      2  C   UNL     1      18.622  -0.426 -17.832  1.00  0.00    -0.035 C 
ATOM      3  C   UNL     1      18.298  -0.537 -19.337  1.00  0.00     0.007 C 
ATOM      4  C   UNL     1      18.123   0.831 -20.013  1.00  0.00     0.013 C 
ATOM      5  C   UNL     1      19.269   1.847 -19.734  1.00  0.00     0.026 C 
ATOM      6  C   UNL     1      20.590   1.495 -20.432  1.00  0.00     0.171 C 
ATOM      7  O   UNL     1      21.652   1.925 -19.599  1.00  0.00    -0.369 OA
ATOM      8  C   UNL     1      21.080   2.603 -18.487  1.00  0.00     0.096 C 
ATOM      9  C   UNL     1      19.719   1.886 -18.289  1.00  0.00     0.037 C 
ATOM     10  C   UNL     1      19.868   0.472 -17.652  1.00  0.00     0.014 C 
ATOM     11  C   UNL     1      21.990   2.403 -17.308  1.00  0.00     0.005 C 
ATOM     12  C   UNL     1      22.202   3.316 -16.357  1.00  0.00    -0.024 C 
ATOM     13  C   UNL     1      21.610   4.724 -16.312  1.00  0.00     0.024 C 
ATOM     14  C   UNL     1      21.029   5.035 -14.844  1.00  0.00    -0.022 C 
ATOM     15  C   UNL     1      20.340   3.771 -14.209  1.00  0.00     0.010 C 
ATOM     16  C   UNL     1      19.146   4.062 -13.279  1.00  0.00     0.033 C 
ATOM     17  C   UNL     1      19.303   5.357 -12.472  1.00  0.00     0.123 C 
ATOM     18  C   UNL     1      19.400   6.628 -13.401  1.00  0.00     0.020 C 
ATOM     19  C   UNL     1      20.006   6.245 -14.846  1.00  0.00     0.006 C 
ATOM     20  C   UNL     1      18.894   6.055 -15.936  1.00  0.00     0.005 C 
ATOM     21  C   UNL     1      19.228   5.095 -17.085  1.00  0.00     0.008 C 
ATOM     22  C   UNL     1      20.703   5.121 -17.557  1.00  0.00    -0.017 C 
ATOM     23  C   UNL     1      20.982   4.154 -18.843  1.00  0.00     0.009 C 
ATOM     24  C   UNL     1      19.934   4.349 -20.011  1.00  0.00     0.043 C 
ATOM     25  C   UNL     1      18.803   3.291 -20.120  1.00  0.00     0.124 C 
ATOM     26  C   UNL     1      22.380   4.558 -19.450  1.00  0.00     0.015 C 
ATOM     27  C   UNL     1      21.024   6.610 -17.976  1.00  0.00     0.013 C 
ATOM     28  C   UNL     1      17.995   7.307 -13.525  1.00  0.00     0.017 C 
ATOM     29  C   UNL     1      22.280   5.396 -13.977  1.00  0.00     0.012 C 
ATOM     30  C   UNL     1      17.415   0.127 -17.036  1.00  0.00     0.011 C 
ENDROOT
BRANCH  25  31
ATOM     31  O   UNL     1      18.308   3.309 -21.438  1.00  0.00    -0.392 OA
ATOM     32  H   UNL     1      18.045   2.380 -21.672  1.00  0.00     0.210 HD
ENDBRANCH  25  31
BRANCH  18  33
ATOM     33  C   UNL     1      20.312   7.709 -12.722  1.00  0.00     0.165 C 
BRANCH  33  34
ATOM     34  O   UNL     1      20.433   7.485 -11.344  1.00  0.00    -0.396 OA
ATOM     35  H   UNL     1      21.303   7.030 -11.207  1.00  0.00     0.210 HD
ENDBRANCH  33  34
ENDBRANCH  18  33
BRANCH  17  36
ATOM     36  O   UNL     1      18.218   5.446 -11.579  1.00  0.00    -0.392 OA
ATOM     37  H   UNL     1      18.569   5.287 -10.664  1.00  0.00     0.210 HD
ENDBRANCH  17  36
TORSDOF 4
ENDMDL
MODEL 2
REMARK VINA RESULT:    -9.308      8.489     10.576
REMARK INTER + INTRA:         -10.968
REMARK INTER:                 -10.902
REMARK INTRA:                  -0.066
REMARK UNBOUND:                -0.299
REMARK SMILES CC1(C)CC[C@@]23CO[C@]4(C=C[C@@H]5[C@]6(C)CC[C@H](O)[C@@](C)(CO)[C@@H]6CC[C@]5(C)[C@]4(C)C[C@H]2O)[C@@H]3C1
REMARK SMILES IDX 1 1 2 2 4 3 5 4 6 5 7 6 8 7 9 8 33 9 34 10 10 11 11 12 12 13
REMARK SMILES IDX 13 14 15 15 16 16 17 17 19 18 23 19 24 20 25 21 26 22 28 23
REMARK SMILES IDX 30 24 31 25 29 26 27 27 20 28 14 29 3 30 32 31 21 33 22 34
REMARK SMILES IDX 18 36
REMARK H PARENT 32 32 22 35 18 37
REMARK Flexibility Score: inf
ROOT
ATOM      1  C   UNL     1      14.550   5.844 -21.245  1.00  0.00     0.011 C 
ATOM      2  C   UNL     1      13.187   5.167 -20.983  1.00  0.00    -0.035 C 
ATOM      3  C   UNL     1      12.336   5.256 -22.269  1.00  0.00     0.007 C 
ATOM      4  C   UNL     1      10.898   4.758 -22.069  1.00  0.00     0.013 C 
ATOM      5  C   UNL     1      10.164   5.364 -20.837  1.00  0.00     0.026 C 
ATOM      6  C   UNL     1       9.795   6.845 -21.004  1.00  0.00     0.171 C 
ATOM      7  O   UNL     1       9.871   7.460 -19.730  1.00  0.00    -0.369 OA
ATOM      8  C   UNL     1      10.163   6.445 -18.778  1.00  0.00     0.096 C 
ATOM      9  C   UNL     1      11.012   5.428 -19.584  1.00  0.00     0.037 C 
ATOM     10  C   UNL     1      12.464   5.928 -19.849  1.00  0.00     0.014 C 
ATOM     11  C   UNL     1      10.955   7.072 -17.665  1.00  0.00     0.005 C 
ATOM     12  C   UNL     1      10.862   6.717 -16.382  1.00  0.00    -0.024 C 
ATOM     13  C   UNL     1       9.918   5.663 -15.805  1.00  0.00     0.024 C 
ATOM     14  C   UNL     1      10.717   4.691 -14.802  1.00  0.00    -0.022 C 
ATOM     15  C   UNL     1      12.169   4.380 -15.324  1.00  0.00     0.010 C 
ATOM     16  C   UNL     1      12.716   2.984 -14.971  1.00  0.00     0.033 C 
ATOM     17  C   UNL     1      12.250   2.474 -13.601  1.00  0.00     0.123 C 
ATOM     18  C   UNL     1      10.683   2.315 -13.528  1.00  0.00     0.020 C 
ATOM     19  C   UNL     1       9.949   3.330 -14.544  1.00  0.00     0.006 C 
ATOM     20  C   UNL     1       9.533   2.641 -15.891  1.00  0.00     0.005 C 
ATOM     21  C   UNL     1       9.460   3.551 -17.123  1.00  0.00     0.008 C 
ATOM     22  C   UNL     1       8.935   4.983 -16.854  1.00  0.00    -0.017 C 
ATOM     23  C   UNL     1       8.785   5.877 -18.213  1.00  0.00     0.009 C 
ATOM     24  C   UNL     1       8.022   5.125 -19.376  1.00  0.00     0.043 C 
ATOM     25  C   UNL     1       8.896   4.509 -20.501  1.00  0.00     0.124 C 
ATOM     26  C   UNL     1       7.899   7.134 -17.862  1.00  0.00     0.015 C 
ATOM     27  C   UNL     1       7.505   4.831 -16.199  1.00  0.00     0.013 C 
ATOM     28  C   UNL     1      10.285   0.826 -13.808  1.00  0.00     0.017 C 
ATOM     29  C   UNL     1      10.841   5.495 -13.465  1.00  0.00     0.012 C 
ATOM     30  C   UNL     1      13.455   3.695 -20.587  1.00  0.00     0.011 C 
ENDROOT
BRANCH  25  31
ATOM     31  O   UNL     1       8.094   4.354 -21.648  1.00  0.00    -0.392 OA
ATOM     32  H   UNL     1       7.712   5.244 -21.871  1.00  0.00     0.210 HD
ENDBRANCH  25  31
BRANCH  18  33
ATOM     33  C   UNL     1      10.192   2.594 -12.065  1.00  0.00     0.165 C 
BRANCH  33  34
ATOM     34  O   UNL     1       8.909   2.072 -11.845  1.00  0.00    -0.396 OA
ATOM     35  H   UNL     1       8.577   1.761 -12.726  1.00  0.00     0.210 HD
ENDBRANCH  33  34
ENDBRANCH  18  33
BRANCH  17  36
ATOM     36  O   UNL     1      12.911   1.258 -13.343  1.00  0.00    -0.392 OA
ATOM     37  H   UNL     1      13.865   1.377 -13.591  1.00  0.00     0.210 HD
ENDBRANCH  17  36
TORSDOF 4
ENDMDL
MODEL 3
REMARK VINA RESULT:    -9.000      1.852      7.104
REMARK INTER + INTRA:         -10.614
REMARK INTER:                 -10.562
REMARK INTRA:                  -0.053
REMARK UNBOUND:                -0.299
REMARK SMILES CC1(C)CC[C@@]23CO[C@]4(C=C[C@@H]5[C@]6(C)CC[C@H](O)[C@@](C)(CO)[C@@H]6CC[C@]5(C)[C@]4(C)C[C@H]2O)[C@@H]3C1
REMARK SMILES IDX 1 1 2 2 4 3 5 4 6 5 7 6 8 7 9 8 33 9 34 10 10 11 11 12 12 13
REMARK SMILES IDX 13 14 15 15 16 16 17 17 19 18 23 19 24 20 25 21 26 22 28 23
REMARK SMILES IDX 30 24 31 25 29 26 27 27 20 28 14 29 3 30 32 31 21 33 22 34
REMARK SMILES IDX 18 36
REMARK H PARENT 32 32 22 35 18 37
REMARK Flexibility Score: inf
ROOT
ATOM      1  C   UNL     1      16.114   6.820 -13.741  1.00  0.00     0.011 C 
ATOM      2  C   UNL     1      17.481   6.105 -13.713  1.00  0.00    -0.035 C 
ATOM      3  C   UNL     1      18.334   6.714 -12.579  1.00  0.00     0.007 C 
ATOM      4  C   UNL     1      19.776   6.187 -12.568  1.00  0.00     0.013 C 
ATOM      5  C   UNL     1      20.502   6.247 -13.944  1.00  0.00     0.026 C 
ATOM      6  C   UNL     1      20.859   7.670 -14.394  1.00  0.00     0.171 C 
ATOM      7  O   UNL     1      20.775   7.715 -15.807  1.00  0.00    -0.369 OA
ATOM      8  C   UNL     1      20.489   6.399 -16.264  1.00  0.00     0.096 C 
ATOM      9  C   UNL     1      19.651   5.791 -15.110  1.00  0.00     0.037 C 
ATOM     10  C   UNL     1      18.195   6.346 -15.063  1.00  0.00     0.014 C 
ATOM     11  C   UNL     1      19.690   6.514 -17.531  1.00  0.00     0.005 C 
ATOM     12  C   UNL     1      19.783   5.669 -18.561  1.00  0.00    -0.024 C 
ATOM     13  C   UNL     1      20.735   4.479 -18.665  1.00  0.00     0.024 C 
ATOM     14  C   UNL     1      19.941   3.178 -19.183  1.00  0.00    -0.022 C 
ATOM     15  C   UNL     1      18.494   3.096 -18.572  1.00  0.00     0.010 C 
ATOM     16  C   UNL     1      17.957   1.673 -18.325  1.00  0.00     0.033 C 
ATOM     17  C   UNL     1      18.425   0.654 -19.372  1.00  0.00     0.123 C 
ATOM     18  C   UNL     1      19.993   0.489 -19.383  1.00  0.00     0.020 C 
ATOM     19  C   UNL     1      20.721   1.834 -18.870  1.00  0.00     0.006 C 
ATOM     20  C   UNL     1      21.145   1.754 -17.362  1.00  0.00     0.005 C 
ATOM     21  C   UNL     1      21.213   3.087 -16.605  1.00  0.00     0.008 C 
ATOM     22  C   UNL     1      21.726   4.290 -17.435  1.00  0.00    -0.017 C 
ATOM     23  C   UNL     1      21.871   5.659 -16.558  1.00  0.00     0.009 C 
ATOM     24  C   UNL     1      22.643   5.449 -15.193  1.00  0.00     0.043 C 
ATOM     25  C   UNL     1      21.777   5.337 -13.910  1.00  0.00     0.124 C 
ATOM     26  C   UNL     1      22.746   6.671 -17.393  1.00  0.00     0.015 C 
ATOM     27  C   UNL     1      23.155   3.895 -17.980  1.00  0.00     0.013 C 
ATOM     28  C   UNL     1      20.405  -0.754 -18.525  1.00  0.00     0.017 C 
ATOM     29  C   UNL     1      19.808   3.369 -20.730  1.00  0.00     0.012 C 
ATOM     30  C   UNL     1      17.225   4.597 -13.476  1.00  0.00     0.011 C 
ENDROOT
BRANCH  25  31
ATOM     31  O   UNL     1      22.583   5.667 -12.803  1.00  0.00    -0.392 OA
ATOM     32  H   UNL     1      21.985   6.010 -12.088  1.00  0.00     0.210 HD
ENDBRANCH  25  31
BRANCH  18  33
ATOM     33  C   UNL     1      20.478   0.154 -20.836  1.00  0.00     0.165 C 
BRANCH  33  34
ATOM     34  O   UNL     1      21.660  -0.600 -20.821  1.00  0.00    -0.396 OA
ATOM     35  H   UNL     1      22.249  -0.188 -20.137  1.00  0.00     0.210 HD
ENDBRANCH  33  34
ENDBRANCH  18  33
BRANCH  17  36
ATOM     36  O   UNL     1      17.774  -0.567 -19.110  1.00  0.00    -0.392 OA
ATOM     37  H   UNL     1      18.474  -1.260 -18.990  1.00  0.00     0.210 HD
ENDBRANCH  17  36
TORSDOF 4
ENDMDL
MODEL 4
REMARK VINA RESULT:    -8.979      8.029     11.357
REMARK INTER + INTRA:         -10.590
REMARK INTER:                 -10.289
REMARK INTRA:                  -0.301
REMARK UNBOUND:                -0.299
REMARK SMILES CC1(C)CC[C@@]23CO[C@]4(C=C[C@@H]5[C@]6(C)CC[C@H](O)[C@@](C)(CO)[C@@H]6CC[C@]5(C)[C@]4(C)C[C@H]2O)[C@@H]3C1
REMARK SMILES IDX 1 1 2 2 4 3 5 4 6 5 7 6 8 7 9 8 33 9 34 10 10 11 11 12 12 13
REMARK SMILES IDX 13 14 15 15 16 16 17 17 19 18 23 19 24 20 25 21 26 22 28 23
REMARK SMILES IDX 30 24 31 25 29 26 27 27 20 28 14 29 3 30 32 31 21 33 22 34
REMARK SMILES IDX 18 36
REMARK H PARENT 32 32 22 35 18 37
REMARK Flexibility Score: inf
ROOT
ATOM      1  C   UNL     1      11.634  -1.134 -14.707  1.00  0.00     0.011 C 
ATOM      2  C   UNL     1      11.993   0.367 -14.711  1.00  0.00    -0.035 C 
ATOM      3  C   UNL     1      12.359   0.791 -13.272  1.00  0.00     0.007 C 
ATOM      4  C   UNL     1      12.575   2.305 -13.133  1.00  0.00     0.013 C 
ATOM      5  C   UNL     1      11.437   3.183 -13.731  1.00  0.00     0.026 C 
ATOM      6  C   UNL     1      10.131   3.136 -12.924  1.00  0.00     0.171 C 
ATOM      7  O   UNL     1       9.053   3.268 -13.833  1.00  0.00    -0.369 OA
ATOM      8  C   UNL     1       9.603   3.491 -15.126  1.00  0.00     0.096 C 
ATOM      9  C   UNL     1      10.946   2.717 -15.084  1.00  0.00     0.037 C 
ATOM     10  C   UNL     1      10.757   1.172 -15.172  1.00  0.00     0.014 C 
ATOM     11  C   UNL     1       8.655   2.907 -16.136  1.00  0.00     0.005 C 
ATOM     12  C   UNL     1       8.431   3.427 -17.345  1.00  0.00    -0.024 C 
ATOM     13  C   UNL     1       9.042   4.711 -17.902  1.00  0.00     0.024 C 
ATOM     14  C   UNL     1       9.585   4.464 -19.397  1.00  0.00    -0.022 C 
ATOM     15  C   UNL     1      10.236   3.040 -19.554  1.00  0.00     0.010 C 
ATOM     16  C   UNL     1      11.406   2.952 -20.552  1.00  0.00     0.033 C 
ATOM     17  C   UNL     1      11.247   3.878 -21.764  1.00  0.00     0.123 C 
ATOM     18  C   UNL     1      11.196   5.399 -21.348  1.00  0.00     0.020 C 
ATOM     19  C   UNL     1      10.627   5.570 -19.848  1.00  0.00     0.006 C 
ATOM     20  C   UNL     1      11.767   5.753 -18.786  1.00  0.00     0.005 C 
ATOM     21  C   UNL     1      11.452   5.274 -17.364  1.00  0.00     0.008 C 
ATOM     22  C   UNL     1       9.991   5.502 -16.900  1.00  0.00    -0.017 C 
ATOM     23  C   UNL     1       9.735   5.064 -15.349  1.00  0.00     0.009 C 
ATOM     24  C   UNL     1      10.820   5.636 -14.349  1.00  0.00     0.043 C 
ATOM     25  C   UNL     1      11.936   4.659 -13.895  1.00  0.00     0.124 C 
ATOM     26  C   UNL     1       8.361   5.693 -14.895  1.00  0.00     0.015 C 
ATOM     27  C   UNL     1       9.706   7.050 -17.033  1.00  0.00     0.013 C 
ATOM     28  C   UNL     1      12.615   6.042 -21.505  1.00  0.00     0.017 C 
ATOM     29  C   UNL     1       8.316   4.524 -20.309  1.00  0.00     0.012 C 
ATOM     30  C   UNL     1      13.185   0.569 -15.678  1.00  0.00     0.011 C 
ENDROOT
BRANCH  25  31
ATOM     31  O   UNL     1      12.470   5.131 -12.681  1.00  0.00    -0.392 OA
ATOM     32  H   UNL     1      12.569   4.353 -12.073  1.00  0.00     0.210 HD
ENDBRANCH  25  31
BRANCH  18  33
ATOM     33  C   UNL     1      10.282   6.189 -22.347  1.00  0.00     0.165 C 
BRANCH  33  34
ATOM     34  O   UNL     1      10.075   5.469 -23.532  1.00  0.00    -0.396 OA
ATOM     35  H   UNL     1      10.775   5.766 -24.169  1.00  0.00     0.210 HD
ENDBRANCH  33  34
ENDBRANCH  18  33
BRANCH  17  36
ATOM     36  O   UNL     1      12.307   3.616 -22.653  1.00  0.00    -0.392 OA
ATOM     37  H   UNL     1      12.902   2.948 -22.222  1.00  0.00     0.210 HD
ENDBRANCH  17  36
TORSDOF 4
ENDMDL
MODEL 5
REMARK VINA RESULT:    -8.885     12.792     16.750
REMARK INTER + INTRA:         -10.483
REMARK INTER:                 -10.429
REMARK INTRA:                  -0.054
REMARK UNBOUND:                -0.299
REMARK SMILES CC1(C)CC[C@@]23CO[C@]4(C=C[C@@H]5[C@]6(C)CC[C@H](O)[C@@](C)(CO)[C@@H]6CC[C@]5(C)[C@]4(C)C[C@H]2O)[C@@H]3C1
REMARK SMILES IDX 1 1 2 2 4 3 5 4 6 5 7 6 8 7 9 8 33 9 34 10 10 11 11 12 12 13
REMARK SMILES IDX 13 14 15 15 16 16 17 17 19 18 23 19 24 20 25 21 26 22 28 23
REMARK SMILES IDX 30 24 31 25 29 26 27 27 20 28 14 29 3 30 32 31 21 33 22 34
REMARK SMILES IDX 18 36
REMARK H PARENT 32 32 22 35 18 37
REMARK Flexibility Score: inf
ROOT
ATOM      1  C   UNL     1      13.119  -8.956 -10.730  1.00  0.00     0.011 C 
ATOM      2  C   UNL     1      11.824  -8.376 -11.338  1.00  0.00    -0.035 C 
ATOM      3  C   UNL     1      10.698  -8.472 -10.286  1.00  0.00     0.007 C 
ATOM      4  C   UNL     1       9.325  -8.072 -10.844  1.00  0.00     0.013 C 
ATOM      5  C   UNL     1       8.938  -8.767 -12.182  1.00  0.00     0.026 C 
ATOM      6  C   UNL     1       8.617 -10.261 -12.034  1.00  0.00     0.171 C 
ATOM      7  O   UNL     1       9.026 -10.915 -13.222  1.00  0.00    -0.369 OA
ATOM      8  C   UNL     1       9.483  -9.918 -14.127  1.00  0.00     0.096 C 
ATOM      9  C   UNL     1      10.061  -8.822 -13.195  1.00  0.00     0.037 C 
ATOM     10  C   UNL     1      11.433  -9.221 -12.572  1.00  0.00     0.014 C 
ATOM     11  C   UNL     1      10.549 -10.533 -14.991  1.00  0.00     0.005 C 
ATOM     12  C   UNL     1      10.745 -10.231 -16.276  1.00  0.00    -0.024 C 
ATOM     13  C   UNL     1       9.911  -9.259 -17.110  1.00  0.00     0.024 C 
ATOM     14  C   UNL     1      10.874  -8.276 -17.943  1.00  0.00    -0.022 C 
ATOM     15  C   UNL     1      12.141  -7.856 -17.110  1.00  0.00     0.010 C 
ATOM     16  C   UNL     1      12.683  -6.441 -17.393  1.00  0.00     0.033 C 
ATOM     17  C   UNL     1      12.530  -6.010 -18.857  1.00  0.00     0.123 C 
ATOM     18  C   UNL     1      11.019  -5.952 -19.305  1.00  0.00     0.020 C 
ATOM     19  C   UNL     1      10.119  -6.974 -18.441  1.00  0.00     0.006 C 
ATOM     20  C   UNL     1       9.359  -6.266 -17.266  1.00  0.00     0.005 C 
ATOM     21  C   UNL     1       9.043  -7.134 -16.042  1.00  0.00     0.008 C 
ATOM     22  C   UNL     1       8.672  -8.605 -16.356  1.00  0.00    -0.017 C 
ATOM     23  C   UNL     1       8.251  -9.458 -15.029  1.00  0.00     0.009 C 
ATOM     24  C   UNL     1       7.195  -8.714 -14.116  1.00  0.00     0.043 C 
ATOM     25  C   UNL     1       7.742  -8.005 -12.849  1.00  0.00     0.124 C 
ATOM     26  C   UNL     1       7.541 -10.779 -15.516  1.00  0.00     0.015 C 
ATOM     27  C   UNL     1       7.434  -8.566 -17.336  1.00  0.00     0.013 C 
ATOM     28  C   UNL     1      10.488  -4.483 -19.200  1.00  0.00     0.017 C 
ATOM     29  C   UNL     1      11.354  -9.116 -19.172  1.00  0.00     0.012 C 
ATOM     30  C   UNL     1      12.101  -6.905 -11.732  1.00  0.00     0.011 C 
ENDROOT
BRANCH  25  31
ATOM     31  O   UNL     1       6.683  -7.861 -11.931  1.00  0.00    -0.392 OA
ATOM     32  H   UNL     1       7.045  -8.042 -11.025  1.00  0.00     0.210 HD
ENDBRANCH  25  31
BRANCH  18  33
ATOM     33  C   UNL     1      10.906  -6.314 -20.826  1.00  0.00     0.165 C 
BRANCH  33  34
ATOM     34  O   UNL     1      10.183  -5.342 -21.532  1.00  0.00    -0.396 OA
ATOM     35  H   UNL     1      10.269  -4.498 -21.019  1.00  0.00     0.210 HD
ENDBRANCH  33  34
ENDBRANCH  18  33
BRANCH  17  36
ATOM     36  O   UNL     1      13.168  -4.765 -19.012  1.00  0.00    -0.392 OA
ATOM     37  H   UNL     1      13.427  -4.678 -19.966  1.00  0.00     0.210 HD
ENDBRANCH  17  36
TORSDOF 4
ENDMDL
MODEL 6
REMARK VINA RESULT:    -8.795      1.681      2.980
REMARK INTER + INTRA:         -10.379
REMARK INTER:                 -10.134
REMARK INTRA:                  -0.246
REMARK UNBOUND:                -0.299
REMARK SMILES CC1(C)CC[C@@]23CO[C@]4(C=C[C@@H]5[C@]6(C)CC[C@H](O)[C@@](C)(CO)[C@@H]6CC[C@]5(C)[C@]4(C)C[C@H]2O)[C@@H]3C1
REMARK SMILES IDX 1 1 2 2 4 3 5 4 6 5 7 6 8 7 9 8 33 9 34 10 10 11 11 12 12 13
REMARK SMILES IDX 13 14 15 15 16 16 17 17 19 18 23 19 24 20 25 21 26 22 28 23
REMARK SMILES IDX 30 24 31 25 29 26 27 27 20 28 14 29 3 30 32 31 21 33 22 34
REMARK SMILES IDX 18 36
REMARK H PARENT 32 32 22 35 18 37
REMARK Flexibility Score: inf
ROOT
ATOM      1  C   UNL     1      22.140  -0.235 -20.280  1.00  0.00     0.011 C 
ATOM      2  C   UNL     1      20.856   0.165 -19.522  1.00  0.00    -0.035 C 
ATOM      3  C   UNL     1      19.657  -0.569 -20.160  1.00  0.00     0.007 C 
ATOM      4  C   UNL     1      18.307  -0.118 -19.587  1.00  0.00     0.013 C 
ATOM      5  C   UNL     1      18.098   1.425 -19.551  1.00  0.00     0.026 C 
ATOM      6  C   UNL     1      17.898   2.055 -20.937  1.00  0.00     0.171 C 
ATOM      7  O   UNL     1      18.462   3.354 -20.910  1.00  0.00    -0.369 OA
ATOM      8  C   UNL     1      18.906   3.604 -19.582  1.00  0.00     0.096 C 
ATOM      9  C   UNL     1      19.303   2.198 -19.063  1.00  0.00     0.037 C 
ATOM     10  C   UNL     1      20.647   1.689 -19.668  1.00  0.00     0.014 C 
ATOM     11  C   UNL     1      20.091   4.526 -19.658  1.00  0.00     0.005 C 
ATOM     12  C   UNL     1      20.368   5.472 -18.758  1.00  0.00    -0.024 C 
ATOM     13  C   UNL     1      19.527   5.824 -17.533  1.00  0.00     0.024 C 
ATOM     14  C   UNL     1      20.467   5.960 -16.234  1.00  0.00    -0.022 C 
ATOM     15  C   UNL     1      21.617   4.885 -16.232  1.00  0.00     0.010 C 
ATOM     16  C   UNL     1      22.054   4.384 -14.842  1.00  0.00     0.033 C 
ATOM     17  C   UNL     1      21.989   5.464 -13.755  1.00  0.00     0.123 C 
ATOM     18  C   UNL     1      20.523   6.002 -13.538  1.00  0.00     0.020 C 
ATOM     19  C   UNL     1      19.646   5.852 -14.883  1.00  0.00     0.006 C 
ATOM     20  C   UNL     1      18.729   4.579 -14.868  1.00  0.00     0.005 C 
ATOM     21  C   UNL     1      18.387   3.973 -16.235  1.00  0.00     0.008 C 
ATOM     22  C   UNL     1      18.176   5.000 -17.376  1.00  0.00    -0.017 C 
ATOM     23  C   UNL     1      17.719   4.309 -18.783  1.00  0.00     0.009 C 
ATOM     24  C   UNL     1      16.528   3.282 -18.619  1.00  0.00     0.043 C 
ATOM     25  C   UNL     1      16.901   1.776 -18.603  1.00  0.00     0.124 C 
ATOM     26  C   UNL     1      17.172   5.453 -19.721  1.00  0.00     0.015 C 
ATOM     27  C   UNL     1      17.027   5.976 -16.906  1.00  0.00     0.013 C 
ATOM     28  C   UNL     1      19.858   5.264 -12.328  1.00  0.00     0.017 C 
ATOM     29  C   UNL     1      21.122   7.375 -16.349  1.00  0.00     0.012 C 
ATOM     30  C   UNL     1      21.035  -0.236 -18.038  1.00  0.00     0.011 C 
ENDROOT
BRANCH  25  31
ATOM     31  O   UNL     1      15.759   1.034 -18.963  1.00  0.00    -0.392 OA
ATOM     32  H   UNL     1      15.051   1.229 -18.295  1.00  0.00     0.210 HD
ENDBRANCH  25  31
BRANCH  18  33
ATOM     33  C   UNL     1      20.572   7.511 -13.112  1.00  0.00     0.165 C 
BRANCH  33  34
ATOM     34  O   UNL     1      21.310   7.687 -11.934  1.00  0.00    -0.396 OA
ATOM     35  H   UNL     1      20.724   7.399 -11.188  1.00  0.00     0.210 HD
ENDBRANCH  33  34
ENDBRANCH  18  33
BRANCH  17  36
ATOM     36  O   UNL     1      22.527   4.923 -12.572  1.00  0.00    -0.392 OA
ATOM     37  H   UNL     1      23.036   4.107 -12.820  1.00  0.00     0.210 HD
ENDBRANCH  17  36
TORSDOF 4
ENDMDL
MODEL 7
REMARK VINA RESULT:    -8.711      7.884     10.877
REMARK INTER + INTRA:         -10.284
REMARK INTER:                 -10.039
REMARK INTRA:                  -0.244
REMARK UNBOUND:                -0.299
REMARK SMILES CC1(C)CC[C@@]23CO[C@]4(C=C[C@@H]5[C@]6(C)CC[C@H](O)[C@@](C)(CO)[C@@H]6CC[C@]5(C)[C@]4(C)C[C@H]2O)[C@@H]3C1
REMARK SMILES IDX 1 1 2 2 4 3 5 4 6 5 7 6 8 7 9 8 33 9 34 10 10 11 11 12 12 13
REMARK SMILES IDX 13 14 15 15 16 16 17 17 19 18 23 19 24 20 25 21 26 22 28 23
REMARK SMILES IDX 30 24 31 25 29 26 27 27 20 28 14 29 3 30 32 31 21 33 22 34
REMARK SMILES IDX 18 36
REMARK H PARENT 32 32 22 35 18 37
REMARK Flexibility Score: inf
ROOT
ATOM      1  C   UNL     1       8.472   2.135 -12.493  1.00  0.00     0.011 C 
ATOM      2  C   UNL     1       9.754   2.152 -13.352  1.00  0.00    -0.035 C 
ATOM      3  C   UNL     1      10.941   1.694 -12.477  1.00  0.00     0.007 C 
ATOM      4  C   UNL     1      12.294   1.830 -13.188  1.00  0.00     0.013 C 
ATOM      5  C   UNL     1      12.550   3.220 -13.841  1.00  0.00     0.026 C 
ATOM      6  C   UNL     1      12.793   4.345 -12.826  1.00  0.00     0.171 C 
ATOM      7  O   UNL     1      12.268   5.543 -13.370  1.00  0.00    -0.369 OA
ATOM      8  C   UNL     1      11.810   5.256 -14.685  1.00  0.00     0.096 C 
ATOM      9  C   UNL     1      11.360   3.775 -14.594  1.00  0.00     0.037 C 
ATOM     10  C   UNL     1      10.013   3.598 -13.831  1.00  0.00     0.014 C 
ATOM     11  C   UNL     1      10.655   6.171 -14.981  1.00  0.00     0.005 C 
ATOM     12  C   UNL     1      10.391   6.686 -16.184  1.00  0.00    -0.024 C 
ATOM     13  C   UNL     1      11.222   6.488 -17.450  1.00  0.00     0.024 C 
ATOM     14  C   UNL     1      10.263   6.123 -18.691  1.00  0.00    -0.022 C 
ATOM     15  C   UNL     1       9.081   5.180 -18.257  1.00  0.00     0.010 C 
ATOM     16  C   UNL     1       8.604   4.179 -19.327  1.00  0.00     0.033 C 
ATOM     17  C   UNL     1       8.684   4.729 -20.757  1.00  0.00     0.123 C 
ATOM     18  C   UNL     1      10.162   5.083 -21.177  1.00  0.00     0.020 C 
ATOM     19  C   UNL     1      11.058   5.454 -19.888  1.00  0.00     0.006 C 
ATOM     20  C   UNL     1      11.934   4.251 -19.394  1.00  0.00     0.005 C 
ATOM     21  C   UNL     1      12.281   4.232 -17.900  1.00  0.00     0.008 C 
ATOM     22  C   UNL     1      12.544   5.622 -17.268  1.00  0.00    -0.017 C 
ATOM     23  C   UNL     1      13.003   5.538 -15.704  1.00  0.00     0.009 C 
ATOM     24  C   UNL     1      14.160   4.490 -15.446  1.00  0.00     0.043 C 
ATOM     25  C   UNL     1      13.740   3.119 -14.855  1.00  0.00     0.124 C 
ATOM     26  C   UNL     1      13.602   6.943 -15.306  1.00  0.00     0.015 C 
ATOM     27  C   UNL     1      13.714   6.287 -18.095  1.00  0.00     0.013 C 
ATOM     28  C   UNL     1      10.783   3.898 -21.991  1.00  0.00     0.017 C 
ATOM     29  C   UNL     1       9.654   7.488 -19.152  1.00  0.00     0.012 C 
ATOM     30  C   UNL     1       9.537   1.196 -14.550  1.00  0.00     0.011 C 
ENDROOT
BRANCH  25  31
ATOM     31  O   UNL     1      14.865   2.544 -14.231  1.00  0.00    -0.392 OA
ATOM     32  H   UNL     1      15.021   3.035 -13.382  1.00  0.00     0.210 HD
ENDBRANCH  25  31
BRANCH  18  33
ATOM     33  C   UNL     1      10.152   6.294 -22.172  1.00  0.00     0.165 C 
BRANCH  33  34
ATOM     34  O   UNL     1       9.405   6.007 -23.323  1.00  0.00    -0.396 OA
ATOM     35  H   UNL     1       8.453   6.154 -23.085  1.00  0.00     0.210 HD
ENDBRANCH  33  34
ENDBRANCH  18  33
BRANCH  17  36
ATOM     36  O   UNL     1       8.109   3.778 -21.621  1.00  0.00    -0.392 OA
ATOM     37  H   UNL     1       7.674   4.272 -22.364  1.00  0.00     0.210 HD
ENDBRANCH  17  36
TORSDOF 4
ENDMDL
MODEL 8
REMARK VINA RESULT:    -8.592      8.082     10.485
REMARK INTER + INTRA:         -10.147
REMARK INTER:                  -9.909
REMARK INTRA:                  -0.238
REMARK UNBOUND:                -0.299
REMARK SMILES CC1(C)CC[C@@]23CO[C@]4(C=C[C@@H]5[C@]6(C)CC[C@H](O)[C@@](C)(CO)[C@@H]6CC[C@]5(C)[C@]4(C)C[C@H]2O)[C@@H]3C1
REMARK SMILES IDX 1 1 2 2 4 3 5 4 6 5 7 6 8 7 9 8 33 9 34 10 10 11 11 12 12 13
REMARK SMILES IDX 13 14 15 15 16 16 17 17 19 18 23 19 24 20 25 21 26 22 28 23
REMARK SMILES IDX 30 24 31 25 29 26 27 27 20 28 14 29 3 30 32 31 21 33 22 34
REMARK SMILES IDX 18 36
REMARK H PARENT 32 32 22 35 18 37
REMARK Flexibility Score: inf
ROOT
ATOM      1  C   UNL     1      14.752   7.756 -19.403  1.00  0.00     0.011 C 
ATOM      2  C   UNL     1      13.611   6.727 -19.548  1.00  0.00    -0.035 C 
ATOM      3  C   UNL     1      12.854   7.011 -20.864  1.00  0.00     0.007 C 
ATOM      4  C   UNL     1      11.595   6.148 -21.027  1.00  0.00     0.013 C 
ATOM      5  C   UNL     1      10.645   6.142 -19.794  1.00  0.00     0.026 C 
ATOM      6  C   UNL     1       9.899   7.467 -19.582  1.00  0.00     0.171 C 
ATOM      7  O   UNL     1       9.721   7.649 -18.189  1.00  0.00    -0.369 OA
ATOM      8  C   UNL     1      10.215   6.486 -17.535  1.00  0.00     0.096 C 
ATOM      9  C   UNL     1      11.359   6.008 -18.466  1.00  0.00     0.037 C 
ATOM     10  C   UNL     1      12.635   6.897 -18.362  1.00  0.00     0.014 C 
ATOM     11  C   UNL     1      10.732   6.900 -16.186  1.00  0.00     0.005 C 
ATOM     12  C   UNL     1      10.654   6.148 -15.086  1.00  0.00    -0.024 C 
ATOM     13  C   UNL     1       9.996   4.773 -14.980  1.00  0.00     0.024 C 
ATOM     14  C   UNL     1      10.961   3.755 -14.192  1.00  0.00    -0.022 C 
ATOM     15  C   UNL     1      12.473   3.979 -14.564  1.00  0.00     0.010 C 
ATOM     16  C   UNL     1      13.355   2.715 -14.550  1.00  0.00     0.033 C 
ATOM     17  C   UNL     1      12.956   1.705 -13.468  1.00  0.00     0.123 C 
ATOM     18  C   UNL     1      11.489   1.162 -13.673  1.00  0.00     0.020 C 
ATOM     19  C   UNL     1      10.576   2.239 -14.451  1.00  0.00     0.006 C 
ATOM     20  C   UNL     1      10.453   1.932 -15.984  1.00  0.00     0.005 C 
ATOM     21  C   UNL     1      10.216   3.139 -16.901  1.00  0.00     0.008 C 
ATOM     22  C   UNL     1       9.305   4.245 -16.312  1.00  0.00    -0.017 C 
ATOM     23  C   UNL     1       9.008   5.458 -17.364  1.00  0.00     0.009 C 
ATOM     24  C   UNL     1       8.557   4.952 -18.793  1.00  0.00     0.043 C 
ATOM     25  C   UNL     1       9.637   4.949 -19.907  1.00  0.00     0.124 C 
ATOM     26  C   UNL     1       7.793   6.291 -16.801  1.00  0.00     0.015 C 
ATOM     27  C   UNL     1       7.931   3.558 -15.945  1.00  0.00     0.013 C 
ATOM     28  C   UNL     1      11.529  -0.212 -14.423  1.00  0.00     0.017 C 
ATOM     29  C   UNL     1      10.774   4.101 -12.678  1.00  0.00     0.012 C 
ATOM     30  C   UNL     1      14.241   5.314 -19.556  1.00  0.00     0.011 C 
ENDROOT
BRANCH  25  31
ATOM     31  O   UNL     1       8.984   4.977 -21.155  1.00  0.00    -0.392 OA
ATOM     32  H   UNL     1       9.533   5.532 -21.768  1.00  0.00     0.210 HD
ENDBRANCH  25  31
BRANCH  18  33
ATOM     33  C   UNL     1      10.846   0.841 -12.279  1.00  0.00     0.165 C 
BRANCH  33  34
ATOM     34  O   UNL     1      11.565  -0.152 -11.599  1.00  0.00    -0.396 OA
ATOM     35  H   UNL     1      11.204  -1.023 -11.908  1.00  0.00     0.210 HD
ENDBRANCH  33  34
ENDBRANCH  18  33
BRANCH  17  36
ATOM     36  O   UNL     1      13.903   0.663 -13.476  1.00  0.00    -0.392 OA
ATOM     37  H   UNL     1      14.174   0.511 -14.419  1.00  0.00     0.210 HD
ENDBRANCH  17  36
TORSDOF 4
ENDMDL
MODEL 9
REMARK VINA RESULT:    -8.334     10.774     15.009
REMARK INTER + INTRA:          -9.851
REMARK INTER:                  -9.569
REMARK INTRA:                  -0.282
REMARK UNBOUND:                -0.299
REMARK SMILES CC1(C)CC[C@@]23CO[C@]4(C=C[C@@H]5[C@]6(C)CC[C@H](O)[C@@](C)(CO)[C@@H]6CC[C@]5(C)[C@]4(C)C[C@H]2O)[C@@H]3C1
REMARK SMILES IDX 1 1 2 2 4 3 5 4 6 5 7 6 8 7 9 8 33 9 34 10 10 11 11 12 12 13
REMARK SMILES IDX 13 14 15 15 16 16 17 17 19 18 23 19 24 20 25 21 26 22 28 23
REMARK SMILES IDX 30 24 31 25 29 26 27 27 20 28 14 29 3 30 32 31 21 33 22 34
REMARK SMILES IDX 18 36
REMARK H PARENT 32 32 22 35 18 37
REMARK Flexibility Score: inf
ROOT
ATOM      1  C   UNL     1      12.375  -2.299 -18.045  1.00  0.00     0.011 C 
ATOM      2  C   UNL     1      12.872  -3.732 -17.760  1.00  0.00    -0.035 C 
ATOM      3  C   UNL     1      13.813  -4.165 -18.905  1.00  0.00     0.007 C 
ATOM      4  C   UNL     1      14.236  -5.637 -18.806  1.00  0.00     0.013 C 
ATOM      5  C   UNL     1      13.062  -6.640 -18.600  1.00  0.00     0.026 C 
ATOM      6  C   UNL     1      12.175  -6.816 -19.841  1.00  0.00     0.171 C 
ATOM      7  O   UNL     1      10.851  -7.057 -19.399  1.00  0.00    -0.369 OA
ATOM      8  C   UNL     1      10.879  -7.141 -17.979  1.00  0.00     0.096 C 
ATOM      9  C   UNL     1      12.036  -6.187 -17.585  1.00  0.00     0.037 C 
ATOM     10  C   UNL     1      11.654  -4.682 -17.725  1.00  0.00     0.014 C 
ATOM     11  C   UNL     1       9.554  -6.652 -17.463  1.00  0.00     0.005 C 
ATOM     12  C   UNL     1       8.939  -7.142 -16.385  1.00  0.00    -0.024 C 
ATOM     13  C   UNL     1       9.428  -8.299 -15.516  1.00  0.00     0.024 C 
ATOM     14  C   UNL     1       9.318  -7.910 -13.959  1.00  0.00    -0.022 C 
ATOM     15  C   UNL     1       9.691  -6.403 -13.706  1.00  0.00     0.010 C 
ATOM     16  C   UNL     1      10.365  -6.103 -12.353  1.00  0.00     0.033 C 
ATOM     17  C   UNL     1       9.855  -6.986 -11.208  1.00  0.00     0.123 C 
ATOM     18  C   UNL     1      10.142  -8.516 -11.463  1.00  0.00     0.020 C 
ATOM     19  C   UNL     1      10.221  -8.835 -13.042  1.00  0.00     0.006 C 
ATOM     20  C   UNL     1      11.696  -8.903 -13.572  1.00  0.00     0.005 C 
ATOM     21  C   UNL     1      11.905  -8.539 -15.047  1.00  0.00     0.008 C 
ATOM     22  C   UNL     1      10.774  -8.993 -16.004  1.00  0.00    -0.017 C 
ATOM     23  C   UNL     1      11.092  -8.667 -17.571  1.00  0.00     0.009 C 
ATOM     24  C   UNL     1      12.536  -9.125 -18.026  1.00  0.00     0.043 C 
ATOM     25  C   UNL     1      13.623  -8.021 -18.117  1.00  0.00     0.124 C 
ATOM     26  C   UNL     1      10.082  -9.505 -18.447  1.00  0.00     0.015 C 
ATOM     27  C   UNL     1      10.637 -10.558 -15.839  1.00  0.00     0.013 C 
ATOM     28  C   UNL     1      11.452  -8.944 -10.720  1.00  0.00     0.017 C 
ATOM     29  C   UNL     1       7.810  -8.108 -13.593  1.00  0.00     0.012 C 
ATOM     30  C   UNL     1      13.611  -3.719 -16.400  1.00  0.00     0.011 C 
ENDROOT
BRANCH  25  31
ATOM     31  O   UNL     1      14.635  -8.468 -18.988  1.00  0.00    -0.392 OA
ATOM     32  H   UNL     1      14.606  -9.461 -18.998  1.00  0.00     0.210 HD
ENDBRANCH  25  31
BRANCH  18  33
ATOM     33  C   UNL     1       9.008  -9.381 -10.812  1.00  0.00     0.165 C 
BRANCH  33  34
ATOM     34  O   UNL     1       8.479  -8.760  -9.672  1.00  0.00    -0.396 OA
ATOM     35  H   UNL     1       9.156  -8.101  -9.370  1.00  0.00     0.210 HD
ENDBRANCH  33  34
ENDBRANCH  18  33
BRANCH  17  36
ATOM     36  O   UNL     1      10.450  -6.536 -10.014  1.00  0.00    -0.392 OA
ATOM     37  H   UNL     1      10.068  -7.069  -9.269  1.00  0.00     0.210 HD
ENDBRANCH  17  36
TORSDOF 4
ENDMDL
