MODEL 1
REMARK VINA RESULT:    -3.979      0.000      0.000
REMARK INTER + INTRA:          -4.635
REMARK INTER:                  -4.561
REMARK INTRA:                  -0.074
REMARK UNBOUND:                -0.074
REMARK SMILES COc1cc(C(=O)[O-])ccc1O
REMARK SMILES IDX 5 1 9 2 4 3 10 4 3 5 11 6 6 7 7 8 8 9 2 10 1 11 12 12
REMARK H PARENT 12 13
REMARK Flexibility Score: inf
ROOT
ATOM      1  C   UNL     1      -3.154   8.736   5.490  1.00  0.00     0.001 A 
ATOM      2  C   UNL     1      -3.868   9.873   5.081  1.00  0.00     0.014 A 
ATOM      3  C   UNL     1      -3.804   7.766   6.274  1.00  0.00     0.060 A 
ATOM      4  C   UNL     1      -5.204  10.038   5.447  1.00  0.00     0.051 A 
ATOM      5  C   UNL     1      -5.154   7.929   6.648  1.00  0.00     0.161 A 
ATOM      6  C   UNL     1      -5.850   9.075   6.226  1.00  0.00     0.157 A 
ENDROOT
BRANCH   1   7
ATOM      7  C   UNL     1      -1.736   8.566   5.099  1.00  0.00     0.072 C 
ATOM      8  O   UNL     1      -1.433   7.985   4.022  1.00  0.00    -0.545 OA
ATOM      9  O   UNL     1      -0.718   9.046   5.913  1.00  0.00    -0.545 OA
ENDBRANCH   1   7
BRANCH   5  10
ATOM     10  O   UNL     1      -5.829   6.977   7.430  1.00  0.00    -0.493 OA
ATOM     11  C   UNL     1      -5.424   5.620   7.582  1.00  0.00     0.278 C 
ENDBRANCH   5  10
BRANCH   6  12
ATOM     12  O   UNL     1      -7.186   9.275   6.573  1.00  0.00    -0.504 OA
ATOM     13  H   UNL     1      -7.918   9.359   5.877  1.00  0.00     0.293 HD
ENDBRANCH   6  12
TORSDOF 3
ENDMDL
MODEL 2
REMARK VINA RESULT:    -3.938      1.794      4.222
REMARK INTER + INTRA:          -4.588
REMARK INTER:                  -4.503
REMARK INTRA:                  -0.085
REMARK UNBOUND:                -0.074
REMARK SMILES COc1cc(C(=O)[O-])ccc1O
REMARK SMILES IDX 5 1 9 2 4 3 10 4 3 5 11 6 6 7 7 8 8 9 2 10 1 11 12 12
REMARK H PARENT 12 13
REMARK Flexibility Score: inf
ROOT
ATOM      1  C   UNL     1      -4.344   6.481   7.036  1.00  0.00     0.001 A 
ATOM      2  C   UNL     1      -5.347   7.460   7.107  1.00  0.00     0.014 A 
ATOM      3  C   UNL     1      -3.200   6.730   6.256  1.00  0.00     0.060 A 
ATOM      4  C   UNL     1      -5.211   8.663   6.414  1.00  0.00     0.051 A 
ATOM      5  C   UNL     1      -3.057   7.944   5.553  1.00  0.00     0.161 A 
ATOM      6  C   UNL     1      -4.075   8.911   5.639  1.00  0.00     0.157 A 
ENDROOT
BRANCH   1   7
ATOM      7  C   UNL     1      -4.494   5.206   7.773  1.00  0.00     0.072 C 
ATOM      8  O   UNL     1      -3.762   4.217   7.499  1.00  0.00    -0.545 OA
ATOM      9  O   UNL     1      -5.444   5.082   8.779  1.00  0.00    -0.545 OA
ENDBRANCH   1   7
BRANCH   5  10
ATOM     10  O   UNL     1      -1.927   8.220   4.767  1.00  0.00    -0.493 OA
ATOM     11  C   UNL     1      -0.756   8.882   5.236  1.00  0.00     0.278 C 
ENDBRANCH   5  10
BRANCH   6  12
ATOM     12  O   UNL     1      -3.974  10.125   4.960  1.00  0.00    -0.504 OA
ATOM     13  H   UNL     1      -3.330  10.262   4.191  1.00  0.00     0.293 HD
ENDBRANCH   6  12
TORSDOF 3
ENDMDL
MODEL 3
REMARK VINA RESULT:    -3.930      1.192      2.768
REMARK INTER + INTRA:          -4.578
REMARK INTER:                  -4.505
REMARK INTRA:                  -0.073
REMARK UNBOUND:                -0.074
REMARK SMILES COc1cc(C(=O)[O-])ccc1O
REMARK SMILES IDX 5 1 9 2 4 3 10 4 3 5 11 6 6 7 7 8 8 9 2 10 1 11 12 12
REMARK H PARENT 12 13
REMARK Flexibility Score: inf
ROOT
ATOM      1  C   UNL     1      -2.520   7.650   6.020  1.00  0.00     0.001 A 
ATOM      2  C   UNL     1      -2.300   6.394   6.607  1.00  0.00     0.014 A 
ATOM      3  C   UNL     1      -3.788   8.247   6.137  1.00  0.00     0.060 A 
ATOM      4  C   UNL     1      -3.326   5.748   7.299  1.00  0.00     0.051 A 
ATOM      5  C   UNL     1      -4.828   7.598   6.835  1.00  0.00     0.161 A 
ATOM      6  C   UNL     1      -4.586   6.341   7.416  1.00  0.00     0.157 A 
ENDROOT
BRANCH   1   7
ATOM      7  C   UNL     1      -1.428   8.330   5.287  1.00  0.00     0.072 C 
ATOM      8  O   UNL     1      -1.217   8.078   4.071  1.00  0.00    -0.545 OA
ATOM      9  O   UNL     1      -0.620   9.260   5.932  1.00  0.00    -0.545 OA
ENDBRANCH   1   7
BRANCH   5  10
ATOM     10  O   UNL     1      -6.103   8.170   6.968  1.00  0.00    -0.493 OA
ATOM     11  C   UNL     1      -6.523   9.371   6.327  1.00  0.00     0.278 C 
ENDBRANCH   5  10
BRANCH   6  12
ATOM     12  O   UNL     1      -5.585   5.664   8.113  1.00  0.00    -0.504 OA
ATOM     13  H   UNL     1      -5.907   5.966   9.026  1.00  0.00     0.293 HD
ENDBRANCH   6  12
TORSDOF 3
ENDMDL
MODEL 4
REMARK VINA RESULT:    -3.929      1.150      1.461
REMARK INTER + INTRA:          -4.577
REMARK INTER:                  -4.483
REMARK INTRA:                  -0.095
REMARK UNBOUND:                -0.074
REMARK SMILES COc1cc(C(=O)[O-])ccc1O
REMARK SMILES IDX 5 1 9 2 4 3 10 4 3 5 11 6 6 7 7 8 8 9 2 10 1 11 12 12
REMARK H PARENT 12 13
REMARK Flexibility Score: inf
ROOT
ATOM      1  C   UNL     1      -2.912   8.071   5.768  1.00  0.00     0.001 A 
ATOM      2  C   UNL     1      -4.000   8.954   5.684  1.00  0.00     0.014 A 
ATOM      3  C   UNL     1      -3.043   6.894   6.527  1.00  0.00     0.060 A 
ATOM      4  C   UNL     1      -5.195   8.667   6.345  1.00  0.00     0.051 A 
ATOM      5  C   UNL     1      -4.249   6.600   7.197  1.00  0.00     0.161 A 
ATOM      6  C   UNL     1      -5.326   7.498   7.099  1.00  0.00     0.157 A 
ENDROOT
BRANCH   1   7
ATOM      7  C   UNL     1      -1.646   8.380   5.065  1.00  0.00     0.072 C 
ATOM      8  O   UNL     1      -1.443   7.960   3.894  1.00  0.00    -0.545 OA
ATOM      9  O   UNL     1      -0.662   9.140   5.687  1.00  0.00    -0.545 OA
ENDBRANCH   1   7
BRANCH   5  10
ATOM     10  O   UNL     1      -4.408   5.432   7.962  1.00  0.00    -0.493 OA
ATOM     11  C   UNL     1      -4.774   4.161   7.433  1.00  0.00     0.278 C 
ENDBRANCH   5  10
BRANCH   6  12
ATOM     12  O   UNL     1      -6.536   7.246   7.745  1.00  0.00    -0.504 OA
ATOM     13  H   UNL     1      -6.827   6.310   8.000  1.00  0.00     0.293 HD
ENDBRANCH   6  12
TORSDOF 3
ENDMDL
MODEL 5
REMARK VINA RESULT:    -3.891      2.228      2.542
REMARK INTER + INTRA:          -4.534
REMARK INTER:                  -4.430
REMARK INTRA:                  -0.104
REMARK UNBOUND:                -0.074
REMARK SMILES COc1cc(C(=O)[O-])ccc1O
REMARK SMILES IDX 5 1 9 2 4 3 10 4 3 5 11 6 6 7 7 8 8 9 2 10 1 11 12 12
REMARK H PARENT 12 13
REMARK Flexibility Score: inf
ROOT
ATOM      1  C   UNL     1      -2.201   7.906   6.307  1.00  0.00     0.001 A 
ATOM      2  C   UNL     1      -2.001   8.367   7.618  1.00  0.00     0.014 A 
ATOM      3  C   UNL     1      -3.265   7.023   6.048  1.00  0.00     0.060 A 
ATOM      4  C   UNL     1      -2.846   7.955   8.649  1.00  0.00     0.051 A 
ATOM      5  C   UNL     1      -4.122   6.603   7.086  1.00  0.00     0.161 A 
ATOM      6  C   UNL     1      -3.903   7.077   8.392  1.00  0.00     0.157 A 
ENDROOT
BRANCH   1   7
ATOM      7  C   UNL     1      -1.301   8.347   5.217  1.00  0.00     0.072 C 
ATOM      8  O   UNL     1      -1.477   7.942   4.037  1.00  0.00    -0.545 OA
ATOM      9  O   UNL     1      -0.248   9.216   5.481  1.00  0.00    -0.545 OA
ENDBRANCH   1   7
BRANCH   5  10
ATOM     10  O   UNL     1      -5.191   5.722   6.857  1.00  0.00    -0.493 OA
ATOM     11  C   UNL     1      -5.068   4.307   6.763  1.00  0.00     0.278 C 
ENDBRANCH   5  10
BRANCH   6  12
ATOM     12  O   UNL     1      -4.726   6.688   9.448  1.00  0.00    -0.504 OA
ATOM     13  H   UNL     1      -5.645   6.289   9.298  1.00  0.00     0.293 HD
ENDBRANCH   6  12
TORSDOF 3
ENDMDL
MODEL 6
REMARK VINA RESULT:    -3.890      1.390      4.095
REMARK INTER + INTRA:          -4.532
REMARK INTER:                  -4.447
REMARK INTRA:                  -0.085
REMARK UNBOUND:                -0.074
REMARK SMILES COc1cc(C(=O)[O-])ccc1O
REMARK SMILES IDX 5 1 9 2 4 3 10 4 3 5 11 6 6 7 7 8 8 9 2 10 1 11 12 12
REMARK H PARENT 12 13
REMARK Flexibility Score: inf
ROOT
ATOM      1  C   UNL     1      -5.431   8.742   6.351  1.00  0.00     0.001 A 
ATOM      2  C   UNL     1      -4.722   9.648   5.546  1.00  0.00     0.014 A 
ATOM      3  C   UNL     1      -4.808   7.542   6.741  1.00  0.00     0.060 A 
ATOM      4  C   UNL     1      -3.418   9.362   5.140  1.00  0.00     0.051 A 
ATOM      5  C   UNL     1      -3.490   7.249   6.332  1.00  0.00     0.161 A 
ATOM      6  C   UNL     1      -2.799   8.171   5.527  1.00  0.00     0.157 A 
ENDROOT
BRANCH   1   7
ATOM      7  C   UNL     1      -6.814   9.050   6.779  1.00  0.00     0.072 C 
ATOM      8  O   UNL     1      -7.418  10.056   6.320  1.00  0.00    -0.545 OA
ATOM      9  O   UNL     1      -7.466   8.232   7.694  1.00  0.00    -0.545 OA
ENDBRANCH   1   7
BRANCH   5  10
ATOM     10  O   UNL     1      -2.843   6.060   6.706  1.00  0.00    -0.493 OA
ATOM     11  C   UNL     1      -3.478   4.788   6.801  1.00  0.00     0.278 C 
ENDBRANCH   5  10
BRANCH   6  12
ATOM     12  O   UNL     1      -1.495   7.921   5.100  1.00  0.00    -0.504 OA
ATOM     13  H   UNL     1      -0.692   8.372   5.523  1.00  0.00     0.293 HD
ENDBRANCH   6  12
TORSDOF 3
ENDMDL
MODEL 7
REMARK VINA RESULT:    -3.887      2.922      5.017
REMARK INTER + INTRA:          -4.529
REMARK INTER:                  -4.427
REMARK INTRA:                  -0.102
REMARK UNBOUND:                -0.074
REMARK SMILES COc1cc(C(=O)[O-])ccc1O
REMARK SMILES IDX 5 1 9 2 4 3 10 4 3 5 11 6 6 7 7 8 8 9 2 10 1 11 12 12
REMARK H PARENT 12 13
REMARK Flexibility Score: inf
ROOT
ATOM      1  C   UNL     1      -4.407   5.301   7.185  1.00  0.00     0.001 A 
ATOM      2  C   UNL     1      -4.658   5.992   8.381  1.00  0.00     0.014 A 
ATOM      3  C   UNL     1      -3.359   5.734   6.353  1.00  0.00     0.060 A 
ATOM      4  C   UNL     1      -3.878   7.092   8.739  1.00  0.00     0.051 A 
ATOM      5  C   UNL     1      -2.568   6.846   6.710  1.00  0.00     0.161 A 
ATOM      6  C   UNL     1      -2.837   7.523   7.912  1.00  0.00     0.157 A 
ENDROOT
BRANCH   1   7
ATOM      7  C   UNL     1      -5.237   4.134   6.810  1.00  0.00     0.072 C 
ATOM      8  O   UNL     1      -5.333   3.776   5.606  1.00  0.00    -0.545 OA
ATOM      9  O   UNL     1      -5.921   3.415   7.783  1.00  0.00    -0.545 OA
ENDBRANCH   1   7
BRANCH   5  10
ATOM     10  O   UNL     1      -1.516   7.301   5.898  1.00  0.00    -0.493 OA
ATOM     11  C   UNL     1      -1.676   8.142   4.760  1.00  0.00     0.278 C 
ENDBRANCH   5  10
BRANCH   6  12
ATOM     12  O   UNL     1      -2.081   8.627   8.303  1.00  0.00    -0.504 OA
ATOM     13  H   UNL     1      -2.459   9.361   8.891  1.00  0.00     0.293 HD
ENDBRANCH   6  12
TORSDOF 3
ENDMDL
MODEL 8
REMARK VINA RESULT:    -3.833     16.080     17.948
REMARK INTER + INTRA:          -4.467
REMARK INTER:                  -4.367
REMARK INTRA:                  -0.100
REMARK UNBOUND:                -0.074
REMARK SMILES COc1cc(C(=O)[O-])ccc1O
REMARK SMILES IDX 5 1 9 2 4 3 10 4 3 5 11 6 6 7 7 8 8 9 2 10 1 11 12 12
REMARK H PARENT 12 13
REMARK Flexibility Score: inf
ROOT
ATOM      1  C   UNL     1       6.749  -3.532   2.432  1.00  0.00     0.001 A 
ATOM      2  C   UNL     1       6.457  -3.672   1.067  1.00  0.00     0.014 A 
ATOM      3  C   UNL     1       7.425  -4.571   3.097  1.00  0.00     0.060 A 
ATOM      4  C   UNL     1       6.831  -4.827   0.378  1.00  0.00     0.051 A 
ATOM      5  C   UNL     1       7.806  -5.741   2.406  1.00  0.00     0.161 A 
ATOM      6  C   UNL     1       7.502  -5.860   1.038  1.00  0.00     0.157 A 
ENDROOT
BRANCH   1   7
ATOM      7  C   UNL     1       6.350  -2.305   3.157  1.00  0.00     0.072 C 
ATOM      8  O   UNL     1       5.922  -1.299   2.529  1.00  0.00    -0.545 OA
ATOM      9  O   UNL     1       6.439  -2.244   4.543  1.00  0.00    -0.545 OA
ENDBRANCH   1   7
BRANCH   5  10
ATOM     10  O   UNL     1       8.481  -6.794   3.044  1.00  0.00    -0.493 OA
ATOM     11  C   UNL     1       7.909  -7.637   4.040  1.00  0.00     0.278 C 
ENDBRANCH   5  10
BRANCH   6  12
ATOM     12  O   UNL     1       7.860  -6.998   0.317  1.00  0.00    -0.504 OA
ATOM     13  H   UNL     1       8.796  -7.385   0.347  1.00  0.00     0.293 HD
ENDBRANCH   6  12
TORSDOF 3
ENDMDL
MODEL 9
REMARK VINA RESULT:    -3.752     11.747     12.189
REMARK INTER + INTRA:          -4.374
REMARK INTER:                  -4.279
REMARK INTRA:                  -0.095
REMARK UNBOUND:                -0.074
REMARK SMILES COc1cc(C(=O)[O-])ccc1O
REMARK SMILES IDX 5 1 9 2 4 3 10 4 3 5 11 6 6 7 7 8 8 9 2 10 1 11 12 12
REMARK H PARENT 12 13
REMARK Flexibility Score: inf
ROOT
ATOM      1  C   UNL     1      -1.439   8.571  -5.759  1.00  0.00     0.001 A 
ATOM      2  C   UNL     1      -1.902   9.726  -6.409  1.00  0.00     0.014 A 
ATOM      3  C   UNL     1      -2.323   7.494  -5.567  1.00  0.00     0.060 A 
ATOM      4  C   UNL     1      -3.221   9.804  -6.858  1.00  0.00     0.051 A 
ATOM      5  C   UNL     1      -3.657   7.568  -6.019  1.00  0.00     0.161 A 
ATOM      6  C   UNL     1      -4.100   8.734  -6.668  1.00  0.00     0.157 A 
ENDROOT
BRANCH   1   7
ATOM      7  C   UNL     1      -0.039   8.495  -5.284  1.00  0.00     0.072 C 
ATOM      8  O   UNL     1       0.785   7.721  -5.841  1.00  0.00    -0.545 OA
ATOM      9  O   UNL     1       0.387   9.277  -4.217  1.00  0.00    -0.545 OA
ENDBRANCH   1   7
BRANCH   5  10
ATOM     10  O   UNL     1      -4.562   6.508  -5.840  1.00  0.00    -0.493 OA
ATOM     11  C   UNL     1      -4.538   5.290  -6.578  1.00  0.00     0.278 C 
ENDBRANCH   5  10
BRANCH   6  12
ATOM     12  O   UNL     1      -5.410   8.849  -7.130  1.00  0.00    -0.504 OA
ATOM     13  H   UNL     1      -5.745   8.337  -7.938  1.00  0.00     0.293 HD
ENDBRANCH   6  12
TORSDOF 3
ENDMDL
