MODEL 1
REMARK VINA RESULT:    -3.296      0.000      0.000
REMARK INTER + INTRA:          -5.409
REMARK INTER:                  -5.031
REMARK INTRA:                  -0.378
REMARK UNBOUND:                -0.378
REMARK SMILES CCCCCCCCCCC(=O)[O-]
REMARK SMILES IDX 7 1 8 2 9 3 10 4 11 5 12 6 13 7 6 8 5 9 4 10 3 11 2 12 1 13
REMARK H PARENT
REMARK Flexibility Score: inf
ROOT
ATOM      1  C   UNL     1       4.192   5.706   1.801  1.00  0.00     0.000 C 
ENDROOT
BRANCH   1   2
ATOM      2  C   UNL     1       5.723   5.590   1.701  1.00  0.00     0.000 C 
BRANCH   2   3
ATOM      3  C   UNL     1       6.195   5.165   0.301  1.00  0.00     0.006 C 
BRANCH   3   4
ATOM      4  C   UNL     1       7.518   5.833  -0.093  1.00  0.00     0.053 C 
BRANCH   4   5
ATOM      5  C   UNL     1       8.681   4.905   0.077  1.00  0.00     0.041 C 
ATOM      6  O   UNL     1       9.145   4.672   1.224  1.00  0.00    -0.550 OA
ATOM      7  O   UNL     1       9.275   4.323  -1.037  1.00  0.00    -0.550 OA
ENDBRANCH   4   5
ENDBRANCH   3   4
ENDBRANCH   2   3
ENDBRANCH   1   2
BRANCH   1   8
ATOM      8  C   UNL     1       3.617   5.134   3.115  1.00  0.00     0.000 C 
BRANCH   8   9
ATOM      9  C   UNL     1       3.678   3.596   3.184  1.00  0.00    -0.000 C 
BRANCH   9  10
ATOM     10  C   UNL     1       2.395   2.993   3.782  1.00  0.00    -0.000 C 
BRANCH  10  11
ATOM     11  C   UNL     1       2.576   2.549   5.241  1.00  0.00    -0.000 C 
BRANCH  11  12
ATOM     12  C   UNL     1       4.023   2.706   5.734  1.00  0.00    -0.003 C 
ATOM     13  C   UNL     1       4.448   1.510   6.580  1.00  0.00     0.004 C 
ENDBRANCH  11  12
ENDBRANCH  10  11
ENDBRANCH   9  10
ENDBRANCH   8   9
ENDBRANCH   1   8
TORSDOF 9
ENDMDL
MODEL 2
REMARK VINA RESULT:    -3.253      0.748      1.671
REMARK INTER + INTRA:          -5.342
REMARK INTER:                  -4.896
REMARK INTRA:                  -0.446
REMARK UNBOUND:                -0.378
REMARK SMILES CCCCCCCCCCC(=O)[O-]
REMARK SMILES IDX 7 1 8 2 9 3 10 4 11 5 12 6 13 7 6 8 5 9 4 10 3 11 2 12 1 13
REMARK H PARENT
REMARK Flexibility Score: inf
ROOT
ATOM      1  C   UNL     1       4.245   4.651   3.249  1.00  0.00     0.000 C 
ENDROOT
BRANCH   1   2
ATOM      2  C   UNL     1       4.389   5.188   1.815  1.00  0.00     0.000 C 
BRANCH   2   3
ATOM      3  C   UNL     1       5.812   5.680   1.505  1.00  0.00     0.006 C 
BRANCH   3   4
ATOM      4  C   UNL     1       6.378   5.050   0.226  1.00  0.00     0.053 C 
BRANCH   4   5
ATOM      5  C   UNL     1       7.867   4.901   0.293  1.00  0.00     0.041 C 
ATOM      6  O   UNL     1       8.456   4.073  -0.451  1.00  0.00    -0.550 OA
ATOM      7  O   UNL     1       8.601   5.653   1.202  1.00  0.00    -0.550 OA
ENDBRANCH   4   5
ENDBRANCH   3   4
ENDBRANCH   2   3
ENDBRANCH   1   2
BRANCH   1   8
ATOM      8  C   UNL     1       3.510   3.295   3.328  1.00  0.00     0.000 C 
BRANCH   8   9
ATOM      9  C   UNL     1       2.319   3.307   4.304  1.00  0.00    -0.000 C 
BRANCH   9  10
ATOM     10  C   UNL     1       2.556   2.390   5.516  1.00  0.00    -0.000 C 
BRANCH  10  11
ATOM     11  C   UNL     1       3.546   2.989   6.527  1.00  0.00    -0.000 C 
BRANCH  11  12
ATOM     12  C   UNL     1       4.764   2.086   6.770  1.00  0.00    -0.003 C 
ATOM     13  C   UNL     1       4.362   0.614   6.783  1.00  0.00     0.004 C 
ENDBRANCH  11  12
ENDBRANCH  10  11
ENDBRANCH   9  10
ENDBRANCH   8   9
ENDBRANCH   1   8
TORSDOF 9
ENDMDL
MODEL 3
REMARK VINA RESULT:    -3.191      1.207      2.388
REMARK INTER + INTRA:          -5.249
REMARK INTER:                  -4.342
REMARK INTRA:                  -0.907
REMARK UNBOUND:                -0.378
REMARK SMILES CCCCCCCCCCC(=O)[O-]
REMARK SMILES IDX 7 1 8 2 9 3 10 4 11 5 12 6 13 7 6 8 5 9 4 10 3 11 2 12 1 13
REMARK H PARENT
REMARK Flexibility Score: inf
ROOT
ATOM      1  C   UNL     1       5.493   7.510   0.918  1.00  0.00     0.000 C 
ENDROOT
BRANCH   1   2
ATOM      2  C   UNL     1       5.828   6.625  -0.295  1.00  0.00     0.000 C 
BRANCH   2   3
ATOM      3  C   UNL     1       6.456   5.281   0.107  1.00  0.00     0.006 C 
BRANCH   3   4
ATOM      4  C   UNL     1       7.719   5.462   0.959  1.00  0.00     0.053 C 
BRANCH   4   5
ATOM      5  C   UNL     1       8.857   4.633   0.447  1.00  0.00     0.041 C 
ATOM      6  O   UNL     1       8.748   4.010  -0.642  1.00  0.00    -0.550 OA
ATOM      7  O   UNL     1      10.025   4.520   1.190  1.00  0.00    -0.550 OA
ENDBRANCH   4   5
ENDBRANCH   3   4
ENDBRANCH   2   3
ENDBRANCH   1   2
BRANCH   1   8
ATOM      8  C   UNL     1       4.249   7.035   1.701  1.00  0.00     0.000 C 
BRANCH   8   9
ATOM      9  C   UNL     1       4.519   6.836   3.204  1.00  0.00    -0.000 C 
BRANCH   9  10
ATOM     10  C   UNL     1       4.706   5.353   3.567  1.00  0.00    -0.000 C 
BRANCH  10  11
ATOM     11  C   UNL     1       3.866   4.418   2.684  1.00  0.00    -0.000 C 
BRANCH  11  12
ATOM     12  C   UNL     1       3.161   3.317   3.490  1.00  0.00    -0.003 C 
ATOM     13  C   UNL     1       3.804   3.144   4.863  1.00  0.00     0.004 C 
ENDBRANCH  11  12
ENDBRANCH  10  11
ENDBRANCH   9  10
ENDBRANCH   8   9
ENDBRANCH   1   8
TORSDOF 9
ENDMDL
MODEL 4
REMARK VINA RESULT:    -3.174      9.116     10.592
REMARK INTER + INTRA:          -5.222
REMARK INTER:                  -4.466
REMARK INTRA:                  -0.756
REMARK UNBOUND:                -0.378
REMARK SMILES CCCCCCCCCCC(=O)[O-]
REMARK SMILES IDX 7 1 8 2 9 3 10 4 11 5 12 6 13 7 6 8 5 9 4 10 3 11 2 12 1 13
REMARK H PARENT
REMARK Flexibility Score: inf
ROOT
ATOM      1  C   UNL     1       4.937  -1.832  -5.449  1.00  0.00     0.000 C 
ENDROOT
BRANCH   1   2
ATOM      2  C   UNL     1       5.613  -0.624  -6.120  1.00  0.00     0.000 C 
BRANCH   2   3
ATOM      3  C   UNL     1       4.600   0.375  -6.701  1.00  0.00     0.006 C 
BRANCH   3   4
ATOM      4  C   UNL     1       4.286   1.517  -5.726  1.00  0.00     0.053 C 
BRANCH   4   5
ATOM      5  C   UNL     1       2.839   1.533  -5.337  1.00  0.00     0.041 C 
ATOM      6  O   UNL     1       1.958   1.182  -6.163  1.00  0.00    -0.550 OA
ATOM      7  O   UNL     1       2.464   1.970  -4.073  1.00  0.00    -0.550 OA
ENDBRANCH   4   5
ENDBRANCH   3   4
ENDBRANCH   2   3
ENDBRANCH   1   2
BRANCH   1   8
ATOM      8  C   UNL     1       5.875  -2.615  -4.505  1.00  0.00     0.000 C 
BRANCH   8   9
ATOM      9  C   UNL     1       6.843  -3.552  -5.252  1.00  0.00    -0.000 C 
BRANCH   9  10
ATOM     10  C   UNL     1       8.315  -3.211  -4.966  1.00  0.00    -0.000 C 
BRANCH  10  11
ATOM     11  C   UNL     1       8.471  -2.113  -3.902  1.00  0.00    -0.000 C 
BRANCH  11  12
ATOM     12  C   UNL     1       9.651  -1.172  -4.190  1.00  0.00    -0.003 C 
ATOM     13  C   UNL     1       9.316  -0.202  -5.320  1.00  0.00     0.004 C 
ENDBRANCH  11  12
ENDBRANCH  10  11
ENDBRANCH   9  10
ENDBRANCH   8   9
ENDBRANCH   1   8
TORSDOF 9
ENDMDL
MODEL 5
REMARK VINA RESULT:    -3.109      1.806      2.659
REMARK INTER + INTRA:          -5.123
REMARK INTER:                  -4.549
REMARK INTRA:                  -0.575
REMARK UNBOUND:                -0.378
REMARK SMILES CCCCCCCCCCC(=O)[O-]
REMARK SMILES IDX 7 1 8 2 9 3 10 4 11 5 12 6 13 7 6 8 5 9 4 10 3 11 2 12 1 13
REMARK H PARENT
REMARK Flexibility Score: inf
ROOT
ATOM      1  C   UNL     1       5.940   5.176   0.722  1.00  0.00     0.000 C 
ENDROOT
BRANCH   1   2
ATOM      2  C   UNL     1       7.294   4.812   0.090  1.00  0.00     0.000 C 
BRANCH   2   3
ATOM      3  C   UNL     1       8.294   5.979   0.118  1.00  0.00     0.006 C 
BRANCH   3   4
ATOM      4  C   UNL     1       9.721   5.514   0.435  1.00  0.00     0.053 C 
BRANCH   4   5
ATOM      5  C   UNL     1       9.857   5.074   1.860  1.00  0.00     0.041 C 
ATOM      6  O   UNL     1       9.407   5.792   2.791  1.00  0.00    -0.550 OA
ATOM      7  O   UNL     1      10.512   3.887   2.162  1.00  0.00    -0.550 OA
ENDBRANCH   4   5
ENDBRANCH   3   4
ENDBRANCH   2   3
ENDBRANCH   1   2
BRANCH   1   8
ATOM      8  C   UNL     1       6.064   6.093   1.959  1.00  0.00     0.000 C 
BRANCH   8   9
ATOM      9  C   UNL     1       5.029   5.777   3.054  1.00  0.00    -0.000 C 
BRANCH   9  10
ATOM     10  C   UNL     1       3.979   4.757   2.580  1.00  0.00    -0.000 C 
BRANCH  10  11
ATOM     11  C   UNL     1       3.843   3.561   3.536  1.00  0.00    -0.000 C 
BRANCH  11  12
ATOM     12  C   UNL     1       2.390   3.088   3.691  1.00  0.00    -0.003 C 
ATOM     13  C   UNL     1       1.664   3.889   4.768  1.00  0.00     0.004 C 
ENDBRANCH  11  12
ENDBRANCH  10  11
ENDBRANCH   9  10
ENDBRANCH   8   9
ENDBRANCH   1   8
TORSDOF 9
ENDMDL
MODEL 6
REMARK VINA RESULT:    -3.082     10.139     12.425
REMARK INTER + INTRA:          -5.082
REMARK INTER:                  -4.211
REMARK INTRA:                  -0.871
REMARK UNBOUND:                -0.378
REMARK SMILES CCCCCCCCCCC(=O)[O-]
REMARK SMILES IDX 7 1 8 2 9 3 10 4 11 5 12 6 13 7 6 8 5 9 4 10 3 11 2 12 1 13
REMARK H PARENT
REMARK Flexibility Score: inf
ROOT
ATOM      1  C   UNL     1      -3.709  -3.542   4.470  1.00  0.00     0.000 C 
ENDROOT
BRANCH   1   2
ATOM      2  C   UNL     1      -2.530  -3.380   3.495  1.00  0.00     0.000 C 
BRANCH   2   3
ATOM      3  C   UNL     1      -1.346  -4.298   3.838  1.00  0.00     0.006 C 
BRANCH   3   4
ATOM      4  C   UNL     1      -0.030  -3.522   3.972  1.00  0.00     0.053 C 
BRANCH   4   5
ATOM      5  C   UNL     1      -0.052  -2.590   5.145  1.00  0.00     0.041 C 
ATOM      6  O   UNL     1       0.272  -1.382   5.000  1.00  0.00    -0.550 OA
ATOM      7  O   UNL     1      -0.397  -3.065   6.404  1.00  0.00    -0.550 OA
ENDBRANCH   4   5
ENDBRANCH   3   4
ENDBRANCH   2   3
ENDBRANCH   1   2
BRANCH   1   8
ATOM      8  C   UNL     1      -5.020  -2.904   3.960  1.00  0.00     0.000 C 
BRANCH   8   9
ATOM      9  C   UNL     1      -5.602  -3.618   2.726  1.00  0.00    -0.000 C 
BRANCH   9  10
ATOM     10  C   UNL     1      -5.877  -5.107   2.997  1.00  0.00    -0.000 C 
BRANCH  10  11
ATOM     11  C   UNL     1      -5.484  -6.005   1.814  1.00  0.00    -0.000 C 
BRANCH  11  12
ATOM     12  C   UNL     1      -3.964  -6.186   1.687  1.00  0.00    -0.003 C 
ATOM     13  C   UNL     1      -3.555  -6.395   0.232  1.00  0.00     0.004 C 
ENDBRANCH  11  12
ENDBRANCH  10  11
ENDBRANCH   9  10
ENDBRANCH   8   9
ENDBRANCH   1   8
TORSDOF 9
ENDMDL
MODEL 7
REMARK VINA RESULT:    -3.068      8.984     10.818
REMARK INTER + INTRA:          -5.060
REMARK INTER:                  -4.146
REMARK INTRA:                  -0.914
REMARK UNBOUND:                -0.378
REMARK SMILES CCCCCCCCCCC(=O)[O-]
REMARK SMILES IDX 7 1 8 2 9 3 10 4 11 5 12 6 13 7 6 8 5 9 4 10 3 11 2 12 1 13
REMARK H PARENT
REMARK Flexibility Score: inf
ROOT
ATOM      1  C   UNL     1      -2.430   4.404  -0.734  1.00  0.00     0.000 C 
ENDROOT
BRANCH   1   2
ATOM      2  C   UNL     1      -2.593   4.728   0.761  1.00  0.00     0.000 C 
BRANCH   2   3
ATOM      3  C   UNL     1      -2.445   6.227   1.063  1.00  0.00     0.006 C 
BRANCH   3   4
ATOM      4  C   UNL     1      -3.162   6.632   2.357  1.00  0.00     0.053 C 
BRANCH   4   5
ATOM      5  C   UNL     1      -2.791   5.739   3.501  1.00  0.00     0.041 C 
ATOM      6  O   UNL     1      -3.670   5.043   4.072  1.00  0.00    -0.550 OA
ATOM      7  O   UNL     1      -1.479   5.702   3.957  1.00  0.00    -0.550 OA
ENDBRANCH   4   5
ENDBRANCH   3   4
ENDBRANCH   2   3
ENDBRANCH   1   2
BRANCH   1   8
ATOM      8  C   UNL     1      -1.949   5.607  -1.575  1.00  0.00     0.000 C 
BRANCH   8   9
ATOM      9  C   UNL     1      -2.861   5.908  -2.779  1.00  0.00    -0.000 C 
BRANCH   9  10
ATOM     10  C   UNL     1      -4.283   5.357  -2.578  1.00  0.00    -0.000 C 
BRANCH  10  11
ATOM     11  C   UNL     1      -5.345   6.466  -2.525  1.00  0.00    -0.000 C 
BRANCH  11  12
ATOM     12  C   UNL     1      -5.301   7.266  -1.214  1.00  0.00    -0.003 C 
ATOM     13  C   UNL     1      -6.643   7.936  -0.935  1.00  0.00     0.004 C 
ENDBRANCH  11  12
ENDBRANCH  10  11
ENDBRANCH   9  10
ENDBRANCH   8   9
ENDBRANCH   1   8
TORSDOF 9
ENDMDL
MODEL 8
REMARK VINA RESULT:    -3.063      5.387      8.338
REMARK INTER + INTRA:          -5.053
REMARK INTER:                  -4.452
REMARK INTRA:                  -0.601
REMARK UNBOUND:                -0.378
REMARK SMILES CCCCCCCCCCC(=O)[O-]
REMARK SMILES IDX 7 1 8 2 9 3 10 4 11 5 12 6 13 7 6 8 5 9 4 10 3 11 2 12 1 13
REMARK H PARENT
REMARK Flexibility Score: inf
ROOT
ATOM      1  C   UNL     1       3.176   1.271   7.359  1.00  0.00     0.000 C 
ENDROOT
BRANCH   1   2
ATOM      2  C   UNL     1       2.513  -0.058   6.962  1.00  0.00     0.000 C 
BRANCH   2   3
ATOM      3  C   UNL     1       1.004   0.085   6.705  1.00  0.00     0.006 C 
BRANCH   3   4
ATOM      4  C   UNL     1       0.602  -0.418   5.313  1.00  0.00     0.053 C 
BRANCH   4   5
ATOM      5  C   UNL     1      -0.042  -1.769   5.375  1.00  0.00     0.041 C 
ATOM      6  O   UNL     1       0.106  -2.586   4.429  1.00  0.00    -0.550 OA
ATOM      7  O   UNL     1      -0.836  -2.111   6.463  1.00  0.00    -0.550 OA
ENDBRANCH   4   5
ENDBRANCH   3   4
ENDBRANCH   2   3
ENDBRANCH   1   2
BRANCH   1   8
ATOM      8  C   UNL     1       4.322   1.694   6.412  1.00  0.00     0.000 C 
BRANCH   8   9
ATOM      9  C   UNL     1       4.047   3.024   5.685  1.00  0.00    -0.000 C 
BRANCH   9  10
ATOM     10  C   UNL     1       2.801   2.944   4.786  1.00  0.00    -0.000 C 
BRANCH  10  11
ATOM     11  C   UNL     1       3.109   3.285   3.320  1.00  0.00    -0.000 C 
BRANCH  11  12
ATOM     12  C   UNL     1       3.392   4.780   3.106  1.00  0.00    -0.003 C 
ATOM     13  C   UNL     1       4.533   4.986   2.114  1.00  0.00     0.004 C 
ENDBRANCH  11  12
ENDBRANCH  10  11
ENDBRANCH   9  10
ENDBRANCH   8   9
ENDBRANCH   1   8
TORSDOF 9
ENDMDL
MODEL 9
REMARK VINA RESULT:    -3.054      1.464      2.397
REMARK INTER + INTRA:          -5.039
REMARK INTER:                  -4.607
REMARK INTRA:                  -0.432
REMARK UNBOUND:                -0.378
REMARK SMILES CCCCCCCCCCC(=O)[O-]
REMARK SMILES IDX 7 1 8 2 9 3 10 4 11 5 12 6 13 7 6 8 5 9 4 10 3 11 2 12 1 13
REMARK H PARENT
REMARK Flexibility Score: inf
ROOT
ATOM      1  C   UNL     1       4.179   5.001   3.370  1.00  0.00     0.000 C 
ENDROOT
BRANCH   1   2
ATOM      2  C   UNL     1       4.406   4.904   1.852  1.00  0.00     0.000 C 
BRANCH   2   3
ATOM      3  C   UNL     1       5.581   5.770   1.370  1.00  0.00     0.006 C 
BRANCH   3   4
ATOM      4  C   UNL     1       6.262   5.184   0.127  1.00  0.00     0.053 C 
BRANCH   4   5
ATOM      5  C   UNL     1       7.713   4.901   0.371  1.00  0.00     0.041 C 
ATOM      6  O   UNL     1       8.360   4.174  -0.428  1.00  0.00    -0.550 OA
ATOM      7  O   UNL     1       8.341   5.411   1.500  1.00  0.00    -0.550 OA
ENDBRANCH   4   5
ENDBRANCH   3   4
ENDBRANCH   2   3
ENDBRANCH   1   2
BRANCH   1   8
ATOM      8  C   UNL     1       3.933   3.634   4.044  1.00  0.00     0.000 C 
BRANCH   8   9
ATOM      9  C   UNL     1       2.611   2.973   3.610  1.00  0.00    -0.000 C 
BRANCH   9  10
ATOM     10  C   UNL     1       1.869   2.332   4.795  1.00  0.00    -0.000 C 
BRANCH  10  11
ATOM     11  C   UNL     1       1.839   3.240   6.034  1.00  0.00    -0.000 C 
BRANCH  11  12
ATOM     12  C   UNL     1       0.768   4.336   5.940  1.00  0.00    -0.003 C 
ATOM     13  C   UNL     1      -0.611   3.788   6.298  1.00  0.00     0.004 C 
ENDBRANCH  11  12
ENDBRANCH  10  11
ENDBRANCH   9  10
ENDBRANCH   8   9
ENDBRANCH   1   8
TORSDOF 9
ENDMDL
