MODEL 1
REMARK VINA RESULT:    -8.470      0.000      0.000
REMARK INTER + INTRA:         -15.151
REMARK INTER:                 -13.422
REMARK INTRA:                  -1.729
REMARK UNBOUND:                -1.729
REMARK SMILES C[C@H]1O[C@@H](O[C@@H]2CC[C@@]3(C)[C@H](CC[C@@]4(C)[C@@H]3C=C[C@]35OC[C@@]6(CCC(C)(C)C[C@@H]63)[C@H](O)C[C@@]45C)[C@]2(C)CO)[C@H](O)[C@H](O[C@@H]2O[C@H](CO)[C@@H](O)[C@@H](O)[C@@H]2O)[C@H]1O
REMARK SMILES IDX 1 1 2 2 54 3 41 4 39 5 4 6 3 7 55 8 42 10 43 11 52 12 44 13
REMARK SMILES IDX 50 14 45 15 48 16 53 17 51 19 46 21 47 22 49 24 5 26 6 27
REMARK SMILES IDX 7 28 35 29 8 30 11 31 36 32 9 33 12 34 10 35 16 36 13 37
REMARK SMILES IDX 14 38 17 39 15 40 33 41 18 42 19 43 32 44 34 45 29 46 20 47
REMARK SMILES IDX 30 48 22 49 28 50 21 51 23 52 25 53 24 54 26 55 27 56 37 57
REMARK SMILES IDX 38 58 31 60 40 62
REMARK H PARENT 55 9 53 18 51 20 47 23 49 25 38 59 31 61 40 63
REMARK Flexibility Score: inf
ROOT
ATOM      1  C   UNL     1      -5.754 -19.247  46.231  1.00  0.00     0.041 C 
ATOM      2  C   UNL     1      -6.012 -20.713  46.574  1.00  0.00     0.150 C 
ATOM      3  C   UNL     1      -5.554 -21.018  48.044  1.00  0.00     0.175 C 
ATOM      4  C   UNL     1      -4.066 -21.475  48.187  1.00  0.00     0.186 C 
ATOM      5  C   UNL     1      -3.520 -21.873  46.801  1.00  0.00     0.202 C 
ATOM      6  C   UNL     1      -4.635 -22.554  45.932  1.00  0.00     0.282 C 
ATOM      7  O   UNL     1      -5.530 -21.550  45.504  1.00  0.00    -0.344 OA
ENDROOT
BRANCH   3   8
ATOM      8  O   UNL     1      -5.763 -19.926  48.898  1.00  0.00    -0.388 OA
ATOM      9  H   UNL     1      -4.870 -19.516  49.031  1.00  0.00     0.211 HD
ENDBRANCH   3   8
BRANCH   4  10
ATOM     10  O   UNL     1      -4.040 -22.621  49.049  1.00  0.00    -0.341 OA
BRANCH  10  11
ATOM     11  C   UNL     1      -3.016 -22.669  50.035  1.00  0.00     0.282 C 
ATOM     12  C   UNL     1      -2.688 -24.152  50.362  1.00  0.00     0.202 C 
ATOM     13  O   UNL     1      -1.912 -21.809  49.742  1.00  0.00    -0.341 OA
ATOM     14  C   UNL     1      -1.423 -24.573  49.606  1.00  0.00     0.179 C 
ATOM     15  C   UNL     1      -0.580 -22.201  50.117  1.00  0.00     0.178 C 
ATOM     16  C   UNL     1      -0.247 -23.731  50.162  1.00  0.00     0.177 C 
BRANCH  12  17
ATOM     17  O   UNL     1      -3.787 -25.018  50.143  1.00  0.00    -0.385 OA
ATOM     18  H   UNL     1      -4.667 -24.556  50.271  1.00  0.00     0.211 HD
ENDBRANCH  12  17
BRANCH  14  19
ATOM     19  O   UNL     1      -1.141 -25.958  49.732  1.00  0.00    -0.387 OA
ATOM     20  H   UNL     1      -0.170 -26.091  49.632  1.00  0.00     0.211 HD
ENDBRANCH  14  19
BRANCH  15  21
ATOM     21  C   UNL     1       0.401 -21.439  49.203  1.00  0.00     0.191 C 
BRANCH  21  22
ATOM     22  O   UNL     1       0.231 -21.837  47.878  1.00  0.00    -0.394 OA
ATOM     23  H   UNL     1       0.900 -21.346  47.339  1.00  0.00     0.210 HD
ENDBRANCH  21  22
ENDBRANCH  15  21
BRANCH  16  24
ATOM     24  O   UNL     1       0.001 -24.086  51.504  1.00  0.00    -0.387 OA
ATOM     25  H   UNL     1       0.134 -23.264  52.025  1.00  0.00     0.211 HD
ENDBRANCH  16  24
ENDBRANCH  10  11
ENDBRANCH   4  10
BRANCH   6  26
ATOM     26  O   UNL     1      -3.994 -23.114  44.769  1.00  0.00    -0.346 OA
BRANCH  26  27
ATOM     27  C   UNL     1      -2.808 -22.572  44.130  1.00  0.00     0.130 C 
ATOM     28  C   UNL     1      -3.040 -21.277  43.351  1.00  0.00     0.033 C 
ATOM     29  C   UNL     1      -1.710 -23.489  43.436  1.00  0.00     0.020 C 
ATOM     30  C   UNL     1      -1.791 -20.367  43.189  1.00  0.00     0.010 C 
ATOM     31  C   UNL     1      -0.699 -22.600  42.537  1.00  0.00     0.006 C 
ATOM     32  C   UNL     1      -0.923 -24.246  44.578  1.00  0.00     0.017 C 
ATOM     33  C   UNL     1      -0.397 -21.095  42.929  1.00  0.00    -0.022 C 
ATOM     34  C   UNL     1      -0.971 -22.621  40.999  1.00  0.00     0.005 C 
ATOM     35  C   UNL     1       0.389 -21.017  44.269  1.00  0.00     0.012 C 
ATOM     36  C   UNL     1       0.453 -20.348  41.715  1.00  0.00     0.024 C 
ATOM     37  C   UNL     1       0.373 -22.585  40.318  1.00  0.00     0.008 C 
ATOM     38  C   UNL     1       1.134 -21.271  40.616  1.00  0.00    -0.017 C 
ATOM     39  C   UNL     1       1.281 -19.064  41.926  1.00  0.00    -0.024 C 
ATOM     40  C   UNL     1       0.993 -20.426  39.262  1.00  0.00     0.013 C 
ATOM     41  C   UNL     1       2.678 -21.557  40.929  1.00  0.00     0.009 C 
ATOM     42  C   UNL     1       2.540 -18.941  41.420  1.00  0.00     0.005 C 
ATOM     43  C   UNL     1       3.414 -20.160  41.449  1.00  0.00     0.096 C 
ATOM     44  C   UNL     1       3.155 -22.584  41.978  1.00  0.00     0.043 C 
ATOM     45  C   UNL     1       3.205 -22.284  39.588  1.00  0.00     0.015 C 
ATOM     46  C   UNL     1       4.811 -20.136  40.784  1.00  0.00     0.037 C 
ATOM     47  O   UNL     1       3.693 -20.203  42.856  1.00  0.00    -0.369 OA
ATOM     48  C   UNL     1       4.732 -22.546  42.116  1.00  0.00     0.124 C 
ATOM     49  C   UNL     1       5.464 -21.117  41.794  1.00  0.00     0.026 C 
ATOM     50  C   UNL     1       5.757 -19.639  39.674  1.00  0.00     0.014 C 
ATOM     51  C   UNL     1       5.092 -20.270  42.992  1.00  0.00     0.171 C 
ATOM     52  C   UNL     1       7.000 -21.261  41.575  1.00  0.00     0.013 C 
ATOM     53  C   UNL     1       7.086 -19.058  40.149  1.00  0.00    -0.035 C 
ATOM     54  C   UNL     1       7.700 -19.907  41.320  1.00  0.00     0.007 C 
ATOM     55  C   UNL     1       8.030 -19.075  38.937  1.00  0.00     0.011 C 
ATOM     56  C   UNL     1       6.864 -17.597  40.591  1.00  0.00     0.011 C 
BRANCH  29  57
ATOM     57  C   UNL     1      -2.264 -24.604  42.489  1.00  0.00     0.165 C 
BRANCH  57  58
ATOM     58  O   UNL     1      -3.374 -25.251  42.964  1.00  0.00    -0.396 OA
ATOM     59  H   UNL     1      -4.088 -24.555  42.873  1.00  0.00     0.210 HD
ENDBRANCH  57  58
ENDBRANCH  29  57
BRANCH  48  60
ATOM     60  O   UNL     1       5.333 -23.619  41.437  1.00  0.00    -0.392 OA
ATOM     61  H   UNL     1       4.605 -24.262  41.165  1.00  0.00     0.210 HD
ENDBRANCH  48  60
ENDBRANCH  26  27
ENDBRANCH   6  26
BRANCH   5  62
ATOM     62  O   UNL     1      -2.393 -22.690  46.944  1.00  0.00    -0.385 OA
ATOM     63  H   UNL     1      -1.790 -22.200  47.586  1.00  0.00     0.211 HD
ENDBRANCH   5  62
TORSDOF 14
ENDMDL
MODEL 2
REMARK VINA RESULT:    -8.004      1.566      1.895
REMARK INTER + INTRA:         -14.412
REMARK INTER:                 -13.150
REMARK INTRA:                  -1.263
REMARK UNBOUND:                -1.729
REMARK SMILES C[C@H]1O[C@@H](O[C@@H]2CC[C@@]3(C)[C@H](CC[C@@]4(C)[C@@H]3C=C[C@]35OC[C@@]6(CCC(C)(C)C[C@@H]63)[C@H](O)C[C@@]45C)[C@]2(C)CO)[C@H](O)[C@H](O[C@@H]2O[C@H](CO)[C@@H](O)[C@@H](O)[C@@H]2O)[C@H]1O
REMARK SMILES IDX 1 1 2 2 54 3 41 4 39 5 4 6 3 7 55 8 42 10 43 11 52 12 44 13
REMARK SMILES IDX 50 14 45 15 48 16 53 17 51 19 46 21 47 22 49 24 5 26 6 27
REMARK SMILES IDX 7 28 35 29 8 30 11 31 36 32 9 33 12 34 10 35 16 36 13 37
REMARK SMILES IDX 14 38 17 39 15 40 33 41 18 42 19 43 32 44 34 45 29 46 20 47
REMARK SMILES IDX 30 48 22 49 28 50 21 51 23 52 25 53 24 54 26 55 27 56 37 57
REMARK SMILES IDX 38 58 31 60 40 62
REMARK H PARENT 55 9 53 18 51 20 47 23 49 25 38 59 31 61 40 63
REMARK Flexibility Score: inf
ROOT
ATOM      1  C   UNL     1      -6.481 -18.653  44.240  1.00  0.00     0.041 C 
ATOM      2  C   UNL     1      -6.676 -20.127  44.588  1.00  0.00     0.150 C 
ATOM      3  C   UNL     1      -6.458 -20.358  46.126  1.00  0.00     0.175 C 
ATOM      4  C   UNL     1      -4.987 -20.683  46.539  1.00  0.00     0.186 C 
ATOM      5  C   UNL     1      -4.177 -21.065  45.283  1.00  0.00     0.202 C 
ATOM      6  C   UNL     1      -5.065 -21.858  44.262  1.00  0.00     0.282 C 
ATOM      7  O   UNL     1      -5.950 -20.945  43.649  1.00  0.00    -0.344 OA
ENDROOT
BRANCH   3   8
ATOM      8  O   UNL     1      -6.900 -19.268  46.890  1.00  0.00    -0.388 OA
ATOM      9  H   UNL     1      -7.548 -18.785  46.316  1.00  0.00     0.211 HD
ENDBRANCH   3   8
BRANCH   4  10
ATOM     10  O   UNL     1      -5.019 -21.802  47.435  1.00  0.00    -0.341 OA
BRANCH  10  11
ATOM     11  C   UNL     1      -4.213 -21.723  48.604  1.00  0.00     0.282 C 
ATOM     12  C   UNL     1      -4.499 -22.953  49.509  1.00  0.00     0.202 C 
ATOM     13  O   UNL     1      -2.843 -21.427  48.323  1.00  0.00    -0.341 OA
ATOM     14  C   UNL     1      -3.398 -24.000  49.309  1.00  0.00     0.179 C 
ATOM     15  C   UNL     1      -1.805 -21.991  49.145  1.00  0.00     0.178 C 
ATOM     16  C   UNL     1      -2.070 -23.382  49.815  1.00  0.00     0.177 C 
BRANCH  12  17
ATOM     17  O   UNL     1      -5.805 -23.471  49.333  1.00  0.00    -0.385 OA
ATOM     18  H   UNL     1      -6.372 -22.885  48.751  1.00  0.00     0.211 HD
ENDBRANCH  12  17
BRANCH  14  19
ATOM     19  O   UNL     1      -3.666 -25.218  49.987  1.00  0.00    -0.387 OA
ATOM     20  H   UNL     1      -3.258 -25.174  50.882  1.00  0.00     0.211 HD
ENDBRANCH  14  19
BRANCH  15  21
ATOM     21  C   UNL     1      -0.510 -22.007  48.309  1.00  0.00     0.191 C 
BRANCH  21  22
ATOM     22  O   UNL     1      -0.654 -22.859  47.215  1.00  0.00    -0.394 OA
ATOM     23  H   UNL     1       0.020 -22.587  46.544  1.00  0.00     0.210 HD
ENDBRANCH  21  22
ENDBRANCH  15  21
BRANCH  16  24
ATOM     24  O   UNL     1      -2.135 -23.191  51.211  1.00  0.00    -0.387 OA
ATOM     25  H   UNL     1      -2.419 -24.033  51.628  1.00  0.00     0.211 HD
ENDBRANCH  16  24
ENDBRANCH  10  11
ENDBRANCH   4  10
BRANCH   6  26
ATOM     26  O   UNL     1      -4.189 -22.388  43.248  1.00  0.00    -0.346 OA
BRANCH  26  27
ATOM     27  C   UNL     1      -2.796 -22.013  43.072  1.00  0.00     0.130 C 
ATOM     28  C   UNL     1      -2.582 -20.676  42.362  1.00  0.00     0.033 C 
ATOM     29  C   UNL     1      -1.663 -23.065  42.704  1.00  0.00     0.020 C 
ATOM     30  C   UNL     1      -1.241 -19.962  42.684  1.00  0.00     0.010 C 
ATOM     31  C   UNL     1      -0.301 -22.314  42.254  1.00  0.00     0.006 C 
ATOM     32  C   UNL     1      -1.408 -23.965  43.979  1.00  0.00     0.017 C 
ATOM     33  C   UNL     1       0.050 -20.884  42.836  1.00  0.00    -0.022 C 
ATOM     34  C   UNL     1      -0.047 -22.250  40.714  1.00  0.00     0.005 C 
ATOM     35  C   UNL     1       0.349 -20.964  44.361  1.00  0.00     0.012 C 
ATOM     36  C   UNL     1       1.347 -20.239  42.025  1.00  0.00     0.024 C 
ATOM     37  C   UNL     1       1.439 -22.398  40.511  1.00  0.00     0.008 C 
ATOM     38  C   UNL     1       2.226 -21.223  41.139  1.00  0.00    -0.017 C 
ATOM     39  C   UNL     1       2.220 -19.101  42.591  1.00  0.00    -0.024 C 
ATOM     40  C   UNL     1       2.657 -20.328  39.882  1.00  0.00     0.013 C 
ATOM     41  C   UNL     1       3.525 -21.748  41.914  1.00  0.00     0.009 C 
ATOM     42  C   UNL     1       3.580 -19.156  42.533  1.00  0.00     0.005 C 
ATOM     43  C   UNL     1       4.225 -20.493  42.751  1.00  0.00     0.096 C 
ATOM     44  C   UNL     1       3.485 -22.864  42.979  1.00  0.00     0.043 C 
ATOM     45  C   UNL     1       4.366 -22.507  40.765  1.00  0.00     0.015 C 
ATOM     46  C   UNL     1       5.753 -20.661  42.579  1.00  0.00     0.037 C 
ATOM     47  O   UNL     1       4.012 -20.617  44.164  1.00  0.00    -0.369 OA
ATOM     48  C   UNL     1       4.916 -23.068  43.624  1.00  0.00     0.124 C 
ATOM     49  C   UNL     1       5.897 -21.757  43.668  1.00  0.00     0.026 C 
ATOM     50  C   UNL     1       7.072 -20.281  41.877  1.00  0.00     0.014 C 
ATOM     51  C   UNL     1       5.264 -20.898  44.741  1.00  0.00     0.171 C 
ATOM     52  C   UNL     1       7.385 -22.125  43.949  1.00  0.00     0.013 C 
ATOM     53  C   UNL     1       8.232 -19.921  42.802  1.00  0.00    -0.035 C 
ATOM     54  C   UNL     1       8.303 -20.885  44.040  1.00  0.00     0.007 C 
ATOM     55  C   UNL     1       9.515 -20.046  41.964  1.00  0.00     0.011 C 
ATOM     56  C   UNL     1       8.073 -18.456  43.258  1.00  0.00     0.011 C 
BRANCH  29  57
ATOM     57  C   UNL     1      -2.014 -24.056  41.546  1.00  0.00     0.165 C 
BRANCH  57  58
ATOM     58  O   UNL     1      -3.245 -23.854  40.981  1.00  0.00    -0.396 OA
ATOM     59  H   UNL     1      -3.481 -22.933  41.297  1.00  0.00     0.210 HD
ENDBRANCH  57  58
ENDBRANCH  29  57
BRANCH  48  60
ATOM     60  O   UNL     1       5.560 -24.200  43.097  1.00  0.00    -0.392 OA
ATOM     61  H   UNL     1       6.361 -24.402  43.677  1.00  0.00     0.210 HD
ENDBRANCH  48  60
ENDBRANCH  26  27
ENDBRANCH   6  26
BRANCH   5  62
ATOM     62  O   UNL     1      -3.031 -21.779  45.648  1.00  0.00    -0.385 OA
ATOM     63  H   UNL     1      -2.652 -21.286  46.442  1.00  0.00     0.211 HD
ENDBRANCH   5  62
TORSDOF 14
ENDMDL
MODEL 3
REMARK VINA RESULT:    -7.869      2.656      4.040
REMARK INTER + INTRA:         -14.198
REMARK INTER:                 -11.833
REMARK INTRA:                  -2.366
REMARK UNBOUND:                -1.729
REMARK SMILES C[C@H]1O[C@@H](O[C@@H]2CC[C@@]3(C)[C@H](CC[C@@]4(C)[C@@H]3C=C[C@]35OC[C@@]6(CCC(C)(C)C[C@@H]63)[C@H](O)C[C@@]45C)[C@]2(C)CO)[C@H](O)[C@H](O[C@@H]2O[C@H](CO)[C@@H](O)[C@@H](O)[C@@H]2O)[C@H]1O
REMARK SMILES IDX 1 1 2 2 54 3 41 4 39 5 4 6 3 7 55 8 42 10 43 11 52 12 44 13
REMARK SMILES IDX 50 14 45 15 48 16 53 17 51 19 46 21 47 22 49 24 5 26 6 27
REMARK SMILES IDX 7 28 35 29 8 30 11 31 36 32 9 33 12 34 10 35 16 36 13 37
REMARK SMILES IDX 14 38 17 39 15 40 33 41 18 42 19 43 32 44 34 45 29 46 20 47
REMARK SMILES IDX 30 48 22 49 28 50 21 51 23 52 25 53 24 54 26 55 27 56 37 57
REMARK SMILES IDX 38 58 31 60 40 62
REMARK H PARENT 55 9 53 18 51 20 47 23 49 25 38 59 31 61 40 63
REMARK Flexibility Score: inf
ROOT
ATOM      1  C   UNL     1      -5.325 -18.333  44.010  1.00  0.00     0.041 C 
ATOM      2  C   UNL     1      -4.652 -19.644  43.613  1.00  0.00     0.150 C 
ATOM      3  C   UNL     1      -5.237 -20.836  44.451  1.00  0.00     0.175 C 
ATOM      4  C   UNL     1      -4.496 -21.118  45.797  1.00  0.00     0.186 C 
ATOM      5  C   UNL     1      -3.135 -20.392  45.792  1.00  0.00     0.202 C 
ATOM      6  C   UNL     1      -2.507 -20.386  44.354  1.00  0.00     0.282 C 
ATOM      7  O   UNL     1      -3.222 -19.458  43.568  1.00  0.00    -0.344 OA
ENDROOT
BRANCH   3   8
ATOM      8  O   UNL     1      -6.602 -20.664  44.727  1.00  0.00    -0.388 OA
ATOM      9  H   UNL     1      -6.659 -20.515  45.705  1.00  0.00     0.211 HD
ENDBRANCH   3   8
BRANCH   4  10
ATOM     10  O   UNL     1      -4.274 -22.532  45.887  1.00  0.00    -0.341 OA
BRANCH  10  11
ATOM     11  C   UNL     1      -4.588 -23.162  47.123  1.00  0.00     0.282 C 
ATOM     12  C   UNL     1      -3.697 -24.423  47.297  1.00  0.00     0.202 C 
ATOM     13  O   UNL     1      -4.643 -22.249  48.221  1.00  0.00    -0.341 OA
ATOM     14  C   UNL     1      -2.522 -24.094  48.225  1.00  0.00     0.179 C 
ATOM     15  C   UNL     1      -4.222 -22.676  49.529  1.00  0.00     0.178 C 
ATOM     16  C   UNL     1      -3.109 -23.775  49.623  1.00  0.00     0.177 C 
BRANCH  12  17
ATOM     17  O   UNL     1      -3.295 -24.985  46.060  1.00  0.00    -0.385 OA
ATOM     18  H   UNL     1      -4.012 -24.923  45.363  1.00  0.00     0.211 HD
ENDBRANCH  12  17
BRANCH  14  19
ATOM     19  O   UNL     1      -1.578 -25.150  48.315  1.00  0.00    -0.387 OA
ATOM     20  H   UNL     1      -1.099 -25.216  47.456  1.00  0.00     0.211 HD
ENDBRANCH  14  19
BRANCH  15  21
ATOM     21  C   UNL     1      -3.833 -21.414  50.325  1.00  0.00     0.191 C 
BRANCH  21  22
ATOM     22  O   UNL     1      -3.321 -20.443  49.466  1.00  0.00    -0.394 OA
ATOM     23  H   UNL     1      -3.878 -20.455  48.650  1.00  0.00     0.210 HD
ENDBRANCH  21  22
ENDBRANCH  15  21
BRANCH  16  24
ATOM     24  O   UNL     1      -3.687 -24.938  50.174  1.00  0.00    -0.387 OA
ATOM     25  H   UNL     1      -3.006 -25.644  50.197  1.00  0.00     0.211 HD
ENDBRANCH  16  24
ENDBRANCH  10  11
ENDBRANCH   4  10
BRANCH   6  26
ATOM     26  O   UNL     1      -1.149 -19.922  44.478  1.00  0.00    -0.346 OA
BRANCH  26  27
ATOM     27  C   UNL     1       0.008 -20.561  43.876  1.00  0.00     0.130 C 
ATOM     28  C   UNL     1       0.163 -20.312  42.376  1.00  0.00     0.033 C 
ATOM     29  C   UNL     1       0.495 -22.018  44.286  1.00  0.00     0.020 C 
ATOM     30  C   UNL     1       1.614 -20.427  41.832  1.00  0.00     0.010 C 
ATOM     31  C   UNL     1       1.583 -22.583  43.228  1.00  0.00     0.006 C 
ATOM     32  C   UNL     1       1.121 -21.927  45.735  1.00  0.00     0.017 C 
ATOM     33  C   UNL     1       2.526 -21.582  42.444  1.00  0.00    -0.022 C 
ATOM     34  C   UNL     1       1.034 -23.602  42.179  1.00  0.00     0.005 C 
ATOM     35  C   UNL     1       3.521 -20.881  43.413  1.00  0.00     0.012 C 
ATOM     36  C   UNL     1       3.352 -22.390  41.251  1.00  0.00     0.024 C 
ATOM     37  C   UNL     1       2.122 -24.619  41.947  1.00  0.00     0.008 C 
ATOM     38  C   UNL     1       3.385 -23.976  41.323  1.00  0.00    -0.017 C 
ATOM     39  C   UNL     1       4.645 -21.854  40.604  1.00  0.00    -0.024 C 
ATOM     40  C   UNL     1       3.333 -24.433  39.788  1.00  0.00     0.013 C 
ATOM     41  C   UNL     1       4.717 -24.530  42.018  1.00  0.00     0.009 C 
ATOM     42  C   UNL     1       5.726 -22.660  40.409  1.00  0.00     0.005 C 
ATOM     43  C   UNL     1       6.032 -23.670  41.476  1.00  0.00     0.096 C 
ATOM     44  C   UNL     1       4.939 -24.532  43.545  1.00  0.00     0.043 C 
ATOM     45  C   UNL     1       4.642 -26.121  41.759  1.00  0.00     0.015 C 
ATOM     46  C   UNL     1       7.167 -24.702  41.272  1.00  0.00     0.037 C 
ATOM     47  O   UNL     1       6.536 -22.784  42.486  1.00  0.00    -0.369 OA
ATOM     48  C   UNL     1       6.396 -25.045  43.894  1.00  0.00     0.124 C 
ATOM     49  C   UNL     1       7.558 -24.777  42.772  1.00  0.00     0.026 C 
ATOM     50  C   UNL     1       7.999 -25.612  40.349  1.00  0.00     0.014 C 
ATOM     51  C   UNL     1       7.791 -23.286  42.877  1.00  0.00     0.171 C 
ATOM     52  C   UNL     1       8.837 -25.635  43.011  1.00  0.00     0.013 C 
ATOM     53  C   UNL     1       9.514 -25.479  40.479  1.00  0.00    -0.035 C 
ATOM     54  C   UNL     1       9.954 -25.348  41.982  1.00  0.00     0.007 C 
ATOM     55  C   UNL     1      10.121 -26.749  39.863  1.00  0.00     0.011 C 
ATOM     56  C   UNL     1       9.980 -24.255  39.665  1.00  0.00     0.011 C 
BRANCH  29  57
ATOM     57  C   UNL     1      -0.627 -23.104  44.374  1.00  0.00     0.165 C 
BRANCH  57  58
ATOM     58  O   UNL     1      -0.593 -23.863  45.514  1.00  0.00    -0.396 OA
ATOM     59  H   UNL     1      -0.411 -23.181  46.224  1.00  0.00     0.210 HD
ENDBRANCH  57  58
ENDBRANCH  29  57
BRANCH  48  60
ATOM     60  O   UNL     1       6.378 -26.378  44.338  1.00  0.00    -0.392 OA
ATOM     61  H   UNL     1       6.173 -26.374  45.327  1.00  0.00     0.210 HD
ENDBRANCH  48  60
ENDBRANCH  26  27
ENDBRANCH   6  26
BRANCH   5  62
ATOM     62  O   UNL     1      -2.279 -20.968  46.737  1.00  0.00    -0.385 OA
ATOM     63  H   UNL     1      -1.566 -21.436  46.199  1.00  0.00     0.211 HD
ENDBRANCH   5  62
TORSDOF 14
ENDMDL
MODEL 4
REMARK VINA RESULT:    -7.535      4.016      9.963
REMARK INTER + INTRA:         -13.670
REMARK INTER:                 -11.808
REMARK INTRA:                  -1.862
REMARK UNBOUND:                -1.729
REMARK SMILES C[C@H]1O[C@@H](O[C@@H]2CC[C@@]3(C)[C@H](CC[C@@]4(C)[C@@H]3C=C[C@]35OC[C@@]6(CCC(C)(C)C[C@@H]63)[C@H](O)C[C@@]45C)[C@]2(C)CO)[C@H](O)[C@H](O[C@@H]2O[C@H](CO)[C@@H](O)[C@@H](O)[C@@H]2O)[C@H]1O
REMARK SMILES IDX 1 1 2 2 54 3 41 4 39 5 4 6 3 7 55 8 42 10 43 11 52 12 44 13
REMARK SMILES IDX 50 14 45 15 48 16 53 17 51 19 46 21 47 22 49 24 5 26 6 27
REMARK SMILES IDX 7 28 35 29 8 30 11 31 36 32 9 33 12 34 10 35 16 36 13 37
REMARK SMILES IDX 14 38 17 39 15 40 33 41 18 42 19 43 32 44 34 45 29 46 20 47
REMARK SMILES IDX 30 48 22 49 28 50 21 51 23 52 25 53 24 54 26 55 27 56 37 57
REMARK SMILES IDX 38 58 31 60 40 62
REMARK H PARENT 55 9 53 18 51 20 47 23 49 25 38 59 31 61 40 63
REMARK Flexibility Score: inf
ROOT
ATOM      1  C   UNL     1       6.566 -19.800  47.218  1.00  0.00     0.041 C 
ATOM      2  C   UNL     1       5.580 -20.964  47.142  1.00  0.00     0.150 C 
ATOM      3  C   UNL     1       6.352 -22.331  47.105  1.00  0.00     0.175 C 
ATOM      4  C   UNL     1       6.721 -22.838  45.673  1.00  0.00     0.186 C 
ATOM      5  C   UNL     1       5.905 -22.051  44.627  1.00  0.00     0.202 C 
ATOM      6  C   UNL     1       4.470 -21.719  45.168  1.00  0.00     0.282 C 
ATOM      7  O   UNL     1       4.590 -20.693  46.129  1.00  0.00    -0.344 OA
ENDROOT
BRANCH   3   8
ATOM      8  O   UNL     1       7.523 -22.295  47.875  1.00  0.00    -0.388 OA
ATOM      9  H   UNL     1       7.691 -23.233  48.148  1.00  0.00     0.211 HD
ENDBRANCH   3   8
BRANCH   4  10
ATOM     10  O   UNL     1       6.369 -24.226  45.596  1.00  0.00    -0.341 OA
BRANCH  10  11
ATOM     11  C   UNL     1       7.350 -25.117  45.080  1.00  0.00     0.282 C 
ATOM     12  C   UNL     1       7.808 -26.085  46.206  1.00  0.00     0.202 C 
ATOM     13  O   UNL     1       6.977 -25.703  43.831  1.00  0.00    -0.341 OA
ATOM     14  C   UNL     1       7.087 -27.428  46.047  1.00  0.00     0.179 C 
ATOM     15  C   UNL     1       7.379 -27.050  43.523  1.00  0.00     0.178 C 
ATOM     16  C   UNL     1       7.559 -28.055  44.712  1.00  0.00     0.177 C 
BRANCH  12  17
ATOM     17  O   UNL     1       7.672 -25.524  47.500  1.00  0.00    -0.385 OA
ATOM     18  H   UNL     1       7.155 -24.666  47.489  1.00  0.00     0.211 HD
ENDBRANCH  12  17
BRANCH  14  19
ATOM     19  O   UNL     1       7.335 -28.317  47.125  1.00  0.00    -0.387 OA
ATOM     20  H   UNL     1       8.225 -28.117  47.498  1.00  0.00     0.211 HD
ENDBRANCH  14  19
BRANCH  15  21
ATOM     21  C   UNL     1       6.396 -27.597  42.469  1.00  0.00     0.191 C 
BRANCH  21  22
ATOM     22  O   UNL     1       5.279 -28.150  43.094  1.00  0.00    -0.394 OA
ATOM     23  H   UNL     1       4.524 -27.531  42.939  1.00  0.00     0.210 HD
ENDBRANCH  21  22
ENDBRANCH  15  21
BRANCH  16  24
ATOM     24  O   UNL     1       8.927 -28.389  44.799  1.00  0.00    -0.387 OA
ATOM     25  H   UNL     1       9.141 -28.584  45.737  1.00  0.00     0.211 HD
ENDBRANCH  16  24
ENDBRANCH  10  11
ENDBRANCH   4  10
BRANCH   6  26
ATOM     26  O   UNL     1       3.698 -21.214  44.061  1.00  0.00    -0.346 OA
BRANCH  26  27
ATOM     27  C   UNL     1       2.247 -21.213  43.990  1.00  0.00     0.130 C 
ATOM     28  C   UNL     1       1.562 -22.176  44.961  1.00  0.00     0.033 C 
ATOM     29  C   UNL     1       1.454 -21.096  42.617  1.00  0.00     0.020 C 
ATOM     30  C   UNL     1       0.110 -21.793  45.359  1.00  0.00     0.010 C 
ATOM     31  C   UNL     1      -0.111 -21.455  42.821  1.00  0.00     0.006 C 
ATOM     32  C   UNL     1       1.623 -19.616  42.088  1.00  0.00     0.017 C 
ATOM     33  C   UNL     1      -0.816 -21.184  44.214  1.00  0.00    -0.022 C 
ATOM     34  C   UNL     1      -0.537 -22.889  42.371  1.00  0.00     0.005 C 
ATOM     35  C   UNL     1      -0.912 -19.657  44.500  1.00  0.00     0.012 C 
ATOM     36  C   UNL     1      -2.327 -21.872  44.233  1.00  0.00     0.024 C 
ATOM     37  C   UNL     1      -1.921 -22.770  41.786  1.00  0.00     0.008 C 
ATOM     38  C   UNL     1      -2.955 -22.312  42.842  1.00  0.00    -0.017 C 
ATOM     39  C   UNL     1      -3.438 -21.448  45.215  1.00  0.00    -0.024 C 
ATOM     40  C   UNL     1      -3.769 -23.646  43.192  1.00  0.00     0.013 C 
ATOM     41  C   UNL     1      -3.942 -21.205  42.239  1.00  0.00     0.009 C 
ATOM     42  C   UNL     1      -4.716 -21.237  44.790  1.00  0.00     0.005 C 
ATOM     43  C   UNL     1      -4.896 -20.584  43.451  1.00  0.00     0.096 C 
ATOM     44  C   UNL     1      -3.451 -19.926  41.528  1.00  0.00     0.043 C 
ATOM     45  C   UNL     1      -4.631 -21.957  40.989  1.00  0.00     0.015 C 
ATOM     46  C   UNL     1      -6.311 -20.422  42.846  1.00  0.00     0.037 C 
ATOM     47  O   UNL     1      -4.505 -19.248  43.799  1.00  0.00    -0.369 OA
ATOM     48  C   UNL     1      -4.675 -18.996  41.149  1.00  0.00     0.124 C 
ATOM     49  C   UNL     1      -5.997 -19.092  42.111  1.00  0.00     0.026 C 
ATOM     50  C   UNL     1      -7.749 -20.937  42.647  1.00  0.00     0.014 C 
ATOM     51  C   UNL     1      -5.544 -18.397  43.377  1.00  0.00     0.171 C 
ATOM     52  C   UNL     1      -7.264 -18.457  41.462  1.00  0.00     0.013 C 
ATOM     53  C   UNL     1      -8.858 -19.929  42.939  1.00  0.00    -0.035 C 
ATOM     54  C   UNL     1      -8.500 -18.502  42.388  1.00  0.00     0.007 C 
ATOM     55  C   UNL     1     -10.125 -20.458  42.247  1.00  0.00     0.011 C 
ATOM     56  C   UNL     1      -9.103 -19.882  44.461  1.00  0.00     0.011 C 
BRANCH  29  57
ATOM     57  C   UNL     1       1.963 -22.022  41.464  1.00  0.00     0.165 C 
BRANCH  57  58
ATOM     58  O   UNL     1       3.191 -22.585  41.689  1.00  0.00    -0.396 OA
ATOM     59  H   UNL     1       3.410 -22.266  42.613  1.00  0.00     0.210 HD
ENDBRANCH  57  58
ENDBRANCH  29  57
BRANCH  48  60
ATOM     60  O   UNL     1      -4.997 -19.102  39.786  1.00  0.00    -0.392 OA
ATOM     61  H   UNL     1      -5.353 -18.209  39.479  1.00  0.00     0.210 HD
ENDBRANCH  48  60
ENDBRANCH  26  27
ENDBRANCH   6  26
BRANCH   5  62
ATOM     62  O   UNL     1       5.862 -22.757  43.421  1.00  0.00    -0.385 OA
ATOM     63  H   UNL     1       6.046 -22.071  42.705  1.00  0.00     0.211 HD
ENDBRANCH   5  62
TORSDOF 14
ENDMDL
MODEL 5
REMARK VINA RESULT:    -7.482      1.653      2.126
REMARK INTER + INTRA:         -13.585
REMARK INTER:                 -12.620
REMARK INTRA:                  -0.965
REMARK UNBOUND:                -1.729
REMARK SMILES C[C@H]1O[C@@H](O[C@@H]2CC[C@@]3(C)[C@H](CC[C@@]4(C)[C@@H]3C=C[C@]35OC[C@@]6(CCC(C)(C)C[C@@H]63)[C@H](O)C[C@@]45C)[C@]2(C)CO)[C@H](O)[C@H](O[C@@H]2O[C@H](CO)[C@@H](O)[C@@H](O)[C@@H]2O)[C@H]1O
REMARK SMILES IDX 1 1 2 2 54 3 41 4 39 5 4 6 3 7 55 8 42 10 43 11 52 12 44 13
REMARK SMILES IDX 50 14 45 15 48 16 53 17 51 19 46 21 47 22 49 24 5 26 6 27
REMARK SMILES IDX 7 28 35 29 8 30 11 31 36 32 9 33 12 34 10 35 16 36 13 37
REMARK SMILES IDX 14 38 17 39 15 40 33 41 18 42 19 43 32 44 34 45 29 46 20 47
REMARK SMILES IDX 30 48 22 49 28 50 21 51 23 52 25 53 24 54 26 55 27 56 37 57
REMARK SMILES IDX 38 58 31 60 40 62
REMARK H PARENT 55 9 53 18 51 20 47 23 49 25 38 59 31 61 40 63
REMARK Flexibility Score: inf
ROOT
ATOM      1  C   UNL     1      -6.870 -19.623  47.200  1.00  0.00     0.041 C 
ATOM      2  C   UNL     1      -6.368 -21.020  46.840  1.00  0.00     0.150 C 
ATOM      3  C   UNL     1      -5.538 -21.625  48.028  1.00  0.00     0.175 C 
ATOM      4  C   UNL     1      -4.009 -21.306  47.990  1.00  0.00     0.186 C 
ATOM      5  C   UNL     1      -3.631 -20.785  46.588  1.00  0.00     0.202 C 
ATOM      6  C   UNL     1      -4.470 -21.507  45.476  1.00  0.00     0.282 C 
ATOM      7  O   UNL     1      -5.786 -20.998  45.521  1.00  0.00    -0.344 OA
ENDROOT
BRANCH   3   8
ATOM      8  O   UNL     1      -6.041 -21.229  49.276  1.00  0.00    -0.388 OA
ATOM      9  H   UNL     1      -5.679 -21.882  49.928  1.00  0.00     0.211 HD
ENDBRANCH   3   8
BRANCH   4  10
ATOM     10  O   UNL     1      -3.300 -22.526  48.245  1.00  0.00    -0.341 OA
BRANCH  10  11
ATOM     11  C   UNL     1      -2.536 -22.596  49.442  1.00  0.00     0.282 C 
ATOM     12  C   UNL     1      -2.442 -24.076  49.905  1.00  0.00     0.202 C 
ATOM     13  O   UNL     1      -1.314 -21.858  49.373  1.00  0.00    -0.341 OA
ATOM     14  C   UNL     1      -1.087 -24.657  49.484  1.00  0.00     0.179 C 
ATOM     15  C   UNL     1      -0.147 -22.338  50.065  1.00  0.00     0.178 C 
ATOM     16  C   UNL     1       0.011 -23.885  50.257  1.00  0.00     0.177 C 
BRANCH  12  17
ATOM     17  O   UNL     1      -3.545 -24.856  49.478  1.00  0.00    -0.385 OA
ATOM     18  H   UNL     1      -4.065 -25.232  50.247  1.00  0.00     0.211 HD
ENDBRANCH  12  17
BRANCH  14  19
ATOM     19  O   UNL     1      -0.983 -26.050  49.736  1.00  0.00    -0.387 OA
ATOM     20  H   UNL     1      -1.876 -26.454  49.641  1.00  0.00     0.211 HD
ENDBRANCH  14  19
BRANCH  15  21
ATOM     21  C   UNL     1       1.087 -21.729  49.368  1.00  0.00     0.191 C 
BRANCH  21  22
ATOM     22  O   UNL     1       2.203 -21.827  50.197  1.00  0.00    -0.394 OA
ATOM     23  H   UNL     1       3.001 -21.810  49.613  1.00  0.00     0.210 HD
ENDBRANCH  21  22
ENDBRANCH  15  21
BRANCH  16  24
ATOM     24  O   UNL     1      -0.088 -24.167  51.635  1.00  0.00    -0.387 OA
ATOM     25  H   UNL     1      -0.688 -24.935  51.754  1.00  0.00     0.211 HD
ENDBRANCH  16  24
ENDBRANCH  10  11
ENDBRANCH   4  10
BRANCH   6  26
ATOM     26  O   UNL     1      -3.893 -21.155  44.203  1.00  0.00    -0.346 OA
BRANCH  26  27
ATOM     27  C   UNL     1      -2.474 -21.180  43.898  1.00  0.00     0.130 C 
ATOM     28  C   UNL     1      -1.902 -19.845  43.421  1.00  0.00     0.033 C 
ATOM     29  C   UNL     1      -1.771 -22.413  43.181  1.00  0.00     0.020 C 
ATOM     30  C   UNL     1      -0.380 -19.649  43.669  1.00  0.00     0.010 C 
ATOM     31  C   UNL     1      -0.282 -22.019  42.681  1.00  0.00     0.006 C 
ATOM     32  C   UNL     1      -1.714 -23.605  44.217  1.00  0.00     0.017 C 
ATOM     33  C   UNL     1       0.555 -20.922  43.458  1.00  0.00    -0.022 C 
ATOM     34  C   UNL     1      -0.147 -21.696  41.159  1.00  0.00     0.005 C 
ATOM     35  C   UNL     1       0.937 -21.421  44.882  1.00  0.00     0.012 C 
ATOM     36  C   UNL     1       1.920 -20.529  42.598  1.00  0.00     0.024 C 
ATOM     37  C   UNL     1       1.191 -22.229  40.716  1.00  0.00     0.008 C 
ATOM     38  C   UNL     1       2.361 -21.508  41.428  1.00  0.00    -0.017 C 
ATOM     39  C   UNL     1       3.154 -19.855  43.230  1.00  0.00    -0.024 C 
ATOM     40  C   UNL     1       2.951 -20.528  40.307  1.00  0.00     0.013 C 
ATOM     41  C   UNL     1       3.483 -22.552  41.894  1.00  0.00     0.009 C 
ATOM     42  C   UNL     1       4.416 -20.296  42.963  1.00  0.00     0.005 C 
ATOM     43  C   UNL     1       4.613 -21.777  42.835  1.00  0.00     0.096 C 
ATOM     44  C   UNL     1       3.174 -23.812  42.730  1.00  0.00     0.043 C 
ATOM     45  C   UNL     1       3.939 -23.254  40.514  1.00  0.00     0.015 C 
ATOM     46  C   UNL     1       5.988 -22.348  42.414  1.00  0.00     0.037 C 
ATOM     47  O   UNL     1       4.488 -22.141  44.218  1.00  0.00    -0.369 OA
ATOM     48  C   UNL     1       4.513 -24.568  43.111  1.00  0.00     0.124 C 
ATOM     49  C   UNL     1       5.861 -23.649  43.250  1.00  0.00     0.026 C 
ATOM     50  C   UNL     1       7.297 -22.232  41.608  1.00  0.00     0.014 C 
ATOM     51  C   UNL     1       5.628 -22.900  44.543  1.00  0.00     0.171 C 
ATOM     52  C   UNL     1       7.171 -24.494  43.238  1.00  0.00     0.013 C 
ATOM     53  C   UNL     1       8.583 -22.444  42.403  1.00  0.00    -0.035 C 
ATOM     54  C   UNL     1       8.442 -23.635  43.419  1.00  0.00     0.007 C 
ATOM     55  C   UNL     1       9.685 -22.756  41.377  1.00  0.00     0.011 C 
ATOM     56  C   UNL     1       8.939 -21.137  43.139  1.00  0.00     0.011 C 
BRANCH  29  57
ATOM     57  C   UNL     1      -2.514 -22.975  41.924  1.00  0.00     0.165 C 
BRANCH  57  58
ATOM     58  O   UNL     1      -3.639 -22.276  41.572  1.00  0.00    -0.396 OA
ATOM     59  H   UNL     1      -4.120 -22.185  42.445  1.00  0.00     0.210 HD
ENDBRANCH  57  58
ENDBRANCH  29  57
BRANCH  48  60
ATOM     60  O   UNL     1       4.715 -25.695  42.296  1.00  0.00    -0.392 OA
ATOM     61  H   UNL     1       4.436 -25.454  41.356  1.00  0.00     0.210 HD
ENDBRANCH  48  60
ENDBRANCH  26  27
ENDBRANCH   6  26
BRANCH   5  62
ATOM     62  O   UNL     1      -2.255 -20.922  46.380  1.00  0.00    -0.385 OA
ATOM     63  H   UNL     1      -1.858 -20.029  46.632  1.00  0.00     0.211 HD
ENDBRANCH   5  62
TORSDOF 14
ENDMDL
MODEL 6
REMARK VINA RESULT:    -7.352      2.586      5.555
REMARK INTER + INTRA:         -13.379
REMARK INTER:                 -11.272
REMARK INTRA:                  -2.107
REMARK UNBOUND:                -1.729
REMARK SMILES C[C@H]1O[C@@H](O[C@@H]2CC[C@@]3(C)[C@H](CC[C@@]4(C)[C@@H]3C=C[C@]35OC[C@@]6(CCC(C)(C)C[C@@H]63)[C@H](O)C[C@@]45C)[C@]2(C)CO)[C@H](O)[C@H](O[C@@H]2O[C@H](CO)[C@@H](O)[C@@H](O)[C@@H]2O)[C@H]1O
REMARK SMILES IDX 1 1 2 2 54 3 41 4 39 5 4 6 3 7 55 8 42 10 43 11 52 12 44 13
REMARK SMILES IDX 50 14 45 15 48 16 53 17 51 19 46 21 47 22 49 24 5 26 6 27
REMARK SMILES IDX 7 28 35 29 8 30 11 31 36 32 9 33 12 34 10 35 16 36 13 37
REMARK SMILES IDX 14 38 17 39 15 40 33 41 18 42 19 43 32 44 34 45 29 46 20 47
REMARK SMILES IDX 30 48 22 49 28 50 21 51 23 52 25 53 24 54 26 55 27 56 37 57
REMARK SMILES IDX 38 58 31 60 40 62
REMARK H PARENT 55 9 53 18 51 20 47 23 49 25 38 59 31 61 40 63
REMARK Flexibility Score: inf
ROOT
ATOM      1  C   UNL     1      -5.999 -22.094  48.447  1.00  0.00     0.041 C 
ATOM      2  C   UNL     1      -5.067 -21.060  47.820  1.00  0.00     0.150 C 
ATOM      3  C   UNL     1      -5.900 -19.908  47.152  1.00  0.00     0.175 C 
ATOM      4  C   UNL     1      -6.278 -20.153  45.656  1.00  0.00     0.186 C 
ATOM      5  C   UNL     1      -5.416 -21.303  45.094  1.00  0.00     0.202 C 
ATOM      6  C   UNL     1      -3.972 -21.275  45.709  1.00  0.00     0.282 C 
ATOM      7  O   UNL     1      -4.055 -21.731  47.042  1.00  0.00    -0.344 OA
ENDROOT
BRANCH   3   8
ATOM      8  O   UNL     1      -7.076 -19.630  47.864  1.00  0.00    -0.388 OA
ATOM      9  H   UNL     1      -7.818 -19.952  47.290  1.00  0.00     0.211 HD
ENDBRANCH   3   8
BRANCH   4  10
ATOM     10  O   UNL     1      -5.989 -18.952  44.928  1.00  0.00    -0.341 OA
BRANCH  10  11
ATOM     11  C   UNL     1      -6.969 -18.504  44.000  1.00  0.00     0.282 C 
ATOM     12  C   UNL     1      -6.306 -17.535  42.982  1.00  0.00     0.202 C 
ATOM     13  O   UNL     1      -7.763 -19.565  43.464  1.00  0.00    -0.341 OA
ATOM     14  C   UNL     1      -6.002 -18.290  41.683  1.00  0.00     0.179 C 
ATOM     15  C   UNL     1      -8.232 -19.493  42.106  1.00  0.00     0.178 C 
ATOM     16  C   UNL     1      -7.357 -18.716  41.064  1.00  0.00     0.177 C 
BRANCH  12  17
ATOM     17  O   UNL     1      -5.179 -16.864  43.517  1.00  0.00    -0.385 OA
ATOM     18  H   UNL     1      -5.423 -15.988  43.937  1.00  0.00     0.211 HD
ENDBRANCH  12  17
BRANCH  14  19
ATOM     19  O   UNL     1      -5.258 -17.515  40.756  1.00  0.00    -0.387 OA
ATOM     20  H   UNL     1      -4.546 -17.040  41.244  1.00  0.00     0.211 HD
ENDBRANCH  14  19
BRANCH  15  21
ATOM     21  C   UNL     1      -8.515 -20.935  41.637  1.00  0.00     0.191 C 
BRANCH  21  22
ATOM     22  O   UNL     1      -8.138 -21.844  42.625  1.00  0.00    -0.394 OA
ATOM     23  H   UNL     1      -8.556 -21.544  43.469  1.00  0.00     0.210 HD
ENDBRANCH  21  22
ENDBRANCH  15  21
BRANCH  16  24
ATOM     24  O   UNL     1      -8.075 -17.572  40.656  1.00  0.00    -0.387 OA
ATOM     25  H   UNL     1      -8.963 -17.856  40.348  1.00  0.00     0.211 HD
ENDBRANCH  16  24
ENDBRANCH  10  11
ENDBRANCH   4  10
BRANCH   6  26
ATOM     26  O   UNL     1      -3.167 -22.207  44.961  1.00  0.00    -0.346 OA
BRANCH  26  27
ATOM     27  C   UNL     1      -1.942 -21.870  44.258  1.00  0.00     0.130 C 
ATOM     28  C   UNL     1      -2.041 -21.951  42.734  1.00  0.00     0.033 C 
ATOM     29  C   UNL     1      -0.504 -22.304  44.779  1.00  0.00     0.020 C 
ATOM     30  C   UNL     1      -1.036 -21.056  41.956  1.00  0.00     0.010 C 
ATOM     31  C   UNL     1       0.618 -22.080  43.634  1.00  0.00     0.006 C 
ATOM     32  C   UNL     1      -0.174 -21.438  46.060  1.00  0.00     0.017 C 
ATOM     33  C   UNL     1       0.437 -20.937  42.553  1.00  0.00    -0.022 C 
ATOM     34  C   UNL     1       1.058 -23.366  42.863  1.00  0.00     0.005 C 
ATOM     35  C   UNL     1       0.526 -19.530  43.212  1.00  0.00     0.012 C 
ATOM     36  C   UNL     1       1.582 -21.091  41.360  1.00  0.00     0.024 C 
ATOM     37  C   UNL     1       2.533 -23.225  42.586  1.00  0.00     0.008 C 
ATOM     38  C   UNL     1       2.832 -22.026  41.655  1.00  0.00    -0.017 C 
ATOM     39  C   UNL     1       1.982 -19.939  40.417  1.00  0.00    -0.024 C 
ATOM     40  C   UNL     1       3.148 -22.704  40.238  1.00  0.00     0.013 C 
ATOM     41  C   UNL     1       4.105 -21.201  42.168  1.00  0.00     0.009 C 
ATOM     42  C   UNL     1       3.289 -19.667  40.147  1.00  0.00     0.005 C 
ATOM     43  C   UNL     1       4.268 -19.808  41.275  1.00  0.00     0.096 C 
ATOM     44  C   UNL     1       4.251 -20.678  43.612  1.00  0.00     0.043 C 
ATOM     45  C   UNL     1       5.289 -22.297  42.161  1.00  0.00     0.015 C 
ATOM     46  C   UNL     1       5.785 -19.636  41.020  1.00  0.00     0.037 C 
ATOM     47  O   UNL     1       3.904 -18.647  42.036  1.00  0.00    -0.369 OA
ATOM     48  C   UNL     1       5.570 -19.815  43.760  1.00  0.00     0.124 C 
ATOM     49  C   UNL     1       6.095 -19.038  42.417  1.00  0.00     0.026 C 
ATOM     50  C   UNL     1       7.014 -19.786  40.102  1.00  0.00     0.014 C 
ATOM     51  C   UNL     1       5.087 -17.920  42.259  1.00  0.00     0.171 C 
ATOM     52  C   UNL     1       7.568 -18.547  42.540  1.00  0.00     0.013 C 
ATOM     53  C   UNL     1       7.868 -18.532  39.932  1.00  0.00    -0.035 C 
ATOM     54  C   UNL     1       8.049 -17.769  41.294  1.00  0.00     0.007 C 
ATOM     55  C   UNL     1       9.234 -19.001  39.407  1.00  0.00     0.011 C 
ATOM     56  C   UNL     1       7.212 -17.619  38.877  1.00  0.00     0.011 C 
BRANCH  29  57
ATOM     57  C   UNL     1      -0.372 -23.797  45.228  1.00  0.00     0.165 C 
BRANCH  57  58
ATOM     58  O   UNL     1      -1.491 -24.556  45.007  1.00  0.00    -0.396 OA
ATOM     59  H   UNL     1      -1.845 -24.176  44.150  1.00  0.00     0.210 HD
ENDBRANCH  57  58
ENDBRANCH  29  57
BRANCH  48  60
ATOM     60  O   UNL     1       6.593 -20.545  44.389  1.00  0.00    -0.392 OA
ATOM     61  H   UNL     1       6.303 -21.510  44.438  1.00  0.00     0.210 HD
ENDBRANCH  48  60
ENDBRANCH  26  27
ENDBRANCH   6  26
BRANCH   5  62
ATOM     62  O   UNL     1      -5.393 -21.248  43.696  1.00  0.00    -0.385 OA
ATOM     63  H   UNL     1      -6.020 -21.977  43.391  1.00  0.00     0.211 HD
ENDBRANCH   5  62
TORSDOF 14
ENDMDL
MODEL 7
REMARK VINA RESULT:    -7.316      2.511      4.147
REMARK INTER + INTRA:         -13.321
REMARK INTER:                 -11.567
REMARK INTRA:                  -1.754
REMARK UNBOUND:                -1.729
REMARK SMILES C[C@H]1O[C@@H](O[C@@H]2CC[C@@]3(C)[C@H](CC[C@@]4(C)[C@@H]3C=C[C@]35OC[C@@]6(CCC(C)(C)C[C@@H]63)[C@H](O)C[C@@]45C)[C@]2(C)CO)[C@H](O)[C@H](O[C@@H]2O[C@H](CO)[C@@H](O)[C@@H](O)[C@@H]2O)[C@H]1O
REMARK SMILES IDX 1 1 2 2 54 3 41 4 39 5 4 6 3 7 55 8 42 10 43 11 52 12 44 13
REMARK SMILES IDX 50 14 45 15 48 16 53 17 51 19 46 21 47 22 49 24 5 26 6 27
REMARK SMILES IDX 7 28 35 29 8 30 11 31 36 32 9 33 12 34 10 35 16 36 13 37
REMARK SMILES IDX 14 38 17 39 15 40 33 41 18 42 19 43 32 44 34 45 29 46 20 47
REMARK SMILES IDX 30 48 22 49 28 50 21 51 23 52 25 53 24 54 26 55 27 56 37 57
REMARK SMILES IDX 38 58 31 60 40 62
REMARK H PARENT 55 9 53 18 51 20 47 23 49 25 38 59 31 61 40 63
REMARK Flexibility Score: inf
ROOT
ATOM      1  C   UNL     1      -6.714 -18.478  43.750  1.00  0.00     0.041 C 
ATOM      2  C   UNL     1      -5.976 -19.732  43.290  1.00  0.00     0.150 C 
ATOM      3  C   UNL     1      -5.812 -20.739  44.483  1.00  0.00     0.175 C 
ATOM      4  C   UNL     1      -4.512 -20.550  45.328  1.00  0.00     0.186 C 
ATOM      5  C   UNL     1      -3.523 -19.657  44.551  1.00  0.00     0.202 C 
ATOM      6  C   UNL     1      -3.613 -19.931  43.008  1.00  0.00     0.282 C 
ATOM      7  O   UNL     1      -4.810 -19.354  42.530  1.00  0.00    -0.344 OA
ENDROOT
BRANCH   3   8
ATOM      8  O   UNL     1      -6.912 -20.706  45.353  1.00  0.00    -0.388 OA
ATOM      9  H   UNL     1      -7.561 -20.081  44.940  1.00  0.00     0.211 HD
ENDBRANCH   3   8
BRANCH   4  10
ATOM     10  O   UNL     1      -3.923 -21.844  45.522  1.00  0.00    -0.341 OA
BRANCH  10  11
ATOM     11  C   UNL     1      -4.051 -22.429  46.812  1.00  0.00     0.282 C 
ATOM     12  C   UNL     1      -2.642 -22.584  47.448  1.00  0.00     0.202 C 
ATOM     13  O   UNL     1      -5.061 -21.811  47.612  1.00  0.00    -0.341 OA
ATOM     14  C   UNL     1      -2.399 -21.437  48.435  1.00  0.00     0.179 C 
ATOM     15  C   UNL     1      -4.882 -21.708  49.036  1.00  0.00     0.178 C 
ATOM     16  C   UNL     1      -3.421 -21.593  49.589  1.00  0.00     0.177 C 
BRANCH  12  17
ATOM     17  O   UNL     1      -1.616 -22.718  46.480  1.00  0.00    -0.385 OA
ATOM     18  H   UNL     1      -1.494 -23.668  46.184  1.00  0.00     0.211 HD
ENDBRANCH  12  17
BRANCH  14  19
ATOM     19  O   UNL     1      -1.075 -21.420  48.946  1.00  0.00    -0.387 OA
ATOM     20  H   UNL     1      -0.933 -20.569  49.420  1.00  0.00     0.211 HD
ENDBRANCH  14  19
BRANCH  15  21
ATOM     21  C   UNL     1      -5.763 -20.542  49.530  1.00  0.00     0.191 C 
BRANCH  21  22
ATOM     22  O   UNL     1      -7.051 -20.660  49.011  1.00  0.00    -0.394 OA
ATOM     23  H   UNL     1      -7.233 -21.626  48.902  1.00  0.00     0.210 HD
ENDBRANCH  21  22
ENDBRANCH  15  21
BRANCH  16  24
ATOM     24  O   UNL     1      -3.137 -22.764  50.322  1.00  0.00    -0.387 OA
ATOM     25  H   UNL     1      -2.203 -22.726  50.621  1.00  0.00     0.211 HD
ENDBRANCH  16  24
ENDBRANCH  10  11
ENDBRANCH   4  10
BRANCH   6  26
ATOM     26  O   UNL     1      -2.505 -19.254  42.385  1.00  0.00    -0.346 OA
BRANCH  26  27
ATOM     27  C   UNL     1      -1.192 -19.835  42.164  1.00  0.00     0.130 C 
ATOM     28  C   UNL     1      -0.106 -18.827  41.787  1.00  0.00     0.033 C 
ATOM     29  C   UNL     1      -0.982 -21.230  41.433  1.00  0.00     0.020 C 
ATOM     30  C   UNL     1       1.347 -19.256  42.135  1.00  0.00     0.010 C 
ATOM     31  C   UNL     1       0.574 -21.450  41.043  1.00  0.00     0.006 C 
ATOM     32  C   UNL     1      -1.477 -22.367  42.412  1.00  0.00     0.017 C 
ATOM     33  C   UNL     1       1.717 -20.792  41.921  1.00  0.00    -0.022 C 
ATOM     34  C   UNL     1       0.939 -21.177  39.549  1.00  0.00     0.005 C 
ATOM     35  C   UNL     1       1.764 -21.429  43.340  1.00  0.00     0.012 C 
ATOM     36  C   UNL     1       3.185 -20.955  41.164  1.00  0.00     0.024 C 
ATOM     37  C   UNL     1       1.987 -22.189  39.163  1.00  0.00     0.008 C 
ATOM     38  C   UNL     1       3.290 -22.006  39.977  1.00  0.00    -0.017 C 
ATOM     39  C   UNL     1       4.535 -20.839  41.900  1.00  0.00    -0.024 C 
ATOM     40  C   UNL     1       4.301 -21.318  38.942  1.00  0.00     0.013 C 
ATOM     41  C   UNL     1       3.871 -23.418  40.460  1.00  0.00     0.009 C 
ATOM     42  C   UNL     1       5.536 -21.739  41.690  1.00  0.00     0.005 C 
ATOM     43  C   UNL     1       5.142 -23.175  41.503  1.00  0.00     0.096 C 
ATOM     44  C   UNL     1       3.029 -24.468  41.215  1.00  0.00     0.043 C 
ATOM     45  C   UNL     1       4.114 -24.216  39.078  1.00  0.00     0.015 C 
ATOM     46  C   UNL     1       6.207 -24.236  41.139  1.00  0.00     0.037 C 
ATOM     47  O   UNL     1       4.781 -23.486  42.857  1.00  0.00    -0.369 OA
ATOM     48  C   UNL     1       3.928 -25.701  41.639  1.00  0.00     0.124 C 
ATOM     49  C   UNL     1       5.516 -25.396  41.902  1.00  0.00     0.026 C 
ATOM     50  C   UNL     1       7.511 -24.633  40.420  1.00  0.00     0.014 C 
ATOM     51  C   UNL     1       5.501 -24.642  43.214  1.00  0.00     0.171 C 
ATOM     52  C   UNL     1       6.382 -26.691  41.929  1.00  0.00     0.013 C 
ATOM     53  C   UNL     1       8.546 -25.354  41.279  1.00  0.00    -0.035 C 
ATOM     54  C   UNL     1       7.873 -26.411  42.228  1.00  0.00     0.007 C 
ATOM     55  C   UNL     1       9.509 -26.057  40.309  1.00  0.00     0.011 C 
ATOM     56  C   UNL     1       9.334 -24.310  42.097  1.00  0.00     0.011 C 
BRANCH  29  57
ATOM     57  C   UNL     1      -1.791 -21.426  40.108  1.00  0.00     0.165 C 
BRANCH  57  58
ATOM     58  O   UNL     1      -2.417 -20.295  39.655  1.00  0.00    -0.396 OA
ATOM     59  H   UNL     1      -1.700 -19.601  39.740  1.00  0.00     0.210 HD
ENDBRANCH  57  58
ENDBRANCH  29  57
BRANCH  48  60
ATOM     60  O   UNL     1       3.729 -26.799  40.785  1.00  0.00    -0.392 OA
ATOM     61  H   UNL     1       3.080 -27.428  41.233  1.00  0.00     0.210 HD
ENDBRANCH  48  60
ENDBRANCH  26  27
ENDBRANCH   6  26
BRANCH   5  62
ATOM     62  O   UNL     1      -2.226 -19.835  45.041  1.00  0.00    -0.385 OA
ATOM     63  H   UNL     1      -1.636 -19.278  44.442  1.00  0.00     0.211 HD
ENDBRANCH   5  62
TORSDOF 14
ENDMDL
MODEL 8
REMARK VINA RESULT:    -7.242      2.304      3.765
REMARK INTER + INTRA:         -13.205
REMARK INTER:                 -13.050
REMARK INTRA:                  -0.155
REMARK UNBOUND:                -1.729
REMARK SMILES C[C@H]1O[C@@H](O[C@@H]2CC[C@@]3(C)[C@H](CC[C@@]4(C)[C@@H]3C=C[C@]35OC[C@@]6(CCC(C)(C)C[C@@H]63)[C@H](O)C[C@@]45C)[C@]2(C)CO)[C@H](O)[C@H](O[C@@H]2O[C@H](CO)[C@@H](O)[C@@H](O)[C@@H]2O)[C@H]1O
REMARK SMILES IDX 1 1 2 2 54 3 41 4 39 5 4 6 3 7 55 8 42 10 43 11 52 12 44 13
REMARK SMILES IDX 50 14 45 15 48 16 53 17 51 19 46 21 47 22 49 24 5 26 6 27
REMARK SMILES IDX 7 28 35 29 8 30 11 31 36 32 9 33 12 34 10 35 16 36 13 37
REMARK SMILES IDX 14 38 17 39 15 40 33 41 18 42 19 43 32 44 34 45 29 46 20 47
REMARK SMILES IDX 30 48 22 49 28 50 21 51 23 52 25 53 24 54 26 55 27 56 37 57
REMARK SMILES IDX 38 58 31 60 40 62
REMARK H PARENT 55 9 53 18 51 20 47 23 49 25 38 59 31 61 40 63
REMARK Flexibility Score: inf
ROOT
ATOM      1  C   UNL     1      -9.180 -18.589  42.677  1.00  0.00     0.041 C 
ATOM      2  C   UNL     1      -8.516 -19.955  42.829  1.00  0.00     0.150 C 
ATOM      3  C   UNL     1      -8.107 -20.199  44.326  1.00  0.00     0.175 C 
ATOM      4  C   UNL     1      -6.674 -19.705  44.704  1.00  0.00     0.186 C 
ATOM      5  C   UNL     1      -5.871 -19.434  43.415  1.00  0.00     0.202 C 
ATOM      6  C   UNL     1      -6.246 -20.465  42.293  1.00  0.00     0.282 C 
ATOM      7  O   UNL     1      -7.523 -20.127  41.797  1.00  0.00    -0.344 OA
ENDROOT
BRANCH   3   8
ATOM      8  O   UNL     1      -9.022 -19.626  45.221  1.00  0.00    -0.388 OA
ATOM      9  H   UNL     1      -8.993 -20.194  46.033  1.00  0.00     0.211 HD
ENDBRANCH   3   8
BRANCH   4  10
ATOM     10  O   UNL     1      -6.032 -20.750  45.447  1.00  0.00    -0.341 OA
BRANCH  10  11
ATOM     11  C   UNL     1      -5.039 -20.362  46.389  1.00  0.00     0.282 C 
ATOM     12  C   UNL     1      -5.707 -20.134  47.773  1.00  0.00     0.202 C 
ATOM     13  O   UNL     1      -3.878 -21.194  46.357  1.00  0.00    -0.341 OA
ATOM     14  C   UNL     1      -5.486 -21.368  48.655  1.00  0.00     0.179 C 
ATOM     15  C   UNL     1      -3.159 -21.467  47.573  1.00  0.00     0.178 C 
ATOM     16  C   UNL     1      -3.964 -21.486  48.917  1.00  0.00     0.177 C 
BRANCH  12  17
ATOM     17  O   UNL     1      -7.068 -19.754  47.670  1.00  0.00    -0.385 OA
ATOM     18  H   UNL     1      -7.677 -20.390  48.147  1.00  0.00     0.211 HD
ENDBRANCH  12  17
BRANCH  14  19
ATOM     19  O   UNL     1      -6.194 -21.301  49.884  1.00  0.00    -0.387 OA
ATOM     20  H   UNL     1      -7.136 -21.540  49.716  1.00  0.00     0.211 HD
ENDBRANCH  14  19
BRANCH  15  21
ATOM     21  C   UNL     1      -2.380 -22.782  47.365  1.00  0.00     0.191 C 
BRANCH  21  22
ATOM     22  O   UNL     1      -2.038 -23.337  48.597  1.00  0.00    -0.394 OA
ATOM     23  H   UNL     1      -2.839 -23.808  48.935  1.00  0.00     0.210 HD
ENDBRANCH  21  22
ENDBRANCH  15  21
BRANCH  16  24
ATOM     24  O   UNL     1      -3.529 -20.400  49.704  1.00  0.00    -0.387 OA
ATOM     25  H   UNL     1      -2.549 -20.354  49.658  1.00  0.00     0.211 HD
ENDBRANCH  16  24
ENDBRANCH  10  11
ENDBRANCH   4  10
BRANCH   6  26
ATOM     26  O   UNL     1      -5.291 -20.308  41.226  1.00  0.00    -0.346 OA
BRANCH  26  27
ATOM     27  C   UNL     1      -3.848 -20.371  41.384  1.00  0.00     0.130 C 
ATOM     28  C   UNL     1      -3.110 -19.088  41.000  1.00  0.00     0.033 C 
ATOM     29  C   UNL     1      -3.001 -21.668  41.029  1.00  0.00     0.020 C 
ATOM     30  C   UNL     1      -1.736 -18.881  41.695  1.00  0.00     0.010 C 
ATOM     31  C   UNL     1      -1.418 -21.331  40.990  1.00  0.00     0.006 C 
ATOM     32  C   UNL     1      -3.311 -22.762  42.126  1.00  0.00     0.017 C 
ATOM     33  C   UNL     1      -0.826 -20.174  41.896  1.00  0.00    -0.022 C 
ATOM     34  C   UNL     1      -0.804 -21.148  39.565  1.00  0.00     0.005 C 
ATOM     35  C   UNL     1      -0.925 -20.545  43.404  1.00  0.00     0.012 C 
ATOM     36  C   UNL     1       0.751 -19.870  41.476  1.00  0.00     0.024 C 
ATOM     37  C   UNL     1       0.586 -21.728  39.610  1.00  0.00     0.008 C 
ATOM     38  C   UNL     1       1.501 -20.954  40.590  1.00  0.00    -0.017 C 
ATOM     39  C   UNL     1       1.750 -19.150  42.404  1.00  0.00    -0.024 C 
ATOM     40  C   UNL     1       2.445 -20.083  39.632  1.00  0.00     0.013 C 
ATOM     41  C   UNL     1       2.384 -21.959  41.469  1.00  0.00     0.009 C 
ATOM     42  C   UNL     1       3.016 -19.622  42.585  1.00  0.00     0.005 C 
ATOM     43  C   UNL     1       3.192 -21.111  42.649  1.00  0.00     0.096 C 
ATOM     44  C   UNL     1       1.787 -23.136  42.269  1.00  0.00     0.043 C 
ATOM     45  C   UNL     1       3.222 -22.786  40.366  1.00  0.00     0.015 C 
ATOM     46  C   UNL     1       4.609 -21.727  42.729  1.00  0.00     0.037 C 
ATOM     47  O   UNL     1       2.630 -21.347  43.948  1.00  0.00    -0.369 OA
ATOM     48  C   UNL     1       2.913 -23.864  43.112  1.00  0.00     0.124 C 
ATOM     49  C   UNL     1       4.182 -22.946  43.589  1.00  0.00     0.026 C 
ATOM     50  C   UNL     1       6.106 -21.693  42.367  1.00  0.00     0.014 C 
ATOM     51  C   UNL     1       3.584 -22.082  44.676  1.00  0.00     0.171 C 
ATOM     52  C   UNL     1       5.400 -23.797  44.059  1.00  0.00     0.013 C 
ATOM     53  C   UNL     1       7.073 -21.842  43.540  1.00  0.00    -0.035 C 
ATOM     54  C   UNL     1       6.581 -22.934  44.557  1.00  0.00     0.007 C 
ATOM     55  C   UNL     1       8.428 -22.252  42.941  1.00  0.00     0.011 C 
ATOM     56  C   UNL     1       7.227 -20.475  44.238  1.00  0.00     0.011 C 
BRANCH  29  57
ATOM     57  C   UNL     1      -3.335 -22.336  39.654  1.00  0.00     0.165 C 
BRANCH  57  58
ATOM     58  O   UNL     1      -3.455 -23.700  39.702  1.00  0.00    -0.396 OA
ATOM     59  H   UNL     1      -3.661 -23.933  38.749  1.00  0.00     0.210 HD
ENDBRANCH  57  58
ENDBRANCH  29  57
BRANCH  48  60
ATOM     60  O   UNL     1       3.319 -25.061  42.499  1.00  0.00    -0.392 OA
ATOM     61  H   UNL     1       4.256 -24.930  42.147  1.00  0.00     0.210 HD
ENDBRANCH  48  60
ENDBRANCH  26  27
ENDBRANCH   6  26
BRANCH   5  62
ATOM     62  O   UNL     1      -4.500 -19.436  43.694  1.00  0.00    -0.385 OA
ATOM     63  H   UNL     1      -4.257 -18.468  43.839  1.00  0.00     0.211 HD
ENDBRANCH   5  62
TORSDOF 14
ENDMDL
MODEL 9
REMARK VINA RESULT:    -7.160      3.715     10.011
REMARK INTER + INTRA:         -13.075
REMARK INTER:                 -11.188
REMARK INTRA:                  -1.887
REMARK UNBOUND:                -1.729
REMARK SMILES C[C@H]1O[C@@H](O[C@@H]2CC[C@@]3(C)[C@H](CC[C@@]4(C)[C@@H]3C=C[C@]35OC[C@@]6(CCC(C)(C)C[C@@H]63)[C@H](O)C[C@@]45C)[C@]2(C)CO)[C@H](O)[C@H](O[C@@H]2O[C@H](CO)[C@@H](O)[C@@H](O)[C@@H]2O)[C@H]1O
REMARK SMILES IDX 1 1 2 2 54 3 41 4 39 5 4 6 3 7 55 8 42 10 43 11 52 12 44 13
REMARK SMILES IDX 50 14 45 15 48 16 53 17 51 19 46 21 47 22 49 24 5 26 6 27
REMARK SMILES IDX 7 28 35 29 8 30 11 31 36 32 9 33 12 34 10 35 16 36 13 37
REMARK SMILES IDX 14 38 17 39 15 40 33 41 18 42 19 43 32 44 34 45 29 46 20 47
REMARK SMILES IDX 30 48 22 49 28 50 21 51 23 52 25 53 24 54 26 55 27 56 37 57
REMARK SMILES IDX 38 58 31 60 40 62
REMARK H PARENT 55 9 53 18 51 20 47 23 49 25 38 59 31 61 40 63
REMARK Flexibility Score: inf
ROOT
ATOM      1  C   UNL     1       9.357 -19.554  42.698  1.00  0.00     0.041 C 
ATOM      2  C   UNL     1       8.211 -19.903  43.644  1.00  0.00     0.150 C 
ATOM      3  C   UNL     1       8.583 -21.159  44.511  1.00  0.00     0.175 C 
ATOM      4  C   UNL     1       8.188 -22.533  43.879  1.00  0.00     0.186 C 
ATOM      5  C   UNL     1       7.192 -22.296  42.726  1.00  0.00     0.202 C 
ATOM      6  C   UNL     1       6.232 -21.098  43.049  1.00  0.00     0.282 C 
ATOM      7  O   UNL     1       6.967 -19.900  42.917  1.00  0.00    -0.344 OA
ENDROOT
BRANCH   3   8
ATOM      8  O   UNL     1       9.949 -21.195  44.827  1.00  0.00    -0.388 OA
ATOM      9  H   UNL     1      10.082 -22.032  45.341  1.00  0.00     0.211 HD
ENDBRANCH   3   8
BRANCH   4  10
ATOM     10  O   UNL     1       7.551 -23.316  44.897  1.00  0.00    -0.341 OA
BRANCH  10  11
ATOM     11  C   UNL     1       8.123 -24.584  45.195  1.00  0.00     0.282 C 
ATOM     12  C   UNL     1       7.899 -24.907  46.698  1.00  0.00     0.202 C 
ATOM     13  O   UNL     1       7.767 -25.597  44.252  1.00  0.00    -0.341 OA
ATOM     14  C   UNL     1       6.708 -25.862  46.842  1.00  0.00     0.179 C 
ATOM     15  C   UNL     1       7.592 -26.956  44.693  1.00  0.00     0.178 C 
ATOM     16  C   UNL     1       7.096 -27.197  46.159  1.00  0.00     0.177 C 
BRANCH  12  17
ATOM     17  O   UNL     1       7.786 -23.744  47.499  1.00  0.00    -0.385 OA
ATOM     18  H   UNL     1       8.632 -23.207  47.511  1.00  0.00     0.211 HD
ENDBRANCH  12  17
BRANCH  14  19
ATOM     19  O   UNL     1       6.343 -26.087  48.195  1.00  0.00    -0.387 OA
ATOM     20  H   UNL     1       7.150 -26.012  48.754  1.00  0.00     0.211 HD
ENDBRANCH  14  19
BRANCH  15  21
ATOM     21  C   UNL     1       6.681 -27.661  43.668  1.00  0.00     0.191 C 
BRANCH  21  22
ATOM     22  O   UNL     1       5.632 -26.820  43.300  1.00  0.00    -0.394 OA
ATOM     23  H   UNL     1       5.913 -25.896  43.511  1.00  0.00     0.210 HD
ENDBRANCH  21  22
ENDBRANCH  15  21
BRANCH  16  24
ATOM     24  O   UNL     1       8.141 -27.814  46.879  1.00  0.00    -0.387 OA
ATOM     25  H   UNL     1       7.953 -28.776  46.938  1.00  0.00     0.211 HD
ENDBRANCH  16  24
ENDBRANCH  10  11
ENDBRANCH   4  10
BRANCH   6  26
ATOM     26  O   UNL     1       5.188 -21.100  42.056  1.00  0.00    -0.346 OA
BRANCH  26  27
ATOM     27  C   UNL     1       3.765 -21.113  42.344  1.00  0.00     0.130 C 
ATOM     28  C   UNL     1       3.341 -22.126  43.407  1.00  0.00     0.033 C 
ATOM     29  C   UNL     1       2.658 -20.944  41.216  1.00  0.00     0.020 C 
ATOM     30  C   UNL     1       2.031 -21.779  44.168  1.00  0.00     0.010 C 
ATOM     31  C   UNL     1       1.191 -21.329  41.782  1.00  0.00     0.006 C 
ATOM     32  C   UNL     1       2.690 -19.440  40.730  1.00  0.00     0.017 C 
ATOM     33  C   UNL     1       0.851 -21.129  43.316  1.00  0.00    -0.022 C 
ATOM     34  C   UNL     1       0.668 -22.747  41.384  1.00  0.00     0.005 C 
ATOM     35  C   UNL     1       0.829 -19.619  43.687  1.00  0.00     0.012 C 
ATOM     36  C   UNL     1      -0.608 -21.836  43.675  1.00  0.00     0.024 C 
ATOM     37  C   UNL     1      -0.817 -22.617  41.163  1.00  0.00     0.008 C 
ATOM     38  C   UNL     1      -1.559 -22.220  42.462  1.00  0.00    -0.017 C 
ATOM     39  C   UNL     1      -1.443 -21.469  44.918  1.00  0.00    -0.024 C 
ATOM     40  C   UNL     1      -2.262 -23.578  42.939  1.00  0.00     0.013 C 
ATOM     41  C   UNL     1      -2.665 -21.098  42.173  1.00  0.00     0.009 C 
ATOM     42  C   UNL     1      -2.786 -21.254  44.831  1.00  0.00     0.005 C 
ATOM     43  C   UNL     1      -3.291 -20.544  43.610  1.00  0.00     0.096 C 
ATOM     44  C   UNL     1      -2.365 -19.783  41.423  1.00  0.00     0.043 C 
ATOM     45  C   UNL     1      -3.640 -21.801  41.097  1.00  0.00     0.015 C 
ATOM     46  C   UNL     1      -4.811 -20.371  43.380  1.00  0.00     0.037 C 
ATOM     47  O   UNL     1      -2.827 -19.220  43.913  1.00  0.00    -0.369 OA
ATOM     48  C   UNL     1      -3.645 -18.851  41.401  1.00  0.00     0.124 C 
ATOM     49  C   UNL     1      -4.688 -19.006  42.653  1.00  0.00     0.026 C 
ATOM     50  C   UNL     1      -6.254 -20.894  43.518  1.00  0.00     0.014 C 
ATOM     51  C   UNL     1      -3.938 -18.364  43.799  1.00  0.00     0.171 C 
ATOM     52  C   UNL     1      -6.076 -18.358  42.366  1.00  0.00     0.013 C 
ATOM     53  C   UNL     1      -7.257 -19.913  44.120  1.00  0.00    -0.035 C 
ATOM     54  C   UNL     1      -7.046 -18.458  43.565  1.00  0.00     0.007 C 
ATOM     55  C   UNL     1      -8.655 -20.425  43.737  1.00  0.00     0.011 C 
ATOM     56  C   UNL     1      -7.119 -19.937  45.656  1.00  0.00     0.011 C 
BRANCH  29  57
ATOM     57  C   UNL     1       2.867 -21.811  39.930  1.00  0.00     0.165 C 
BRANCH  57  58
ATOM     58  O   UNL     1       4.060 -22.483  39.889  1.00  0.00    -0.396 OA
ATOM     59  H   UNL     1       3.957 -23.059  39.075  1.00  0.00     0.210 HD
ENDBRANCH  57  58
ENDBRANCH  29  57
BRANCH  48  60
ATOM     60  O   UNL     1      -4.293 -18.899  40.155  1.00  0.00    -0.392 OA
ATOM     61  H   UNL     1      -4.804 -19.768  40.103  1.00  0.00     0.210 HD
ENDBRANCH  48  60
ENDBRANCH  26  27
ENDBRANCH   6  26
BRANCH   5  62
ATOM     62  O   UNL     1       6.488 -23.473  42.449  1.00  0.00    -0.385 OA
ATOM     63  H   UNL     1       7.065 -23.980  41.796  1.00  0.00     0.211 HD
ENDBRANCH   5  62
TORSDOF 14
ENDMDL
