MODEL 1
REMARK VINA RESULT:    -4.071      0.000      0.000
REMARK INTER + INTRA:          -5.837
REMARK INTER:                  -5.499
REMARK INTRA:                  -0.338
REMARK UNBOUND:                -0.338
REMARK SMILES CCCCCCC=CC(=O)[O-]
REMARK SMILES IDX 5 1 6 2 7 3 8 4 9 5 10 6 11 7 4 8 3 9 2 10 1 11
REMARK H PARENT
REMARK Flexibility Score: inf
ROOT
ATOM      1  C   UNL     1     101.220 -67.839   6.743  1.00  0.00     0.004 C 
ENDROOT
BRANCH   1   2
ATOM      2  C   UNL     1     100.849 -69.285   6.371  1.00  0.00     0.027 C 
BRANCH   2   3
ATOM      3  C   UNL     1      99.769 -69.356   5.328  1.00  0.00    -0.025 C 
ATOM      4  C   UNL     1      99.451 -68.298   4.577  1.00  0.00     0.020 C 
BRANCH   4   5
ATOM      5  C   UNL     1      98.400 -68.357   3.550  1.00  0.00     0.064 C 
ATOM      6  O   UNL     1      97.303 -67.774   3.749  1.00  0.00    -0.545 OA
ATOM      7  O   UNL     1      98.599 -69.050   2.361  1.00  0.00    -0.545 OA
ENDBRANCH   4   5
ENDBRANCH   2   3
ENDBRANCH   1   2
BRANCH   1   8
ATOM      8  C   UNL     1     100.998 -67.488   8.227  1.00  0.00     0.000 C 
BRANCH   8   9
ATOM      9  C   UNL     1     101.241 -68.685   9.163  1.00  0.00    -0.000 C 
BRANCH   9  10
ATOM     10  C   UNL     1     100.378 -68.621  10.434  1.00  0.00    -0.003 C 
ATOM     11  C   UNL     1     100.157 -67.193  10.930  1.00  0.00     0.004 C 
ENDBRANCH   9  10
ENDBRANCH   8   9
ENDBRANCH   1   8
TORSDOF 6
ENDMDL
MODEL 2
REMARK VINA RESULT:    -3.781      1.727      2.865
REMARK INTER + INTRA:          -5.445
REMARK INTER:                  -5.090
REMARK INTRA:                  -0.355
REMARK UNBOUND:                -0.338
REMARK SMILES CCCCCCC=CC(=O)[O-]
REMARK SMILES IDX 5 1 6 2 7 3 8 4 9 5 10 6 11 7 4 8 3 9 2 10 1 11
REMARK H PARENT
REMARK Flexibility Score: inf
ROOT
ATOM      1  C   UNL     1      99.838 -69.386   5.298  1.00  0.00     0.004 C 
ENDROOT
BRANCH   1   2
ATOM      2  C   UNL     1      99.066 -68.246   4.610  1.00  0.00     0.027 C 
BRANCH   2   3
ATOM      3  C   UNL     1      98.682 -68.578   3.195  1.00  0.00    -0.025 C 
ATOM      4  C   UNL     1      99.451 -68.225   2.160  1.00  0.00     0.020 C 
BRANCH   4   5
ATOM      5  C   UNL     1      99.088 -68.549   0.772  1.00  0.00     0.064 C 
ATOM      6  O   UNL     1      98.918 -69.751   0.439  1.00  0.00    -0.545 OA
ATOM      7  O   UNL     1      98.933 -67.548  -0.180  1.00  0.00    -0.545 OA
ENDBRANCH   4   5
ENDBRANCH   2   3
ENDBRANCH   1   2
BRANCH   1   8
ATOM      8  C   UNL     1     101.041 -68.920   6.140  1.00  0.00     0.000 C 
BRANCH   8   9
ATOM      9  C   UNL     1     100.956 -67.433   6.525  1.00  0.00    -0.000 C 
BRANCH   9  10
ATOM     10  C   UNL     1     100.925 -67.222   8.048  1.00  0.00    -0.003 C 
ATOM     11  C   UNL     1     100.970 -68.533   8.830  1.00  0.00     0.004 C 
ENDBRANCH   9  10
ENDBRANCH   8   9
ENDBRANCH   1   8
TORSDOF 6
ENDMDL
MODEL 3
REMARK VINA RESULT:    -3.772      3.761      6.091
REMARK INTER + INTRA:          -5.433
REMARK INTER:                  -5.149
REMARK INTRA:                  -0.284
REMARK UNBOUND:                -0.338
REMARK SMILES CCCCCCC=CC(=O)[O-]
REMARK SMILES IDX 5 1 6 2 7 3 8 4 9 5 10 6 11 7 4 8 3 9 2 10 1 11
REMARK H PARENT
REMARK Flexibility Score: inf
ROOT
ATOM      1  C   UNL     1     100.637 -69.323   6.701  1.00  0.00     0.004 C 
ENDROOT
BRANCH   1   2
ATOM      2  C   UNL     1     101.138 -67.941   7.155  1.00  0.00     0.027 C 
BRANCH   2   3
ATOM      3  C   UNL     1     101.099 -67.773   8.648  1.00  0.00    -0.025 C 
ATOM      4  C   UNL     1     100.604 -68.723   9.447  1.00  0.00     0.020 C 
BRANCH   4   5
ATOM      5  C   UNL     1     100.565 -68.572  10.909  1.00  0.00     0.064 C 
ATOM      6  O   UNL     1      99.958 -67.593  11.416  1.00  0.00    -0.545 OA
ATOM      7  O   UNL     1     101.192 -69.492  11.741  1.00  0.00    -0.545 OA
ENDBRANCH   4   5
ENDBRANCH   2   3
ENDBRANCH   1   2
BRANCH   1   8
ATOM      8  C   UNL     1     100.241 -69.398   5.213  1.00  0.00     0.000 C 
BRANCH   8   9
ATOM      9  C   UNL     1      99.631 -68.085   4.694  1.00  0.00    -0.000 C 
BRANCH   9  10
ATOM     10  C   UNL     1      98.509 -68.322   3.670  1.00  0.00    -0.003 C 
ATOM     11  C   UNL     1      97.273 -67.463   3.933  1.00  0.00     0.004 C 
ENDBRANCH   9  10
ENDBRANCH   8   9
ENDBRANCH   1   8
TORSDOF 6
ENDMDL
MODEL 4
REMARK VINA RESULT:    -3.761      1.775      2.858
REMARK INTER + INTRA:          -5.419
REMARK INTER:                  -5.093
REMARK INTRA:                  -0.326
REMARK UNBOUND:                -0.338
REMARK SMILES CCCCCCC=CC(=O)[O-]
REMARK SMILES IDX 5 1 6 2 7 3 8 4 9 5 10 6 11 7 4 8 3 9 2 10 1 11
REMARK H PARENT
REMARK Flexibility Score: inf
ROOT
ATOM      1  C   UNL     1      99.842 -69.443   5.366  1.00  0.00     0.004 C 
ENDROOT
BRANCH   1   2
ATOM      2  C   UNL     1      99.093 -68.334   4.607  1.00  0.00     0.027 C 
BRANCH   2   3
ATOM      3  C   UNL     1      98.787 -68.711   3.184  1.00  0.00    -0.025 C 
ATOM      4  C   UNL     1      99.433 -68.150   2.157  1.00  0.00     0.020 C 
BRANCH   4   5
ATOM      5  C   UNL     1      99.146 -68.514   0.762  1.00  0.00     0.064 C 
ATOM      6  O   UNL     1      99.144 -67.621  -0.125  1.00  0.00    -0.545 OA
ATOM      7  O   UNL     1      98.874 -69.830   0.406  1.00  0.00    -0.545 OA
ENDBRANCH   4   5
ENDBRANCH   2   3
ENDBRANCH   1   2
BRANCH   1   8
ATOM      8  C   UNL     1     101.375 -69.290   5.365  1.00  0.00     0.000 C 
BRANCH   8   9
ATOM      9  C   UNL     1     101.965 -69.216   6.785  1.00  0.00    -0.000 C 
BRANCH   9  10
ATOM     10  C   UNL     1     101.307 -68.120   7.638  1.00  0.00    -0.003 C 
ATOM     11  C   UNL     1     100.834 -68.631   8.998  1.00  0.00     0.004 C 
ENDBRANCH   9  10
ENDBRANCH   8   9
ENDBRANCH   1   8
TORSDOF 6
ENDMDL
MODEL 5
REMARK VINA RESULT:    -3.695      2.145      3.644
REMARK INTER + INTRA:          -5.329
REMARK INTER:                  -4.990
REMARK INTRA:                  -0.339
REMARK UNBOUND:                -0.338
REMARK SMILES CCCCCCC=CC(=O)[O-]
REMARK SMILES IDX 5 1 6 2 7 3 8 4 9 5 10 6 11 7 4 8 3 9 2 10 1 11
REMARK H PARENT
REMARK Flexibility Score: inf
ROOT
ATOM      1  C   UNL     1      99.541 -67.519   4.628  1.00  0.00     0.004 C 
ENDROOT
BRANCH   1   2
ATOM      2  C   UNL     1      99.950 -67.223   3.175  1.00  0.00     0.027 C 
BRANCH   2   3
ATOM      3  C   UNL     1      99.444 -68.257   2.209  1.00  0.00    -0.025 C 
ATOM      4  C   UNL     1      99.414 -68.029   0.892  1.00  0.00     0.020 C 
BRANCH   4   5
ATOM      5  C   UNL     1      98.926 -69.034  -0.064  1.00  0.00     0.064 C 
ATOM      6  O   UNL     1      98.656 -70.195   0.341  1.00  0.00    -0.545 OA
ATOM      7  O   UNL     1      98.762 -68.724  -1.408  1.00  0.00    -0.545 OA
ENDBRANCH   4   5
ENDBRANCH   2   3
ENDBRANCH   1   2
BRANCH   1   8
ATOM      8  C   UNL     1      99.373 -69.017   4.949  1.00  0.00     0.000 C 
BRANCH   8   9
ATOM      9  C   UNL     1     100.413 -69.527   5.962  1.00  0.00    -0.000 C 
BRANCH   9  10
ATOM     10  C   UNL     1     101.057 -68.387   6.767  1.00  0.00    -0.003 C 
ATOM     11  C   UNL     1     101.029 -68.634   8.274  1.00  0.00     0.004 C 
ENDBRANCH   9  10
ENDBRANCH   8   9
ENDBRANCH   1   8
TORSDOF 6
ENDMDL
MODEL 6
REMARK VINA RESULT:    -3.623      2.181      2.898
REMARK INTER + INTRA:          -5.232
REMARK INTER:                  -4.808
REMARK INTRA:                  -0.424
REMARK UNBOUND:                -0.338
REMARK SMILES CCCCCCC=CC(=O)[O-]
REMARK SMILES IDX 5 1 6 2 7 3 8 4 9 5 10 6 11 7 4 8 3 9 2 10 1 11
REMARK H PARENT
REMARK Flexibility Score: inf
ROOT
ATOM      1  C   UNL     1     101.311 -66.266   9.033  1.00  0.00     0.004 C 
ENDROOT
BRANCH   1   2
ATOM      2  C   UNL     1     100.867 -66.378   7.565  1.00  0.00     0.027 C 
BRANCH   2   3
ATOM      3  C   UNL     1     101.048 -67.763   7.009  1.00  0.00    -0.025 C 
ATOM      4  C   UNL     1     100.837 -68.031   5.717  1.00  0.00     0.020 C 
BRANCH   4   5
ATOM      5  C   UNL     1     101.016 -69.381   5.160  1.00  0.00     0.064 C 
ATOM      6  O   UNL     1     100.160 -70.271   5.403  1.00  0.00    -0.545 OA
ATOM      7  O   UNL     1     102.119 -69.690   4.373  1.00  0.00    -0.545 OA
ENDBRANCH   4   5
ENDBRANCH   2   3
ENDBRANCH   1   2
BRANCH   1   8
ATOM      8  C   UNL     1     100.154 -66.096  10.036  1.00  0.00     0.000 C 
BRANCH   8   9
ATOM      9  C   UNL     1     100.222 -67.103  11.198  1.00  0.00    -0.000 C 
BRANCH   9  10
ATOM     10  C   UNL     1     100.283 -68.559  10.710  1.00  0.00    -0.003 C 
ATOM     11  C   UNL     1     101.550 -69.284  11.164  1.00  0.00     0.004 C 
ENDBRANCH   9  10
ENDBRANCH   8   9
ENDBRANCH   1   8
TORSDOF 6
ENDMDL
MODEL 7
REMARK VINA RESULT:    -3.515      7.146     10.098
REMARK INTER + INTRA:          -5.086
REMARK INTER:                  -4.364
REMARK INTRA:                  -0.722
REMARK UNBOUND:                -0.338
REMARK SMILES CCCCCCC=CC(=O)[O-]
REMARK SMILES IDX 5 1 6 2 7 3 8 4 9 5 10 6 11 7 4 8 3 9 2 10 1 11
REMARK H PARENT
REMARK Flexibility Score: inf
ROOT
ATOM      1  C   UNL     1      97.929 -67.474  -3.611  1.00  0.00     0.004 C 
ENDROOT
BRANCH   1   2
ATOM      2  C   UNL     1      98.297 -66.501  -2.477  1.00  0.00     0.027 C 
BRANCH   2   3
ATOM      3  C   UNL     1      98.611 -67.206  -1.187  1.00  0.00    -0.025 C 
ATOM      4  C   UNL     1      98.688 -68.538  -1.119  1.00  0.00     0.020 C 
BRANCH   4   5
ATOM      5  C   UNL     1      98.999 -69.239   0.136  1.00  0.00     0.064 C 
ATOM      6  O   UNL     1      98.474 -70.358   0.369  1.00  0.00    -0.545 OA
ATOM      7  O   UNL     1      99.863 -68.682   1.072  1.00  0.00    -0.545 OA
ENDBRANCH   4   5
ENDBRANCH   2   3
ENDBRANCH   1   2
BRANCH   1   8
ATOM      8  C   UNL     1      98.765 -67.299  -4.894  1.00  0.00     0.000 C 
BRANCH   8   9
ATOM      9  C   UNL     1     100.197 -66.814  -4.608  1.00  0.00    -0.000 C 
BRANCH   9  10
ATOM     10  C   UNL     1     101.194 -67.976  -4.466  1.00  0.00    -0.003 C 
ATOM     11  C   UNL     1     101.792 -68.077  -3.064  1.00  0.00     0.004 C 
ENDBRANCH   9  10
ENDBRANCH   8   9
ENDBRANCH   1   8
TORSDOF 6
ENDMDL
MODEL 8
REMARK VINA RESULT:    -3.452      4.196      6.227
REMARK INTER + INTRA:          -5.002
REMARK INTER:                  -4.825
REMARK INTRA:                  -0.176
REMARK UNBOUND:                -0.338
REMARK SMILES CCCCCCC=CC(=O)[O-]
REMARK SMILES IDX 5 1 6 2 7 3 8 4 9 5 10 6 11 7 4 8 3 9 2 10 1 11
REMARK H PARENT
REMARK Flexibility Score: inf
ROOT
ATOM      1  C   UNL     1      99.100 -67.947   1.695  1.00  0.00     0.004 C 
ENDROOT
BRANCH   1   2
ATOM      2  C   UNL     1      99.119 -68.816   0.425  1.00  0.00     0.027 C 
BRANCH   2   3
ATOM      3  C   UNL     1      98.776 -68.039  -0.814  1.00  0.00    -0.025 C 
ATOM      4  C   UNL     1      98.387 -68.650  -1.938  1.00  0.00     0.020 C 
BRANCH   4   5
ATOM      5  C   UNL     1      98.043 -67.900  -3.155  1.00  0.00     0.064 C 
ATOM      6  O   UNL     1      97.019 -67.170  -3.166  1.00  0.00    -0.545 OA
ATOM      7  O   UNL     1      98.831 -67.989  -4.297  1.00  0.00    -0.545 OA
ENDBRANCH   4   5
ENDBRANCH   2   3
ENDBRANCH   1   2
BRANCH   1   8
ATOM      8  C   UNL     1      98.317 -68.560   2.872  1.00  0.00     0.000 C 
BRANCH   8   9
ATOM      9  C   UNL     1      98.847 -68.100   4.241  1.00  0.00    -0.000 C 
BRANCH   9  10
ATOM     10  C   UNL     1     100.197 -68.745   4.594  1.00  0.00    -0.003 C 
ATOM     11  C   UNL     1     100.096 -69.741   5.748  1.00  0.00     0.004 C 
ENDBRANCH   9  10
ENDBRANCH   8   9
ENDBRANCH   1   8
TORSDOF 6
ENDMDL
MODEL 9
REMARK VINA RESULT:    -3.358      3.566      5.292
REMARK INTER + INTRA:          -4.874
REMARK INTER:                  -4.555
REMARK INTRA:                  -0.319
REMARK UNBOUND:                -0.338
REMARK SMILES CCCCCCC=CC(=O)[O-]
REMARK SMILES IDX 5 1 6 2 7 3 8 4 9 5 10 6 11 7 4 8 3 9 2 10 1 11
REMARK H PARENT
REMARK Flexibility Score: inf
ROOT
ATOM      1  C   UNL     1      98.355 -68.565   2.752  1.00  0.00     0.004 C 
ENDROOT
BRANCH   1   2
ATOM      2  C   UNL     1      99.493 -68.153   1.802  1.00  0.00     0.027 C 
BRANCH   2   3
ATOM      3  C   UNL     1      99.190 -68.468   0.364  1.00  0.00    -0.025 C 
ATOM      4  C   UNL     1      98.846 -67.512  -0.505  1.00  0.00     0.020 C 
BRANCH   4   5
ATOM      5  C   UNL     1      98.553 -67.807  -1.915  1.00  0.00     0.064 C 
ATOM      6  O   UNL     1      99.414 -68.397  -2.618  1.00  0.00    -0.545 OA
ATOM      7  O   UNL     1      97.339 -67.441  -2.486  1.00  0.00    -0.545 OA
ENDBRANCH   4   5
ENDBRANCH   2   3
ENDBRANCH   1   2
BRANCH   1   8
ATOM      8  C   UNL     1      98.543 -68.099   4.209  1.00  0.00     0.000 C 
BRANCH   8   9
ATOM      9  C   UNL     1     100.000 -67.724   4.529  1.00  0.00    -0.000 C 
BRANCH   9  10
ATOM     10  C   UNL     1     100.546 -68.478   5.752  1.00  0.00    -0.003 C 
ATOM     11  C   UNL     1     100.262 -69.979   5.698  1.00  0.00     0.004 C 
ENDBRANCH   9  10
ENDBRANCH   8   9
ENDBRANCH   1   8
TORSDOF 6
ENDMDL
