MODEL 1
REMARK VINA RESULT:    -1.843      0.000      0.000
REMARK INTER + INTRA:          -4.824
REMARK INTER:                  -2.597
REMARK INTRA:                  -2.227
REMARK UNBOUND:                -2.227
REMARK SMILES C=CC(=C)CCC=C(C)CCC=C(C)C
REMARK SMILES IDX 8 1 7 2 9 3 10 4 11 5 12 6 14 7 13 8 15 9 6 10 5 11 3 12
REMARK SMILES IDX 4 13 2 14 1 15
REMARK H PARENT
REMARK Flexibility Score: inf
ROOT
ATOM      1  C   UNL     1     167.939 172.708 137.388  1.00  0.00    -0.077 C 
ATOM      2  C   UNL     1     168.572 173.890 137.548  1.00  0.00    -0.028 C 
ATOM      3  C   UNL     1     166.475 172.548 137.717  1.00  0.00     0.039 C 
ENDROOT
BRANCH   1   4
ATOM      4  C   UNL     1     168.719 171.515 136.875  1.00  0.00     0.034 C 
BRANCH   4   5
ATOM      5  C   UNL     1     170.212 171.626 137.207  1.00  0.00     0.032 C 
BRANCH   5   6
ATOM      6  C   UNL     1     170.510 171.051 138.573  1.00  0.00    -0.028 C 
ATOM      7  C   UNL     1     171.542 173.161 139.445  1.00  0.00     0.039 C 
ATOM      8  C   UNL     1     171.079 171.732 139.592  1.00  0.00    -0.080 C 
ATOM      9  C   UNL     1     171.254 171.028 140.914  1.00  0.00     0.039 C 
ENDBRANCH   5   6
ENDBRANCH   4   5
ENDBRANCH   1   4
BRANCH   2  10
ATOM     10  C   UNL     1     167.885 175.128 138.074  1.00  0.00     0.032 C 
BRANCH  10  11
ATOM     11  C   UNL     1     168.322 175.487 139.503  1.00  0.00     0.039 C 
BRANCH  11  12
ATOM     12  C   UNL     1     167.607 174.655 140.553  1.00  0.00    -0.055 C 
ATOM     13  C   UNL     1     166.368 175.011 140.913  1.00  0.00     0.012 C 
BRANCH  12  14
ATOM     14  C   UNL     1     168.216 173.466 141.209  1.00  0.00    -0.005 C 
ATOM     15  C   UNL     1     167.712 172.232 141.173  1.00  0.00     0.009 C 
ENDBRANCH  12  14
ENDBRANCH  11  12
ENDBRANCH  10  11
ENDBRANCH   2  10
TORSDOF 7
ENDMDL
MODEL 2
REMARK VINA RESULT:    -1.755     14.291     16.201
REMARK INTER + INTRA:          -4.700
REMARK INTER:                  -2.671
REMARK INTRA:                  -2.029
REMARK UNBOUND:                -2.227
REMARK SMILES C=CC(=C)CCC=C(C)CCC=C(C)C
REMARK SMILES IDX 8 1 7 2 9 3 10 4 11 5 12 6 14 7 13 8 15 9 6 10 5 11 3 12
REMARK SMILES IDX 4 13 2 14 1 15
REMARK H PARENT
REMARK Flexibility Score: inf
ROOT
ATOM      1  C   UNL     1     164.000 159.506 141.364  1.00  0.00    -0.077 C 
ATOM      2  C   UNL     1     164.454 159.985 140.186  1.00  0.00    -0.028 C 
ATOM      3  C   UNL     1     164.709 158.384 142.083  1.00  0.00     0.039 C 
ENDROOT
BRANCH   1   4
ATOM      4  C   UNL     1     162.748 160.102 141.973  1.00  0.00     0.034 C 
BRANCH   4   5
ATOM      5  C   UNL     1     161.853 160.753 140.911  1.00  0.00     0.032 C 
BRANCH   5   6
ATOM      6  C   UNL     1     160.696 159.851 140.548  1.00  0.00    -0.028 C 
ATOM      7  C   UNL     1     161.411 159.577 138.161  1.00  0.00     0.039 C 
ATOM      8  C   UNL     1     160.499 159.295 139.331  1.00  0.00    -0.080 C 
ATOM      9  C   UNL     1     159.325 158.368 139.149  1.00  0.00     0.039 C 
ENDBRANCH   5   6
ENDBRANCH   4   5
ENDBRANCH   1   4
BRANCH   2  10
ATOM     10  C   UNL     1     165.679 159.441 139.492  1.00  0.00     0.032 C 
BRANCH  10  11
ATOM     11  C   UNL     1     165.332 158.557 138.283  1.00  0.00     0.039 C 
BRANCH  11  12
ATOM     12  C   UNL     1     165.124 157.104 138.669  1.00  0.00    -0.055 C 
ATOM     13  C   UNL     1     166.167 156.417 139.150  1.00  0.00     0.012 C 
BRANCH  12  14
ATOM     14  C   UNL     1     163.819 156.399 138.535  1.00  0.00    -0.005 C 
ATOM     15  C   UNL     1     162.839 156.429 139.438  1.00  0.00     0.009 C 
ENDBRANCH  12  14
ENDBRANCH  11  12
ENDBRANCH  10  11
ENDBRANCH   2  10
TORSDOF 7
ENDMDL
MODEL 3
REMARK VINA RESULT:    -1.685     14.228     15.881
REMARK INTER + INTRA:          -4.602
REMARK INTER:                  -2.496
REMARK INTRA:                  -2.106
REMARK UNBOUND:                -2.227
REMARK SMILES C=CC(=C)CCC=C(C)CCC=C(C)C
REMARK SMILES IDX 8 1 7 2 9 3 10 4 11 5 12 6 14 7 13 8 15 9 6 10 5 11 3 12
REMARK SMILES IDX 4 13 2 14 1 15
REMARK H PARENT
REMARK Flexibility Score: inf
ROOT
ATOM      1  C   UNL     1     164.131 156.974 138.545  1.00  0.00    -0.077 C 
ATOM      2  C   UNL     1     165.450 156.779 138.762  1.00  0.00    -0.028 C 
ATOM      3  C   UNL     1     163.085 156.304 139.402  1.00  0.00     0.039 C 
ENDROOT
BRANCH   1   4
ATOM      4  C   UNL     1     163.693 157.879 137.412  1.00  0.00     0.034 C 
BRANCH   4   5
ATOM      5  C   UNL     1     162.766 158.998 137.902  1.00  0.00     0.032 C 
BRANCH   5   6
ATOM      6  C   UNL     1     163.531 160.024 138.706  1.00  0.00    -0.028 C 
ATOM      7  C   UNL     1     162.156 159.706 140.777  1.00  0.00     0.039 C 
ATOM      8  C   UNL     1     163.288 160.333 139.999  1.00  0.00    -0.080 C 
ATOM      9  C   UNL     1     164.183 161.340 140.675  1.00  0.00     0.039 C 
ENDBRANCH   5   6
ENDBRANCH   4   5
ENDBRANCH   1   4
BRANCH   2  10
ATOM     10  C   UNL     1     165.981 155.879 139.851  1.00  0.00     0.032 C 
BRANCH  10  11
ATOM     11  C   UNL     1     166.959 156.600 140.792  1.00  0.00     0.039 C 
BRANCH  11  12
ATOM     12  C   UNL     1     166.340 157.822 141.446  1.00  0.00    -0.055 C 
ATOM     13  C   UNL     1     166.952 159.003 141.299  1.00  0.00     0.012 C 
BRANCH  12  14
ATOM     14  C   UNL     1     165.087 157.774 142.250  1.00  0.00    -0.005 C 
ATOM     15  C   UNL     1     164.765 158.636 143.215  1.00  0.00     0.009 C 
ENDBRANCH  12  14
ENDBRANCH  11  12
ENDBRANCH  10  11
ENDBRANCH   2  10
TORSDOF 7
ENDMDL
MODEL 4
REMARK VINA RESULT:    -1.684      1.819      4.583
REMARK INTER + INTRA:          -4.600
REMARK INTER:                  -2.503
REMARK INTRA:                  -2.097
REMARK UNBOUND:                -2.227
REMARK SMILES C=CC(=C)CCC=C(C)CCC=C(C)C
REMARK SMILES IDX 8 1 7 2 9 3 10 4 11 5 12 6 14 7 13 8 15 9 6 10 5 11 3 12
REMARK SMILES IDX 4 13 2 14 1 15
REMARK H PARENT
REMARK Flexibility Score: inf
ROOT
ATOM      1  C   UNL     1     167.957 175.206 138.540  1.00  0.00    -0.077 C 
ATOM      2  C   UNL     1     167.957 174.262 137.573  1.00  0.00    -0.028 C 
ATOM      3  C   UNL     1     169.121 175.360 139.489  1.00  0.00     0.039 C 
ENDROOT
BRANCH   1   4
ATOM      4  C   UNL     1     166.760 176.124 138.678  1.00  0.00     0.034 C 
BRANCH   4   5
ATOM      5  C   UNL     1     166.139 176.042 140.078  1.00  0.00     0.032 C 
BRANCH   5   6
ATOM      6  C   UNL     1     165.467 174.706 140.298  1.00  0.00    -0.028 C 
ATOM      7  C   UNL     1     166.872 174.111 142.286  1.00  0.00     0.039 C 
ATOM      8  C   UNL     1     165.764 173.844 141.295  1.00  0.00    -0.080 C 
ATOM      9  C   UNL     1     164.957 172.576 141.410  1.00  0.00     0.039 C 
ENDBRANCH   5   6
ENDBRANCH   4   5
ENDBRANCH   1   4
BRANCH   2  10
ATOM     10  C   UNL     1     169.093 173.288 137.372  1.00  0.00     0.032 C 
BRANCH  10  11
ATOM     11  C   UNL     1     168.633 171.823 137.419  1.00  0.00     0.039 C 
BRANCH  11  12
ATOM     12  C   UNL     1     167.897 171.487 138.703  1.00  0.00    -0.055 C 
ATOM     13  C   UNL     1     166.653 171.001 138.616  1.00  0.00     0.012 C 
BRANCH  12  14
ATOM     14  C   UNL     1     168.485 171.677 140.058  1.00  0.00    -0.005 C 
ATOM     15  C   UNL     1     168.556 170.735 140.999  1.00  0.00     0.009 C 
ENDBRANCH  12  14
ENDBRANCH  11  12
ENDBRANCH  10  11
ENDBRANCH   2  10
TORSDOF 7
ENDMDL
MODEL 5
REMARK VINA RESULT:    -1.677     13.986     15.653
REMARK INTER + INTRA:          -4.590
REMARK INTER:                  -2.443
REMARK INTRA:                  -2.147
REMARK UNBOUND:                -2.227
REMARK SMILES C=CC(=C)CCC=C(C)CCC=C(C)C
REMARK SMILES IDX 8 1 7 2 9 3 10 4 11 5 12 6 14 7 13 8 15 9 6 10 5 11 3 12
REMARK SMILES IDX 4 13 2 14 1 15
REMARK H PARENT
REMARK Flexibility Score: inf
ROOT
ATOM      1  C   UNL     1     165.947 156.794 139.849  1.00  0.00    -0.077 C 
ATOM      2  C   UNL     1     165.301 156.799 141.035  1.00  0.00    -0.028 C 
ATOM      3  C   UNL     1     167.136 157.690 139.597  1.00  0.00     0.039 C 
ENDROOT
BRANCH   1   4
ATOM      4  C   UNL     1     165.463 155.875 138.746  1.00  0.00     0.034 C 
BRANCH   4   5
ATOM      5  C   UNL     1     163.982 156.105 138.424  1.00  0.00     0.032 C 
BRANCH   5   6
ATOM      6  C   UNL     1     163.777 157.429 137.724  1.00  0.00    -0.028 C 
ATOM      7  C   UNL     1     162.262 158.347 139.497  1.00  0.00     0.039 C 
ATOM      8  C   UNL     1     163.034 158.451 138.204  1.00  0.00    -0.080 C 
ATOM      9  C   UNL     1     162.979 159.731 137.409  1.00  0.00     0.039 C 
ENDBRANCH   5   6
ENDBRANCH   4   5
ENDBRANCH   1   4
BRANCH   2  10
ATOM     10  C   UNL     1     165.695 157.695 142.185  1.00  0.00     0.032 C 
BRANCH  10  11
ATOM     11  C   UNL     1     164.783 158.925 142.318  1.00  0.00     0.039 C 
BRANCH  11  12
ATOM     12  C   UNL     1     165.402 160.173 141.717  1.00  0.00    -0.055 C 
ATOM     13  C   UNL     1     166.400 160.772 142.380  1.00  0.00     0.012 C 
BRANCH  12  14
ATOM     14  C   UNL     1     164.953 160.772 140.431  1.00  0.00    -0.005 C 
ATOM     15  C   UNL     1     165.760 161.121 139.427  1.00  0.00     0.009 C 
ENDBRANCH  12  14
ENDBRANCH  11  12
ENDBRANCH  10  11
ENDBRANCH   2  10
TORSDOF 7
ENDMDL
MODEL 6
REMARK VINA RESULT:    -1.673     14.387     16.152
REMARK INTER + INTRA:          -4.585
REMARK INTER:                  -2.663
REMARK INTRA:                  -1.922
REMARK UNBOUND:                -2.227
REMARK SMILES C=CC(=C)CCC=C(C)CCC=C(C)C
REMARK SMILES IDX 8 1 7 2 9 3 10 4 11 5 12 6 14 7 13 8 15 9 6 10 5 11 3 12
REMARK SMILES IDX 4 13 2 14 1 15
REMARK H PARENT
REMARK Flexibility Score: inf
ROOT
ATOM      1  C   UNL     1     164.256 158.813 137.561  1.00  0.00    -0.077 C 
ATOM      2  C   UNL     1     163.752 157.566 137.688  1.00  0.00    -0.028 C 
ATOM      3  C   UNL     1     165.623 159.167 138.094  1.00  0.00     0.039 C 
ENDROOT
BRANCH   1   4
ATOM      4  C   UNL     1     163.428 159.880 136.875  1.00  0.00     0.034 C 
BRANCH   4   5
ATOM      5  C   UNL     1     161.930 159.703 137.152  1.00  0.00     0.032 C 
BRANCH   5   6
ATOM      6  C   UNL     1     161.526 160.405 138.428  1.00  0.00    -0.028 C 
ATOM      7  C   UNL     1     160.594 158.338 139.496  1.00  0.00     0.039 C 
ATOM      8  C   UNL     1     160.953 159.804 139.495  1.00  0.00    -0.080 C 
ATOM      9  C   UNL     1     160.666 160.638 140.717  1.00  0.00     0.039 C 
ENDBRANCH   5   6
ENDBRANCH   4   5
ENDBRANCH   1   4
BRANCH   2  10
ATOM     10  C   UNL     1     164.492 156.444 138.375  1.00  0.00     0.032 C 
BRANCH  10  11
ATOM     11  C   UNL     1     164.071 156.265 139.841  1.00  0.00     0.039 C 
BRANCH  11  12
ATOM     12  C   UNL     1     165.090 156.834 140.811  1.00  0.00    -0.055 C 
ATOM     13  C   UNL     1     166.308 156.280 140.852  1.00  0.00     0.012 C 
BRANCH  12  14
ATOM     14  C   UNL     1     164.805 157.975 141.724  1.00  0.00    -0.005 C 
ATOM     15  C   UNL     1     163.985 158.989 141.446  1.00  0.00     0.009 C 
ENDBRANCH  12  14
ENDBRANCH  11  12
ENDBRANCH  10  11
ENDBRANCH   2  10
TORSDOF 7
ENDMDL
MODEL 7
REMARK VINA RESULT:    -1.656     14.225     15.533
REMARK INTER + INTRA:          -4.561
REMARK INTER:                  -2.610
REMARK INTRA:                  -1.951
REMARK UNBOUND:                -2.227
REMARK SMILES C=CC(=C)CCC=C(C)CCC=C(C)C
REMARK SMILES IDX 8 1 7 2 9 3 10 4 11 5 12 6 14 7 13 8 15 9 6 10 5 11 3 12
REMARK SMILES IDX 4 13 2 14 1 15
REMARK H PARENT
REMARK Flexibility Score: inf
ROOT
ATOM      1  C   UNL     1     164.217 156.664 138.652  1.00  0.00    -0.077 C 
ATOM      2  C   UNL     1     164.182 157.724 137.817  1.00  0.00    -0.028 C 
ATOM      3  C   UNL     1     163.003 156.248 139.448  1.00  0.00     0.039 C 
ENDROOT
BRANCH   1   4
ATOM      4  C   UNL     1     165.505 155.880 138.800  1.00  0.00     0.034 C 
BRANCH   4   5
ATOM      5  C   UNL     1     166.112 156.041 140.198  1.00  0.00     0.032 C 
BRANCH   5   6
ATOM      6  C   UNL     1     166.683 157.428 140.386  1.00  0.00    -0.028 C 
ATOM      7  C   UNL     1     164.922 158.136 142.024  1.00  0.00     0.039 C 
ATOM      8  C   UNL     1     166.179 158.367 141.218  1.00  0.00    -0.080 C 
ATOM      9  C   UNL     1     166.903 159.683 141.335  1.00  0.00     0.039 C 
ENDBRANCH   5   6
ENDBRANCH   4   5
ENDBRANCH   1   4
BRANCH   2  10
ATOM     10  C   UNL     1     162.952 158.579 137.621  1.00  0.00     0.032 C 
BRANCH  10  11
ATOM     11  C   UNL     1     163.191 160.053 137.985  1.00  0.00     0.039 C 
BRANCH  11  12
ATOM     12  C   UNL     1     162.994 160.323 139.465  1.00  0.00    -0.055 C 
ATOM     13  C   UNL     1     163.782 161.229 140.058  1.00  0.00     0.012 C 
BRANCH  12  14
ATOM     14  C   UNL     1     161.973 159.628 140.296  1.00  0.00    -0.005 C 
ATOM     15  C   UNL     1     160.665 159.886 140.274  1.00  0.00     0.009 C 
ENDBRANCH  12  14
ENDBRANCH  11  12
ENDBRANCH  10  11
ENDBRANCH   2  10
TORSDOF 7
ENDMDL
MODEL 8
REMARK VINA RESULT:    -1.646     13.940     15.643
REMARK INTER + INTRA:          -4.546
REMARK INTER:                  -2.420
REMARK INTRA:                  -2.126
REMARK UNBOUND:                -2.227
REMARK SMILES C=CC(=C)CCC=C(C)CCC=C(C)C
REMARK SMILES IDX 8 1 7 2 9 3 10 4 11 5 12 6 14 7 13 8 15 9 6 10 5 11 3 12
REMARK SMILES IDX 4 13 2 14 1 15
REMARK H PARENT
REMARK Flexibility Score: inf
ROOT
ATOM      1  C   UNL     1     166.775 156.835 140.400  1.00  0.00    -0.077 C 
ATOM      2  C   UNL     1     166.273 156.407 139.222  1.00  0.00    -0.028 C 
ATOM      3  C   UNL     1     165.952 156.801 141.665  1.00  0.00     0.039 C 
ENDROOT
BRANCH   1   4
ATOM      4  C   UNL     1     168.192 157.368 140.451  1.00  0.00     0.034 C 
BRANCH   4   5
ATOM      5  C   UNL     1     168.398 158.531 139.473  1.00  0.00     0.032 C 
BRANCH   5   6
ATOM      6  C   UNL     1     167.513 159.703 139.829  1.00  0.00    -0.028 C 
ATOM      7  C   UNL     1     166.416 159.802 137.578  1.00  0.00     0.039 C 
ATOM      8  C   UNL     1     166.603 160.266 139.002  1.00  0.00    -0.080 C 
ATOM      9  C   UNL     1     165.756 161.394 139.532  1.00  0.00     0.039 C 
ENDBRANCH   5   6
ENDBRANCH   4   5
ENDBRANCH   1   4
BRANCH   2  10
ATOM     10  C   UNL     1     164.866 155.881 139.068  1.00  0.00     0.032 C 
BRANCH  10  11
ATOM     11  C   UNL     1     164.080 156.604 137.962  1.00  0.00     0.039 C 
BRANCH  11  12
ATOM     12  C   UNL     1     163.319 157.808 138.485  1.00  0.00    -0.055 C 
ATOM     13  C   UNL     1     162.966 158.765 137.617  1.00  0.00     0.012 C 
BRANCH  12  14
ATOM     14  C   UNL     1     162.949 157.985 139.916  1.00  0.00    -0.005 C 
ATOM     15  C   UNL     1     163.192 159.079 140.638  1.00  0.00     0.009 C 
ENDBRANCH  12  14
ENDBRANCH  11  12
ENDBRANCH  10  11
ENDBRANCH   2  10
TORSDOF 7
ENDMDL
MODEL 9
REMARK VINA RESULT:    -1.625      1.844      4.873
REMARK INTER + INTRA:          -4.517
REMARK INTER:                  -2.352
REMARK INTRA:                  -2.165
REMARK UNBOUND:                -2.227
REMARK SMILES C=CC(=C)CCC=C(C)CCC=C(C)C
REMARK SMILES IDX 8 1 7 2 9 3 10 4 11 5 12 6 14 7 13 8 15 9 6 10 5 11 3 12
REMARK SMILES IDX 4 13 2 14 1 15
REMARK H PARENT
REMARK Flexibility Score: inf
ROOT
ATOM      1  C   UNL     1     168.652 174.227 138.225  1.00  0.00    -0.077 C 
ATOM      2  C   UNL     1     168.604 173.300 137.244  1.00  0.00    -0.028 C 
ATOM      3  C   UNL     1     169.458 174.003 139.481  1.00  0.00     0.039 C 
ENDROOT
BRANCH   1   4
ATOM      4  C   UNL     1     167.874 175.516 138.063  1.00  0.00     0.034 C 
BRANCH   4   5
ATOM      5  C   UNL     1     166.964 175.787 139.268  1.00  0.00     0.032 C 
BRANCH   5   6
ATOM      6  C   UNL     1     165.815 174.807 139.312  1.00  0.00    -0.028 C 
ATOM      7  C   UNL     1     166.450 173.871 141.549  1.00  0.00     0.039 C 
ATOM      8  C   UNL     1     165.555 173.963 140.336  1.00  0.00    -0.080 C 
ATOM      9  C   UNL     1     164.331 173.088 140.250  1.00  0.00     0.039 C 
ENDBRANCH   5   6
ENDBRANCH   4   5
ENDBRANCH   1   4
BRANCH   2  10
ATOM     10  C   UNL     1     169.327 171.977 137.325  1.00  0.00     0.032 C 
BRANCH  10  11
ATOM     11  C   UNL     1     168.384 170.774 137.162  1.00  0.00     0.039 C 
BRANCH  11  12
ATOM     12  C   UNL     1     167.229 170.807 138.146  1.00  0.00    -0.055 C 
ATOM     13  C   UNL     1     167.505 170.756 139.455  1.00  0.00     0.012 C 
BRANCH  12  14
ATOM     14  C   UNL     1     165.801 170.887 137.730  1.00  0.00    -0.005 C 
ATOM     15  C   UNL     1     165.303 171.781 136.876  1.00  0.00     0.009 C 
ENDBRANCH  12  14
ENDBRANCH  11  12
ENDBRANCH  10  11
ENDBRANCH   2  10
TORSDOF 7
ENDMDL
