MODEL 1
REMARK VINA RESULT:    -4.555      0.000      0.000
REMARK INTER + INTRA:          -6.585
REMARK INTER:                  -6.419
REMARK INTRA:                  -0.165
REMARK UNBOUND:                -0.165
REMARK SMILES CCCCCCCCC(=O)[O-]
REMARK SMILES IDX 6 1 7 2 8 3 9 4 10 5 11 6 5 7 4 8 3 9 2 10 1 11
REMARK H PARENT
REMARK Flexibility Score: inf
ROOT
ATOM      1  C   UNL     1      42.829  49.340  12.574  1.00  0.00     0.000 C 
ENDROOT
BRANCH   1   2
ATOM      2  C   UNL     1      41.977  50.069  13.625  1.00  0.00     0.006 C 
BRANCH   2   3
ATOM      3  C   UNL     1      40.527  50.276  13.165  1.00  0.00     0.053 C 
BRANCH   3   4
ATOM      4  C   UNL     1      39.791  51.144  14.136  1.00  0.00     0.041 C 
ATOM      5  O   UNL     1      40.221  51.285  15.311  1.00  0.00    -0.550 OA
ATOM      6  O   UNL     1      38.657  51.836  13.729  1.00  0.00    -0.550 OA
ENDBRANCH   3   4
ENDBRANCH   2   3
ENDBRANCH   1   2
BRANCH   1   7
ATOM      7  C   UNL     1      44.011  50.191  12.078  1.00  0.00     0.000 C 
BRANCH   7   8
ATOM      8  C   UNL     1      44.972  49.387  11.176  1.00  0.00    -0.000 C 
BRANCH   8   9
ATOM      9  C   UNL     1      46.376  50.010  11.056  1.00  0.00    -0.000 C 
BRANCH   9  10
ATOM     10  C   UNL     1      47.501  49.006  10.750  1.00  0.00    -0.003 C 
ATOM     11  C   UNL     1      46.974  47.648  10.286  1.00  0.00     0.004 C 
ENDBRANCH   9  10
ENDBRANCH   8   9
ENDBRANCH   7   8
ENDBRANCH   1   7
TORSDOF 7
ENDMDL
MODEL 2
REMARK VINA RESULT:    -4.438      1.768      2.561
REMARK INTER + INTRA:          -6.420
REMARK INTER:                  -5.834
REMARK INTRA:                  -0.586
REMARK UNBOUND:                -0.165
REMARK SMILES CCCCCCCCC(=O)[O-]
REMARK SMILES IDX 6 1 7 2 8 3 9 4 10 5 11 6 5 7 4 8 3 9 2 10 1 11
REMARK H PARENT
REMARK Flexibility Score: inf
ROOT
ATOM      1  C   UNL     1      45.279  50.765  11.755  1.00  0.00     0.000 C 
ENDROOT
BRANCH   1   2
ATOM      2  C   UNL     1      43.902  50.187  11.390  1.00  0.00     0.006 C 
BRANCH   2   3
ATOM      3  C   UNL     1      43.380  49.202  12.445  1.00  0.00     0.053 C 
BRANCH   3   4
ATOM      4  C   UNL     1      42.227  49.796  13.189  1.00  0.00     0.041 C 
ATOM      5  O   UNL     1      42.401  50.295  14.332  1.00  0.00    -0.550 OA
ATOM      6  O   UNL     1      40.970  49.843  12.600  1.00  0.00    -0.550 OA
ENDBRANCH   3   4
ENDBRANCH   2   3
ENDBRANCH   1   2
BRANCH   1   7
ATOM      7  C   UNL     1      45.998  51.386  10.544  1.00  0.00     0.000 C 
BRANCH   7   8
ATOM      8  C   UNL     1      46.808  50.342   9.746  1.00  0.00    -0.000 C 
BRANCH   8   9
ATOM      9  C   UNL     1      47.618  49.377  10.633  1.00  0.00    -0.000 C 
BRANCH   9  10
ATOM     10  C   UNL     1      47.216  47.897  10.507  1.00  0.00    -0.003 C 
ATOM     11  C   UNL     1      46.381  47.614   9.258  1.00  0.00     0.004 C 
ENDBRANCH   9  10
ENDBRANCH   8   9
ENDBRANCH   7   8
ENDBRANCH   1   7
TORSDOF 7
ENDMDL
MODEL 3
REMARK VINA RESULT:    -4.432     14.058     15.070
REMARK INTER + INTRA:          -6.411
REMARK INTER:                  -6.051
REMARK INTRA:                  -0.361
REMARK UNBOUND:                -0.165
REMARK SMILES CCCCCCCCC(=O)[O-]
REMARK SMILES IDX 6 1 7 2 8 3 9 4 10 5 11 6 5 7 4 8 3 9 2 10 1 11
REMARK H PARENT
REMARK Flexibility Score: inf
ROOT
ATOM      1  C   UNL     1      45.274  38.520  20.005  1.00  0.00     0.000 C 
ENDROOT
BRANCH   1   2
ATOM      2  C   UNL     1      46.018  39.235  18.866  1.00  0.00     0.006 C 
BRANCH   2   3
ATOM      3  C   UNL     1      46.759  40.490  19.344  1.00  0.00     0.053 C 
BRANCH   3   4
ATOM      4  C   UNL     1      48.156  40.506  18.810  1.00  0.00     0.041 C 
ATOM      5  O   UNL     1      49.037  41.217  19.362  1.00  0.00    -0.550 OA
ATOM      6  O   UNL     1      48.498  39.700  17.732  1.00  0.00    -0.550 OA
ENDBRANCH   3   4
ENDBRANCH   2   3
ENDBRANCH   1   2
BRANCH   1   7
ATOM      7  C   UNL     1      45.149  37.004  19.769  1.00  0.00     0.000 C 
BRANCH   7   8
ATOM      8  C   UNL     1      45.859  36.554  18.474  1.00  0.00    -0.000 C 
BRANCH   8   9
ATOM      9  C   UNL     1      46.659  35.247  18.628  1.00  0.00    -0.000 C 
BRANCH   9  10
ATOM     10  C   UNL     1      46.207  34.350  19.793  1.00  0.00    -0.003 C 
ATOM     11  C   UNL     1      47.378  33.796  20.604  1.00  0.00     0.004 C 
ENDBRANCH   9  10
ENDBRANCH   8   9
ENDBRANCH   7   8
ENDBRANCH   1   7
TORSDOF 7
ENDMDL
MODEL 4
REMARK VINA RESULT:    -4.392      4.534      6.620
REMARK INTER + INTRA:          -6.355
REMARK INTER:                  -5.621
REMARK INTRA:                  -0.734
REMARK UNBOUND:                -0.165
REMARK SMILES CCCCCCCCC(=O)[O-]
REMARK SMILES IDX 6 1 7 2 8 3 9 4 10 5 11 6 5 7 4 8 3 9 2 10 1 11
REMARK H PARENT
REMARK Flexibility Score: inf
ROOT
ATOM      1  C   UNL     1      46.816  49.563   9.474  1.00  0.00     0.000 C 
ENDROOT
BRANCH   1   2
ATOM      2  C   UNL     1      46.520  48.075   9.233  1.00  0.00     0.006 C 
BRANCH   2   3
ATOM      3  C   UNL     1      46.854  47.204  10.452  1.00  0.00     0.053 C 
BRANCH   3   4
ATOM      4  C   UNL     1      46.475  45.780  10.195  1.00  0.00     0.041 C 
ATOM      5  O   UNL     1      47.207  45.050   9.475  1.00  0.00    -0.550 OA
ATOM      6  O   UNL     1      45.341  45.243  10.791  1.00  0.00    -0.550 OA
ENDBRANCH   3   4
ENDBRANCH   2   3
ENDBRANCH   1   2
BRANCH   1   7
ATOM      7  C   UNL     1      47.227  49.856  10.928  1.00  0.00     0.000 C 
BRANCH   7   8
ATOM      8  C   UNL     1      46.239  50.811  11.632  1.00  0.00    -0.000 C 
BRANCH   8   9
ATOM      9  C   UNL     1      44.786  50.672  11.139  1.00  0.00    -0.000 C 
BRANCH   9  10
ATOM     10  C   UNL     1      43.863  49.872  12.075  1.00  0.00    -0.003 C 
ATOM     11  C   UNL     1      43.563  48.468  11.552  1.00  0.00     0.004 C 
ENDBRANCH   9  10
ENDBRANCH   8   9
ENDBRANCH   7   8
ENDBRANCH   1   7
TORSDOF 7
ENDMDL
MODEL 5
REMARK VINA RESULT:    -4.353      3.106      3.781
REMARK INTER + INTRA:          -6.300
REMARK INTER:                  -5.641
REMARK INTRA:                  -0.660
REMARK UNBOUND:                -0.165
REMARK SMILES CCCCCCCCC(=O)[O-]
REMARK SMILES IDX 6 1 7 2 8 3 9 4 10 5 11 6 5 7 4 8 3 9 2 10 1 11
REMARK H PARENT
REMARK Flexibility Score: inf
ROOT
ATOM      1  C   UNL     1      44.731  50.769  11.153  1.00  0.00     0.000 C 
ENDROOT
BRANCH   1   2
ATOM      2  C   UNL     1      43.878  49.800  11.987  1.00  0.00     0.006 C 
BRANCH   2   3
ATOM      3  C   UNL     1      43.457  48.555  11.194  1.00  0.00     0.053 C 
BRANCH   3   4
ATOM      4  C   UNL     1      43.159  47.421  12.122  1.00  0.00     0.041 C 
ATOM      5  O   UNL     1      42.665  47.646  13.259  1.00  0.00    -0.550 OA
ATOM      6  O   UNL     1      43.382  46.112  11.715  1.00  0.00    -0.550 OA
ENDBRANCH   3   4
ENDBRANCH   2   3
ENDBRANCH   1   2
BRANCH   1   7
ATOM      7  C   UNL     1      46.127  51.000  11.760  1.00  0.00     0.000 C 
BRANCH   7   8
ATOM      8  C   UNL     1      47.258  50.723  10.747  1.00  0.00    -0.000 C 
BRANCH   8   9
ATOM      9  C   UNL     1      47.053  49.435   9.926  1.00  0.00    -0.000 C 
BRANCH   9  10
ATOM     10  C   UNL     1      47.391  48.135  10.675  1.00  0.00    -0.003 C 
ATOM     11  C   UNL     1      46.751  46.901  10.039  1.00  0.00     0.004 C 
ENDBRANCH   9  10
ENDBRANCH   8   9
ENDBRANCH   7   8
ENDBRANCH   1   7
TORSDOF 7
ENDMDL
MODEL 6
REMARK VINA RESULT:    -4.332      3.458      6.399
REMARK INTER + INTRA:          -6.270
REMARK INTER:                  -5.951
REMARK INTRA:                  -0.319
REMARK UNBOUND:                -0.165
REMARK SMILES CCCCCCCCC(=O)[O-]
REMARK SMILES IDX 6 1 7 2 8 3 9 4 10 5 11 6 5 7 4 8 3 9 2 10 1 11
REMARK H PARENT
REMARK Flexibility Score: inf
ROOT
ATOM      1  C   UNL     1      43.119  48.912  12.072  1.00  0.00     0.000 C 
ENDROOT
BRANCH   1   2
ATOM      2  C   UNL     1      44.076  50.093  11.844  1.00  0.00     0.006 C 
BRANCH   2   3
ATOM      3  C   UNL     1      45.373  49.672  11.140  1.00  0.00     0.053 C 
BRANCH   3   4
ATOM      4  C   UNL     1      46.271  50.853  10.951  1.00  0.00     0.041 C 
ATOM      5  O   UNL     1      47.522  50.702  10.945  1.00  0.00    -0.550 OA
ATOM      6  O   UNL     1      45.728  52.112  10.734  1.00  0.00    -0.550 OA
ENDBRANCH   3   4
ENDBRANCH   2   3
ENDBRANCH   1   2
BRANCH   1   7
ATOM      7  C   UNL     1      41.930  49.281  12.976  1.00  0.00     0.000 C 
BRANCH   7   8
ATOM      8  C   UNL     1      42.319  50.307  14.063  1.00  0.00    -0.000 C 
BRANCH   8   9
ATOM      9  C   UNL     1      41.116  51.065  14.657  1.00  0.00    -0.000 C 
BRANCH   9  10
ATOM     10  C   UNL     1      39.782  50.825  13.931  1.00  0.00    -0.003 C 
ATOM     11  C   UNL     1      39.058  52.124  13.578  1.00  0.00     0.004 C 
ENDBRANCH   9  10
ENDBRANCH   8   9
ENDBRANCH   7   8
ENDBRANCH   1   7
TORSDOF 7
ENDMDL
MODEL 7
REMARK VINA RESULT:    -4.328     12.763     13.766
REMARK INTER + INTRA:          -6.265
REMARK INTER:                  -5.686
REMARK INTRA:                  -0.579
REMARK UNBOUND:                -0.165
REMARK SMILES CCCCCCCCC(=O)[O-]
REMARK SMILES IDX 6 1 7 2 8 3 9 4 10 5 11 6 5 7 4 8 3 9 2 10 1 11
REMARK H PARENT
REMARK Flexibility Score: inf
ROOT
ATOM      1  C   UNL     1      47.077  40.597  21.509  1.00  0.00     0.000 C 
ENDROOT
BRANCH   1   2
ATOM      2  C   UNL     1      48.148  41.607  21.070  1.00  0.00     0.006 C 
BRANCH   2   3
ATOM      3  C   UNL     1      49.559  41.202  21.520  1.00  0.00     0.053 C 
BRANCH   3   4
ATOM      4  C   UNL     1      50.451  42.401  21.582  1.00  0.00     0.041 C 
ATOM      5  O   UNL     1      51.645  42.283  21.963  1.00  0.00    -0.550 OA
ATOM      6  O   UNL     1      49.978  43.642  21.172  1.00  0.00    -0.550 OA
ENDBRANCH   3   4
ENDBRANCH   2   3
ENDBRANCH   1   2
BRANCH   1   7
ATOM      7  C   UNL     1      45.718  40.844  20.831  1.00  0.00     0.000 C 
BRANCH   7   8
ATOM      8  C   UNL     1      45.396  39.778  19.762  1.00  0.00    -0.000 C 
BRANCH   8   9
ATOM      9  C   UNL     1      46.098  40.022  18.412  1.00  0.00    -0.000 C 
BRANCH   9  10
ATOM     10  C   UNL     1      47.297  39.100  18.134  1.00  0.00    -0.003 C 
ATOM     11  C   UNL     1      48.577  39.872  17.813  1.00  0.00     0.004 C 
ENDBRANCH   9  10
ENDBRANCH   8   9
ENDBRANCH   7   8
ENDBRANCH   1   7
TORSDOF 7
ENDMDL
MODEL 8
REMARK VINA RESULT:    -4.270     14.517     15.574
REMARK INTER + INTRA:          -6.182
REMARK INTER:                  -5.737
REMARK INTRA:                  -0.445
REMARK UNBOUND:                -0.165
REMARK SMILES CCCCCCCCC(=O)[O-]
REMARK SMILES IDX 6 1 7 2 8 3 9 4 10 5 11 6 5 7 4 8 3 9 2 10 1 11
REMARK H PARENT
REMARK Flexibility Score: inf
ROOT
ATOM      1  C   UNL     1      45.396  37.083  18.563  1.00  0.00     0.000 C 
ENDROOT
BRANCH   1   2
ATOM      2  C   UNL     1      45.768  38.316  19.401  1.00  0.00     0.006 C 
BRANCH   2   3
ATOM      3  C   UNL     1      45.940  39.579  18.546  1.00  0.00     0.053 C 
BRANCH   3   4
ATOM      4  C   UNL     1      47.380  39.980  18.492  1.00  0.00     0.041 C 
ATOM      5  O   UNL     1      47.840  40.803  19.326  1.00  0.00    -0.550 OA
ATOM      6  O   UNL     1      48.225  39.408  17.549  1.00  0.00    -0.550 OA
ENDBRANCH   3   4
ENDBRANCH   2   3
ENDBRANCH   1   2
BRANCH   1   7
ATOM      7  C   UNL     1      46.624  36.245  18.167  1.00  0.00     0.000 C 
BRANCH   7   8
ATOM      8  C   UNL     1      46.622  34.854  18.835  1.00  0.00    -0.000 C 
BRANCH   8   9
ATOM      9  C   UNL     1      45.539  34.689  19.919  1.00  0.00    -0.000 C 
BRANCH   9  10
ATOM     10  C   UNL     1      46.077  34.344  21.318  1.00  0.00    -0.003 C 
ATOM     11  C   UNL     1      47.429  33.632  21.274  1.00  0.00     0.004 C 
ENDBRANCH   9  10
ENDBRANCH   8   9
ENDBRANCH   7   8
ENDBRANCH   1   7
TORSDOF 7
ENDMDL
MODEL 9
REMARK VINA RESULT:    -4.221     14.808     15.820
REMARK INTER + INTRA:          -6.114
REMARK INTER:                  -5.786
REMARK INTRA:                  -0.328
REMARK UNBOUND:                -0.165
REMARK SMILES CCCCCCCCC(=O)[O-]
REMARK SMILES IDX 6 1 7 2 8 3 9 4 10 5 11 6 5 7 4 8 3 9 2 10 1 11
REMARK H PARENT
REMARK Flexibility Score: inf
ROOT
ATOM      1  C   UNL     1      45.727  37.398  18.903  1.00  0.00     0.000 C 
ENDROOT
BRANCH   1   2
ATOM      2  C   UNL     1      45.435  35.976  19.407  1.00  0.00     0.006 C 
BRANCH   2   3
ATOM      3  C   UNL     1      46.542  34.980  19.032  1.00  0.00     0.053 C 
BRANCH   3   4
ATOM      4  C   UNL     1      46.648  33.904  20.065  1.00  0.00     0.041 C 
ATOM      5  O   UNL     1      45.655  33.174  20.323  1.00  0.00    -0.550 OA
ATOM      6  O   UNL     1      47.857  33.675  20.710  1.00  0.00    -0.550 OA
ENDBRANCH   3   4
ENDBRANCH   2   3
ENDBRANCH   1   2
BRANCH   1   7
ATOM      7  C   UNL     1      45.386  38.476  19.947  1.00  0.00     0.000 C 
BRANCH   7   8
ATOM      8  C   UNL     1      45.987  39.851  19.584  1.00  0.00    -0.000 C 
BRANCH   8   9
ATOM      9  C   UNL     1      46.762  39.856  18.252  1.00  0.00    -0.000 C 
BRANCH   9  10
ATOM     10  C   UNL     1      48.242  40.257  18.371  1.00  0.00    -0.003 C 
ATOM     11  C   UNL     1      48.549  41.017  19.660  1.00  0.00     0.004 C 
ENDBRANCH   9  10
ENDBRANCH   8   9
ENDBRANCH   7   8
ENDBRANCH   1   7
TORSDOF 7
ENDMDL
