MODEL 1
REMARK VINA RESULT:    -5.615      0.000      0.000
REMARK INTER + INTRA:          -6.269
REMARK INTER:                  -5.943
REMARK INTRA:                  -0.326
REMARK UNBOUND:                -0.326
REMARK SMILES CC1=CC[C@H]2[C@H]3[C@@H]1[C@]2(C)CC[C@H]3C(C)C
REMARK SMILES IDX 1 1 2 2 3 3 4 4 5 5 6 6 7 7 8 8 10 9 11 10 12 11 9 12 13 13
REMARK SMILES IDX 14 14 15 15
REMARK H PARENT
REMARK Flexibility Score: inf
ROOT
ATOM      1  C   UNL     1      -0.588   5.903  10.012  1.00  0.00     0.039 C 
ATOM      2  C   UNL     1      -1.357   5.268  11.134  1.00  0.00    -0.073 C 
ATOM      3  C   UNL     1      -2.715   5.268  11.170  1.00  0.00    -0.027 C 
ATOM      4  C   UNL     1      -3.421   4.609  12.360  1.00  0.00     0.031 C 
ATOM      5  C   UNL     1      -2.374   3.991  13.342  1.00  0.00     0.003 C 
ATOM      6  C   UNL     1      -1.342   3.204  12.489  1.00  0.00     0.004 C 
ATOM      7  C   UNL     1      -0.629   4.559  12.277  1.00  0.00     0.024 C 
ATOM      8  C   UNL     1      -1.220   4.983  13.641  1.00  0.00    -0.022 C 
ATOM      9  C   UNL     1      -0.311   4.434  14.784  1.00  0.00     0.008 C 
ATOM     10  C   UNL     1      -0.215   2.884  14.778  1.00  0.00     0.005 C 
ATOM     11  C   UNL     1      -0.443   2.276  13.359  1.00  0.00    -0.005 C 
ATOM     12  C   UNL     1      -1.553   6.476  13.869  1.00  0.00     0.012 C 
ENDROOT
BRANCH  11  13
ATOM     13  C   UNL     1      -0.947   0.801  13.366  1.00  0.00    -0.014 C 
ATOM     14  C   UNL     1      -2.108   0.605  14.354  1.00  0.00     0.007 C 
ATOM     15  C   UNL     1      -1.329   0.258  11.979  1.00  0.00     0.007 C 
ENDBRANCH  11  13
TORSDOF 1
ENDMDL
MODEL 2
REMARK VINA RESULT:    -5.369      1.595      4.410
REMARK INTER + INTRA:          -6.008
REMARK INTER:                  -5.797
REMARK INTRA:                  -0.211
REMARK UNBOUND:                -0.326
REMARK SMILES CC1=CC[C@H]2[C@H]3[C@@H]1[C@]2(C)CC[C@H]3C(C)C
REMARK SMILES IDX 1 1 2 2 3 3 4 4 5 5 6 6 7 7 8 8 10 9 11 10 12 11 9 12 13 13
REMARK SMILES IDX 14 14 15 15
REMARK H PARENT
REMARK Flexibility Score: inf
ROOT
ATOM      1  C   UNL     1       0.509   5.887  14.882  1.00  0.00     0.039 C 
ATOM      2  C   UNL     1      -0.497   4.864  14.443  1.00  0.00    -0.073 C 
ATOM      3  C   UNL     1      -0.911   3.859  15.259  1.00  0.00    -0.027 C 
ATOM      4  C   UNL     1      -1.931   2.848  14.725  1.00  0.00     0.031 C 
ATOM      5  C   UNL     1      -2.354   3.217  13.266  1.00  0.00     0.003 C 
ATOM      6  C   UNL     1      -2.649   4.740  13.238  1.00  0.00     0.004 C 
ATOM      7  C   UNL     1      -1.127   4.934  13.051  1.00  0.00     0.024 C 
ATOM      8  C   UNL     1      -1.122   3.540  12.382  1.00  0.00    -0.022 C 
ATOM      9  C   UNL     1      -1.546   3.690  10.888  1.00  0.00     0.008 C 
ATOM     10  C   UNL     1      -2.975   4.278  10.729  1.00  0.00     0.005 C 
ATOM     11  C   UNL     1      -3.390   5.173  11.938  1.00  0.00    -0.005 C 
ATOM     12  C   UNL     1       0.147   2.665  12.511  1.00  0.00     0.012 C 
ENDROOT
BRANCH  11  13
ATOM     13  C   UNL     1      -4.930   5.295  12.148  1.00  0.00    -0.014 C 
ATOM     14  C   UNL     1      -5.304   6.614  12.841  1.00  0.00     0.007 C 
ATOM     15  C   UNL     1      -5.758   5.113  10.865  1.00  0.00     0.007 C 
ENDBRANCH  11  13
TORSDOF 1
ENDMDL
MODEL 3
REMARK VINA RESULT:    -5.360      1.645      4.876
REMARK INTER + INTRA:          -5.999
REMARK INTER:                  -5.700
REMARK INTRA:                  -0.299
REMARK UNBOUND:                -0.326
REMARK SMILES CC1=CC[C@H]2[C@H]3[C@@H]1[C@]2(C)CC[C@H]3C(C)C
REMARK SMILES IDX 1 1 2 2 3 3 4 4 5 5 6 6 7 7 8 8 10 9 11 10 12 11 9 12 13 13
REMARK SMILES IDX 14 14 15 15
REMARK H PARENT
REMARK Flexibility Score: inf
ROOT
ATOM      1  C   UNL     1      -1.028   1.096  11.126  1.00  0.00     0.039 C 
ATOM      2  C   UNL     1      -0.867   2.500  11.632  1.00  0.00    -0.073 C 
ATOM      3  C   UNL     1       0.193   2.878  12.394  1.00  0.00    -0.027 C 
ATOM      4  C   UNL     1       0.272   4.328  12.881  1.00  0.00     0.031 C 
ATOM      5  C   UNL     1      -0.939   5.153  12.337  1.00  0.00     0.003 C 
ATOM      6  C   UNL     1      -1.088   4.825  10.828  1.00  0.00     0.004 C 
ATOM      7  C   UNL     1      -1.889   3.581  11.276  1.00  0.00     0.024 C 
ATOM      8  C   UNL     1      -2.277   4.395  12.532  1.00  0.00    -0.022 C 
ATOM      9  C   UNL     1      -3.485   5.320  12.188  1.00  0.00     0.008 C 
ATOM     10  C   UNL     1      -3.157   6.334  11.058  1.00  0.00     0.005 C 
ATOM     11  C   UNL     1      -2.040   5.819  10.098  1.00  0.00    -0.005 C 
ATOM     12  C   UNL     1      -2.524   3.634  13.856  1.00  0.00     0.012 C 
ENDROOT
BRANCH  11  13
ATOM     13  C   UNL     1      -1.261   6.946   9.356  1.00  0.00    -0.014 C 
ATOM     14  C   UNL     1       0.130   6.472   8.909  1.00  0.00     0.007 C 
ATOM     15  C   UNL     1      -2.022   7.563   8.170  1.00  0.00     0.007 C 
ENDBRANCH  11  13
TORSDOF 1
ENDMDL
MODEL 4
REMARK VINA RESULT:    -5.309      1.622      2.661
REMARK INTER + INTRA:          -5.945
REMARK INTER:                  -5.795
REMARK INTRA:                  -0.150
REMARK UNBOUND:                -0.326
REMARK SMILES CC1=CC[C@H]2[C@H]3[C@@H]1[C@]2(C)CC[C@H]3C(C)C
REMARK SMILES IDX 1 1 2 2 3 3 4 4 5 5 6 6 7 7 8 8 10 9 11 10 12 11 9 12 13 13
REMARK SMILES IDX 14 14 15 15
REMARK H PARENT
REMARK Flexibility Score: inf
ROOT
ATOM      1  C   UNL     1       2.762   5.545  14.483  1.00  0.00     0.039 C 
ATOM      2  C   UNL     1       1.439   5.312  13.814  1.00  0.00    -0.073 C 
ATOM      3  C   UNL     1       0.973   6.125  12.829  1.00  0.00    -0.027 C 
ATOM      4  C   UNL     1      -0.396   5.823  12.210  1.00  0.00     0.031 C 
ATOM      5  C   UNL     1      -1.010   4.533  12.844  1.00  0.00     0.003 C 
ATOM      6  C   UNL     1       0.106   3.455  12.880  1.00  0.00     0.004 C 
ATOM      7  C   UNL     1       0.568   4.115  14.199  1.00  0.00     0.024 C 
ATOM      8  C   UNL     1      -0.902   4.553  14.391  1.00  0.00    -0.022 C 
ATOM      9  C   UNL     1      -1.710   3.371  15.010  1.00  0.00     0.008 C 
ATOM     10  C   UNL     1      -1.713   2.111  14.103  1.00  0.00     0.005 C 
ATOM     11  C   UNL     1      -0.456   2.034  13.181  1.00  0.00    -0.005 C 
ATOM     12  C   UNL     1      -1.186   5.872  15.146  1.00  0.00     0.012 C 
ENDROOT
BRANCH  11  13
ATOM     13  C   UNL     1      -0.660   1.191  11.886  1.00  0.00    -0.014 C 
ATOM     14  C   UNL     1      -1.375  -0.136  12.181  1.00  0.00     0.007 C 
ATOM     15  C   UNL     1      -1.376   1.942  10.750  1.00  0.00     0.007 C 
ENDBRANCH  11  13
TORSDOF 1
ENDMDL
MODEL 5
REMARK VINA RESULT:    -5.264      1.092      4.335
REMARK INTER + INTRA:          -5.898
REMARK INTER:                  -5.481
REMARK INTRA:                  -0.417
REMARK UNBOUND:                -0.326
REMARK SMILES CC1=CC[C@H]2[C@H]3[C@@H]1[C@]2(C)CC[C@H]3C(C)C
REMARK SMILES IDX 1 1 2 2 3 3 4 4 5 5 6 6 7 7 8 8 10 9 11 10 12 11 9 12 13 13
REMARK SMILES IDX 14 14 15 15
REMARK H PARENT
REMARK Flexibility Score: inf
ROOT
ATOM      1  C   UNL     1      -2.458   0.598  14.507  1.00  0.00     0.039 C 
ATOM      2  C   UNL     1      -1.704   1.623  13.712  1.00  0.00    -0.073 C 
ATOM      3  C   UNL     1      -0.825   1.278  12.734  1.00  0.00    -0.027 C 
ATOM      4  C   UNL     1      -0.086   2.388  11.980  1.00  0.00     0.031 C 
ATOM      5  C   UNL     1      -0.547   3.793  12.487  1.00  0.00     0.003 C 
ATOM      6  C   UNL     1      -2.098   3.775  12.565  1.00  0.00     0.004 C 
ATOM      7  C   UNL     1      -1.924   3.118  13.953  1.00  0.00     0.024 C 
ATOM      8  C   UNL     1      -0.569   3.859  14.036  1.00  0.00    -0.022 C 
ATOM      9  C   UNL     1      -0.817   5.322  14.517  1.00  0.00     0.008 C 
ATOM     10  C   UNL     1      -1.729   6.122  13.548  1.00  0.00     0.005 C 
ATOM     11  C   UNL     1      -2.696   5.202  12.739  1.00  0.00    -0.005 C 
ATOM     12  C   UNL     1       0.583   3.203  14.833  1.00  0.00     0.012 C 
ENDROOT
BRANCH  11  13
ATOM     13  C   UNL     1      -3.180   5.809  11.388  1.00  0.00    -0.014 C 
ATOM     14  C   UNL     1      -2.146   6.783  10.803  1.00  0.00     0.007 C 
ATOM     15  C   UNL     1      -3.585   4.764  10.335  1.00  0.00     0.007 C 
ENDBRANCH  11  13
TORSDOF 1
ENDMDL
MODEL 6
REMARK VINA RESULT:    -5.103      2.066      4.171
REMARK INTER + INTRA:          -5.727
REMARK INTER:                  -5.493
REMARK INTRA:                  -0.234
REMARK UNBOUND:                -0.326
REMARK SMILES CC1=CC[C@H]2[C@H]3[C@@H]1[C@]2(C)CC[C@H]3C(C)C
REMARK SMILES IDX 1 1 2 2 3 3 4 4 5 5 6 6 7 7 8 8 10 9 11 10 12 11 9 12 13 13
REMARK SMILES IDX 14 14 15 15
REMARK H PARENT
REMARK Flexibility Score: inf
ROOT
ATOM      1  C   UNL     1      -3.041   4.561  10.590  1.00  0.00     0.039 C 
ATOM      2  C   UNL     1      -1.901   4.070  11.433  1.00  0.00    -0.073 C 
ATOM      3  C   UNL     1      -1.213   2.937  11.130  1.00  0.00    -0.027 C 
ATOM      4  C   UNL     1      -0.071   2.499  12.053  1.00  0.00     0.031 C 
ATOM      5  C   UNL     1       0.119   3.528  13.214  1.00  0.00     0.003 C 
ATOM      6  C   UNL     1       0.099   4.948  12.587  1.00  0.00     0.004 C 
ATOM      7  C   UNL     1      -1.442   4.855  12.664  1.00  0.00     0.024 C 
ATOM      8  C   UNL     1      -1.236   3.905  13.866  1.00  0.00    -0.022 C 
ATOM      9  C   UNL     1      -1.005   4.756  15.153  1.00  0.00     0.008 C 
ATOM     10  C   UNL     1       0.253   5.661  15.053  1.00  0.00     0.005 C 
ATOM     11  C   UNL     1       0.602   6.038  13.579  1.00  0.00    -0.005 C 
ATOM     12  C   UNL     1      -2.284   2.796  14.118  1.00  0.00     0.012 C 
ENDROOT
BRANCH  11  13
ATOM     13  C   UNL     1       2.099   6.403  13.346  1.00  0.00    -0.014 C 
ATOM     14  C   UNL     1       2.250   7.801  12.727  1.00  0.00     0.007 C 
ATOM     15  C   UNL     1       2.982   6.276  14.600  1.00  0.00     0.007 C 
ENDBRANCH  11  13
TORSDOF 1
ENDMDL
MODEL 7
REMARK VINA RESULT:    -5.103      1.187      2.730
REMARK INTER + INTRA:          -5.727
REMARK INTER:                  -5.491
REMARK INTRA:                  -0.236
REMARK UNBOUND:                -0.326
REMARK SMILES CC1=CC[C@H]2[C@H]3[C@@H]1[C@]2(C)CC[C@H]3C(C)C
REMARK SMILES IDX 1 1 2 2 3 3 4 4 5 5 6 6 7 7 8 8 10 9 11 10 12 11 9 12 13 13
REMARK SMILES IDX 14 14 15 15
REMARK H PARENT
REMARK Flexibility Score: inf
ROOT
ATOM      1  C   UNL     1      -5.094   5.723  11.707  1.00  0.00     0.039 C 
ATOM      2  C   UNL     1      -3.679   5.630  12.197  1.00  0.00    -0.073 C 
ATOM      3  C   UNL     1      -3.122   6.586  12.987  1.00  0.00    -0.027 C 
ATOM      4  C   UNL     1      -1.665   6.419  13.432  1.00  0.00     0.031 C 
ATOM      5  C   UNL     1      -1.079   5.076  12.889  1.00  0.00     0.003 C 
ATOM      6  C   UNL     1      -2.129   3.965  13.160  1.00  0.00     0.004 C 
ATOM      7  C   UNL     1      -2.808   4.421  11.849  1.00  0.00     0.024 C 
ATOM      8  C   UNL     1      -1.406   4.879  11.386  1.00  0.00    -0.022 C 
ATOM      9  C   UNL     1      -0.631   3.651  10.815  1.00  0.00     0.008 C 
ATOM     10  C   UNL     1      -0.432   2.528  11.869  1.00  0.00     0.005 C 
ATOM     11  C   UNL     1      -1.540   2.536  12.968  1.00  0.00    -0.005 C 
ATOM     12  C   UNL     1      -1.303   6.090  10.430  1.00  0.00     0.012 C 
ENDROOT
BRANCH  11  13
ATOM     13  C   UNL     1      -1.109   1.888  14.319  1.00  0.00    -0.014 C 
ATOM     14  C   UNL     1      -1.383   2.822  15.507  1.00  0.00     0.007 C 
ATOM     15  C   UNL     1      -1.722   0.501  14.577  1.00  0.00     0.007 C 
ENDBRANCH  11  13
TORSDOF 1
ENDMDL
MODEL 8
REMARK VINA RESULT:    -5.094      1.616      4.190
REMARK INTER + INTRA:          -5.717
REMARK INTER:                  -5.297
REMARK INTRA:                  -0.420
REMARK UNBOUND:                -0.326
REMARK SMILES CC1=CC[C@H]2[C@H]3[C@@H]1[C@]2(C)CC[C@H]3C(C)C
REMARK SMILES IDX 1 1 2 2 3 3 4 4 5 5 6 6 7 7 8 8 10 9 11 10 12 11 9 12 13 13
REMARK SMILES IDX 14 14 15 15
REMARK H PARENT
REMARK Flexibility Score: inf
ROOT
ATOM      1  C   UNL     1       2.380   6.005  14.140  1.00  0.00     0.039 C 
ATOM      2  C   UNL     1       0.984   5.466  14.030  1.00  0.00    -0.073 C 
ATOM      3  C   UNL     1       0.058   5.651  15.008  1.00  0.00    -0.027 C 
ATOM      4  C   UNL     1      -1.341   5.055  14.821  1.00  0.00     0.031 C 
ATOM      5  C   UNL     1      -1.449   4.339  13.436  1.00  0.00     0.003 C 
ATOM      6  C   UNL     1      -0.837   5.288  12.371  1.00  0.00     0.004 C 
ATOM      7  C   UNL     1       0.535   4.706  12.781  1.00  0.00     0.024 C 
ATOM      8  C   UNL     1      -0.228   3.420  13.174  1.00  0.00    -0.022 C 
ATOM      9  C   UNL     1      -0.460   2.554  11.897  1.00  0.00     0.008 C 
ATOM     10  C   UNL     1      -1.307   3.289  10.823  1.00  0.00     0.005 C 
ATOM     11  C   UNL     1      -1.176   4.842  10.918  1.00  0.00    -0.005 C 
ATOM     12  C   UNL     1       0.327   2.559  14.333  1.00  0.00     0.012 C 
ENDROOT
BRANCH  11  13
ATOM     13  C   UNL     1      -2.386   5.626  10.326  1.00  0.00    -0.014 C 
ATOM     14  C   UNL     1      -3.654   4.759  10.282  1.00  0.00     0.007 C 
ATOM     15  C   UNL     1      -2.677   6.963  11.028  1.00  0.00     0.007 C 
ENDBRANCH  11  13
TORSDOF 1
ENDMDL
MODEL 9
REMARK VINA RESULT:    -4.939      2.061      4.595
REMARK INTER + INTRA:          -5.554
REMARK INTER:                  -5.305
REMARK INTRA:                  -0.249
REMARK UNBOUND:                -0.326
REMARK SMILES CC1=CC[C@H]2[C@H]3[C@@H]1[C@]2(C)CC[C@H]3C(C)C
REMARK SMILES IDX 1 1 2 2 3 3 4 4 5 5 6 6 7 7 8 8 10 9 11 10 12 11 9 12 13 13
REMARK SMILES IDX 14 14 15 15
REMARK H PARENT
REMARK Flexibility Score: inf
ROOT
ATOM      1  C   UNL     1      -0.612   1.163  12.459  1.00  0.00     0.039 C 
ATOM      2  C   UNL     1      -0.755   2.309  13.418  1.00  0.00    -0.073 C 
ATOM      3  C   UNL     1      -1.303   2.156  14.652  1.00  0.00    -0.027 C 
ATOM      4  C   UNL     1      -1.424   3.382  15.563  1.00  0.00     0.031 C 
ATOM      5  C   UNL     1      -0.818   4.642  14.865  1.00  0.00     0.003 C 
ATOM      6  C   UNL     1       0.551   4.228  14.261  1.00  0.00     0.004 C 
ATOM      7  C   UNL     1      -0.252   3.706  13.048  1.00  0.00     0.024 C 
ATOM      8  C   UNL     1      -1.311   4.775  13.401  1.00  0.00    -0.022 C 
ATOM      9  C   UNL     1      -0.873   6.145  12.799  1.00  0.00     0.008 C 
ATOM     10  C   UNL     1       0.489   6.635  13.359  1.00  0.00     0.005 C 
ATOM     11  C   UNL     1       1.401   5.459  13.828  1.00  0.00    -0.005 C 
ATOM     12  C   UNL     1      -2.795   4.478  13.079  1.00  0.00     0.012 C 
ENDROOT
BRANCH  11  13
ATOM     13  C   UNL     1       2.459   5.855  14.902  1.00  0.00    -0.014 C 
ATOM     14  C   UNL     1       3.886   5.811  14.333  1.00  0.00     0.007 C 
ATOM     15  C   UNL     1       2.195   7.210  15.578  1.00  0.00     0.007 C 
ENDBRANCH  11  13
TORSDOF 1
ENDMDL
