MODEL 1
REMARK VINA RESULT:    -3.152      0.000      0.000
REMARK INTER + INTRA:          -3.744
REMARK INTER:                  -3.705
REMARK INTRA:                  -0.039
REMARK UNBOUND:                -0.039
REMARK SMILES O=C([O-])CCC(=O)[O-]
REMARK SMILES IDX 4 1 2 2 1 3 3 4 5 5 6 6 7 7 8 8
REMARK H PARENT
REMARK Flexibility Score: inf
ROOT
ATOM      1  C   UNL     1     102.235  71.388  75.003  1.00  0.00     0.059 C 
ENDROOT
BRANCH   1   2
ATOM      2  C   UNL     1     101.881  69.990  74.599  1.00  0.00     0.042 C 
ATOM      3  O   UNL     1     102.297  69.010  75.271  1.00  0.00    -0.550 OA
ATOM      4  O   UNL     1     101.121  69.768  73.457  1.00  0.00    -0.550 OA
ENDBRANCH   1   2
BRANCH   1   5
ATOM      5  C   UNL     1     103.753  71.591  75.058  1.00  0.00     0.059 C 
BRANCH   5   6
ATOM      6  C   UNL     1     104.138  72.986  74.669  1.00  0.00     0.042 C 
ATOM      7  O   UNL     1     105.211  73.490  75.095  1.00  0.00    -0.550 OA
ATOM      8  O   UNL     1     103.292  73.742  73.869  1.00  0.00    -0.550 OA
ENDBRANCH   5   6
ENDBRANCH   1   5
TORSDOF 3
ENDMDL
MODEL 2
REMARK VINA RESULT:    -3.150      0.069      4.054
REMARK INTER + INTRA:          -3.741
REMARK INTER:                  -3.702
REMARK INTRA:                  -0.038
REMARK UNBOUND:                -0.039
REMARK SMILES O=C([O-])CCC(=O)[O-]
REMARK SMILES IDX 4 1 2 2 1 3 3 4 5 5 6 6 7 7 8 8
REMARK H PARENT
REMARK Flexibility Score: inf
ROOT
ATOM      1  C   UNL     1     103.722  71.547  75.020  1.00  0.00     0.059 C 
ENDROOT
BRANCH   1   2
ATOM      2  C   UNL     1     104.094  72.953  74.659  1.00  0.00     0.042 C 
ATOM      3  O   UNL     1     105.162  73.458  75.093  1.00  0.00    -0.550 OA
ATOM      4  O   UNL     1     103.239  73.718  73.875  1.00  0.00    -0.550 OA
ENDBRANCH   1   2
BRANCH   1   5
ATOM      5  C   UNL     1     102.205  71.335  74.966  1.00  0.00     0.059 C 
BRANCH   5   6
ATOM      6  C   UNL     1     101.859  69.938  74.546  1.00  0.00     0.042 C 
ATOM      7  O   UNL     1     102.285  68.954  75.207  1.00  0.00    -0.550 OA
ATOM      8  O   UNL     1     101.101  69.723  73.404  1.00  0.00    -0.550 OA
ENDBRANCH   5   6
ENDBRANCH   1   5
TORSDOF 3
ENDMDL
MODEL 3
REMARK VINA RESULT:    -2.732      3.353      5.232
REMARK INTER + INTRA:          -3.250
REMARK INTER:                  -3.201
REMARK INTRA:                  -0.048
REMARK UNBOUND:                -0.039
REMARK SMILES O=C([O-])CCC(=O)[O-]
REMARK SMILES IDX 4 1 2 2 1 3 3 4 5 5 6 6 7 7 8 8
REMARK H PARENT
REMARK Flexibility Score: inf
ROOT
ATOM      1  C   UNL     1     100.447  69.563  72.396  1.00  0.00     0.059 C 
ENDROOT
BRANCH   1   2
ATOM      2  C   UNL     1     101.504  69.591  73.458  1.00  0.00     0.042 C 
ATOM      3  O   UNL     1     102.539  68.885  73.341  1.00  0.00    -0.550 OA
ATOM      4  O   UNL     1     101.325  70.368  74.595  1.00  0.00    -0.550 OA
ENDBRANCH   1   2
BRANCH   1   5
ATOM      5  C   UNL     1     100.947  68.875  71.122  1.00  0.00     0.059 C 
BRANCH   5   6
ATOM      6  C   UNL     1     100.391  69.524  69.891  1.00  0.00     0.042 C 
ATOM      7  O   UNL     1     100.523  68.970  68.767  1.00  0.00    -0.550 OA
ATOM      8  O   UNL     1      99.764  70.760  69.979  1.00  0.00    -0.550 OA
ENDBRANCH   5   6
ENDBRANCH   1   5
TORSDOF 3
ENDMDL
MODEL 4
REMARK VINA RESULT:    -2.661      9.380     10.529
REMARK INTER + INTRA:          -3.167
REMARK INTER:                  -3.133
REMARK INTRA:                  -0.034
REMARK UNBOUND:                -0.039
REMARK SMILES O=C([O-])CCC(=O)[O-]
REMARK SMILES IDX 4 1 2 2 1 3 3 4 5 5 6 6 7 7 8 8
REMARK H PARENT
REMARK Flexibility Score: inf
ROOT
ATOM      1  C   UNL     1      98.678  71.511  82.655  1.00  0.00     0.059 C 
ENDROOT
BRANCH   1   2
ATOM      2  C   UNL     1     100.151  71.505  82.931  1.00  0.00     0.042 C 
ATOM      3  O   UNL     1     100.588  71.873  84.053  1.00  0.00    -0.550 OA
ATOM      4  O   UNL     1     101.043  71.128  81.935  1.00  0.00    -0.550 OA
ENDBRANCH   1   2
BRANCH   1   5
ATOM      5  C   UNL     1      97.867  71.196  83.916  1.00  0.00     0.059 C 
BRANCH   5   6
ATOM      6  C   UNL     1      96.520  70.632  83.578  1.00  0.00     0.042 C 
ATOM      7  O   UNL     1      96.412  69.440  83.185  1.00  0.00    -0.550 OA
ATOM      8  O   UNL     1      95.391  71.435  83.658  1.00  0.00    -0.550 OA
ENDBRANCH   5   6
ENDBRANCH   1   5
TORSDOF 3
ENDMDL
MODEL 5
REMARK VINA RESULT:    -2.653      9.437     10.035
REMARK INTER + INTRA:          -3.157
REMARK INTER:                  -3.124
REMARK INTRA:                  -0.033
REMARK UNBOUND:                -0.039
REMARK SMILES O=C([O-])CCC(=O)[O-]
REMARK SMILES IDX 4 1 2 2 1 3 3 4 5 5 6 6 7 7 8 8
REMARK H PARENT
REMARK Flexibility Score: inf
ROOT
ATOM      1  C   UNL     1      97.773  71.139  83.929  1.00  0.00     0.059 C 
ENDROOT
BRANCH   1   2
ATOM      2  C   UNL     1      96.423  70.591  83.578  1.00  0.00     0.042 C 
ATOM      3  O   UNL     1      96.303  69.400  83.190  1.00  0.00    -0.550 OA
ATOM      4  O   UNL     1      95.303  71.410  83.642  1.00  0.00    -0.550 OA
ENDBRANCH   1   2
BRANCH   1   5
ATOM      5  C   UNL     1      98.587  71.478  82.676  1.00  0.00     0.059 C 
BRANCH   5   6
ATOM      6  C   UNL     1     100.057  71.512  82.966  1.00  0.00     0.042 C 
ATOM      7  O   UNL     1     100.471  71.875  84.099  1.00  0.00    -0.550 OA
ATOM      8  O   UNL     1     100.969  71.181  81.973  1.00  0.00    -0.550 OA
ENDBRANCH   5   6
ENDBRANCH   1   5
TORSDOF 3
ENDMDL
MODEL 6
REMARK VINA RESULT:    -2.478     10.565     11.200
REMARK INTER + INTRA:          -2.951
REMARK INTER:                  -2.917
REMARK INTRA:                  -0.034
REMARK UNBOUND:                -0.039
REMARK SMILES O=C([O-])CCC(=O)[O-]
REMARK SMILES IDX 4 1 2 2 1 3 3 4 5 5 6 6 7 7 8 8
REMARK H PARENT
REMARK Flexibility Score: inf
ROOT
ATOM      1  C   UNL     1      96.293  71.235  84.476  1.00  0.00     0.059 C 
ENDROOT
BRANCH   1   2
ATOM      2  C   UNL     1      94.966  71.254  83.781  1.00  0.00     0.042 C 
ATOM      3  O   UNL     1      94.323  72.330  83.669  1.00  0.00    -0.550 OA
ATOM      4  O   UNL     1      94.422  70.074  83.291  1.00  0.00    -0.550 OA
ENDBRANCH   1   2
BRANCH   1   5
ATOM      5  C   UNL     1      97.406  70.729  83.551  1.00  0.00     0.059 C 
BRANCH   5   6
ATOM      6  C   UNL     1      98.602  71.631  83.584  1.00  0.00     0.042 C 
ATOM      7  O   UNL     1      99.345  71.735  82.572  1.00  0.00    -0.550 OA
ATOM      8  O   UNL     1      98.918  72.324  84.745  1.00  0.00    -0.550 OA
ENDBRANCH   5   6
ENDBRANCH   1   5
TORSDOF 3
ENDMDL
MODEL 7
REMARK VINA RESULT:    -2.417      1.401      3.966
REMARK INTER + INTRA:          -2.879
REMARK INTER:                  -2.726
REMARK INTRA:                  -0.153
REMARK UNBOUND:                -0.039
REMARK SMILES O=C([O-])CCC(=O)[O-]
REMARK SMILES IDX 4 1 2 2 1 3 3 4 5 5 6 6 7 7 8 8
REMARK H PARENT
REMARK Flexibility Score: inf
ROOT
ATOM      1  C   UNL     1     101.971  71.124  75.748  1.00  0.00     0.059 C 
ENDROOT
BRANCH   1   2
ATOM      2  C   UNL     1     103.007  71.971  75.072  1.00  0.00     0.042 C 
ATOM      3  O   UNL     1     102.682  73.063  74.537  1.00  0.00    -0.550 OA
ATOM      4  O   UNL     1     104.323  71.533  75.000  1.00  0.00    -0.550 OA
ENDBRANCH   1   2
BRANCH   1   5
ATOM      5  C   UNL     1     102.120  69.646  75.373  1.00  0.00     0.059 C 
BRANCH   5   6
ATOM      6  C   UNL     1     101.860  69.418  73.915  1.00  0.00     0.042 C 
ATOM      7  O   UNL     1     100.730  69.683  73.424  1.00  0.00    -0.550 OA
ATOM      8  O   UNL     1     102.850  68.875  73.109  1.00  0.00    -0.550 OA
ENDBRANCH   5   6
ENDBRANCH   1   5
TORSDOF 3
ENDMDL
MODEL 8
REMARK VINA RESULT:    -2.373      5.318      6.713
REMARK INTER + INTRA:          -2.828
REMARK INTER:                  -2.786
REMARK INTRA:                  -0.042
REMARK UNBOUND:                -0.039
REMARK SMILES O=C([O-])CCC(=O)[O-]
REMARK SMILES IDX 4 1 2 2 1 3 3 4 5 5 6 6 7 7 8 8
REMARK H PARENT
REMARK Flexibility Score: inf
ROOT
ATOM      1  C   UNL     1      99.842  70.674  69.037  1.00  0.00     0.059 C 
ENDROOT
BRANCH   1   2
ATOM      2  C   UNL     1      98.527  71.357  69.262  1.00  0.00     0.042 C 
ATOM      3  O   UNL     1      98.476  72.607  69.398  1.00  0.00    -0.550 OA
ATOM      4  O   UNL     1      97.362  70.606  69.359  1.00  0.00    -0.550 OA
ENDBRANCH   1   2
BRANCH   1   5
ATOM      5  C   UNL     1      99.833  69.241  69.581  1.00  0.00     0.059 C 
BRANCH   5   6
ATOM      6  C   UNL     1     100.961  69.009  70.539  1.00  0.00     0.042 C 
ATOM      7  O   UNL     1     102.139  68.875  70.111  1.00  0.00    -0.550 OA
ATOM      8  O   UNL     1     100.707  68.899  71.899  1.00  0.00    -0.550 OA
ENDBRANCH   5   6
ENDBRANCH   1   5
TORSDOF 3
ENDMDL
MODEL 9
REMARK VINA RESULT:    -1.983      3.265      4.892
REMARK INTER + INTRA:          -2.369
REMARK INTER:                  -2.336
REMARK INTRA:                  -0.033
REMARK UNBOUND:                -0.039
REMARK SMILES O=C([O-])CCC(=O)[O-]
REMARK SMILES IDX 4 1 2 2 1 3 3 4 5 5 6 6 7 7 8 8
REMARK H PARENT
REMARK Flexibility Score: inf
ROOT
ATOM      1  C   UNL     1     100.619  69.879  71.350  1.00  0.00     0.059 C 
ENDROOT
BRANCH   1   2
ATOM      2  C   UNL     1     100.323  69.312  69.995  1.00  0.00     0.042 C 
ATOM      3  O   UNL     1     101.259  68.895  69.264  1.00  0.00    -0.550 OA
ATOM      4  O   UNL     1      99.016  69.281  69.525  1.00  0.00    -0.550 OA
ENDBRANCH   1   2
BRANCH   1   5
ATOM      5  C   UNL     1     101.376  68.876  72.227  1.00  0.00     0.059 C 
BRANCH   5   6
ATOM      6  C   UNL     1     101.711  69.459  73.566  1.00  0.00     0.042 C 
ATOM      7  O   UNL     1     101.002  70.379  74.053  1.00  0.00    -0.550 OA
ATOM      8  O   UNL     1     102.830  69.013  74.257  1.00  0.00    -0.550 OA
ENDBRANCH   5   6
ENDBRANCH   1   5
TORSDOF 3
ENDMDL
