MODEL 1
REMARK VINA RESULT:    -7.304      0.000      0.000
REMARK INTER + INTRA:          -8.885
REMARK INTER:                  -8.585
REMARK INTRA:                  -0.300
REMARK UNBOUND:                -0.300
REMARK SMILES O=c1c(O)c(-c2ccc(O)cc2)oc2cc(O)cc(O)c12
REMARK SMILES IDX 5 1 3 2 2 3 1 4 21 5 19 6 18 7 16 8 15 9 14 10 13 11 6 12
REMARK SMILES IDX 7 13 8 14 9 15 12 16 11 17 10 18 4 20 20 22 17 24
REMARK H PARENT 10 19 4 21 20 23 17 25
REMARK Flexibility Score: inf
ROOT
ATOM      1  C   UNL     1      25.693   6.197  22.657  1.00  0.00     0.180 A 
ATOM      2  C   UNL     1      24.851   5.884  23.739  1.00  0.00     0.208 A 
ATOM      3  C   UNL     1      23.854   4.911  23.568  1.00  0.00     0.238 A 
ATOM      4  O   UNL     1      23.140   4.595  24.554  1.00  0.00    -0.285 OA
ATOM      5  C   UNL     1      23.699   4.275  22.311  1.00  0.00     0.111 A 
ATOM      6  C   UNL     1      22.697   3.304  22.013  1.00  0.00     0.134 A 
ATOM      7  C   UNL     1      22.719   2.646  20.778  1.00  0.00     0.093 A 
ATOM      8  C   UNL     1      23.666   2.969  19.806  1.00  0.00     0.123 A 
ATOM      9  C   UNL     1      24.614   3.959  20.065  1.00  0.00     0.094 A 
ATOM     10  C   UNL     1      24.640   4.608  21.302  1.00  0.00     0.146 A 
ATOM     11  O   UNL     1      25.564   5.537  21.512  1.00  0.00    -0.452 OA
ENDROOT
BRANCH   1  12
ATOM     12  C   UNL     1      26.750   7.230  22.755  1.00  0.00     0.021 A 
ATOM     13  C   UNL     1      28.060   6.848  23.089  1.00  0.00     0.016 A 
ATOM     14  C   UNL     1      29.079   7.802  23.164  1.00  0.00     0.047 A 
ATOM     15  C   UNL     1      28.804   9.148  22.891  1.00  0.00     0.115 A 
ATOM     16  C   UNL     1      26.486   8.580  22.461  1.00  0.00     0.016 A 
ATOM     17  C   UNL     1      27.507   9.532  22.537  1.00  0.00     0.047 A 
BRANCH  15  18
ATOM     18  O   UNL     1      29.811  10.108  22.963  1.00  0.00    -0.508 OA
ATOM     19  H   UNL     1      30.582  10.018  23.614  1.00  0.00     0.293 HD
ENDBRANCH  15  18
ENDBRANCH   1  12
BRANCH   2  20
ATOM     20  O   UNL     1      25.035   6.508  24.976  1.00  0.00    -0.502 OA
ATOM     21  H   UNL     1      25.891   6.416  25.509  1.00  0.00     0.293 HD
ENDBRANCH   2  20
BRANCH   6  22
ATOM     22  O   UNL     1      21.649   2.973  22.878  1.00  0.00    -0.507 OA
ATOM     23  H   UNL     1      21.405   3.489  23.709  1.00  0.00     0.293 HD
ENDBRANCH   6  22
BRANCH   8  24
ATOM     24  O   UNL     1      23.649   2.304  18.582  1.00  0.00    -0.508 OA
ATOM     25  H   UNL     1      23.865   2.784  17.715  1.00  0.00     0.293 HD
ENDBRANCH   8  24
TORSDOF 5
ENDMDL
MODEL 2
REMARK VINA RESULT:    -7.228      2.612      3.611
REMARK INTER + INTRA:          -8.796
REMARK INTER:                  -8.497
REMARK INTRA:                  -0.299
REMARK UNBOUND:                -0.300
REMARK SMILES O=c1c(O)c(-c2ccc(O)cc2)oc2cc(O)cc(O)c12
REMARK SMILES IDX 5 1 3 2 2 3 1 4 21 5 19 6 18 7 16 8 15 9 14 10 13 11 6 12
REMARK SMILES IDX 7 13 8 14 9 15 12 16 11 17 10 18 4 20 20 22 17 24
REMARK H PARENT 10 19 4 21 20 23 17 25
REMARK Flexibility Score: inf
ROOT
ATOM      1  C   UNL     1      26.023   6.128  21.889  1.00  0.00     0.180 A 
ATOM      2  C   UNL     1      25.881   4.768  21.561  1.00  0.00     0.208 A 
ATOM      3  C   UNL     1      25.115   4.414  20.440  1.00  0.00     0.238 A 
ATOM      4  O   UNL     1      25.036   3.200  20.119  1.00  0.00    -0.285 OA
ATOM      5  C   UNL     1      24.486   5.423  19.669  1.00  0.00     0.111 A 
ATOM      6  C   UNL     1      23.654   5.177  18.537  1.00  0.00     0.134 A 
ATOM      7  C   UNL     1      23.191   6.254  17.773  1.00  0.00     0.093 A 
ATOM      8  C   UNL     1      23.474   7.570  18.137  1.00  0.00     0.123 A 
ATOM      9  C   UNL     1      24.238   7.824  19.277  1.00  0.00     0.094 A 
ATOM     10  C   UNL     1      24.745   6.768  20.039  1.00  0.00     0.146 A 
ATOM     11  O   UNL     1      25.475   7.053  21.110  1.00  0.00    -0.452 OA
ENDROOT
BRANCH   1  12
ATOM     12  C   UNL     1      26.795   6.576  23.071  1.00  0.00     0.021 A 
ATOM     13  C   UNL     1      28.138   6.958  22.915  1.00  0.00     0.016 A 
ATOM     14  C   UNL     1      28.879   7.407  24.013  1.00  0.00     0.047 A 
ATOM     15  C   UNL     1      28.281   7.494  25.277  1.00  0.00     0.115 A 
ATOM     16  C   UNL     1      26.197   6.686  24.340  1.00  0.00     0.016 A 
ATOM     17  C   UNL     1      26.940   7.136  25.435  1.00  0.00     0.047 A 
BRANCH  15  18
ATOM     18  O   UNL     1      29.010   7.939  26.378  1.00  0.00    -0.508 OA
ATOM     19  H   UNL     1      29.661   7.333  26.863  1.00  0.00     0.293 HD
ENDBRANCH  15  18
ENDBRANCH   1  12
BRANCH   2  20
ATOM     20  O   UNL     1      26.528   3.790  22.322  1.00  0.00    -0.502 OA
ATOM     21  H   UNL     1      26.477   2.804  22.097  1.00  0.00     0.293 HD
ENDBRANCH   2  20
BRANCH   6  22
ATOM     22  O   UNL     1      23.233   3.903  18.140  1.00  0.00    -0.507 OA
ATOM     23  H   UNL     1      23.809   3.232  17.656  1.00  0.00     0.293 HD
ENDBRANCH   6  22
BRANCH   8  24
ATOM     24  O   UNL     1      22.984   8.619  17.362  1.00  0.00    -0.508 OA
ATOM     25  H   UNL     1      22.141   9.120  17.620  1.00  0.00     0.293 HD
ENDBRANCH   8  24
TORSDOF 5
ENDMDL
MODEL 3
REMARK VINA RESULT:    -7.183      2.911      6.776
REMARK INTER + INTRA:          -8.743
REMARK INTER:                  -8.459
REMARK INTRA:                  -0.284
REMARK UNBOUND:                -0.300
REMARK SMILES O=c1c(O)c(-c2ccc(O)cc2)oc2cc(O)cc(O)c12
REMARK SMILES IDX 5 1 3 2 2 3 1 4 21 5 19 6 18 7 16 8 15 9 14 10 13 11 6 12
REMARK SMILES IDX 7 13 8 14 9 15 12 16 11 17 10 18 4 20 20 22 17 24
REMARK H PARENT 10 19 4 21 20 23 17 25
REMARK Flexibility Score: inf
ROOT
ATOM      1  C   UNL     1      26.318   6.562  20.432  1.00  0.00     0.180 A 
ATOM      2  C   UNL     1      27.672   6.483  20.063  1.00  0.00     0.208 A 
ATOM      3  C   UNL     1      28.657   6.597  21.056  1.00  0.00     0.238 A 
ATOM      4  O   UNL     1      29.866   6.471  20.728  1.00  0.00    -0.285 OA
ATOM      5  C   UNL     1      28.277   6.806  22.404  1.00  0.00     0.111 A 
ATOM      6  C   UNL     1      29.191   6.977  23.487  1.00  0.00     0.134 A 
ATOM      7  C   UNL     1      28.704   7.046  24.797  1.00  0.00     0.093 A 
ATOM      8  C   UNL     1      27.335   7.017  25.060  1.00  0.00     0.123 A 
ATOM      9  C   UNL     1      26.429   6.911  24.004  1.00  0.00     0.094 A 
ATOM     10  C   UNL     1      26.886   6.803  22.688  1.00  0.00     0.146 A 
ATOM     11  O   UNL     1      25.993   6.693  21.713  1.00  0.00    -0.452 OA
ENDROOT
BRANCH   1  12
ATOM     12  C   UNL     1      25.224   6.475  19.437  1.00  0.00     0.021 A 
ATOM     13  C   UNL     1      24.518   5.270  19.291  1.00  0.00     0.016 A 
ATOM     14  C   UNL     1      23.466   5.171  18.375  1.00  0.00     0.047 A 
ATOM     15  C   UNL     1      23.098   6.282  17.605  1.00  0.00     0.115 A 
ATOM     16  C   UNL     1      24.834   7.592  18.676  1.00  0.00     0.016 A 
ATOM     17  C   UNL     1      23.782   7.491  17.761  1.00  0.00     0.047 A 
BRANCH  15  18
ATOM     18  O   UNL     1      22.052   6.197  16.688  1.00  0.00    -0.508 OA
ATOM     19  H   UNL     1      22.149   6.539  15.740  1.00  0.00     0.293 HD
ENDBRANCH  15  18
ENDBRANCH   1  12
BRANCH   2  20
ATOM     20  O   UNL     1      28.025   6.255  18.730  1.00  0.00    -0.502 OA
ATOM     21  H   UNL     1      28.062   5.325  18.329  1.00  0.00     0.293 HD
ENDBRANCH   2  20
BRANCH   6  22
ATOM     22  O   UNL     1      30.574   7.111  23.327  1.00  0.00    -0.507 OA
ATOM     23  H   UNL     1      31.208   6.350  23.138  1.00  0.00     0.293 HD
ENDBRANCH   6  22
BRANCH   8  24
ATOM     24  O   UNL     1      26.885   7.104  26.376  1.00  0.00    -0.508 OA
ATOM     25  H   UNL     1      27.488   7.430  27.122  1.00  0.00     0.293 HD
ENDBRANCH   8  24
TORSDOF 5
ENDMDL
MODEL 4
REMARK VINA RESULT:    -7.165      2.739      3.557
REMARK INTER + INTRA:          -8.722
REMARK INTER:                  -8.441
REMARK INTRA:                  -0.281
REMARK UNBOUND:                -0.300
REMARK SMILES O=c1c(O)c(-c2ccc(O)cc2)oc2cc(O)cc(O)c12
REMARK SMILES IDX 5 1 3 2 2 3 1 4 21 5 19 6 18 7 16 8 15 9 14 10 13 11 6 12
REMARK SMILES IDX 7 13 8 14 9 15 12 16 11 17 10 18 4 20 20 22 17 24
REMARK H PARENT 10 19 4 21 20 23 17 25
REMARK Flexibility Score: inf
ROOT
ATOM      1  C   UNL     1      25.133   7.117  21.794  1.00  0.00     0.180 A 
ATOM      2  C   UNL     1      24.450   8.218  21.249  1.00  0.00     0.208 A 
ATOM      3  C   UNL     1      23.665   8.032  20.100  1.00  0.00     0.238 A 
ATOM      4  O   UNL     1      23.012   9.007  19.648  1.00  0.00    -0.285 OA
ATOM      5  C   UNL     1      23.586   6.751  19.501  1.00  0.00     0.111 A 
ATOM      6  C   UNL     1      22.854   6.456  18.312  1.00  0.00     0.134 A 
ATOM      7  C   UNL     1      22.740   5.128  17.882  1.00  0.00     0.093 A 
ATOM      8  C   UNL     1      23.385   4.094  18.560  1.00  0.00     0.123 A 
ATOM      9  C   UNL     1      24.153   4.378  19.689  1.00  0.00     0.094 A 
ATOM     10  C   UNL     1      24.256   5.689  20.164  1.00  0.00     0.146 A 
ATOM     11  O   UNL     1      24.988   5.916  21.247  1.00  0.00    -0.452 OA
ENDROOT
BRANCH   1  12
ATOM     12  C   UNL     1      26.000   7.241  22.989  1.00  0.00     0.021 A 
ATOM     13  C   UNL     1      25.519   6.815  24.238  1.00  0.00     0.016 A 
ATOM     14  C   UNL     1      26.327   6.901  25.376  1.00  0.00     0.047 A 
ATOM     15  C   UNL     1      27.632   7.401  25.275  1.00  0.00     0.115 A 
ATOM     16  C   UNL     1      27.318   7.722  22.893  1.00  0.00     0.016 A 
ATOM     17  C   UNL     1      28.125   7.806  24.031  1.00  0.00     0.047 A 
BRANCH  15  18
ATOM     18  O   UNL     1      28.448   7.492  26.401  1.00  0.00    -0.508 OA
ATOM     19  H   UNL     1      28.147   7.985  27.234  1.00  0.00     0.293 HD
ENDBRANCH  15  18
ENDBRANCH   1  12
BRANCH   2  20
ATOM     20  O   UNL     1      24.523   9.468  21.869  1.00  0.00    -0.502 OA
ATOM     21  H   UNL     1      25.313   9.747  22.439  1.00  0.00     0.293 HD
ENDBRANCH   2  20
BRANCH   6  22
ATOM     22  O   UNL     1      22.248   7.426  17.508  1.00  0.00    -0.507 OA
ATOM     23  H   UNL     1      21.253   7.551  17.408  1.00  0.00     0.293 HD
ENDBRANCH   6  22
BRANCH   8  24
ATOM     24  O   UNL     1      23.262   2.786  18.095  1.00  0.00    -0.508 OA
ATOM     25  H   UNL     1      22.556   2.529  17.415  1.00  0.00     0.293 HD
ENDBRANCH   8  24
TORSDOF 5
ENDMDL
MODEL 5
REMARK VINA RESULT:    -7.089      3.644      5.234
REMARK INTER + INTRA:          -8.633
REMARK INTER:                  -8.407
REMARK INTRA:                  -0.226
REMARK UNBOUND:                -0.300
REMARK SMILES O=c1c(O)c(-c2ccc(O)cc2)oc2cc(O)cc(O)c12
REMARK SMILES IDX 5 1 3 2 2 3 1 4 21 5 19 6 18 7 16 8 15 9 14 10 13 11 6 12
REMARK SMILES IDX 7 13 8 14 9 15 12 16 11 17 10 18 4 20 20 22 17 24
REMARK H PARENT 10 19 4 21 20 23 17 25
REMARK Flexibility Score: inf
ROOT
ATOM      1  C   UNL     1      26.257   6.675  21.076  1.00  0.00     0.180 A 
ATOM      2  C   UNL     1      26.172   6.739  19.674  1.00  0.00     0.208 A 
ATOM      3  C   UNL     1      25.073   7.386  19.087  1.00  0.00     0.238 A 
ATOM      4  O   UNL     1      25.030   7.488  17.834  1.00  0.00    -0.285 OA
ATOM      5  C   UNL     1      24.064   7.945  19.908  1.00  0.00     0.111 A 
ATOM      6  C   UNL     1      22.886   8.587  19.421  1.00  0.00     0.134 A 
ATOM      7  C   UNL     1      22.021   9.218  20.322  1.00  0.00     0.093 A 
ATOM      8  C   UNL     1      22.254   9.175  21.696  1.00  0.00     0.123 A 
ATOM      9  C   UNL     1      23.371   8.499  22.188  1.00  0.00     0.094 A 
ATOM     10  C   UNL     1      24.273   7.890  21.311  1.00  0.00     0.146 A 
ATOM     11  O   UNL     1      25.328   7.266  21.819  1.00  0.00    -0.452 OA
ENDROOT
BRANCH   1  12
ATOM     12  C   UNL     1      27.373   5.989  21.767  1.00  0.00     0.021 A 
ATOM     13  C   UNL     1      28.625   6.620  21.852  1.00  0.00     0.016 A 
ATOM     14  C   UNL     1      29.687   6.002  22.520  1.00  0.00     0.047 A 
ATOM     15  C   UNL     1      29.504   4.750  23.123  1.00  0.00     0.115 A 
ATOM     16  C   UNL     1      27.193   4.742  22.393  1.00  0.00     0.016 A 
ATOM     17  C   UNL     1      28.256   4.126  23.060  1.00  0.00     0.047 A 
BRANCH  15  18
ATOM     18  O   UNL     1      30.555   4.123  23.790  1.00  0.00    -0.508 OA
ATOM     19  H   UNL     1      30.391   3.360  24.436  1.00  0.00     0.293 HD
ENDBRANCH  15  18
ENDBRANCH   1  12
BRANCH   2  20
ATOM     20  O   UNL     1      27.190   6.200  18.883  1.00  0.00    -0.502 OA
ATOM     21  H   UNL     1      27.219   6.320  17.878  1.00  0.00     0.293 HD
ENDBRANCH   2  20
BRANCH   6  22
ATOM     22  O   UNL     1      22.509   8.608  18.074  1.00  0.00    -0.507 OA
ATOM     23  H   UNL     1      22.378   9.445  17.527  1.00  0.00     0.293 HD
ENDBRANCH   6  22
BRANCH   8  24
ATOM     24  O   UNL     1      21.363   9.801  22.565  1.00  0.00    -0.508 OA
ATOM     25  H   UNL     1      21.050  10.752  22.409  1.00  0.00     0.293 HD
ENDBRANCH   8  24
TORSDOF 5
ENDMDL
MODEL 6
REMARK VINA RESULT:    -7.042      2.896      6.280
REMARK INTER + INTRA:          -8.578
REMARK INTER:                  -8.296
REMARK INTRA:                  -0.282
REMARK UNBOUND:                -0.300
REMARK SMILES O=c1c(O)c(-c2ccc(O)cc2)oc2cc(O)cc(O)c12
REMARK SMILES IDX 5 1 3 2 2 3 1 4 21 5 19 6 18 7 16 8 15 9 14 10 13 11 6 12
REMARK SMILES IDX 7 13 8 14 9 15 12 16 11 17 10 18 4 20 20 22 17 24
REMARK H PARENT 10 19 4 21 20 23 17 25
REMARK Flexibility Score: inf
ROOT
ATOM      1  C   UNL     1      25.150   6.276  23.924  1.00  0.00     0.180 A 
ATOM      2  C   UNL     1      25.742   6.634  25.148  1.00  0.00     0.208 A 
ATOM      3  C   UNL     1      27.122   6.888  25.188  1.00  0.00     0.238 A 
ATOM      4  O   UNL     1      27.638   7.260  26.274  1.00  0.00    -0.285 OA
ATOM      5  C   UNL     1      27.896   6.766  24.008  1.00  0.00     0.111 A 
ATOM      6  C   UNL     1      29.308   6.960  23.941  1.00  0.00     0.134 A 
ATOM      7  C   UNL     1      29.949   6.941  22.697  1.00  0.00     0.093 A 
ATOM      8  C   UNL     1      29.242   6.671  21.526  1.00  0.00     0.123 A 
ATOM      9  C   UNL     1      27.871   6.420  21.586  1.00  0.00     0.094 A 
ATOM     10  C   UNL     1      27.196   6.468  22.809  1.00  0.00     0.146 A 
ATOM     11  O   UNL     1      25.890   6.234  22.823  1.00  0.00    -0.452 OA
ENDROOT
BRANCH   1  12
ATOM     12  C   UNL     1      23.705   5.969  23.809  1.00  0.00     0.021 A 
ATOM     13  C   UNL     1      23.246   4.679  24.120  1.00  0.00     0.016 A 
ATOM     14  C   UNL     1      21.884   4.372  24.041  1.00  0.00     0.047 A 
ATOM     15  C   UNL     1      20.963   5.358  23.664  1.00  0.00     0.115 A 
ATOM     16  C   UNL     1      22.771   6.958  23.452  1.00  0.00     0.016 A 
ATOM     17  C   UNL     1      21.410   6.650  23.374  1.00  0.00     0.047 A 
BRANCH  15  18
ATOM     18  O   UNL     1      19.603   5.065  23.581  1.00  0.00    -0.508 OA
ATOM     19  H   UNL     1      19.037   4.937  24.412  1.00  0.00     0.293 HD
ENDBRANCH  15  18
ENDBRANCH   1  12
BRANCH   2  20
ATOM     20  O   UNL     1      24.957   6.770  26.296  1.00  0.00    -0.502 OA
ATOM     21  H   UNL     1      25.296   7.224  27.136  1.00  0.00     0.293 HD
ENDBRANCH   2  20
BRANCH   6  22
ATOM     22  O   UNL     1      30.124   7.146  25.061  1.00  0.00    -0.507 OA
ATOM     23  H   UNL     1      29.875   7.694  25.870  1.00  0.00     0.293 HD
ENDBRANCH   6  22
BRANCH   8  24
ATOM     24  O   UNL     1      29.916   6.645  20.306  1.00  0.00    -0.508 OA
ATOM     25  H   UNL     1      29.453   6.358  19.451  1.00  0.00     0.293 HD
ENDBRANCH   8  24
TORSDOF 5
ENDMDL
MODEL 7
REMARK VINA RESULT:    -6.985      2.522      3.737
REMARK INTER + INTRA:          -8.510
REMARK INTER:                  -8.229
REMARK INTRA:                  -0.281
REMARK UNBOUND:                -0.300
REMARK SMILES O=c1c(O)c(-c2ccc(O)cc2)oc2cc(O)cc(O)c12
REMARK SMILES IDX 5 1 3 2 2 3 1 4 21 5 19 6 18 7 16 8 15 9 14 10 13 11 6 12
REMARK SMILES IDX 7 13 8 14 9 15 12 16 11 17 10 18 4 20 20 22 17 24
REMARK H PARENT 10 19 4 21 20 23 17 25
REMARK Flexibility Score: inf
ROOT
ATOM      1  C   UNL     1      25.560   5.646  22.097  1.00  0.00     0.180 A 
ATOM      2  C   UNL     1      24.993   4.359  22.101  1.00  0.00     0.208 A 
ATOM      3  C   UNL     1      23.623   4.219  22.371  1.00  0.00     0.238 A 
ATOM      4  O   UNL     1      23.110   3.071  22.320  1.00  0.00    -0.285 OA
ATOM      5  C   UNL     1      22.840   5.365  22.651  1.00  0.00     0.111 A 
ATOM      6  C   UNL     1      21.451   5.338  22.978  1.00  0.00     0.134 A 
ATOM      7  C   UNL     1      20.748   6.541  23.107  1.00  0.00     0.093 A 
ATOM      8  C   UNL     1      21.395   7.770  22.986  1.00  0.00     0.123 A 
ATOM      9  C   UNL     1      22.765   7.809  22.726  1.00  0.00     0.094 A 
ATOM     10  C   UNL     1      23.487   6.625  22.555  1.00  0.00     0.146 A 
ATOM     11  O   UNL     1      24.786   6.706  22.298  1.00  0.00    -0.452 OA
ENDROOT
BRANCH   1  12
ATOM     12  C   UNL     1      27.003   5.870  21.845  1.00  0.00     0.021 A 
ATOM     13  C   UNL     1      27.422   6.318  20.581  1.00  0.00     0.016 A 
ATOM     14  C   UNL     1      28.775   6.559  20.328  1.00  0.00     0.047 A 
ATOM     15  C   UNL     1      29.725   6.369  21.340  1.00  0.00     0.115 A 
ATOM     16  C   UNL     1      27.960   5.702  22.862  1.00  0.00     0.016 A 
ATOM     17  C   UNL     1      29.313   5.943  22.606  1.00  0.00     0.047 A 
BRANCH  15  18
ATOM     18  O   UNL     1      31.077   6.605  21.100  1.00  0.00    -0.508 OA
ATOM     19  H   UNL     1      31.747   5.846  21.054  1.00  0.00     0.293 HD
ENDBRANCH  15  18
ENDBRANCH   1  12
BRANCH   2  20
ATOM     20  O   UNL     1      25.780   3.243  21.802  1.00  0.00    -0.502 OA
ATOM     21  H   UNL     1      25.956   2.506  22.473  1.00  0.00     0.293 HD
ENDBRANCH   2  20
BRANCH   6  22
ATOM     22  O   UNL     1      20.728   4.164  23.212  1.00  0.00    -0.507 OA
ATOM     23  H   UNL     1      19.725   4.116  23.310  1.00  0.00     0.293 HD
ENDBRANCH   6  22
BRANCH   8  24
ATOM     24  O   UNL     1      20.667   8.949  23.136  1.00  0.00    -0.508 OA
ATOM     25  H   UNL     1      20.146   9.146  23.983  1.00  0.00     0.293 HD
ENDBRANCH   8  24
TORSDOF 5
ENDMDL
MODEL 8
REMARK VINA RESULT:    -6.952      2.537      3.593
REMARK INTER + INTRA:          -8.471
REMARK INTER:                  -8.254
REMARK INTRA:                  -0.218
REMARK UNBOUND:                -0.300
REMARK SMILES O=c1c(O)c(-c2ccc(O)cc2)oc2cc(O)cc(O)c12
REMARK SMILES IDX 5 1 3 2 2 3 1 4 21 5 19 6 18 7 16 8 15 9 14 10 13 11 6 12
REMARK SMILES IDX 7 13 8 14 9 15 12 16 11 17 10 18 4 20 20 22 17 24
REMARK H PARENT 10 19 4 21 20 23 17 25
REMARK Flexibility Score: inf
ROOT
ATOM      1  C   UNL     1      25.599   7.141  22.394  1.00  0.00     0.180 A 
ATOM      2  C   UNL     1      24.846   8.325  22.301  1.00  0.00     0.208 A 
ATOM      3  C   UNL     1      23.476   8.287  22.602  1.00  0.00     0.238 A 
ATOM      4  O   UNL     1      22.819   9.360  22.570  1.00  0.00    -0.285 OA
ATOM      5  C   UNL     1      22.871   7.062  22.977  1.00  0.00     0.111 A 
ATOM      6  C   UNL     1      21.483   6.899  23.265  1.00  0.00     0.134 A 
ATOM      7  C   UNL     1      21.018   5.672  23.752  1.00  0.00     0.093 A 
ATOM      8  C   UNL     1      21.877   4.584  23.899  1.00  0.00     0.123 A 
ATOM      9  C   UNL     1      23.225   4.714  23.564  1.00  0.00     0.094 A 
ATOM     10  C   UNL     1      23.726   5.937  23.109  1.00  0.00     0.146 A 
ATOM     11  O   UNL     1      25.016   6.023  22.811  1.00  0.00    -0.452 OA
ENDROOT
BRANCH   1  12
ATOM     12  C   UNL     1      27.043   7.097  22.068  1.00  0.00     0.021 A 
ATOM     13  C   UNL     1      27.459   6.550  20.843  1.00  0.00     0.016 A 
ATOM     14  C   UNL     1      28.815   6.520  20.503  1.00  0.00     0.047 A 
ATOM     15  C   UNL     1      29.770   7.052  21.379  1.00  0.00     0.115 A 
ATOM     16  C   UNL     1      28.007   7.648  22.932  1.00  0.00     0.016 A 
ATOM     17  C   UNL     1      29.362   7.617  22.591  1.00  0.00     0.047 A 
BRANCH  15  18
ATOM     18  O   UNL     1      31.125   7.027  21.053  1.00  0.00    -0.508 OA
ATOM     19  H   UNL     1      31.444   7.186  20.104  1.00  0.00     0.293 HD
ENDBRANCH  15  18
ENDBRANCH   1  12
BRANCH   2  20
ATOM     20  O   UNL     1      25.468   9.526  21.950  1.00  0.00    -0.502 OA
ATOM     21  H   UNL     1      25.916  10.126  22.632  1.00  0.00     0.293 HD
ENDBRANCH   2  20
BRANCH   6  22
ATOM     22  O   UNL     1      20.522   7.896  23.065  1.00  0.00    -0.507 OA
ATOM     23  H   UNL     1      20.706   8.797  22.652  1.00  0.00     0.293 HD
ENDBRANCH   6  22
BRANCH   8  24
ATOM     24  O   UNL     1      21.377   3.372  24.372  1.00  0.00    -0.508 OA
ATOM     25  H   UNL     1      21.988   2.586  24.567  1.00  0.00     0.293 HD
ENDBRANCH   8  24
TORSDOF 5
ENDMDL
MODEL 9
REMARK VINA RESULT:    -6.951      1.267      3.152
REMARK INTER + INTRA:          -8.471
REMARK INTER:                  -8.171
REMARK INTRA:                  -0.300
REMARK UNBOUND:                -0.300
REMARK SMILES O=c1c(O)c(-c2ccc(O)cc2)oc2cc(O)cc(O)c12
REMARK SMILES IDX 5 1 3 2 2 3 1 4 21 5 19 6 18 7 16 8 15 9 14 10 13 11 6 12
REMARK SMILES IDX 7 13 8 14 9 15 12 16 11 17 10 18 4 20 20 22 17 24
REMARK H PARENT 10 19 4 21 20 23 17 25
REMARK Flexibility Score: inf
ROOT
ATOM      1  C   UNL     1      25.822   6.342  21.433  1.00  0.00     0.180 A 
ATOM      2  C   UNL     1      25.620   6.058  20.071  1.00  0.00     0.208 A 
ATOM      3  C   UNL     1      24.630   5.131  19.707  1.00  0.00     0.238 A 
ATOM      4  O   UNL     1      24.416   4.922  18.485  1.00  0.00    -0.285 OA
ATOM      5  C   UNL     1      23.866   4.487  20.711  1.00  0.00     0.111 A 
ATOM      6  C   UNL     1      22.865   3.502  20.459  1.00  0.00     0.134 A 
ATOM      7  C   UNL     1      22.082   3.027  21.518  1.00  0.00     0.093 A 
ATOM      8  C   UNL     1      22.305   3.452  22.827  1.00  0.00     0.123 A 
ATOM      9  C   UNL     1      23.321   4.371  23.093  1.00  0.00     0.094 A 
ATOM     10  C   UNL     1      24.096   4.890  22.052  1.00  0.00     0.146 A 
ATOM     11  O   UNL     1      25.045   5.770  22.346  1.00  0.00    -0.452 OA
ENDROOT
BRANCH   1  12
ATOM     12  C   UNL     1      26.863   7.289  21.894  1.00  0.00     0.021 A 
ATOM     13  C   UNL     1      26.519   8.628  22.139  1.00  0.00     0.016 A 
ATOM     14  C   UNL     1      27.480   9.535  22.597  1.00  0.00     0.047 A 
ATOM     15  C   UNL     1      28.794   9.108  22.831  1.00  0.00     0.115 A 
ATOM     16  C   UNL     1      28.179   6.864  22.151  1.00  0.00     0.016 A 
ATOM     17  C   UNL     1      29.138   7.771  22.609  1.00  0.00     0.047 A 
BRANCH  15  18
ATOM     18  O   UNL     1      29.761  10.001  23.287  1.00  0.00    -0.508 OA
ATOM     19  H   UNL     1      29.510  10.914  23.648  1.00  0.00     0.293 HD
ENDBRANCH  15  18
ENDBRANCH   1  12
BRANCH   2  20
ATOM     20  O   UNL     1      26.370   6.721  19.096  1.00  0.00    -0.502 OA
ATOM     21  H   UNL     1      26.597   6.299  18.204  1.00  0.00     0.293 HD
ENDBRANCH   2  20
BRANCH   6  22
ATOM     22  O   UNL     1      22.621   2.940  19.202  1.00  0.00    -0.507 OA
ATOM     23  H   UNL     1      22.842   1.990  18.944  1.00  0.00     0.293 HD
ENDBRANCH   6  22
BRANCH   8  24
ATOM     24  O   UNL     1      21.516   2.947  23.858  1.00  0.00    -0.508 OA
ATOM     25  H   UNL     1      20.685   3.433  24.176  1.00  0.00     0.293 HD
ENDBRANCH   8  24
TORSDOF 5
ENDMDL
