MODEL 1
REMARK VINA RESULT:    -5.235      0.000      0.000
REMARK INTER + INTRA:         -11.012
REMARK INTER:                 -10.131
REMARK INTRA:                  -0.880
REMARK UNBOUND:                -0.880
REMARK SMILES CCCCCCCCCCCCCCCCCC(=O)[O-]
REMARK SMILES IDX 10 1 11 2 12 3 13 4 14 5 15 6 16 7 17 8 18 9 19 10 20 11
REMARK SMILES IDX 9 12 8 13 7 14 6 15 5 16 4 17 3 18 2 19 1 20
REMARK H PARENT
REMARK Flexibility Score: inf
ROOT
ATOM      1  C   UNL     1      40.069  56.009  18.271  1.00  0.00     0.000 C 
ENDROOT
BRANCH   1   2
ATOM      2  C   UNL     1      39.008  57.090  18.008  1.00  0.00     0.000 C 
BRANCH   2   3
ATOM      3  C   UNL     1      37.969  56.658  16.959  1.00  0.00     0.000 C 
BRANCH   3   4
ATOM      4  C   UNL     1      36.629  57.405  17.102  1.00  0.00     0.000 C 
BRANCH   4   5
ATOM      5  C   UNL     1      36.170  58.165  15.843  1.00  0.00     0.000 C 
BRANCH   5   6
ATOM      6  C   UNL     1      36.166  57.284  14.582  1.00  0.00     0.000 C 
BRANCH   6   7
ATOM      7  C   UNL     1      34.801  57.270  13.875  1.00  0.00     0.006 C 
BRANCH   7   8
ATOM      8  C   UNL     1      33.983  56.014  14.203  1.00  0.00     0.053 C 
BRANCH   8   9
ATOM      9  C   UNL     1      32.937  56.325  15.226  1.00  0.00     0.041 C 
ATOM     10  O   UNL     1      33.218  56.282  16.453  1.00  0.00    -0.550 OA
ATOM     11  O   UNL     1      31.638  56.615  14.827  1.00  0.00    -0.550 OA
ENDBRANCH   8   9
ENDBRANCH   7   8
ENDBRANCH   6   7
ENDBRANCH   5   6
ENDBRANCH   4   5
ENDBRANCH   3   4
ENDBRANCH   2   3
ENDBRANCH   1   2
BRANCH   1  12
ATOM     12  C   UNL     1      41.151  55.958  17.181  1.00  0.00     0.000 C 
BRANCH  12  13
ATOM     13  C   UNL     1      42.459  55.369  17.733  1.00  0.00    -0.000 C 
BRANCH  13  14
ATOM     14  C   UNL     1      42.982  54.195  16.890  1.00  0.00    -0.000 C 
BRANCH  14  15
ATOM     15  C   UNL     1      44.160  54.601  15.986  1.00  0.00    -0.000 C 
BRANCH  15  16
ATOM     16  C   UNL     1      44.872  55.871  16.478  1.00  0.00    -0.000 C 
BRANCH  16  17
ATOM     17  C   UNL     1      46.167  56.164  15.700  1.00  0.00    -0.000 C 
BRANCH  17  18
ATOM     18  C   UNL     1      47.349  55.304  16.176  1.00  0.00    -0.000 C 
BRANCH  18  19
ATOM     19  C   UNL     1      47.872  55.731  17.555  1.00  0.00    -0.003 C 
ATOM     20  C   UNL     1      48.258  57.207  17.564  1.00  0.00     0.004 C 
ENDBRANCH  18  19
ENDBRANCH  17  18
ENDBRANCH  16  17
ENDBRANCH  15  16
ENDBRANCH  14  15
ENDBRANCH  13  14
ENDBRANCH  12  13
ENDBRANCH   1  12
TORSDOF 16
ENDMDL
MODEL 2
REMARK VINA RESULT:    -5.231      1.408      1.861
REMARK INTER + INTRA:         -11.003
REMARK INTER:                  -9.901
REMARK INTRA:                  -1.102
REMARK UNBOUND:                -0.880
REMARK SMILES CCCCCCCCCCCCCCCCCC(=O)[O-]
REMARK SMILES IDX 10 1 11 2 12 3 13 4 14 5 15 6 16 7 17 8 18 9 19 10 20 11
REMARK SMILES IDX 9 12 8 13 7 14 6 15 5 16 4 17 3 18 2 19 1 20
REMARK H PARENT
REMARK Flexibility Score: inf
ROOT
ATOM      1  C   UNL     1      40.177  56.019  18.311  1.00  0.00     0.000 C 
ENDROOT
BRANCH   1   2
ATOM      2  C   UNL     1      39.041  57.018  18.037  1.00  0.00     0.000 C 
BRANCH   2   3
ATOM      3  C   UNL     1      38.118  56.566  16.893  1.00  0.00     0.000 C 
BRANCH   3   4
ATOM      4  C   UNL     1      36.701  57.162  16.997  1.00  0.00     0.000 C 
BRANCH   4   5
ATOM      5  C   UNL     1      36.057  57.550  15.653  1.00  0.00     0.000 C 
BRANCH   5   6
ATOM      6  C   UNL     1      34.794  56.730  15.336  1.00  0.00     0.000 C 
BRANCH   6   7
ATOM      7  C   UNL     1      33.686  56.923  16.384  1.00  0.00     0.006 C 
BRANCH   7   8
ATOM      8  C   UNL     1      32.747  55.713  16.475  1.00  0.00     0.053 C 
BRANCH   8   9
ATOM      9  C   UNL     1      31.540  56.049  17.292  1.00  0.00     0.041 C 
ATOM     10  O   UNL     1      31.070  55.210  18.103  1.00  0.00    -0.550 OA
ATOM     11  O   UNL     1      30.905  57.273  17.122  1.00  0.00    -0.550 OA
ENDBRANCH   8   9
ENDBRANCH   7   8
ENDBRANCH   6   7
ENDBRANCH   5   6
ENDBRANCH   4   5
ENDBRANCH   3   4
ENDBRANCH   2   3
ENDBRANCH   1   2
BRANCH   1  12
ATOM     12  C   UNL     1      41.161  55.898  17.137  1.00  0.00     0.000 C 
BRANCH  12  13
ATOM     13  C   UNL     1      42.553  55.472  17.629  1.00  0.00    -0.000 C 
BRANCH  13  14
ATOM     14  C   UNL     1      42.877  54.007  17.294  1.00  0.00    -0.000 C 
BRANCH  14  15
ATOM     15  C   UNL     1      42.733  53.701  15.794  1.00  0.00    -0.000 C 
BRANCH  15  16
ATOM     16  C   UNL     1      44.086  53.461  15.107  1.00  0.00    -0.000 C 
BRANCH  16  17
ATOM     17  C   UNL     1      44.814  54.770  14.751  1.00  0.00    -0.000 C 
BRANCH  17  18
ATOM     18  C   UNL     1      46.169  54.905  15.465  1.00  0.00    -0.000 C 
BRANCH  18  19
ATOM     19  C   UNL     1      46.115  55.874  16.654  1.00  0.00    -0.003 C 
ATOM     20  C   UNL     1      45.695  57.271  16.208  1.00  0.00     0.004 C 
ENDBRANCH  18  19
ENDBRANCH  17  18
ENDBRANCH  16  17
ENDBRANCH  15  16
ENDBRANCH  14  15
ENDBRANCH  13  14
ENDBRANCH  12  13
ENDBRANCH   1  12
TORSDOF 16
ENDMDL
MODEL 3
REMARK VINA RESULT:    -5.213      1.144      1.850
REMARK INTER + INTRA:         -10.969
REMARK INTER:                  -9.737
REMARK INTRA:                  -1.231
REMARK UNBOUND:                -0.880
REMARK SMILES CCCCCCCCCCCCCCCCCC(=O)[O-]
REMARK SMILES IDX 10 1 11 2 12 3 13 4 14 5 15 6 16 7 17 8 18 9 19 10 20 11
REMARK SMILES IDX 9 12 8 13 7 14 6 15 5 16 4 17 3 18 2 19 1 20
REMARK H PARENT
REMARK Flexibility Score: inf
ROOT
ATOM      1  C   UNL     1      41.090  55.932  17.264  1.00  0.00     0.000 C 
ENDROOT
BRANCH   1   2
ATOM      2  C   UNL     1      40.032  56.087  18.368  1.00  0.00     0.000 C 
BRANCH   2   3
ATOM      3  C   UNL     1      38.961  57.135  18.020  1.00  0.00     0.000 C 
BRANCH   3   4
ATOM      4  C   UNL     1      38.014  56.674  16.896  1.00  0.00     0.000 C 
BRANCH   4   5
ATOM      5  C   UNL     1      36.561  57.168  17.025  1.00  0.00     0.000 C 
BRANCH   5   6
ATOM      6  C   UNL     1      36.032  57.812  15.732  1.00  0.00     0.000 C 
BRANCH   6   7
ATOM      7  C   UNL     1      34.798  57.087  15.172  1.00  0.00     0.006 C 
BRANCH   7   8
ATOM      8  C   UNL     1      33.990  56.374  16.265  1.00  0.00     0.053 C 
BRANCH   8   9
ATOM      9  C   UNL     1      32.531  56.402  15.937  1.00  0.00     0.041 C 
ATOM     10  O   UNL     1      32.152  56.436  14.737  1.00  0.00    -0.550 OA
ATOM     11  O   UNL     1      31.589  56.440  16.958  1.00  0.00    -0.550 OA
ENDBRANCH   8   9
ENDBRANCH   7   8
ENDBRANCH   6   7
ENDBRANCH   5   6
ENDBRANCH   4   5
ENDBRANCH   3   4
ENDBRANCH   2   3
ENDBRANCH   1   2
BRANCH   1  12
ATOM     12  C   UNL     1      42.400  55.312  17.776  1.00  0.00     0.000 C 
BRANCH  12  13
ATOM     13  C   UNL     1      42.850  54.156  16.870  1.00  0.00    -0.000 C 
BRANCH  13  14
ATOM     14  C   UNL     1      42.563  54.421  15.383  1.00  0.00    -0.000 C 
BRANCH  14  15
ATOM     15  C   UNL     1      43.264  53.410  14.460  1.00  0.00    -0.000 C 
BRANCH  15  16
ATOM     16  C   UNL     1      44.765  53.272  14.765  1.00  0.00    -0.000 C 
BRANCH  16  17
ATOM     17  C   UNL     1      45.541  54.580  14.527  1.00  0.00    -0.000 C 
BRANCH  17  18
ATOM     18  C   UNL     1      46.751  54.727  15.464  1.00  0.00    -0.000 C 
BRANCH  18  19
ATOM     19  C   UNL     1      46.512  55.754  16.579  1.00  0.00    -0.003 C 
ATOM     20  C   UNL     1      45.449  56.770  16.173  1.00  0.00     0.004 C 
ENDBRANCH  18  19
ENDBRANCH  17  18
ENDBRANCH  16  17
ENDBRANCH  15  16
ENDBRANCH  14  15
ENDBRANCH  13  14
ENDBRANCH  12  13
ENDBRANCH   1  12
TORSDOF 16
ENDMDL
MODEL 4
REMARK VINA RESULT:    -5.189      4.250     10.282
REMARK INTER + INTRA:         -10.923
REMARK INTER:                  -9.752
REMARK INTRA:                  -1.172
REMARK UNBOUND:                -0.880
REMARK SMILES CCCCCCCCCCCCCCCCCC(=O)[O-]
REMARK SMILES IDX 10 1 11 2 12 3 13 4 14 5 15 6 16 7 17 8 18 9 19 10 20 11
REMARK SMILES IDX 9 12 8 13 7 14 6 15 5 16 4 17 3 18 2 19 1 20
REMARK H PARENT
REMARK Flexibility Score: inf
ROOT
ATOM      1  C   UNL     1      40.005  56.021  18.297  1.00  0.00     0.000 C 
ENDROOT
BRANCH   1   2
ATOM      2  C   UNL     1      41.020  55.897  17.149  1.00  0.00     0.000 C 
BRANCH   2   3
ATOM      3  C   UNL     1      42.443  55.588  17.646  1.00  0.00     0.000 C 
BRANCH   3   4
ATOM      4  C   UNL     1      42.931  54.188  17.228  1.00  0.00     0.000 C 
BRANCH   4   5
ATOM      5  C   UNL     1      42.671  53.820  15.756  1.00  0.00     0.000 C 
BRANCH   5   6
ATOM      6  C   UNL     1      43.941  53.354  15.023  1.00  0.00     0.000 C 
BRANCH   6   7
ATOM      7  C   UNL     1      44.815  54.528  14.552  1.00  0.00     0.006 C 
BRANCH   7   8
ATOM      8  C   UNL     1      46.161  54.588  15.285  1.00  0.00     0.053 C 
BRANCH   8   9
ATOM      9  C   UNL     1      46.176  55.726  16.256  1.00  0.00     0.041 C 
ATOM     10  O   UNL     1      45.369  56.683  16.124  1.00  0.00    -0.550 OA
ATOM     11  O   UNL     1      47.114  55.753  17.281  1.00  0.00    -0.550 OA
ENDBRANCH   8   9
ENDBRANCH   7   8
ENDBRANCH   6   7
ENDBRANCH   5   6
ENDBRANCH   4   5
ENDBRANCH   3   4
ENDBRANCH   2   3
ENDBRANCH   1   2
BRANCH   1  12
ATOM     12  C   UNL     1      38.945  57.103  18.041  1.00  0.00     0.000 C 
BRANCH  12  13
ATOM     13  C   UNL     1      38.015  56.699  16.886  1.00  0.00    -0.000 C 
BRANCH  13  14
ATOM     14  C   UNL     1      36.576  57.203  17.080  1.00  0.00    -0.000 C 
BRANCH  14  15
ATOM     15  C   UNL     1      36.013  57.874  15.816  1.00  0.00    -0.000 C 
BRANCH  15  16
ATOM     16  C   UNL     1      35.632  56.859  14.727  1.00  0.00    -0.000 C 
BRANCH  16  17
ATOM     17  C   UNL     1      34.110  56.748  14.525  1.00  0.00    -0.000 C 
BRANCH  17  18
ATOM     18  C   UNL     1      33.550  55.393  14.988  1.00  0.00    -0.000 C 
BRANCH  18  19
ATOM     19  C   UNL     1      33.076  55.419  16.448  1.00  0.00    -0.003 C 
ATOM     20  C   UNL     1      32.055  56.529  16.676  1.00  0.00     0.004 C 
ENDBRANCH  18  19
ENDBRANCH  17  18
ENDBRANCH  16  17
ENDBRANCH  15  16
ENDBRANCH  14  15
ENDBRANCH  13  14
ENDBRANCH  12  13
ENDBRANCH   1  12
TORSDOF 16
ENDMDL
MODEL 5
REMARK VINA RESULT:    -5.177      4.304     10.416
REMARK INTER + INTRA:         -10.900
REMARK INTER:                  -9.870
REMARK INTRA:                  -1.030
REMARK UNBOUND:                -0.880
REMARK SMILES CCCCCCCCCCCCCCCCCC(=O)[O-]
REMARK SMILES IDX 10 1 11 2 12 3 13 4 14 5 15 6 16 7 17 8 18 9 19 10 20 11
REMARK SMILES IDX 9 12 8 13 7 14 6 15 5 16 4 17 3 18 2 19 1 20
REMARK H PARENT
REMARK Flexibility Score: inf
ROOT
ATOM      1  C   UNL     1      37.988  56.738  16.876  1.00  0.00     0.000 C 
ENDROOT
BRANCH   1   2
ATOM      2  C   UNL     1      38.963  57.124  18.000  1.00  0.00     0.000 C 
BRANCH   2   3
ATOM      3  C   UNL     1      40.019  56.038  18.268  1.00  0.00     0.000 C 
BRANCH   3   4
ATOM      4  C   UNL     1      41.123  55.999  17.195  1.00  0.00     0.000 C 
BRANCH   4   5
ATOM      5  C   UNL     1      42.482  55.461  17.678  1.00  0.00     0.000 C 
BRANCH   5   6
ATOM      6  C   UNL     1      42.751  54.017  17.218  1.00  0.00     0.000 C 
BRANCH   6   7
ATOM      7  C   UNL     1      42.775  53.879  15.688  1.00  0.00     0.006 C 
BRANCH   7   8
ATOM      8  C   UNL     1      44.074  53.243  15.176  1.00  0.00     0.053 C 
BRANCH   8   9
ATOM      9  C   UNL     1      45.093  54.299  14.886  1.00  0.00     0.041 C 
ATOM     10  O   UNL     1      46.312  53.996  14.797  1.00  0.00    -0.550 OA
ATOM     11  O   UNL     1      44.703  55.626  14.760  1.00  0.00    -0.550 OA
ENDBRANCH   8   9
ENDBRANCH   7   8
ENDBRANCH   6   7
ENDBRANCH   5   6
ENDBRANCH   4   5
ENDBRANCH   3   4
ENDBRANCH   2   3
ENDBRANCH   1   2
BRANCH   1  12
ATOM     12  C   UNL     1      36.543  57.177  17.163  1.00  0.00     0.000 C 
BRANCH  12  13
ATOM     13  C   UNL     1      36.030  58.126  16.069  1.00  0.00    -0.000 C 
BRANCH  13  14
ATOM     14  C   UNL     1      36.278  57.585  14.651  1.00  0.00    -0.000 C 
BRANCH  14  15
ATOM     15  C   UNL     1      34.969  57.272  13.905  1.00  0.00    -0.000 C 
BRANCH  15  16
ATOM     16  C   UNL     1      34.250  56.035  14.466  1.00  0.00    -0.000 C 
BRANCH  16  17
ATOM     17  C   UNL     1      32.828  56.349  14.964  1.00  0.00    -0.000 C 
BRANCH  17  18
ATOM     18  C   UNL     1      32.736  56.398  16.498  1.00  0.00    -0.000 C 
BRANCH  18  19
ATOM     19  C   UNL     1      31.319  56.713  16.995  1.00  0.00    -0.003 C 
ATOM     20  C   UNL     1      30.632  55.460  17.530  1.00  0.00     0.004 C 
ENDBRANCH  18  19
ENDBRANCH  17  18
ENDBRANCH  16  17
ENDBRANCH  15  16
ENDBRANCH  14  15
ENDBRANCH  13  14
ENDBRANCH  12  13
ENDBRANCH   1  12
TORSDOF 16
ENDMDL
MODEL 6
REMARK VINA RESULT:    -5.170      5.137     10.522
REMARK INTER + INTRA:         -10.887
REMARK INTER:                  -9.773
REMARK INTRA:                  -1.114
REMARK UNBOUND:                -0.880
REMARK SMILES CCCCCCCCCCCCCCCCCC(=O)[O-]
REMARK SMILES IDX 10 1 11 2 12 3 13 4 14 5 15 6 16 7 17 8 18 9 19 10 20 11
REMARK SMILES IDX 9 12 8 13 7 14 6 15 5 16 4 17 3 18 2 19 1 20
REMARK H PARENT
REMARK Flexibility Score: inf
ROOT
ATOM      1  C   UNL     1      41.150  55.940  17.127  1.00  0.00     0.000 C 
ENDROOT
BRANCH   1   2
ATOM      2  C   UNL     1      42.565  55.549  17.582  1.00  0.00     0.000 C 
BRANCH   2   3
ATOM      3  C   UNL     1      42.950  54.121  17.161  1.00  0.00     0.000 C 
BRANCH   3   4
ATOM      4  C   UNL     1      42.759  53.870  15.653  1.00  0.00     0.000 C 
BRANCH   4   5
ATOM      5  C   UNL     1      43.716  54.654  14.736  1.00  0.00     0.000 C 
BRANCH   5   6
ATOM      6  C   UNL     1      45.198  54.402  15.062  1.00  0.00     0.000 C 
BRANCH   6   7
ATOM      7  C   UNL     1      45.965  55.698  15.368  1.00  0.00     0.006 C 
BRANCH   7   8
ATOM      8  C   UNL     1      46.247  55.874  16.866  1.00  0.00     0.053 C 
BRANCH   8   9
ATOM      9  C   UNL     1      47.720  55.869  17.124  1.00  0.00     0.041 C 
ATOM     10  O   UNL     1      48.405  54.845  16.863  1.00  0.00    -0.550 OA
ATOM     11  O   UNL     1      48.330  56.978  17.697  1.00  0.00    -0.550 OA
ENDBRANCH   8   9
ENDBRANCH   7   8
ENDBRANCH   6   7
ENDBRANCH   5   6
ENDBRANCH   4   5
ENDBRANCH   3   4
ENDBRANCH   2   3
ENDBRANCH   1   2
BRANCH   1  12
ATOM     12  C   UNL     1      40.146  56.005  18.289  1.00  0.00     0.000 C 
BRANCH  12  13
ATOM     13  C   UNL     1      39.074  57.073  18.029  1.00  0.00    -0.000 C 
BRANCH  13  14
ATOM     14  C   UNL     1      38.037  56.631  16.983  1.00  0.00    -0.000 C 
BRANCH  14  15
ATOM     15  C   UNL     1      36.688  57.351  17.152  1.00  0.00    -0.000 C 
BRANCH  15  16
ATOM     16  C   UNL     1      36.167  57.946  15.834  1.00  0.00    -0.000 C 
BRANCH  16  17
ATOM     17  C   UNL     1      35.800  56.867  14.799  1.00  0.00    -0.000 C 
BRANCH  17  18
ATOM     18  C   UNL     1      34.347  56.989  14.309  1.00  0.00    -0.000 C 
BRANCH  18  19
ATOM     19  C   UNL     1      33.453  55.854  14.829  1.00  0.00    -0.003 C 
ATOM     20  C   UNL     1      33.136  56.038  16.310  1.00  0.00     0.004 C 
ENDBRANCH  18  19
ENDBRANCH  17  18
ENDBRANCH  16  17
ENDBRANCH  15  16
ENDBRANCH  14  15
ENDBRANCH  13  14
ENDBRANCH  12  13
ENDBRANCH   1  12
TORSDOF 16
ENDMDL
MODEL 7
REMARK VINA RESULT:    -5.158      4.982     10.848
REMARK INTER + INTRA:         -10.864
REMARK INTER:                  -9.944
REMARK INTRA:                  -0.920
REMARK UNBOUND:                -0.880
REMARK SMILES CCCCCCCCCCCCCCCCCC(=O)[O-]
REMARK SMILES IDX 10 1 11 2 12 3 13 4 14 5 15 6 16 7 17 8 18 9 19 10 20 11
REMARK SMILES IDX 9 12 8 13 7 14 6 15 5 16 4 17 3 18 2 19 1 20
REMARK H PARENT
REMARK Flexibility Score: inf
ROOT
ATOM      1  C   UNL     1      38.702  57.155  18.026  1.00  0.00     0.000 C 
ENDROOT
BRANCH   1   2
ATOM      2  C   UNL     1      39.846  56.191  18.379  1.00  0.00     0.000 C 
BRANCH   2   3
ATOM      3  C   UNL     1      40.827  55.983  17.213  1.00  0.00     0.000 C 
BRANCH   3   4
ATOM      4  C   UNL     1      42.234  55.567  17.682  1.00  0.00     0.000 C 
BRANCH   4   5
ATOM      5  C   UNL     1      42.868  54.408  16.892  1.00  0.00     0.000 C 
BRANCH   5   6
ATOM      6  C   UNL     1      43.959  54.877  15.914  1.00  0.00     0.000 C 
BRANCH   6   7
ATOM      7  C   UNL     1      45.170  55.494  16.631  1.00  0.00     0.006 C 
BRANCH   7   8
ATOM      8  C   UNL     1      46.489  55.226  15.893  1.00  0.00     0.053 C 
BRANCH   8   9
ATOM      9  C   UNL     1      47.641  55.790  16.662  1.00  0.00     0.041 C 
ATOM     10  O   UNL     1      47.811  55.478  17.869  1.00  0.00    -0.550 OA
ATOM     11  O   UNL     1      48.501  56.700  16.058  1.00  0.00    -0.550 OA
ENDBRANCH   8   9
ENDBRANCH   7   8
ENDBRANCH   6   7
ENDBRANCH   5   6
ENDBRANCH   4   5
ENDBRANCH   3   4
ENDBRANCH   2   3
ENDBRANCH   1   2
BRANCH   1  12
ATOM     12  C   UNL     1      37.896  56.701  16.799  1.00  0.00     0.000 C 
BRANCH  12  13
ATOM     13  C   UNL     1      36.428  57.137  16.914  1.00  0.00    -0.000 C 
BRANCH  13  14
ATOM     14  C   UNL     1      36.037  58.188  15.862  1.00  0.00    -0.000 C 
BRANCH  14  15
ATOM     15  C   UNL     1      36.108  57.636  14.427  1.00  0.00    -0.000 C 
BRANCH  15  16
ATOM     16  C   UNL     1      35.194  56.419  14.216  1.00  0.00    -0.000 C 
BRANCH  16  17
ATOM     17  C   UNL     1      33.706  56.803  14.121  1.00  0.00    -0.000 C 
BRANCH  17  18
ATOM     18  C   UNL     1      32.808  55.905  14.987  1.00  0.00    -0.000 C 
BRANCH  18  19
ATOM     19  C   UNL     1      32.783  56.340  16.459  1.00  0.00    -0.003 C 
ATOM     20  C   UNL     1      31.378  56.755  16.886  1.00  0.00     0.004 C 
ENDBRANCH  18  19
ENDBRANCH  17  18
ENDBRANCH  16  17
ENDBRANCH  15  16
ENDBRANCH  14  15
ENDBRANCH  13  14
ENDBRANCH  12  13
ENDBRANCH   1  12
TORSDOF 16
ENDMDL
MODEL 8
REMARK VINA RESULT:    -5.098      2.008      2.487
REMARK INTER + INTRA:         -10.747
REMARK INTER:                 -10.043
REMARK INTRA:                  -0.703
REMARK UNBOUND:                -0.880
REMARK SMILES CCCCCCCCCCCCCCCCCC(=O)[O-]
REMARK SMILES IDX 10 1 11 2 12 3 13 4 14 5 15 6 16 7 17 8 18 9 19 10 20 11
REMARK SMILES IDX 9 12 8 13 7 14 6 15 5 16 4 17 3 18 2 19 1 20
REMARK H PARENT
REMARK Flexibility Score: inf
ROOT
ATOM      1  C   UNL     1      40.091  56.060  18.259  1.00  0.00     0.000 C 
ENDROOT
BRANCH   1   2
ATOM      2  C   UNL     1      39.010  57.121  17.998  1.00  0.00     0.000 C 
BRANCH   2   3
ATOM      3  C   UNL     1      38.037  56.712  16.878  1.00  0.00     0.000 C 
BRANCH   3   4
ATOM      4  C   UNL     1      36.570  57.044  17.209  1.00  0.00     0.000 C 
BRANCH   4   5
ATOM      5  C   UNL     1      35.760  57.646  16.047  1.00  0.00     0.000 C 
BRANCH   5   6
ATOM      6  C   UNL     1      34.789  56.637  15.409  1.00  0.00     0.000 C 
BRANCH   6   7
ATOM      7  C   UNL     1      33.886  55.950  16.445  1.00  0.00     0.006 C 
BRANCH   7   8
ATOM      8  C   UNL     1      32.400  56.270  16.234  1.00  0.00     0.053 C 
BRANCH   8   9
ATOM      9  C   UNL     1      31.558  55.501  17.202  1.00  0.00     0.041 C 
ATOM     10  O   UNL     1      30.798  56.107  18.002  1.00  0.00    -0.550 OA
ATOM     11  O   UNL     1      31.647  54.115  17.253  1.00  0.00    -0.550 OA
ENDBRANCH   8   9
ENDBRANCH   7   8
ENDBRANCH   6   7
ENDBRANCH   5   6
ENDBRANCH   4   5
ENDBRANCH   3   4
ENDBRANCH   2   3
ENDBRANCH   1   2
BRANCH   1  12
ATOM     12  C   UNL     1      40.952  55.767  17.021  1.00  0.00     0.000 C 
BRANCH  12  13
ATOM     13  C   UNL     1      42.433  55.626  17.402  1.00  0.00    -0.000 C 
BRANCH  13  14
ATOM     14  C   UNL     1      42.937  54.177  17.298  1.00  0.00    -0.000 C 
BRANCH  14  15
ATOM     15  C   UNL     1      43.359  53.804  15.866  1.00  0.00    -0.000 C 
BRANCH  15  16
ATOM     16  C   UNL     1      44.403  54.772  15.287  1.00  0.00    -0.000 C 
BRANCH  16  17
ATOM     17  C   UNL     1      45.727  54.073  14.931  1.00  0.00    -0.000 C 
BRANCH  17  18
ATOM     18  C   UNL     1      45.521  52.627  14.450  1.00  0.00    -0.000 C 
BRANCH  18  19
ATOM     19  C   UNL     1      46.834  51.833  14.388  1.00  0.00    -0.003 C 
ATOM     20  C   UNL     1      47.995  52.646  14.951  1.00  0.00     0.004 C 
ENDBRANCH  18  19
ENDBRANCH  17  18
ENDBRANCH  16  17
ENDBRANCH  15  16
ENDBRANCH  14  15
ENDBRANCH  13  14
ENDBRANCH  12  13
ENDBRANCH   1  12
TORSDOF 16
ENDMDL
MODEL 9
REMARK VINA RESULT:    -5.048      1.056      1.775
REMARK INTER + INTRA:         -10.651
REMARK INTER:                  -9.888
REMARK INTRA:                  -0.763
REMARK UNBOUND:                -0.880
REMARK SMILES CCCCCCCCCCCCCCCCCC(=O)[O-]
REMARK SMILES IDX 10 1 11 2 12 3 13 4 14 5 15 6 16 7 17 8 18 9 19 10 20 11
REMARK SMILES IDX 9 12 8 13 7 14 6 15 5 16 4 17 3 18 2 19 1 20
REMARK H PARENT
REMARK Flexibility Score: inf
ROOT
ATOM      1  C   UNL     1      38.598  57.300  18.006  1.00  0.00     0.000 C 
ENDROOT
BRANCH   1   2
ATOM      2  C   UNL     1      37.804  56.727  16.820  1.00  0.00     0.000 C 
BRANCH   2   3
ATOM      3  C   UNL     1      36.324  57.146  16.839  1.00  0.00     0.000 C 
BRANCH   3   4
ATOM      4  C   UNL     1      35.966  58.128  15.708  1.00  0.00     0.000 C 
BRANCH   4   5
ATOM      5  C   UNL     1      35.593  57.468  14.367  1.00  0.00     0.000 C 
BRANCH   5   6
ATOM      6  C   UNL     1      34.629  56.280  14.534  1.00  0.00     0.000 C 
BRANCH   6   7
ATOM      7  C   UNL     1      33.195  56.723  14.861  1.00  0.00     0.006 C 
BRANCH   7   8
ATOM      8  C   UNL     1      32.759  56.309  16.273  1.00  0.00     0.053 C 
BRANCH   8   9
ATOM      9  C   UNL     1      31.285  56.501  16.442  1.00  0.00     0.041 C 
ATOM     10  O   UNL     1      30.771  56.476  17.591  1.00  0.00    -0.550 OA
ATOM     11  O   UNL     1      30.472  56.660  15.327  1.00  0.00    -0.550 OA
ENDBRANCH   8   9
ENDBRANCH   7   8
ENDBRANCH   6   7
ENDBRANCH   5   6
ENDBRANCH   4   5
ENDBRANCH   3   4
ENDBRANCH   2   3
ENDBRANCH   1   2
BRANCH   1  12
ATOM     12  C   UNL     1      39.761  56.393  18.439  1.00  0.00     0.000 C 
BRANCH  12  13
ATOM     13  C   UNL     1      40.660  56.046  17.242  1.00  0.00    -0.000 C 
BRANCH  13  14
ATOM     14  C   UNL     1      42.004  55.433  17.670  1.00  0.00    -0.000 C 
BRANCH  14  15
ATOM     15  C   UNL     1      42.807  54.889  16.476  1.00  0.00    -0.000 C 
BRANCH  15  16
ATOM     16  C   UNL     1      44.326  54.973  16.698  1.00  0.00    -0.000 C 
BRANCH  16  17
ATOM     17  C   UNL     1      45.102  55.252  15.399  1.00  0.00    -0.000 C 
BRANCH  17  18
ATOM     18  C   UNL     1      46.618  55.363  15.628  1.00  0.00    -0.000 C 
BRANCH  18  19
ATOM     19  C   UNL     1      46.973  56.317  16.777  1.00  0.00    -0.003 C 
ATOM     20  C   UNL     1      48.029  55.706  17.693  1.00  0.00     0.004 C 
ENDBRANCH  18  19
ENDBRANCH  17  18
ENDBRANCH  16  17
ENDBRANCH  15  16
ENDBRANCH  14  15
ENDBRANCH  13  14
ENDBRANCH  12  13
ENDBRANCH   1  12
TORSDOF 16
ENDMDL
