MODEL 1
REMARK VINA RESULT:    -5.881      0.000      0.000
REMARK INTER + INTRA:         -10.152
REMARK INTER:                  -9.148
REMARK INTRA:                  -1.004
REMARK UNBOUND:                -1.004
REMARK SMILES COc1cc(CNC(=O)CCCCC=CC(C)C)ccc1O
REMARK SMILES IDX 11 1 12 2 13 3 14 4 15 5 16 6 17 7 18 8 10 9 8 10 9 11 7 12
REMARK SMILES IDX 6 14 5 15 4 16 19 17 3 18 20 19 21 20 2 21 1 22 22 23
REMARK H PARENT 7 13 22 24
REMARK Flexibility Score: inf
ROOT
ATOM      1  C   UNL     1       0.581  -6.122  -3.726  1.00  0.00     0.010 C 
ENDROOT
BRANCH   1   2
ATOM      2  C   UNL     1      -0.164  -7.422  -3.358  1.00  0.00     0.005 C 
BRANCH   2   3
ATOM      3  C   UNL     1      -0.537  -7.539  -1.868  1.00  0.00     0.027 C 
BRANCH   3   4
ATOM      4  C   UNL     1       0.085  -8.741  -1.201  1.00  0.00    -0.031 C 
ATOM      5  C   UNL     1       1.223  -8.731  -0.482  1.00  0.00    -0.028 C 
BRANCH   5   6
ATOM      6  C   UNL     1       2.076  -7.511  -0.206  1.00  0.00     0.005 C 
ATOM      7  C   UNL     1       2.735  -7.644   1.169  1.00  0.00     0.012 C 
ATOM      8  C   UNL     1       3.139  -7.366  -1.299  1.00  0.00     0.012 C 
ENDBRANCH   5   6
ENDBRANCH   3   4
ENDBRANCH   2   3
ENDBRANCH   1   2
BRANCH   1   9
ATOM      9  C   UNL     1       0.922  -5.989  -5.218  1.00  0.00     0.100 C 
BRANCH   9  10
ATOM     10  C   UNL     1      -0.230  -5.443  -6.010  1.00  0.00     0.220 C 
ATOM     11  O   UNL     1      -0.940  -6.230  -6.692  1.00  0.00    -0.275 OA
ATOM     12  N   UNL     1      -0.498  -4.034  -6.019  1.00  0.00    -0.352 N 
ATOM     13  H   UNL     1       0.123  -3.392  -5.476  1.00  0.00     0.163 HD
BRANCH  12  14
ATOM     14  C   UNL     1      -1.603  -3.451  -6.777  1.00  0.00     0.151 C 
BRANCH  14  15
ATOM     15  C   UNL     1      -2.682  -2.976  -5.842  1.00  0.00    -0.025 A 
ATOM     16  C   UNL     1      -2.964  -1.606  -5.735  1.00  0.00     0.056 A 
ATOM     17  C   UNL     1      -3.393  -3.890  -5.052  1.00  0.00     0.009 A 
ATOM     18  C   UNL     1      -3.957  -1.145  -4.848  1.00  0.00     0.160 A 
ATOM     19  C   UNL     1      -4.379  -3.441  -4.172  1.00  0.00     0.050 A 
ATOM     20  C   UNL     1      -4.665  -2.076  -4.067  1.00  0.00     0.157 A 
BRANCH  18  21
ATOM     21  O   UNL     1      -4.262   0.220  -4.719  1.00  0.00    -0.493 OA
ATOM     22  C   UNL     1      -4.446   1.114  -5.812  1.00  0.00     0.278 C 
ENDBRANCH  18  21
BRANCH  20  23
ATOM     23  O   UNL     1      -5.657  -1.663  -3.177  1.00  0.00    -0.504 OA
ATOM     24  H   UNL     1      -6.221  -2.323  -2.653  1.00  0.00     0.293 HD
ENDBRANCH  20  23
ENDBRANCH  14  15
ENDBRANCH  12  14
ENDBRANCH   9  10
ENDBRANCH   1   9
TORSDOF 10
ENDMDL
MODEL 2
REMARK VINA RESULT:    -5.874      1.616      2.508
REMARK INTER + INTRA:         -10.140
REMARK INTER:                  -9.477
REMARK INTRA:                  -0.663
REMARK UNBOUND:                -1.004
REMARK SMILES COc1cc(CNC(=O)CCCCC=CC(C)C)ccc1O
REMARK SMILES IDX 11 1 12 2 13 3 14 4 15 5 16 6 17 7 18 8 10 9 8 10 9 11 7 12
REMARK SMILES IDX 6 14 5 15 4 16 19 17 3 18 20 19 21 20 2 21 1 22 22 23
REMARK H PARENT 7 13 22 24
REMARK Flexibility Score: inf
ROOT
ATOM      1  C   UNL     1      -0.602  -6.142  -2.605  1.00  0.00     0.010 C 
ENDROOT
BRANCH   1   2
ATOM      2  C   UNL     1      -0.422  -7.627  -2.231  1.00  0.00     0.005 C 
BRANCH   2   3
ATOM      3  C   UNL     1       0.821  -7.919  -1.370  1.00  0.00     0.027 C 
BRANCH   3   4
ATOM      4  C   UNL     1       1.925  -6.911  -1.574  1.00  0.00    -0.031 C 
ATOM      5  C   UNL     1       3.117  -6.925  -0.948  1.00  0.00    -0.028 C 
BRANCH   5   6
ATOM      6  C   UNL     1       3.565  -7.958   0.064  1.00  0.00     0.005 C 
ATOM      7  C   UNL     1       5.085  -8.126  -0.010  1.00  0.00     0.012 C 
ATOM      8  C   UNL     1       3.140  -7.523   1.469  1.00  0.00     0.012 C 
ENDBRANCH   5   6
ENDBRANCH   3   4
ENDBRANCH   2   3
ENDBRANCH   1   2
BRANCH   1   9
ATOM      9  C   UNL     1      -0.645  -5.871  -4.116  1.00  0.00     0.100 C 
BRANCH   9  10
ATOM     10  C   UNL     1      -2.003  -5.418  -4.566  1.00  0.00     0.220 C 
ATOM     11  O   UNL     1      -3.030  -5.959  -4.071  1.00  0.00    -0.275 OA
ATOM     12  N   UNL     1      -2.132  -4.407  -5.575  1.00  0.00    -0.352 N 
ATOM     13  H   UNL     1      -1.270  -3.996  -5.998  1.00  0.00     0.163 HD
BRANCH  12  14
ATOM     14  C   UNL     1      -3.431  -3.936  -6.050  1.00  0.00     0.151 C 
BRANCH  14  15
ATOM     15  C   UNL     1      -3.514  -2.437  -5.939  1.00  0.00    -0.025 A 
ATOM     16  C   UNL     1      -4.207  -1.851  -4.869  1.00  0.00     0.056 A 
ATOM     17  C   UNL     1      -2.930  -1.617  -6.914  1.00  0.00     0.009 A 
ATOM     18  C   UNL     1      -4.311  -0.450  -4.763  1.00  0.00     0.160 A 
ATOM     19  C   UNL     1      -3.028  -0.229  -6.816  1.00  0.00     0.050 A 
ATOM     20  C   UNL     1      -3.713   0.359  -5.747  1.00  0.00     0.157 A 
BRANCH  18  21
ATOM     21  O   UNL     1      -4.996   0.166  -3.704  1.00  0.00    -0.493 OA
ATOM     22  C   UNL     1      -6.404   0.379  -3.668  1.00  0.00     0.278 C 
ENDBRANCH  18  21
BRANCH  20  23
ATOM     23  O   UNL     1      -3.791   1.750  -5.682  1.00  0.00    -0.504 OA
ATOM     24  H   UNL     1      -4.529   2.226  -5.175  1.00  0.00     0.293 HD
ENDBRANCH  20  23
ENDBRANCH  14  15
ENDBRANCH  12  14
ENDBRANCH   9  10
ENDBRANCH   1   9
TORSDOF 10
ENDMDL
MODEL 3
REMARK VINA RESULT:    -5.718      2.334      8.885
REMARK INTER + INTRA:          -9.897
REMARK INTER:                  -8.841
REMARK INTRA:                  -1.056
REMARK UNBOUND:                -1.004
REMARK SMILES COc1cc(CNC(=O)CCCCC=CC(C)C)ccc1O
REMARK SMILES IDX 11 1 12 2 13 3 14 4 15 5 16 6 17 7 18 8 10 9 8 10 9 11 7 12
REMARK SMILES IDX 6 14 5 15 4 16 19 17 3 18 20 19 21 20 2 21 1 22 22 23
REMARK H PARENT 7 13 22 24
REMARK Flexibility Score: inf
ROOT
ATOM      1  C   UNL     1      -4.133  -0.134  -6.739  1.00  0.00     0.010 C 
ENDROOT
BRANCH   1   2
ATOM      2  C   UNL     1      -4.047   1.346  -6.316  1.00  0.00     0.005 C 
BRANCH   2   3
ATOM      3  C   UNL     1      -5.407   2.066  -6.248  1.00  0.00     0.027 C 
BRANCH   3   4
ATOM      4  C   UNL     1      -5.887   2.281  -4.833  1.00  0.00    -0.031 C 
ATOM      5  C   UNL     1      -6.644   1.418  -4.129  1.00  0.00    -0.028 C 
BRANCH   5   6
ATOM      6  C   UNL     1      -7.142   0.078  -4.627  1.00  0.00     0.005 C 
ATOM      7  C   UNL     1      -6.413  -1.048  -3.889  1.00  0.00     0.012 C 
ATOM      8  C   UNL     1      -8.653  -0.026  -4.408  1.00  0.00     0.012 C 
ENDBRANCH   5   6
ENDBRANCH   3   4
ENDBRANCH   2   3
ENDBRANCH   1   2
BRANCH   1   9
ATOM      9  C   UNL     1      -2.826  -0.921  -6.559  1.00  0.00     0.100 C 
BRANCH   9  10
ATOM     10  C   UNL     1      -2.888  -1.847  -5.380  1.00  0.00     0.220 C 
ATOM     11  O   UNL     1      -2.947  -1.364  -4.216  1.00  0.00    -0.275 OA
ATOM     12  N   UNL     1      -2.842  -3.268  -5.573  1.00  0.00    -0.352 N 
ATOM     13  H   UNL     1      -2.758  -3.649  -6.542  1.00  0.00     0.163 HD
BRANCH  12  14
ATOM     14  C   UNL     1      -2.894  -4.211  -4.459  1.00  0.00     0.151 C 
BRANCH  14  15
ATOM     15  C   UNL     1      -1.575  -4.921  -4.315  1.00  0.00    -0.025 A 
ATOM     16  C   UNL     1      -1.246  -5.550  -3.105  1.00  0.00     0.056 A 
ATOM     17  C   UNL     1      -0.655  -4.934  -5.372  1.00  0.00     0.009 A 
ATOM     18  C   UNL     1      -0.006  -6.201  -2.948  1.00  0.00     0.160 A 
ATOM     19  C   UNL     1       0.575  -5.577  -5.224  1.00  0.00     0.050 A 
ATOM     20  C   UNL     1       0.904  -6.209  -4.021  1.00  0.00     0.157 A 
BRANCH  18  21
ATOM     21  O   UNL     1       0.353  -6.839  -1.750  1.00  0.00    -0.493 OA
ATOM     22  C   UNL     1      -0.011  -8.173  -1.405  1.00  0.00     0.278 C 
ENDBRANCH  18  21
BRANCH  20  23
ATOM     23  O   UNL     1       2.143  -6.841  -3.910  1.00  0.00    -0.504 OA
ATOM     24  H   UNL     1       2.834  -6.560  -3.224  1.00  0.00     0.293 HD
ENDBRANCH  20  23
ENDBRANCH  14  15
ENDBRANCH  12  14
ENDBRANCH   9  10
ENDBRANCH   1   9
TORSDOF 10
ENDMDL
MODEL 4
REMARK VINA RESULT:    -5.594      1.734      2.353
REMARK INTER + INTRA:          -9.704
REMARK INTER:                  -9.015
REMARK INTRA:                  -0.689
REMARK UNBOUND:                -1.004
REMARK SMILES COc1cc(CNC(=O)CCCCC=CC(C)C)ccc1O
REMARK SMILES IDX 11 1 12 2 13 3 14 4 15 5 16 6 17 7 18 8 10 9 8 10 9 11 7 12
REMARK SMILES IDX 6 14 5 15 4 16 19 17 3 18 20 19 21 20 2 21 1 22 22 23
REMARK H PARENT 7 13 22 24
REMARK Flexibility Score: inf
ROOT
ATOM      1  C   UNL     1      -1.089  -5.386  -3.378  1.00  0.00     0.010 C 
ENDROOT
BRANCH   1   2
ATOM      2  C   UNL     1      -0.448  -6.767  -3.135  1.00  0.00     0.005 C 
BRANCH   2   3
ATOM      3  C   UNL     1      -0.659  -7.323  -1.714  1.00  0.00     0.027 C 
BRANCH   3   4
ATOM      4  C   UNL     1       0.131  -8.582  -1.454  1.00  0.00    -0.031 C 
ATOM      5  C   UNL     1       1.289  -8.647  -0.771  1.00  0.00    -0.028 C 
BRANCH   5   6
ATOM      6  C   UNL     1       2.000  -7.471  -0.134  1.00  0.00     0.005 C 
ATOM      7  C   UNL     1       2.674  -7.919   1.164  1.00  0.00     0.012 C 
ATOM      8  C   UNL     1       3.035  -6.904  -1.110  1.00  0.00     0.012 C 
ENDBRANCH   5   6
ENDBRANCH   3   4
ENDBRANCH   2   3
ENDBRANCH   1   2
BRANCH   1   9
ATOM      9  C   UNL     1      -2.310  -5.410  -4.311  1.00  0.00     0.100 C 
BRANCH   9  10
ATOM     10  C   UNL     1      -2.416  -4.156  -5.128  1.00  0.00     0.220 C 
ATOM     11  O   UNL     1      -2.126  -4.192  -6.355  1.00  0.00    -0.275 OA
ATOM     12  N   UNL     1      -2.806  -2.922  -4.512  1.00  0.00    -0.352 N 
ATOM     13  H   UNL     1      -3.008  -2.904  -3.486  1.00  0.00     0.163 HD
BRANCH  12  14
ATOM     14  C   UNL     1      -2.920  -1.673  -5.262  1.00  0.00     0.151 C 
BRANCH  14  15
ATOM     15  C   UNL     1      -4.186  -0.953  -4.887  1.00  0.00    -0.025 A 
ATOM     16  C   UNL     1      -4.372   0.384  -5.268  1.00  0.00     0.056 A 
ATOM     17  C   UNL     1      -5.175  -1.598  -4.131  1.00  0.00     0.009 A 
ATOM     18  C   UNL     1      -5.544   1.078  -4.907  1.00  0.00     0.160 A 
ATOM     19  C   UNL     1      -6.339  -0.917  -3.769  1.00  0.00     0.050 A 
ATOM     20  C   UNL     1      -6.529   0.414  -4.152  1.00  0.00     0.157 A 
BRANCH  18  21
ATOM     21  O   UNL     1      -5.759   2.416  -5.274  1.00  0.00    -0.493 OA
ATOM     22  C   UNL     1      -6.367   2.832  -6.492  1.00  0.00     0.278 C 
ENDBRANCH  18  21
BRANCH  20  23
ATOM     23  O   UNL     1      -7.704   1.063  -3.773  1.00  0.00    -0.504 OA
ATOM     24  H   UNL     1      -7.702   1.872  -3.163  1.00  0.00     0.293 HD
ENDBRANCH  20  23
ENDBRANCH  14  15
ENDBRANCH  12  14
ENDBRANCH   9  10
ENDBRANCH   1   9
TORSDOF 10
ENDMDL
MODEL 5
REMARK VINA RESULT:    -5.590      1.662      2.632
REMARK INTER + INTRA:          -9.698
REMARK INTER:                  -8.699
REMARK INTRA:                  -0.999
REMARK UNBOUND:                -1.004
REMARK SMILES COc1cc(CNC(=O)CCCCC=CC(C)C)ccc1O
REMARK SMILES IDX 11 1 12 2 13 3 14 4 15 5 16 6 17 7 18 8 10 9 8 10 9 11 7 12
REMARK SMILES IDX 6 14 5 15 4 16 19 17 3 18 20 19 21 20 2 21 1 22 22 23
REMARK H PARENT 7 13 22 24
REMARK Flexibility Score: inf
ROOT
ATOM      1  C   UNL     1      -0.997  -6.338  -2.855  1.00  0.00     0.010 C 
ENDROOT
BRANCH   1   2
ATOM      2  C   UNL     1      -0.997  -7.880  -2.826  1.00  0.00     0.005 C 
BRANCH   2   3
ATOM      3  C   UNL     1      -0.139  -8.492  -1.704  1.00  0.00     0.027 C 
BRANCH   3   4
ATOM      4  C   UNL     1       0.855  -7.515  -1.125  1.00  0.00    -0.031 C 
ATOM      5  C   UNL     1       2.149  -7.417  -1.484  1.00  0.00    -0.028 C 
BRANCH   5   6
ATOM      6  C   UNL     1       2.835  -8.262  -2.536  1.00  0.00     0.005 C 
ATOM      7  C   UNL     1       2.641  -7.625  -3.914  1.00  0.00     0.012 C 
ATOM      8  C   UNL     1       4.325  -8.387  -2.207  1.00  0.00     0.012 C 
ENDBRANCH   5   6
ENDBRANCH   3   4
ENDBRANCH   2   3
ENDBRANCH   1   2
BRANCH   1   9
ATOM      9  C   UNL     1      -0.807  -5.731  -4.254  1.00  0.00     0.100 C 
BRANCH   9  10
ATOM     10  C   UNL     1      -2.106  -5.269  -4.846  1.00  0.00     0.220 C 
ATOM     11  O   UNL     1      -2.436  -5.665  -5.997  1.00  0.00    -0.275 OA
ATOM     12  N   UNL     1      -2.945  -4.357  -4.125  1.00  0.00    -0.352 N 
ATOM     13  H   UNL     1      -2.639  -4.012  -3.188  1.00  0.00     0.163 HD
BRANCH  12  14
ATOM     14  C   UNL     1      -4.216  -3.873  -4.660  1.00  0.00     0.151 C 
BRANCH  14  15
ATOM     15  C   UNL     1      -4.151  -2.389  -4.898  1.00  0.00    -0.025 A 
ATOM     16  C   UNL     1      -4.988  -1.525  -4.176  1.00  0.00     0.056 A 
ATOM     17  C   UNL     1      -3.279  -1.860  -5.860  1.00  0.00     0.009 A 
ATOM     18  C   UNL     1      -4.953  -0.135  -4.403  1.00  0.00     0.160 A 
ATOM     19  C   UNL     1      -3.238  -0.484  -6.090  1.00  0.00     0.050 A 
ATOM     20  C   UNL     1      -4.068   0.380  -5.368  1.00  0.00     0.157 A 
BRANCH  18  21
ATOM     21  O   UNL     1      -5.777   0.755  -3.696  1.00  0.00    -0.493 OA
ATOM     22  C   UNL     1      -7.057   1.195  -4.137  1.00  0.00     0.278 C 
ENDBRANCH  18  21
BRANCH  20  23
ATOM     23  O   UNL     1      -3.999   1.750  -5.625  1.00  0.00    -0.504 OA
ATOM     24  H   UNL     1      -4.810   2.354  -5.553  1.00  0.00     0.293 HD
ENDBRANCH  20  23
ENDBRANCH  14  15
ENDBRANCH  12  14
ENDBRANCH   9  10
ENDBRANCH   1   9
TORSDOF 10
ENDMDL
MODEL 6
REMARK VINA RESULT:    -5.582      2.375      8.733
REMARK INTER + INTRA:          -9.686
REMARK INTER:                  -8.354
REMARK INTRA:                  -1.332
REMARK UNBOUND:                -1.004
REMARK SMILES COc1cc(CNC(=O)CCCCC=CC(C)C)ccc1O
REMARK SMILES IDX 11 1 12 2 13 3 14 4 15 5 16 6 17 7 18 8 10 9 8 10 9 11 7 12
REMARK SMILES IDX 6 14 5 15 4 16 19 17 3 18 20 19 21 20 2 21 1 22 22 23
REMARK H PARENT 7 13 22 24
REMARK Flexibility Score: inf
ROOT
ATOM      1  C   UNL     1      -4.651   0.653  -6.764  1.00  0.00     0.010 C 
ENDROOT
BRANCH   1   2
ATOM      2  C   UNL     1      -4.983   2.066  -6.240  1.00  0.00     0.005 C 
BRANCH   2   3
ATOM      3  C   UNL     1      -6.292   2.152  -5.435  1.00  0.00     0.027 C 
BRANCH   3   4
ATOM      4  C   UNL     1      -6.231   1.392  -4.133  1.00  0.00    -0.031 C 
ATOM      5  C   UNL     1      -6.840   0.216  -3.889  1.00  0.00    -0.028 C 
BRANCH   5   6
ATOM      6  C   UNL     1      -7.685  -0.557  -4.879  1.00  0.00     0.005 C 
ATOM      7  C   UNL     1      -7.155  -1.988  -5.000  1.00  0.00     0.012 C 
ATOM      8  C   UNL     1      -9.145  -0.562  -4.418  1.00  0.00     0.012 C 
ENDBRANCH   5   6
ENDBRANCH   3   4
ENDBRANCH   2   3
ENDBRANCH   1   2
BRANCH   1   9
ATOM      9  C   UNL     1      -3.312   0.091  -6.261  1.00  0.00     0.100 C 
BRANCH   9  10
ATOM     10  C   UNL     1      -3.501  -1.141  -5.425  1.00  0.00     0.220 C 
ATOM     11  O   UNL     1      -3.596  -1.029  -4.173  1.00  0.00    -0.275 OA
ATOM     12  N   UNL     1      -3.535  -2.435  -6.041  1.00  0.00    -0.352 N 
ATOM     13  H   UNL     1      -3.419  -2.512  -7.077  1.00  0.00     0.163 HD
BRANCH  12  14
ATOM     14  C   UNL     1      -3.711  -3.665  -5.272  1.00  0.00     0.151 C 
BRANCH  14  15
ATOM     15  C   UNL     1      -2.379  -4.322  -5.028  1.00  0.00    -0.025 A 
ATOM     16  C   UNL     1      -2.078  -4.849  -3.763  1.00  0.00     0.056 A 
ATOM     17  C   UNL     1      -1.419  -4.387  -6.048  1.00  0.00     0.009 A 
ATOM     18  C   UNL     1      -0.828  -5.449  -3.514  1.00  0.00     0.160 A 
ATOM     19  C   UNL     1      -0.179  -4.979  -5.809  1.00  0.00     0.050 A 
ATOM     20  C   UNL     1       0.122  -5.511  -4.550  1.00  0.00     0.157 A 
BRANCH  18  21
ATOM     21  O   UNL     1      -0.498  -5.986  -2.259  1.00  0.00    -0.493 OA
ATOM     22  C   UNL     1      -0.621  -7.362  -1.911  1.00  0.00     0.278 C 
ENDBRANCH  18  21
BRANCH  20  23
ATOM     23  O   UNL     1       1.372  -6.096  -4.348  1.00  0.00    -0.504 OA
ATOM     24  H   UNL     1       1.658  -6.461  -3.447  1.00  0.00     0.293 HD
ENDBRANCH  20  23
ENDBRANCH  14  15
ENDBRANCH  12  14
ENDBRANCH   9  10
ENDBRANCH   1   9
TORSDOF 10
ENDMDL
MODEL 7
REMARK VINA RESULT:    -5.572      2.134      3.560
REMARK INTER + INTRA:          -9.670
REMARK INTER:                  -8.545
REMARK INTRA:                  -1.125
REMARK UNBOUND:                -1.004
REMARK SMILES COc1cc(CNC(=O)CCCCC=CC(C)C)ccc1O
REMARK SMILES IDX 11 1 12 2 13 3 14 4 15 5 16 6 17 7 18 8 10 9 8 10 9 11 7 12
REMARK SMILES IDX 6 14 5 15 4 16 19 17 3 18 20 19 21 20 2 21 1 22 22 23
REMARK H PARENT 7 13 22 24
REMARK Flexibility Score: inf
ROOT
ATOM      1  C   UNL     1      -2.142  -5.496  -4.061  1.00  0.00     0.010 C 
ENDROOT
BRANCH   1   2
ATOM      2  C   UNL     1      -1.257  -5.395  -5.320  1.00  0.00     0.005 C 
BRANCH   2   3
ATOM      3  C   UNL     1       0.253  -5.318  -5.029  1.00  0.00     0.027 C 
BRANCH   3   4
ATOM      4  C   UNL     1       0.899  -6.677  -4.914  1.00  0.00    -0.031 C 
ATOM      5  C   UNL     1       1.171  -7.314  -3.760  1.00  0.00    -0.028 C 
BRANCH   5   6
ATOM      6  C   UNL     1       0.869  -6.786  -2.373  1.00  0.00     0.005 C 
ATOM      7  C   UNL     1      -0.274  -7.593  -1.752  1.00  0.00     0.012 C 
ATOM      8  C   UNL     1       2.125  -6.876  -1.502  1.00  0.00     0.012 C 
ENDBRANCH   5   6
ENDBRANCH   3   4
ENDBRANCH   2   3
ENDBRANCH   1   2
BRANCH   1   9
ATOM      9  C   UNL     1      -3.530  -6.106  -4.310  1.00  0.00     0.100 C 
BRANCH   9  10
ATOM     10  C   UNL     1      -4.422  -5.175  -5.077  1.00  0.00     0.220 C 
ATOM     11  O   UNL     1      -4.782  -5.485  -6.245  1.00  0.00    -0.275 OA
ATOM     12  N   UNL     1      -4.830  -3.926  -4.501  1.00  0.00    -0.352 N 
ATOM     13  H   UNL     1      -4.494  -3.669  -3.546  1.00  0.00     0.163 HD
BRANCH  12  14
ATOM     14  C   UNL     1      -5.693  -2.983  -5.209  1.00  0.00     0.151 C 
BRANCH  14  15
ATOM     15  C   UNL     1      -4.954  -1.699  -5.474  1.00  0.00    -0.025 A 
ATOM     16  C   UNL     1      -5.411  -0.498  -4.911  1.00  0.00     0.056 A 
ATOM     17  C   UNL     1      -3.827  -1.685  -6.306  1.00  0.00     0.009 A 
ATOM     18  C   UNL     1      -4.742   0.716  -5.167  1.00  0.00     0.160 A 
ATOM     19  C   UNL     1      -3.158  -0.487  -6.565  1.00  0.00     0.050 A 
ATOM     20  C   UNL     1      -3.608   0.711  -6.000  1.00  0.00     0.157 A 
BRANCH  18  21
ATOM     21  O   UNL     1      -5.174   1.933  -4.617  1.00  0.00    -0.493 OA
ATOM     22  C   UNL     1      -6.252   2.713  -5.127  1.00  0.00     0.278 C 
ENDBRANCH  18  21
BRANCH  20  23
ATOM     23  O   UNL     1      -2.915   1.889  -6.280  1.00  0.00    -0.504 OA
ATOM     24  H   UNL     1      -3.378   2.714  -6.644  1.00  0.00     0.293 HD
ENDBRANCH  20  23
ENDBRANCH  14  15
ENDBRANCH  12  14
ENDBRANCH   9  10
ENDBRANCH   1   9
TORSDOF 10
ENDMDL
MODEL 8
REMARK VINA RESULT:    -5.566      1.497      2.203
REMARK INTER + INTRA:          -9.662
REMARK INTER:                  -8.705
REMARK INTRA:                  -0.956
REMARK UNBOUND:                -1.004
REMARK SMILES COc1cc(CNC(=O)CCCCC=CC(C)C)ccc1O
REMARK SMILES IDX 11 1 12 2 13 3 14 4 15 5 16 6 17 7 18 8 10 9 8 10 9 11 7 12
REMARK SMILES IDX 6 14 5 15 4 16 19 17 3 18 20 19 21 20 2 21 1 22 22 23
REMARK H PARENT 7 13 22 24
REMARK Flexibility Score: inf
ROOT
ATOM      1  C   UNL     1      -0.609  -7.880  -1.699  1.00  0.00     0.010 C 
ENDROOT
BRANCH   1   2
ATOM      2  C   UNL     1       0.521  -8.887  -1.404  1.00  0.00     0.005 C 
BRANCH   2   3
ATOM      3  C   UNL     1       1.806  -8.654  -2.219  1.00  0.00     0.027 C 
BRANCH   3   4
ATOM      4  C   UNL     1       2.456  -7.324  -1.923  1.00  0.00    -0.031 C 
ATOM      5  C   UNL     1       3.268  -7.070  -0.880  1.00  0.00    -0.028 C 
BRANCH   5   6
ATOM      6  C   UNL     1       3.683  -8.073   0.175  1.00  0.00     0.005 C 
ATOM      7  C   UNL     1       5.208  -8.203   0.191  1.00  0.00     0.012 C 
ATOM      8  C   UNL     1       3.167  -7.624   1.545  1.00  0.00     0.012 C 
ENDBRANCH   5   6
ENDBRANCH   3   4
ENDBRANCH   2   3
ENDBRANCH   1   2
BRANCH   1   9
ATOM      9  C   UNL     1      -0.921  -7.698  -3.192  1.00  0.00     0.100 C 
BRANCH   9  10
ATOM     10  C   UNL     1      -0.876  -6.255  -3.602  1.00  0.00     0.220 C 
ATOM     11  O   UNL     1      -0.510  -5.386  -2.765  1.00  0.00    -0.275 OA
ATOM     12  N   UNL     1      -1.282  -5.865  -4.921  1.00  0.00    -0.352 N 
ATOM     13  H   UNL     1      -1.616  -6.595  -5.590  1.00  0.00     0.163 HD
BRANCH  12  14
ATOM     14  C   UNL     1      -1.262  -4.474  -5.368  1.00  0.00     0.151 C 
BRANCH  14  15
ATOM     15  C   UNL     1      -2.600  -3.829  -5.124  1.00  0.00    -0.025 A 
ATOM     16  C   UNL     1      -2.680  -2.449  -4.883  1.00  0.00     0.056 A 
ATOM     17  C   UNL     1      -3.770  -4.601  -5.105  1.00  0.00     0.009 A 
ATOM     18  C   UNL     1      -3.923  -1.835  -4.633  1.00  0.00     0.160 A 
ATOM     19  C   UNL     1      -5.005  -4.000  -4.859  1.00  0.00     0.050 A 
ATOM     20  C   UNL     1      -5.088  -2.624  -4.624  1.00  0.00     0.157 A 
BRANCH  18  21
ATOM     21  O   UNL     1      -4.036  -0.457  -4.390  1.00  0.00    -0.493 OA
ATOM     22  C   UNL     1      -4.328   0.518  -5.385  1.00  0.00     0.278 C 
ENDBRANCH  18  21
BRANCH  20  23
ATOM     23  O   UNL     1      -6.340  -2.058  -4.381  1.00  0.00    -0.504 OA
ATOM     24  H   UNL     1      -7.200  -2.499  -4.682  1.00  0.00     0.293 HD
ENDBRANCH  20  23
ENDBRANCH  14  15
ENDBRANCH  12  14
ENDBRANCH   9  10
ENDBRANCH   1   9
TORSDOF 10
ENDMDL
MODEL 9
REMARK VINA RESULT:    -5.532      2.425      8.857
REMARK INTER + INTRA:          -9.609
REMARK INTER:                  -8.588
REMARK INTRA:                  -1.021
REMARK UNBOUND:                -1.004
REMARK SMILES COc1cc(CNC(=O)CCCCC=CC(C)C)ccc1O
REMARK SMILES IDX 11 1 12 2 13 3 14 4 15 5 16 6 17 7 18 8 10 9 8 10 9 11 7 12
REMARK SMILES IDX 6 14 5 15 4 16 19 17 3 18 20 19 21 20 2 21 1 22 22 23
REMARK H PARENT 7 13 22 24
REMARK Flexibility Score: inf
ROOT
ATOM      1  C   UNL     1      -2.874  -1.597  -4.952  1.00  0.00     0.010 C 
ENDROOT
BRANCH   1   2
ATOM      2  C   UNL     1      -2.835  -1.414  -6.483  1.00  0.00     0.005 C 
BRANCH   2   3
ATOM      3  C   UNL     1      -3.908  -0.456  -7.034  1.00  0.00     0.027 C 
BRANCH   3   4
ATOM      4  C   UNL     1      -3.830   0.924  -6.426  1.00  0.00    -0.031 C 
ATOM      5  C   UNL     1      -4.798   1.509  -5.697  1.00  0.00    -0.028 C 
BRANCH   5   6
ATOM      6  C   UNL     1      -6.133   0.885  -5.349  1.00  0.00     0.005 C 
ATOM      7  C   UNL     1      -6.266   0.770  -3.828  1.00  0.00     0.012 C 
ATOM      8  C   UNL     1      -7.267   1.736  -5.925  1.00  0.00     0.012 C 
ENDBRANCH   5   6
ENDBRANCH   3   4
ENDBRANCH   2   3
ENDBRANCH   1   2
BRANCH   1   9
ATOM      9  C   UNL     1      -4.133  -2.307  -4.432  1.00  0.00     0.100 C 
BRANCH   9  10
ATOM     10  C   UNL     1      -3.995  -3.801  -4.480  1.00  0.00     0.220 C 
ATOM     11  O   UNL     1      -4.972  -4.500  -4.863  1.00  0.00    -0.275 OA
ATOM     12  N   UNL     1      -2.776  -4.428  -4.060  1.00  0.00    -0.352 N 
ATOM     13  H   UNL     1      -1.989  -3.835  -3.713  1.00  0.00     0.163 HD
BRANCH  12  14
ATOM     14  C   UNL     1      -2.593  -5.878  -4.084  1.00  0.00     0.151 C 
BRANCH  14  15
ATOM     15  C   UNL     1      -1.160  -6.227  -3.786  1.00  0.00    -0.025 A 
ATOM     16  C   UNL     1      -0.776  -6.557  -2.477  1.00  0.00     0.056 A 
ATOM     17  C   UNL     1      -0.194  -6.196  -4.801  1.00  0.00     0.009 A 
ATOM     18  C   UNL     1       0.567  -6.865  -2.179  1.00  0.00     0.160 A 
ATOM     19  C   UNL     1       1.138  -6.501  -4.514  1.00  0.00     0.050 A 
ATOM     20  C   UNL     1       1.522  -6.836  -3.211  1.00  0.00     0.157 A 
BRANCH  18  21
ATOM     21  O   UNL     1       0.981  -7.200  -0.880  1.00  0.00    -0.493 OA
ATOM     22  C   UNL     1       1.150  -8.531  -0.404  1.00  0.00     0.278 C 
ENDBRANCH  18  21
BRANCH  20  23
ATOM     23  O   UNL     1       2.862  -7.135  -2.961  1.00  0.00    -0.504 OA
ATOM     24  H   UNL     1       3.357  -7.860  -3.467  1.00  0.00     0.293 HD
ENDBRANCH  20  23
ENDBRANCH  14  15
ENDBRANCH  12  14
ENDBRANCH   9  10
ENDBRANCH   1   9
TORSDOF 10
ENDMDL
