MODEL 1
REMARK VINA RESULT:    -2.843      0.000      0.000
REMARK INTER + INTRA:          -6.223
REMARK INTER:                  -4.838
REMARK INTRA:                  -1.385
REMARK UNBOUND:                -1.385
REMARK SMILES CCCCCCCCCCCCCC(=O)[O-]
REMARK SMILES IDX 8 1 9 2 10 3 11 4 12 5 13 6 14 7 15 8 16 9 7 10 6 11 5 12
REMARK SMILES IDX 4 13 3 14 2 15 1 16
REMARK H PARENT
REMARK Flexibility Score: inf
ROOT
ATOM      1  C   UNL     1     -12.259 -22.959  13.983  1.00  0.00     0.000 C 
ENDROOT
BRANCH   1   2
ATOM      2  C   UNL     1     -13.558 -22.182  14.246  1.00  0.00     0.000 C 
BRANCH   2   3
ATOM      3  C   UNL     1     -13.403 -21.246  15.452  1.00  0.00     0.000 C 
BRANCH   3   4
ATOM      4  C   UNL     1     -11.967 -20.721  15.625  1.00  0.00     0.000 C 
BRANCH   4   5
ATOM      5  C   UNL     1     -11.842 -19.190  15.770  1.00  0.00     0.006 C 
BRANCH   5   6
ATOM      6  C   UNL     1     -10.631 -18.577  15.051  1.00  0.00     0.053 C 
BRANCH   6   7
ATOM      7  C   UNL     1     -10.914 -17.190  14.560  1.00  0.00     0.041 C 
ATOM      8  O   UNL     1     -10.467 -16.807  13.448  1.00  0.00    -0.550 OA
ATOM      9  O   UNL     1     -11.700 -16.332  15.319  1.00  0.00    -0.550 OA
ENDBRANCH   6   7
ENDBRANCH   5   6
ENDBRANCH   4   5
ENDBRANCH   3   4
ENDBRANCH   2   3
ENDBRANCH   1   2
BRANCH   1  10
ATOM     10  C   UNL     1     -11.872 -22.978  12.495  1.00  0.00     0.000 C 
BRANCH  10  11
ATOM     11  C   UNL     1     -11.249 -21.649  12.030  1.00  0.00    -0.000 C 
BRANCH  11  12
ATOM     12  C   UNL     1      -9.775 -21.513  12.444  1.00  0.00    -0.000 C 
BRANCH  12  13
ATOM     13  C   UNL     1      -9.155 -20.182  11.992  1.00  0.00    -0.000 C 
BRANCH  13  14
ATOM     14  C   UNL     1     -10.121 -19.405  11.088  1.00  0.00    -0.000 C 
BRANCH  14  15
ATOM     15  C   UNL     1      -9.360 -18.455  10.157  1.00  0.00    -0.003 C 
ATOM     16  C   UNL     1      -8.298 -19.202   9.355  1.00  0.00     0.004 C 
ENDBRANCH  14  15
ENDBRANCH  13  14
ENDBRANCH  12  13
ENDBRANCH  11  12
ENDBRANCH  10  11
ENDBRANCH   1  10
TORSDOF 12
ENDMDL
MODEL 2
REMARK VINA RESULT:    -2.731      2.256      5.236
REMARK INTER + INTRA:          -6.033
REMARK INTER:                  -4.564
REMARK INTRA:                  -1.469
REMARK UNBOUND:                -1.385
REMARK SMILES CCCCCCCCCCCCCC(=O)[O-]
REMARK SMILES IDX 8 1 9 2 10 3 11 4 12 5 13 6 14 7 15 8 16 9 7 10 6 11 5 12
REMARK SMILES IDX 4 13 3 14 2 15 1 16
REMARK H PARENT
REMARK Flexibility Score: inf
ROOT
ATOM      1  C   UNL     1     -10.601 -16.820  14.815  1.00  0.00     0.000 C 
ENDROOT
BRANCH   1   2
ATOM      2  C   UNL     1      -9.236 -16.807  15.519  1.00  0.00     0.000 C 
BRANCH   2   3
ATOM      3  C   UNL     1      -8.091 -16.818  14.496  1.00  0.00     0.000 C 
BRANCH   3   4
ATOM      4  C   UNL     1      -8.137 -18.036  13.556  1.00  0.00     0.000 C 
BRANCH   4   5
ATOM      5  C   UNL     1      -8.190 -17.700  12.051  1.00  0.00     0.006 C 
BRANCH   5   6
ATOM      6  C   UNL     1      -9.559 -17.931  11.393  1.00  0.00     0.053 C 
BRANCH   6   7
ATOM      7  C   UNL     1      -9.517 -17.694   9.915  1.00  0.00     0.041 C 
ATOM      8  O   UNL     1      -9.270 -18.644   9.127  1.00  0.00    -0.550 OA
ATOM      9  O   UNL     1      -9.782 -16.428   9.407  1.00  0.00    -0.550 OA
ENDBRANCH   6   7
ENDBRANCH   5   6
ENDBRANCH   4   5
ENDBRANCH   3   4
ENDBRANCH   2   3
ENDBRANCH   1   2
BRANCH   1  10
ATOM     10  C   UNL     1     -11.602 -17.777  15.484  1.00  0.00     0.000 C 
BRANCH  10  11
ATOM     11  C   UNL     1     -10.982 -19.148  15.810  1.00  0.00    -0.000 C 
BRANCH  11  12
ATOM     12  C   UNL     1     -11.996 -20.297  15.694  1.00  0.00    -0.000 C 
BRANCH  12  13
ATOM     13  C   UNL     1     -11.521 -21.411  14.749  1.00  0.00    -0.000 C 
BRANCH  13  14
ATOM     14  C   UNL     1     -10.278 -20.973  13.963  1.00  0.00    -0.000 C 
BRANCH  14  15
ATOM     15  C   UNL     1     -10.371 -21.409  12.497  1.00  0.00    -0.003 C 
ATOM     16  C   UNL     1     -11.574 -22.320  12.268  1.00  0.00     0.004 C 
ENDBRANCH  14  15
ENDBRANCH  13  14
ENDBRANCH  12  13
ENDBRANCH  11  12
ENDBRANCH  10  11
ENDBRANCH   1  10
TORSDOF 12
ENDMDL
MODEL 3
REMARK VINA RESULT:    -2.704      2.155      5.226
REMARK INTER + INTRA:          -5.987
REMARK INTER:                  -4.652
REMARK INTRA:                  -1.335
REMARK UNBOUND:                -1.385
REMARK SMILES CCCCCCCCCCCCCC(=O)[O-]
REMARK SMILES IDX 8 1 9 2 10 3 11 4 12 5 13 6 14 7 15 8 16 9 7 10 6 11 5 12
REMARK SMILES IDX 4 13 3 14 2 15 1 16
REMARK H PARENT
REMARK Flexibility Score: inf
ROOT
ATOM      1  C   UNL     1     -11.605 -18.184  15.588  1.00  0.00     0.000 C 
ENDROOT
BRANCH   1   2
ATOM      2  C   UNL     1     -11.045 -16.864  15.037  1.00  0.00     0.000 C 
BRANCH   2   3
ATOM      3  C   UNL     1     -10.519 -17.044  13.607  1.00  0.00     0.000 C 
BRANCH   3   4
ATOM      4  C   UNL     1      -9.001 -17.291  13.551  1.00  0.00     0.000 C 
BRANCH   4   5
ATOM      5  C   UNL     1      -8.470 -17.798  12.193  1.00  0.00     0.006 C 
BRANCH   5   6
ATOM      6  C   UNL     1      -9.532 -18.456  11.299  1.00  0.00     0.053 C 
BRANCH   6   7
ATOM      7  C   UNL     1      -9.433 -17.991   9.878  1.00  0.00     0.041 C 
ATOM      8  O   UNL     1      -9.151 -18.806   8.962  1.00  0.00    -0.550 OA
ATOM      9  O   UNL     1      -9.684 -16.661   9.564  1.00  0.00    -0.550 OA
ENDBRANCH   6   7
ENDBRANCH   5   6
ENDBRANCH   4   5
ENDBRANCH   3   4
ENDBRANCH   2   3
ENDBRANCH   1   2
BRANCH   1  10
ATOM     10  C   UNL     1     -10.499 -19.153  16.039  1.00  0.00     0.000 C 
BRANCH  10  11
ATOM     11  C   UNL     1     -10.721 -20.586  15.523  1.00  0.00    -0.000 C 
BRANCH  11  12
ATOM     12  C   UNL     1     -10.150 -20.799  14.112  1.00  0.00    -0.000 C 
BRANCH  12  13
ATOM     13  C   UNL     1     -10.988 -21.780  13.278  1.00  0.00    -0.000 C 
BRANCH  13  14
ATOM     14  C   UNL     1     -11.862 -22.661  14.179  1.00  0.00    -0.000 C 
BRANCH  14  15
ATOM     15  C   UNL     1     -13.336 -22.577  13.769  1.00  0.00    -0.003 C 
ATOM     16  C   UNL     1     -14.136 -21.728  14.754  1.00  0.00     0.004 C 
ENDBRANCH  14  15
ENDBRANCH  13  14
ENDBRANCH  12  13
ENDBRANCH  11  12
ENDBRANCH  10  11
ENDBRANCH   1  10
TORSDOF 12
ENDMDL
MODEL 4
REMARK VINA RESULT:    -2.635      1.756      4.572
REMARK INTER + INTRA:          -5.869
REMARK INTER:                  -4.499
REMARK INTRA:                  -1.370
REMARK UNBOUND:                -1.385
REMARK SMILES CCCCCCCCCCCCCC(=O)[O-]
REMARK SMILES IDX 8 1 9 2 10 3 11 4 12 5 13 6 14 7 15 8 16 9 7 10 6 11 5 12
REMARK SMILES IDX 4 13 3 14 2 15 1 16
REMARK H PARENT
REMARK Flexibility Score: inf
ROOT
ATOM      1  C   UNL     1      -9.739 -17.869   9.747  1.00  0.00     0.000 C 
ENDROOT
BRANCH   1   2
ATOM      2  C   UNL     1      -9.185 -17.212  11.020  1.00  0.00     0.000 C 
BRANCH   2   3
ATOM      3  C   UNL     1     -10.135 -17.424  12.206  1.00  0.00     0.000 C 
BRANCH   3   4
ATOM      4  C   UNL     1      -9.437 -17.281  13.570  1.00  0.00     0.000 C 
BRANCH   4   5
ATOM      5  C   UNL     1     -10.341 -16.793  14.721  1.00  0.00     0.006 C 
BRANCH   5   6
ATOM      6  C   UNL     1     -10.244 -17.627  16.007  1.00  0.00     0.053 C 
BRANCH   6   7
ATOM      7  C   UNL     1     -10.697 -19.039  15.794  1.00  0.00     0.041 C 
ATOM      8  O   UNL     1     -11.923 -19.301  15.676  1.00  0.00    -0.550 OA
ATOM      9  O   UNL     1      -9.762 -20.061  15.694  1.00  0.00    -0.550 OA
ENDBRANCH   6   7
ENDBRANCH   5   6
ENDBRANCH   4   5
ENDBRANCH   3   4
ENDBRANCH   2   3
ENDBRANCH   1   2
BRANCH   1  10
ATOM     10  C   UNL     1      -8.901 -19.074   9.291  1.00  0.00     0.000 C 
BRANCH  10  11
ATOM     11  C   UNL     1      -7.875 -19.516  10.351  1.00  0.00    -0.000 C 
BRANCH  11  12
ATOM     12  C   UNL     1      -8.117 -20.951  10.844  1.00  0.00    -0.000 C 
BRANCH  12  13
ATOM     13  C   UNL     1      -8.661 -20.998  12.280  1.00  0.00    -0.000 C 
BRANCH  13  14
ATOM     14  C   UNL     1     -10.189 -20.864  12.295  1.00  0.00    -0.000 C 
BRANCH  14  15
ATOM     15  C   UNL     1     -10.861 -22.238  12.377  1.00  0.00    -0.003 C 
ATOM     16  C   UNL     1     -11.815 -22.316  13.566  1.00  0.00     0.004 C 
ENDBRANCH  14  15
ENDBRANCH  13  14
ENDBRANCH  12  13
ENDBRANCH  11  12
ENDBRANCH  10  11
ENDBRANCH   1  10
TORSDOF 12
ENDMDL
MODEL 5
REMARK VINA RESULT:    -2.581      1.972      4.342
REMARK INTER + INTRA:          -5.776
REMARK INTER:                  -4.264
REMARK INTRA:                  -1.512
REMARK UNBOUND:                -1.385
REMARK SMILES CCCCCCCCCCCCCC(=O)[O-]
REMARK SMILES IDX 8 1 9 2 10 3 11 4 12 5 13 6 14 7 15 8 16 9 7 10 6 11 5 12
REMARK SMILES IDX 4 13 3 14 2 15 1 16
REMARK H PARENT
REMARK Flexibility Score: inf
ROOT
ATOM      1  C   UNL     1     -11.864 -22.279  12.845  1.00  0.00     0.000 C 
ENDROOT
BRANCH   1   2
ATOM      2  C   UNL     1     -10.538 -22.983  12.520  1.00  0.00     0.000 C 
BRANCH   2   3
ATOM      3  C   UNL     1      -9.380 -21.976  12.469  1.00  0.00     0.000 C 
BRANCH   3   4
ATOM      4  C   UNL     1      -9.780 -20.632  11.835  1.00  0.00     0.000 C 
BRANCH   4   5
ATOM      5  C   UNL     1      -8.647 -19.900  11.085  1.00  0.00     0.006 C 
BRANCH   5   6
ATOM      6  C   UNL     1      -9.121 -19.004   9.930  1.00  0.00     0.053 C 
BRANCH   6   7
ATOM      7  C   UNL     1      -8.866 -17.554  10.206  1.00  0.00     0.041 C 
ATOM      8  O   UNL     1      -7.935 -17.210  10.981  1.00  0.00    -0.550 OA
ATOM      9  O   UNL     1      -9.636 -16.582   9.581  1.00  0.00    -0.550 OA
ENDBRANCH   6   7
ENDBRANCH   5   6
ENDBRANCH   4   5
ENDBRANCH   3   4
ENDBRANCH   2   3
ENDBRANCH   1   2
BRANCH   1  10
ATOM     10  C   UNL     1     -12.406 -22.653  14.235  1.00  0.00     0.000 C 
BRANCH  10  11
ATOM     11  C   UNL     1     -11.599 -22.008  15.377  1.00  0.00    -0.000 C 
BRANCH  11  12
ATOM     12  C   UNL     1     -11.657 -20.472  15.345  1.00  0.00    -0.000 C 
BRANCH  12  13
ATOM     13  C   UNL     1     -10.287 -19.824  15.594  1.00  0.00    -0.000 C 
BRANCH  13  14
ATOM     14  C   UNL     1     -10.363 -18.300  15.442  1.00  0.00    -0.000 C 
BRANCH  14  15
ATOM     15  C   UNL     1      -9.907 -17.862  14.047  1.00  0.00    -0.003 C 
ATOM     16  C   UNL     1     -10.812 -16.767  13.489  1.00  0.00     0.004 C 
ENDBRANCH  14  15
ENDBRANCH  13  14
ENDBRANCH  12  13
ENDBRANCH  11  12
ENDBRANCH  10  11
ENDBRANCH   1  10
TORSDOF 12
ENDMDL
MODEL 6
REMARK VINA RESULT:    -2.558      2.063      4.749
REMARK INTER + INTRA:          -5.739
REMARK INTER:                  -4.283
REMARK INTRA:                  -1.456
REMARK UNBOUND:                -1.385
REMARK SMILES CCCCCCCCCCCCCC(=O)[O-]
REMARK SMILES IDX 8 1 9 2 10 3 11 4 12 5 13 6 14 7 15 8 16 9 7 10 6 11 5 12
REMARK SMILES IDX 4 13 3 14 2 15 1 16
REMARK H PARENT
REMARK Flexibility Score: inf
ROOT
ATOM      1  C   UNL     1     -11.639 -22.331  11.997  1.00  0.00     0.000 C 
ENDROOT
BRANCH   1   2
ATOM      2  C   UNL     1     -10.448 -22.718  12.887  1.00  0.00     0.000 C 
BRANCH   2   3
ATOM      3  C   UNL     1      -9.331 -21.670  12.796  1.00  0.00     0.000 C 
BRANCH   3   4
ATOM      4  C   UNL     1      -9.747 -20.415  12.007  1.00  0.00     0.000 C 
BRANCH   4   5
ATOM      5  C   UNL     1      -8.720 -19.263  12.020  1.00  0.00     0.006 C 
BRANCH   5   6
ATOM      6  C   UNL     1      -9.298 -17.889  11.647  1.00  0.00     0.053 C 
BRANCH   6   7
ATOM      7  C   UNL     1      -9.226 -17.634  10.172  1.00  0.00     0.041 C 
ATOM      8  O   UNL     1      -9.799 -16.631   9.673  1.00  0.00    -0.550 OA
ATOM      9  O   UNL     1      -8.497 -18.488   9.354  1.00  0.00    -0.550 OA
ENDBRANCH   6   7
ENDBRANCH   5   6
ENDBRANCH   4   5
ENDBRANCH   3   4
ENDBRANCH   2   3
ENDBRANCH   1   2
BRANCH   1  10
ATOM     10  C   UNL     1     -12.928 -23.079  12.377  1.00  0.00     0.000 C 
BRANCH  10  11
ATOM     11  C   UNL     1     -13.158 -23.125  13.898  1.00  0.00    -0.000 C 
BRANCH  11  12
ATOM     12  C   UNL     1     -13.894 -21.881  14.421  1.00  0.00    -0.000 C 
BRANCH  12  13
ATOM     13  C   UNL     1     -13.502 -21.527  15.864  1.00  0.00    -0.000 C 
BRANCH  13  14
ATOM     14  C   UNL     1     -12.712 -20.213  15.913  1.00  0.00    -0.000 C 
BRANCH  14  15
ATOM     15  C   UNL     1     -11.216 -20.462  15.697  1.00  0.00    -0.003 C 
ATOM     16  C   UNL     1     -10.477 -19.160  15.399  1.00  0.00     0.004 C 
ENDBRANCH  14  15
ENDBRANCH  13  14
ENDBRANCH  12  13
ENDBRANCH  11  12
ENDBRANCH  10  11
ENDBRANCH   1  10
TORSDOF 12
ENDMDL
MODEL 7
REMARK VINA RESULT:    -2.394      2.349      4.552
REMARK INTER + INTRA:          -5.460
REMARK INTER:                  -3.863
REMARK INTRA:                  -1.597
REMARK UNBOUND:                -1.385
REMARK SMILES CCCCCCCCCCCCCC(=O)[O-]
REMARK SMILES IDX 8 1 9 2 10 3 11 4 12 5 13 6 14 7 15 8 16 9 7 10 6 11 5 12
REMARK SMILES IDX 4 13 3 14 2 15 1 16
REMARK H PARENT
REMARK Flexibility Score: inf
ROOT
ATOM      1  C   UNL     1     -11.144 -18.982  15.735  1.00  0.00     0.000 C 
ENDROOT
BRANCH   1   2
ATOM      2  C   UNL     1     -11.455 -17.555  15.257  1.00  0.00     0.000 C 
BRANCH   2   3
ATOM      3  C   UNL     1     -10.214 -16.901  14.636  1.00  0.00     0.000 C 
BRANCH   3   4
ATOM      4  C   UNL     1     -10.032 -17.247  13.148  1.00  0.00     0.000 C 
BRANCH   4   5
ATOM      5  C   UNL     1      -8.571 -17.464  12.701  1.00  0.00     0.006 C 
BRANCH   5   6
ATOM      6  C   UNL     1      -8.411 -18.326  11.438  1.00  0.00     0.053 C 
BRANCH   6   7
ATOM      7  C   UNL     1      -9.418 -17.970  10.388  1.00  0.00     0.041 C 
ATOM      8  O   UNL     1     -10.376 -18.748  10.138  1.00  0.00    -0.550 OA
ATOM      9  O   UNL     1      -9.316 -16.764   9.708  1.00  0.00    -0.550 OA
ENDBRANCH   6   7
ENDBRANCH   5   6
ENDBRANCH   4   5
ENDBRANCH   3   4
ENDBRANCH   2   3
ENDBRANCH   1   2
BRANCH   1  10
ATOM     10  C   UNL     1      -9.657 -19.180  16.073  1.00  0.00     0.000 C 
BRANCH  10  11
ATOM     11  C   UNL     1      -9.170 -20.611  15.782  1.00  0.00    -0.000 C 
BRANCH  11  12
ATOM     12  C   UNL     1      -8.295 -20.690  14.521  1.00  0.00    -0.000 C 
BRANCH  12  13
ATOM     13  C   UNL     1      -8.425 -22.039  13.796  1.00  0.00    -0.000 C 
BRANCH  13  14
ATOM     14  C   UNL     1      -9.071 -21.861  12.416  1.00  0.00    -0.000 C 
BRANCH  14  15
ATOM     15  C   UNL     1     -10.484 -21.280  12.539  1.00  0.00    -0.003 C 
ATOM     16  C   UNL     1     -11.543 -22.365  12.364  1.00  0.00     0.004 C 
ENDBRANCH  14  15
ENDBRANCH  13  14
ENDBRANCH  12  13
ENDBRANCH  11  12
ENDBRANCH  10  11
ENDBRANCH   1  10
TORSDOF 12
ENDMDL
MODEL 8
REMARK VINA RESULT:    -2.363      1.909      4.797
REMARK INTER + INTRA:          -5.406
REMARK INTER:                  -4.075
REMARK INTRA:                  -1.332
REMARK UNBOUND:                -1.385
REMARK SMILES CCCCCCCCCCCCCC(=O)[O-]
REMARK SMILES IDX 8 1 9 2 10 3 11 4 12 5 13 6 14 7 15 8 16 9 7 10 6 11 5 12
REMARK SMILES IDX 4 13 3 14 2 15 1 16
REMARK H PARENT
REMARK Flexibility Score: inf
ROOT
ATOM      1  C   UNL     1      -9.304 -19.094  10.747  1.00  0.00     0.000 C 
ENDROOT
BRANCH   1   2
ATOM      2  C   UNL     1      -8.892 -17.869  11.578  1.00  0.00     0.000 C 
BRANCH   2   3
ATOM      3  C   UNL     1     -10.087 -17.312  12.363  1.00  0.00     0.000 C 
BRANCH   3   4
ATOM      4  C   UNL     1      -9.779 -17.098  13.856  1.00  0.00     0.000 C 
BRANCH   4   5
ATOM      5  C   UNL     1      -8.814 -18.128  14.479  1.00  0.00     0.006 C 
BRANCH   5   6
ATOM      6  C   UNL     1      -9.266 -18.685  15.838  1.00  0.00     0.053 C 
BRANCH   6   7
ATOM      7  C   UNL     1     -10.189 -19.855  15.684  1.00  0.00     0.041 C 
ATOM      8  O   UNL     1      -9.743 -21.029  15.769  1.00  0.00    -0.550 OA
ATOM      9  O   UNL     1     -11.546 -19.646  15.479  1.00  0.00    -0.550 OA
ENDBRANCH   6   7
ENDBRANCH   5   6
ENDBRANCH   4   5
ENDBRANCH   3   4
ENDBRANCH   2   3
ENDBRANCH   1   2
BRANCH   1  10
ATOM     10  C   UNL     1     -10.124 -20.110  11.558  1.00  0.00     0.000 C 
BRANCH  10  11
ATOM     11  C   UNL     1      -9.241 -21.159  12.258  1.00  0.00    -0.000 C 
BRANCH  11  12
ATOM     12  C   UNL     1      -9.983 -22.480  12.513  1.00  0.00    -0.000 C 
BRANCH  12  13
ATOM     13  C   UNL     1     -11.510 -22.321  12.451  1.00  0.00    -0.000 C 
BRANCH  13  14
ATOM     14  C   UNL     1     -12.157 -22.689  13.792  1.00  0.00    -0.000 C 
BRANCH  14  15
ATOM     15  C   UNL     1     -13.684 -22.611  13.707  1.00  0.00    -0.003 C 
ATOM     16  C   UNL     1     -14.261 -21.804  14.868  1.00  0.00     0.004 C 
ENDBRANCH  14  15
ENDBRANCH  13  14
ENDBRANCH  12  13
ENDBRANCH  11  12
ENDBRANCH  10  11
ENDBRANCH   1  10
TORSDOF 12
ENDMDL
