MODEL 1
REMARK VINA RESULT:    -5.181      0.000      0.000
REMARK INTER + INTRA:          -9.801
REMARK INTER:                  -9.421
REMARK INTRA:                  -0.381
REMARK UNBOUND:                -0.381
REMARK SMILES CCCCCCCCCCCCCC[C@@H](C)C(=O)[O-]
REMARK SMILES IDX 9 1 10 2 11 3 12 4 13 5 14 6 15 7 16 8 17 9 18 10 19 11 8 12
REMARK SMILES IDX 7 13 6 14 5 15 4 16 3 17 2 18 1 19
REMARK H PARENT
REMARK Flexibility Score: inf
ROOT
ATOM      1  C   UNL     1      -7.991 -13.769   5.274  1.00  0.00     0.000 C 
ENDROOT
BRANCH   1   2
ATOM      2  C   UNL     1      -8.794 -13.006   6.341  1.00  0.00     0.000 C 
BRANCH   2   3
ATOM      3  C   UNL     1     -10.196 -12.597   5.854  1.00  0.00     0.000 C 
BRANCH   3   4
ATOM      4  C   UNL     1     -10.621 -11.156   6.208  1.00  0.00     0.000 C 
BRANCH   4   5
ATOM      5  C   UNL     1     -12.006 -11.020   6.869  1.00  0.00     0.001 C 
BRANCH   5   6
ATOM      6  C   UNL     1     -12.555  -9.582   6.974  1.00  0.00     0.009 C 
BRANCH   6   7
ATOM      7  C   UNL     1     -13.936  -9.486   7.668  1.00  0.00     0.032 C 
ATOM      8  C   UNL     1     -14.930 -10.469   7.035  1.00  0.00     0.014 C 
BRANCH   7   9
ATOM      9  C   UNL     1     -13.848  -9.753   9.146  1.00  0.00     0.044 C 
ATOM     10  O   UNL     1     -14.824 -10.254   9.766  1.00  0.00    -0.550 OA
ATOM     11  O   UNL     1     -12.697  -9.410   9.845  1.00  0.00    -0.550 OA
ENDBRANCH   7   9
ENDBRANCH   6   7
ENDBRANCH   5   6
ENDBRANCH   4   5
ENDBRANCH   3   4
ENDBRANCH   2   3
ENDBRANCH   1   2
BRANCH   1  12
ATOM     12  C   UNL     1      -6.728 -14.431   5.847  1.00  0.00     0.000 C 
BRANCH  12  13
ATOM     13  C   UNL     1      -6.200 -15.570   4.962  1.00  0.00    -0.000 C 
BRANCH  13  14
ATOM     14  C   UNL     1      -4.865 -16.105   5.494  1.00  0.00    -0.000 C 
BRANCH  14  15
ATOM     15  C   UNL     1      -4.184 -17.013   4.464  1.00  0.00    -0.000 C 
BRANCH  15  16
ATOM     16  C   UNL     1      -2.786 -16.488   4.102  1.00  0.00    -0.000 C 
BRANCH  16  17
ATOM     17  C   UNL     1      -1.707 -17.586   4.197  1.00  0.00    -0.000 C 
BRANCH  17  18
ATOM     18  C   UNL     1      -1.439 -18.303   2.864  1.00  0.00    -0.003 C 
ATOM     19  C   UNL     1      -1.396 -19.824   3.000  1.00  0.00     0.004 C 
ENDBRANCH  17  18
ENDBRANCH  16  17
ENDBRANCH  15  16
ENDBRANCH  14  15
ENDBRANCH  13  14
ENDBRANCH  12  13
ENDBRANCH   1  12
TORSDOF 14
ENDMDL
MODEL 2
REMARK VINA RESULT:    -5.134      5.025     11.240
REMARK INTER + INTRA:          -9.717
REMARK INTER:                  -8.777
REMARK INTRA:                  -0.940
REMARK UNBOUND:                -0.381
REMARK SMILES CCCCCCCCCCCCCC[C@@H](C)C(=O)[O-]
REMARK SMILES IDX 9 1 10 2 11 3 12 4 13 5 14 6 15 7 16 8 17 9 18 10 19 11 8 12
REMARK SMILES IDX 7 13 6 14 5 15 4 16 3 17 2 18 1 19
REMARK H PARENT
REMARK Flexibility Score: inf
ROOT
ATOM      1  C   UNL     1      -8.839 -13.381   5.612  1.00  0.00     0.000 C 
ENDROOT
BRANCH   1   2
ATOM      2  C   UNL     1      -7.438 -13.545   5.000  1.00  0.00     0.000 C 
BRANCH   2   3
ATOM      3  C   UNL     1      -6.876 -14.968   5.169  1.00  0.00     0.000 C 
BRANCH   3   4
ATOM      4  C   UNL     1      -5.800 -15.125   6.264  1.00  0.00     0.000 C 
BRANCH   4   5
ATOM      5  C   UNL     1      -4.742 -16.213   5.998  1.00  0.00     0.001 C 
BRANCH   5   6
ATOM      6  C   UNL     1      -4.642 -16.703   4.539  1.00  0.00     0.009 C 
BRANCH   6   7
ATOM      7  C   UNL     1      -3.214 -16.621   3.944  1.00  0.00     0.032 C 
ATOM      8  C   UNL     1      -2.267 -15.895   4.908  1.00  0.00     0.014 C 
BRANCH   7   9
ATOM      9  C   UNL     1      -2.653 -17.981   3.628  1.00  0.00     0.044 C 
ATOM     10  O   UNL     1      -1.673 -18.103   2.845  1.00  0.00    -0.550 OA
ATOM     11  O   UNL     1      -3.242 -19.116   4.170  1.00  0.00    -0.550 OA
ENDBRANCH   7   9
ENDBRANCH   6   7
ENDBRANCH   5   6
ENDBRANCH   4   5
ENDBRANCH   3   4
ENDBRANCH   2   3
ENDBRANCH   1   2
BRANCH   1  12
ATOM     12  C   UNL     1      -8.793 -12.910   7.074  1.00  0.00     0.000 C 
BRANCH  12  13
ATOM     13  C   UNL     1      -9.206 -11.440   7.239  1.00  0.00    -0.000 C 
BRANCH  13  14
ATOM     14  C   UNL     1     -10.246 -11.040   6.185  1.00  0.00    -0.000 C 
BRANCH  14  15
ATOM     15  C   UNL     1     -10.445  -9.520   6.155  1.00  0.00    -0.000 C 
BRANCH  15  16
ATOM     16  C   UNL     1     -11.851  -9.138   6.642  1.00  0.00    -0.000 C 
BRANCH  16  17
ATOM     17  C   UNL     1     -12.911 -10.188   6.252  1.00  0.00    -0.000 C 
BRANCH  17  18
ATOM     18  C   UNL     1     -13.988 -10.405   7.327  1.00  0.00    -0.003 C 
ATOM     19  C   UNL     1     -13.651  -9.731   8.656  1.00  0.00     0.004 C 
ENDBRANCH  17  18
ENDBRANCH  16  17
ENDBRANCH  15  16
ENDBRANCH  14  15
ENDBRANCH  13  14
ENDBRANCH  12  13
ENDBRANCH   1  12
TORSDOF 14
ENDMDL
MODEL 3
REMARK VINA RESULT:    -5.083      1.706      2.495
REMARK INTER + INTRA:          -9.624
REMARK INTER:                  -8.682
REMARK INTRA:                  -0.942
REMARK UNBOUND:                -0.381
REMARK SMILES CCCCCCCCCCCCCC[C@@H](C)C(=O)[O-]
REMARK SMILES IDX 9 1 10 2 11 3 12 4 13 5 14 6 15 7 16 8 17 9 18 10 19 11 8 12
REMARK SMILES IDX 7 13 6 14 5 15 4 16 3 17 2 18 1 19
REMARK H PARENT
REMARK Flexibility Score: inf
ROOT
ATOM      1  C   UNL     1      -9.366 -13.344   5.423  1.00  0.00     0.000 C 
ENDROOT
BRANCH   1   2
ATOM      2  C   UNL     1     -10.081 -12.267   6.256  1.00  0.00     0.000 C 
BRANCH   2   3
ATOM      3  C   UNL     1      -9.216 -11.735   7.413  1.00  0.00     0.000 C 
BRANCH   3   4
ATOM      4  C   UNL     1      -9.402 -10.238   7.739  1.00  0.00     0.000 C 
BRANCH   4   5
ATOM      5  C   UNL     1     -10.414  -9.926   8.858  1.00  0.00     0.001 C 
BRANCH   5   6
ATOM      6  C   UNL     1     -11.755  -9.323   8.393  1.00  0.00     0.009 C 
BRANCH   6   7
ATOM      7  C   UNL     1     -12.928 -10.335   8.376  1.00  0.00     0.032 C 
ATOM      8  C   UNL     1     -13.931 -10.021   9.493  1.00  0.00     0.014 C 
BRANCH   7   9
ATOM      9  C   UNL     1     -13.646 -10.347   7.054  1.00  0.00     0.044 C 
ATOM     10  O   UNL     1     -13.003 -10.257   5.974  1.00  0.00    -0.550 OA
ATOM     11  O   UNL     1     -15.033 -10.420   7.020  1.00  0.00    -0.550 OA
ENDBRANCH   7   9
ENDBRANCH   6   7
ENDBRANCH   5   6
ENDBRANCH   4   5
ENDBRANCH   3   4
ENDBRANCH   2   3
ENDBRANCH   1   2
BRANCH   1  12
ATOM     12  C   UNL     1      -7.995 -13.725   6.005  1.00  0.00     0.000 C 
BRANCH  12  13
ATOM     13  C   UNL     1      -7.031 -14.277   4.944  1.00  0.00    -0.000 C 
BRANCH  13  14
ATOM     14  C   UNL     1      -5.972 -15.183   5.583  1.00  0.00    -0.000 C 
BRANCH  14  15
ATOM     15  C   UNL     1      -6.157 -16.641   5.147  1.00  0.00    -0.000 C 
BRANCH  15  16
ATOM     16  C   UNL     1      -4.800 -17.341   4.969  1.00  0.00    -0.000 C 
BRANCH  16  17
ATOM     17  C   UNL     1      -3.982 -16.743   3.805  1.00  0.00    -0.000 C 
BRANCH  17  18
ATOM     18  C   UNL     1      -2.463 -16.775   4.041  1.00  0.00    -0.003 C 
ATOM     19  C   UNL     1      -2.010 -15.833   5.156  1.00  0.00     0.004 C 
ENDBRANCH  17  18
ENDBRANCH  16  17
ENDBRANCH  15  16
ENDBRANCH  14  15
ENDBRANCH  13  14
ENDBRANCH  12  13
ENDBRANCH   1  12
TORSDOF 14
ENDMDL
MODEL 4
REMARK VINA RESULT:    -4.972      1.321      2.443
REMARK INTER + INTRA:          -9.422
REMARK INTER:                  -8.799
REMARK INTRA:                  -0.623
REMARK UNBOUND:                -0.381
REMARK SMILES CCCCCCCCCCCCCC[C@@H](C)C(=O)[O-]
REMARK SMILES IDX 9 1 10 2 11 3 12 4 13 5 14 6 15 7 16 8 17 9 18 10 19 11 8 12
REMARK SMILES IDX 7 13 6 14 5 15 4 16 3 17 2 18 1 19
REMARK H PARENT
REMARK Flexibility Score: inf
ROOT
ATOM      1  C   UNL     1      -6.188 -15.721   5.005  1.00  0.00     0.000 C 
ENDROOT
BRANCH   1   2
ATOM      2  C   UNL     1      -6.803 -14.593   5.849  1.00  0.00     0.000 C 
BRANCH   2   3
ATOM      3  C   UNL     1      -8.046 -13.966   5.192  1.00  0.00     0.000 C 
BRANCH   3   4
ATOM      4  C   UNL     1      -8.641 -12.751   5.934  1.00  0.00     0.000 C 
BRANCH   4   5
ATOM      5  C   UNL     1     -10.152 -12.827   6.221  1.00  0.00     0.001 C 
BRANCH   5   6
ATOM      6  C   UNL     1     -10.974 -11.593   5.795  1.00  0.00     0.009 C 
BRANCH   6   7
ATOM      7  C   UNL     1     -11.120 -10.521   6.904  1.00  0.00     0.032 C 
ATOM      8  C   UNL     1     -10.760  -9.131   6.364  1.00  0.00     0.014 C 
BRANCH   7   9
ATOM      9  C   UNL     1     -12.511 -10.485   7.477  1.00  0.00     0.044 C 
ATOM     10  O   UNL     1     -13.502 -10.823   6.776  1.00  0.00    -0.550 OA
ATOM     11  O   UNL     1     -12.713 -10.038   8.777  1.00  0.00    -0.550 OA
ENDBRANCH   7   9
ENDBRANCH   6   7
ENDBRANCH   5   6
ENDBRANCH   4   5
ENDBRANCH   3   4
ENDBRANCH   2   3
ENDBRANCH   1   2
BRANCH   1  12
ATOM     12  C   UNL     1      -6.829 -17.089   5.292  1.00  0.00     0.000 C 
BRANCH  12  13
ATOM     13  C   UNL     1      -5.983 -18.262   4.775  1.00  0.00    -0.000 C 
BRANCH  13  14
ATOM     14  C   UNL     1      -4.489 -18.007   5.009  1.00  0.00    -0.000 C 
BRANCH  14  15
ATOM     15  C   UNL     1      -3.725 -17.944   3.681  1.00  0.00    -0.000 C 
BRANCH  15  16
ATOM     16  C   UNL     1      -2.368 -17.247   3.857  1.00  0.00    -0.000 C 
BRANCH  16  17
ATOM     17  C   UNL     1      -1.183 -18.184   3.543  1.00  0.00    -0.000 C 
BRANCH  17  18
ATOM     18  C   UNL     1      -1.440 -19.122   2.351  1.00  0.00    -0.003 C 
ATOM     19  C   UNL     1      -0.906 -20.536   2.577  1.00  0.00     0.004 C 
ENDBRANCH  17  18
ENDBRANCH  16  17
ENDBRANCH  15  16
ENDBRANCH  14  15
ENDBRANCH  13  14
ENDBRANCH  12  13
ENDBRANCH   1  12
TORSDOF 14
ENDMDL
MODEL 5
REMARK VINA RESULT:    -4.932      2.154      3.418
REMARK INTER + INTRA:          -9.350
REMARK INTER:                  -8.534
REMARK INTRA:                  -0.816
REMARK UNBOUND:                -0.381
REMARK SMILES CCCCCCCCCCCCCC[C@@H](C)C(=O)[O-]
REMARK SMILES IDX 9 1 10 2 11 3 12 4 13 5 14 6 15 7 16 8 17 9 18 10 19 11 8 12
REMARK SMILES IDX 7 13 6 14 5 15 4 16 3 17 2 18 1 19
REMARK H PARENT
REMARK Flexibility Score: inf
ROOT
ATOM      1  C   UNL     1      -6.564 -14.732   5.655  1.00  0.00     0.000 C 
ENDROOT
BRANCH   1   2
ATOM      2  C   UNL     1      -7.730 -13.937   5.044  1.00  0.00     0.000 C 
BRANCH   2   3
ATOM      3  C   UNL     1      -8.512 -13.125   6.091  1.00  0.00     0.000 C 
BRANCH   3   4
ATOM      4  C   UNL     1      -9.978 -12.814   5.722  1.00  0.00     0.000 C 
BRANCH   4   5
ATOM      5  C   UNL     1     -10.657 -11.726   6.576  1.00  0.00     0.001 C 
BRANCH   5   6
ATOM      6  C   UNL     1     -11.415 -10.638   5.788  1.00  0.00     0.009 C 
BRANCH   6   7
ATOM      7  C   UNL     1     -11.198  -9.203   6.330  1.00  0.00     0.032 C 
ATOM      8  C   UNL     1     -12.220  -8.878   7.428  1.00  0.00     0.014 C 
BRANCH   7   9
ATOM      9  C   UNL     1      -9.808  -9.006   6.873  1.00  0.00     0.044 C 
ATOM     10  O   UNL     1      -8.814  -8.992   6.099  1.00  0.00    -0.550 OA
ATOM     11  O   UNL     1      -9.611  -8.878   8.243  1.00  0.00    -0.550 OA
ENDBRANCH   7   9
ENDBRANCH   6   7
ENDBRANCH   5   6
ENDBRANCH   4   5
ENDBRANCH   3   4
ENDBRANCH   2   3
ENDBRANCH   1   2
BRANCH   1  12
ATOM     12  C   UNL     1      -6.014 -15.802   4.698  1.00  0.00     0.000 C 
BRANCH  12  13
ATOM     13  C   UNL     1      -4.745 -16.482   5.233  1.00  0.00    -0.000 C 
BRANCH  13  14
ATOM     14  C   UNL     1      -3.846 -16.949   4.082  1.00  0.00    -0.000 C 
BRANCH  14  15
ATOM     15  C   UNL     1      -2.429 -16.379   4.222  1.00  0.00    -0.000 C 
BRANCH  15  16
ATOM     16  C   UNL     1      -1.627 -17.147   5.284  1.00  0.00    -0.000 C 
BRANCH  16  17
ATOM     17  C   UNL     1      -0.957 -16.205   6.306  1.00  0.00    -0.000 C 
BRANCH  17  18
ATOM     18  C   UNL     1      -1.616 -14.819   6.389  1.00  0.00    -0.003 C 
ATOM     19  C   UNL     1      -2.572 -14.680   7.573  1.00  0.00     0.004 C 
ENDBRANCH  17  18
ENDBRANCH  16  17
ENDBRANCH  15  16
ENDBRANCH  14  15
ENDBRANCH  13  14
ENDBRANCH  12  13
ENDBRANCH   1  12
TORSDOF 14
ENDMDL
MODEL 6
REMARK VINA RESULT:    -4.913      5.324      9.556
REMARK INTER + INTRA:          -9.315
REMARK INTER:                  -7.276
REMARK INTRA:                  -2.039
REMARK UNBOUND:                -0.381
REMARK SMILES CCCCCCCCCCCCCC[C@@H](C)C(=O)[O-]
REMARK SMILES IDX 9 1 10 2 11 3 12 4 13 5 14 6 15 7 16 8 17 9 18 10 19 11 8 12
REMARK SMILES IDX 7 13 6 14 5 15 4 16 3 17 2 18 1 19
REMARK H PARENT
REMARK Flexibility Score: inf
ROOT
ATOM      1  C   UNL     1      -2.006 -18.168   3.184  1.00  0.00     0.000 C 
ENDROOT
BRANCH   1   2
ATOM      2  C   UNL     1      -1.449 -18.860   4.440  1.00  0.00     0.000 C 
BRANCH   2   3
ATOM      3  C   UNL     1      -2.349 -20.004   4.939  1.00  0.00     0.000 C 
BRANCH   3   4
ATOM      4  C   UNL     1      -3.361 -19.615   6.036  1.00  0.00     0.000 C 
BRANCH   4   5
ATOM      5  C   UNL     1      -4.759 -20.247   5.900  1.00  0.00     0.001 C 
BRANCH   5   6
ATOM      6  C   UNL     1      -5.711 -19.549   4.906  1.00  0.00     0.009 C 
BRANCH   6   7
ATOM      7  C   UNL     1      -7.141 -19.322   5.459  1.00  0.00     0.032 C 
ATOM      8  C   UNL     1      -8.064 -18.775   4.363  1.00  0.00     0.014 C 
BRANCH   7   9
ATOM      9  C   UNL     1      -7.736 -20.584   6.024  1.00  0.00     0.044 C 
ATOM     10  O   UNL     1      -7.850 -20.736   7.270  1.00  0.00    -0.550 OA
ATOM     11  O   UNL     1      -8.130 -21.607   5.171  1.00  0.00    -0.550 OA
ENDBRANCH   7   9
ENDBRANCH   6   7
ENDBRANCH   5   6
ENDBRANCH   4   5
ENDBRANCH   3   4
ENDBRANCH   2   3
ENDBRANCH   1   2
BRANCH   1  12
ATOM     12  C   UNL     1      -2.751 -16.863   3.511  1.00  0.00     0.000 C 
BRANCH  12  13
ATOM     13  C   UNL     1      -2.239 -16.192   4.794  1.00  0.00    -0.000 C 
BRANCH  13  14
ATOM     14  C   UNL     1      -3.393 -15.911   5.764  1.00  0.00    -0.000 C 
BRANCH  14  15
ATOM     15  C   UNL     1      -4.750 -16.167   5.097  1.00  0.00    -0.000 C 
BRANCH  15  16
ATOM     16  C   UNL     1      -5.907 -15.768   6.026  1.00  0.00    -0.000 C 
BRANCH  16  17
ATOM     17  C   UNL     1      -7.148 -15.293   5.242  1.00  0.00    -0.000 C 
BRANCH  17  18
ATOM     18  C   UNL     1      -7.350 -13.769   5.274  1.00  0.00    -0.003 C 
ATOM     19  C   UNL     1      -8.798 -13.362   5.542  1.00  0.00     0.004 C 
ENDBRANCH  17  18
ENDBRANCH  16  17
ENDBRANCH  15  16
ENDBRANCH  14  15
ENDBRANCH  13  14
ENDBRANCH  12  13
ENDBRANCH   1  12
TORSDOF 14
ENDMDL
MODEL 7
REMARK VINA RESULT:    -4.889      4.824     11.523
REMARK INTER + INTRA:          -9.271
REMARK INTER:                  -8.691
REMARK INTRA:                  -0.579
REMARK UNBOUND:                -0.381
REMARK SMILES CCCCCCCCCCCCCC[C@@H](C)C(=O)[O-]
REMARK SMILES IDX 9 1 10 2 11 3 12 4 13 5 14 6 15 7 16 8 17 9 18 10 19 11 8 12
REMARK SMILES IDX 7 13 6 14 5 15 4 16 3 17 2 18 1 19
REMARK H PARENT
REMARK Flexibility Score: inf
ROOT
ATOM      1  C   UNL     1      -9.518 -13.404   5.403  1.00  0.00     0.000 C 
ENDROOT
BRANCH   1   2
ATOM      2  C   UNL     1      -8.099 -13.366   5.996  1.00  0.00     0.000 C 
BRANCH   2   3
ATOM      3  C   UNL     1      -7.037 -13.934   5.039  1.00  0.00     0.000 C 
BRANCH   3   4
ATOM      4  C   UNL     1      -6.826 -15.460   5.120  1.00  0.00     0.000 C 
BRANCH   4   5
ATOM      5  C   UNL     1      -5.414 -15.953   4.751  1.00  0.00     0.001 C 
BRANCH   5   6
ATOM      6  C   UNL     1      -4.928 -17.209   5.503  1.00  0.00     0.009 C 
BRANCH   6   7
ATOM      7  C   UNL     1      -4.660 -18.428   4.585  1.00  0.00     0.032 C 
ATOM      8  C   UNL     1      -3.507 -18.134   3.617  1.00  0.00     0.014 C 
BRANCH   7   9
ATOM      9  C   UNL     1      -4.343 -19.671   5.372  1.00  0.00     0.044 C 
ATOM     10  O   UNL     1      -5.266 -20.427   5.777  1.00  0.00    -0.550 OA
ATOM     11  O   UNL     1      -3.024 -19.970   5.691  1.00  0.00    -0.550 OA
ENDBRANCH   7   9
ENDBRANCH   6   7
ENDBRANCH   5   6
ENDBRANCH   4   5
ENDBRANCH   3   4
ENDBRANCH   2   3
ENDBRANCH   1   2
BRANCH   1  12
ATOM     12  C   UNL     1     -10.540 -12.654   6.272  1.00  0.00     0.000 C 
BRANCH  12  13
ATOM     13  C   UNL     1     -10.299 -11.137   6.297  1.00  0.00    -0.000 C 
BRANCH  13  14
ATOM     14  C   UNL     1     -11.559 -10.374   5.873  1.00  0.00    -0.000 C 
BRANCH  14  15
ATOM     15  C   UNL     1     -11.810  -9.170   6.789  1.00  0.00    -0.000 C 
BRANCH  15  16
ATOM     16  C   UNL     1     -13.059  -9.387   7.657  1.00  0.00    -0.000 C 
BRANCH  16  17
ATOM     17  C   UNL     1     -14.066 -10.354   7.000  1.00  0.00    -0.000 C 
BRANCH  17  18
ATOM     18  C   UNL     1     -15.532 -10.045   7.348  1.00  0.00    -0.003 C 
ATOM     19  C   UNL     1     -15.735  -9.685   8.819  1.00  0.00     0.004 C 
ENDBRANCH  17  18
ENDBRANCH  16  17
ENDBRANCH  15  16
ENDBRANCH  14  15
ENDBRANCH  13  14
ENDBRANCH  12  13
ENDBRANCH   1  12
TORSDOF 14
ENDMDL
MODEL 8
REMARK VINA RESULT:    -4.885      6.237      8.674
REMARK INTER + INTRA:          -9.264
REMARK INTER:                  -7.092
REMARK INTRA:                  -2.173
REMARK UNBOUND:                -0.381
REMARK SMILES CCCCCCCCCCCCCC[C@@H](C)C(=O)[O-]
REMARK SMILES IDX 9 1 10 2 11 3 12 4 13 5 14 6 15 7 16 8 17 9 18 10 19 11 8 12
REMARK SMILES IDX 7 13 6 14 5 15 4 16 3 17 2 18 1 19
REMARK H PARENT
REMARK Flexibility Score: inf
ROOT
ATOM      1  C   UNL     1      -2.459 -17.160   3.637  1.00  0.00     0.000 C 
ENDROOT
BRANCH   1   2
ATOM      2  C   UNL     1      -2.917 -18.540   4.138  1.00  0.00     0.000 C 
BRANCH   2   3
ATOM      3  C   UNL     1      -4.446 -18.642   4.287  1.00  0.00     0.000 C 
BRANCH   3   4
ATOM      4  C   UNL     1      -4.941 -19.139   5.662  1.00  0.00     0.000 C 
BRANCH   4   5
ATOM      5  C   UNL     1      -6.421 -19.564   5.716  1.00  0.00     0.001 C 
BRANCH   5   6
ATOM      6  C   UNL     1      -7.370 -18.795   4.774  1.00  0.00     0.009 C 
BRANCH   6   7
ATOM      7  C   UNL     1      -8.238 -19.709   3.873  1.00  0.00     0.032 C 
ATOM      8  C   UNL     1      -8.756 -20.916   4.666  1.00  0.00     0.014 C 
BRANCH   7   9
ATOM      9  C   UNL     1      -9.406 -18.971   3.276  1.00  0.00     0.044 C 
ATOM     10  O   UNL     1     -10.094 -19.495   2.360  1.00  0.00    -0.550 OA
ATOM     11  O   UNL     1      -9.707 -17.685   3.708  1.00  0.00    -0.550 OA
ENDBRANCH   7   9
ENDBRANCH   6   7
ENDBRANCH   5   6
ENDBRANCH   4   5
ENDBRANCH   3   4
ENDBRANCH   2   3
ENDBRANCH   1   2
BRANCH   1  12
ATOM     12  C   UNL     1      -2.767 -16.036   4.640  1.00  0.00     0.000 C 
BRANCH  12  13
ATOM     13  C   UNL     1      -1.564 -15.686   5.529  1.00  0.00    -0.000 C 
BRANCH  13  14
ATOM     14  C   UNL     1      -2.002 -15.452   6.979  1.00  0.00    -0.000 C 
BRANCH  14  15
ATOM     15  C   UNL     1      -3.036 -16.495   7.419  1.00  0.00    -0.000 C 
BRANCH  15  16
ATOM     16  C   UNL     1      -4.186 -15.839   8.198  1.00  0.00    -0.000 C 
BRANCH  16  17
ATOM     17  C   UNL     1      -5.084 -14.969   7.294  1.00  0.00    -0.000 C 
BRANCH  17  18
ATOM     18  C   UNL     1      -6.136 -15.773   6.513  1.00  0.00    -0.003 C 
ATOM     19  C   UNL     1      -6.441 -15.184   5.137  1.00  0.00     0.004 C 
ENDBRANCH  17  18
ENDBRANCH  16  17
ENDBRANCH  15  16
ENDBRANCH  14  15
ENDBRANCH  13  14
ENDBRANCH  12  13
ENDBRANCH   1  12
TORSDOF 14
ENDMDL
MODEL 9
REMARK VINA RESULT:    -4.828      4.899     10.925
REMARK INTER + INTRA:          -9.160
REMARK INTER:                  -8.101
REMARK INTRA:                  -1.059
REMARK UNBOUND:                -0.381
REMARK SMILES CCCCCCCCCCCCCC[C@@H](C)C(=O)[O-]
REMARK SMILES IDX 9 1 10 2 11 3 12 4 13 5 14 6 15 7 16 8 17 9 18 10 19 11 8 12
REMARK SMILES IDX 7 13 6 14 5 15 4 16 3 17 2 18 1 19
REMARK H PARENT
REMARK Flexibility Score: inf
ROOT
ATOM      1  C   UNL     1      -5.557 -14.854   7.194  1.00  0.00     0.000 C 
ENDROOT
BRANCH   1   2
ATOM      2  C   UNL     1      -4.094 -14.925   7.666  1.00  0.00     0.000 C 
BRANCH   2   3
ATOM      3  C   UNL     1      -3.300 -16.050   6.979  1.00  0.00     0.000 C 
BRANCH   3   4
ATOM      4  C   UNL     1      -2.127 -15.582   6.093  1.00  0.00     0.000 C 
BRANCH   4   5
ATOM      5  C   UNL     1      -1.680 -16.578   5.006  1.00  0.00     0.001 C 
BRANCH   5   6
ATOM      6  C   UNL     1      -2.594 -16.666   3.766  1.00  0.00     0.009 C 
BRANCH   6   7
ATOM      7  C   UNL     1      -2.857 -18.113   3.280  1.00  0.00     0.032 C 
ATOM      8  C   UNL     1      -1.590 -18.714   2.657  1.00  0.00     0.014 C 
BRANCH   7   9
ATOM      9  C   UNL     1      -3.334 -19.007   4.392  1.00  0.00     0.044 C 
ATOM     10  O   UNL     1      -4.459 -18.820   4.928  1.00  0.00    -0.550 OA
ATOM     11  O   UNL     1      -2.513 -20.025   4.863  1.00  0.00    -0.550 OA
ENDBRANCH   7   9
ENDBRANCH   6   7
ENDBRANCH   5   6
ENDBRANCH   4   5
ENDBRANCH   3   4
ENDBRANCH   2   3
ENDBRANCH   1   2
BRANCH   1  12
ATOM     12  C   UNL     1      -5.809 -15.687   5.928  1.00  0.00     0.000 C 
BRANCH  12  13
ATOM     13  C   UNL     1      -6.946 -15.125   5.062  1.00  0.00    -0.000 C 
BRANCH  13  14
ATOM     14  C   UNL     1      -7.501 -13.826   5.661  1.00  0.00    -0.000 C 
BRANCH  14  15
ATOM     15  C   UNL     1      -8.906 -13.527   5.125  1.00  0.00    -0.000 C 
BRANCH  15  16
ATOM     16  C   UNL     1      -9.817 -12.983   6.236  1.00  0.00    -0.000 C 
BRANCH  16  17
ATOM     17  C   UNL     1     -10.643 -11.766   5.770  1.00  0.00    -0.000 C 
BRANCH  17  18
ATOM     18  C   UNL     1     -11.490 -11.133   6.887  1.00  0.00    -0.003 C 
ATOM     19  C   UNL     1     -12.561 -10.180   6.359  1.00  0.00     0.004 C 
ENDBRANCH  17  18
ENDBRANCH  16  17
ENDBRANCH  15  16
ENDBRANCH  14  15
ENDBRANCH  13  14
ENDBRANCH  12  13
ENDBRANCH   1  12
TORSDOF 14
ENDMDL
