MODEL 1
REMARK VINA RESULT:    -2.160      0.000      0.000
REMARK INTER + INTRA:          -2.424
REMARK INTER:                  -2.413
REMARK INTRA:                  -0.011
REMARK UNBOUND:                -0.011
REMARK SMILES CCCC(=O)[O-]
REMARK SMILES IDX 3 1 4 2 5 3 6 4 2 5 1 6
REMARK H PARENT
REMARK Flexibility Score: inf
ROOT
ATOM      1  C   UNL     1      13.079  -5.226   2.106  1.00  0.00     0.052 C 
ENDROOT
BRANCH   1   2
ATOM      2  C   UNL     1      12.631  -3.878   2.576  1.00  0.00     0.041 C 
ATOM      3  O   UNL     1      12.889  -3.499   3.749  1.00  0.00    -0.550 OA
ATOM      4  O   UNL     1      11.887  -3.060   1.736  1.00  0.00    -0.550 OA
ENDBRANCH   1   2
BRANCH   1   5
ATOM      5  C   UNL     1      12.363  -5.605   0.808  1.00  0.00     0.003 C 
ATOM      6  C   UNL     1      12.321  -7.119   0.623  1.00  0.00     0.004 C 
ENDBRANCH   1   5
TORSDOF 2
ENDMDL
MODEL 2
REMARK VINA RESULT:    -2.013      2.389      3.563
REMARK INTER + INTRA:          -2.259
REMARK INTER:                  -2.246
REMARK INTRA:                  -0.013
REMARK UNBOUND:                -0.011
REMARK SMILES CCCC(=O)[O-]
REMARK SMILES IDX 3 1 4 2 5 3 6 4 2 5 1 6
REMARK H PARENT
REMARK Flexibility Score: inf
ROOT
ATOM      1  C   UNL     1      13.125  -5.295   2.403  1.00  0.00     0.052 C 
ENDROOT
BRANCH   1   2
ATOM      2  C   UNL     1      12.745  -6.243   1.310  1.00  0.00     0.041 C 
ATOM      3  O   UNL     1      12.083  -5.836   0.319  1.00  0.00    -0.550 OA
ATOM      4  O   UNL     1      13.081  -7.587   1.409  1.00  0.00    -0.550 OA
ENDBRANCH   1   2
BRANCH   1   5
ATOM      5  C   UNL     1      12.508  -3.916   2.153  1.00  0.00     0.003 C 
ATOM      6  C   UNL     1      12.519  -3.069   3.422  1.00  0.00     0.004 C 
ENDBRANCH   1   5
TORSDOF 2
ENDMDL
MODEL 3
REMARK VINA RESULT:    -1.962      4.171      4.908
REMARK INTER + INTRA:          -2.203
REMARK INTER:                  -2.197
REMARK INTRA:                  -0.006
REMARK UNBOUND:                -0.011
REMARK SMILES CCCC(=O)[O-]
REMARK SMILES IDX 3 1 4 2 5 3 6 4 2 5 1 6
REMARK H PARENT
REMARK Flexibility Score: inf
ROOT
ATOM      1  C   UNL     1      12.988  -7.979   1.401  1.00  0.00     0.052 C 
ENDROOT
BRANCH   1   2
ATOM      2  C   UNL     1      12.396  -9.322   1.109  1.00  0.00     0.041 C 
ATOM      3  O   UNL     1      12.970 -10.106   0.307  1.00  0.00    -0.550 OA
ATOM      4  O   UNL     1      11.187  -9.689   1.684  1.00  0.00    -0.550 OA
ENDBRANCH   1   2
BRANCH   1   5
ATOM      5  C   UNL     1      12.275  -6.892   0.593  1.00  0.00     0.003 C 
ATOM      6  C   UNL     1      12.595  -5.502   1.136  1.00  0.00     0.004 C 
ENDBRANCH   1   5
TORSDOF 2
ENDMDL
MODEL 4
REMARK VINA RESULT:    -1.854     17.731     18.179
REMARK INTER + INTRA:          -2.081
REMARK INTER:                  -2.074
REMARK INTRA:                  -0.007
REMARK UNBOUND:                -0.011
REMARK SMILES CCCC(=O)[O-]
REMARK SMILES IDX 3 1 4 2 5 3 6 4 2 5 1 6
REMARK H PARENT
REMARK Flexibility Score: inf
ROOT
ATOM      1  C   UNL     1      -5.908  -8.511   1.812  1.00  0.00     0.052 C 
ENDROOT
BRANCH   1   2
ATOM      2  C   UNL     1      -4.722  -7.903   2.490  1.00  0.00     0.041 C 
ATOM      3  O   UNL     1      -3.622  -8.516   2.513  1.00  0.00    -0.550 OA
ATOM      4  O   UNL     1      -4.842  -6.681   3.138  1.00  0.00    -0.550 OA
ENDBRANCH   1   2
BRANCH   1   5
ATOM      5  C   UNL     1      -5.533  -9.001   0.411  1.00  0.00     0.003 C 
ATOM      6  C   UNL     1      -6.736  -8.967  -0.526  1.00  0.00     0.004 C 
ENDBRANCH   1   5
TORSDOF 2
ENDMDL
MODEL 5
REMARK VINA RESULT:    -1.833     17.672     18.084
REMARK INTER + INTRA:          -2.058
REMARK INTER:                  -2.020
REMARK INTRA:                  -0.039
REMARK UNBOUND:                -0.011
REMARK SMILES CCCC(=O)[O-]
REMARK SMILES IDX 3 1 4 2 5 3 6 4 2 5 1 6
REMARK H PARENT
REMARK Flexibility Score: inf
ROOT
ATOM      1  C   UNL     1      -4.297  -8.360   2.195  1.00  0.00     0.052 C 
ENDROOT
BRANCH   1   2
ATOM      2  C   UNL     1      -5.140  -7.427   3.006  1.00  0.00     0.041 C 
ATOM      3  O   UNL     1      -4.653  -6.351   3.441  1.00  0.00    -0.550 OA
ATOM      4  O   UNL     1      -6.448  -7.770   3.321  1.00  0.00    -0.550 OA
ENDBRANCH   1   2
BRANCH   1   5
ATOM      5  C   UNL     1      -5.179  -9.339   1.416  1.00  0.00     0.003 C 
ATOM      6  C   UNL     1      -5.563  -8.771   0.053  1.00  0.00     0.004 C 
ENDBRANCH   1   5
TORSDOF 2
ENDMDL
MODEL 6
REMARK VINA RESULT:    -1.801     16.226     16.759
REMARK INTER + INTRA:          -2.023
REMARK INTER:                  -2.007
REMARK INTRA:                  -0.016
REMARK UNBOUND:                -0.011
REMARK SMILES CCCC(=O)[O-]
REMARK SMILES IDX 3 1 4 2 5 3 6 4 2 5 1 6
REMARK H PARENT
REMARK Flexibility Score: inf
ROOT
ATOM      1  C   UNL     1      -3.612  -9.436   2.654  1.00  0.00     0.052 C 
ENDROOT
BRANCH   1   2
ATOM      2  C   UNL     1      -4.470  -8.337   2.112  1.00  0.00     0.041 C 
ATOM      3  O   UNL     1      -4.941  -8.416   0.947  1.00  0.00    -0.550 OA
ATOM      4  O   UNL     1      -4.712  -7.202   2.876  1.00  0.00    -0.550 OA
ENDBRANCH   1   2
BRANCH   1   5
ATOM      5  C   UNL     1      -2.534  -8.867   3.579  1.00  0.00     0.003 C 
ATOM      6  C   UNL     1      -1.137  -9.260   3.107  1.00  0.00     0.004 C 
ENDBRANCH   1   5
TORSDOF 2
ENDMDL
MODEL 7
REMARK VINA RESULT:    -1.762     18.274     18.875
REMARK INTER + INTRA:          -1.979
REMARK INTER:                  -1.961
REMARK INTRA:                  -0.019
REMARK UNBOUND:                -0.011
REMARK SMILES CCCC(=O)[O-]
REMARK SMILES IDX 3 1 4 2 5 3 6 4 2 5 1 6
REMARK H PARENT
REMARK Flexibility Score: inf
ROOT
ATOM      1  C   UNL     1      -5.723  -9.420   1.519  1.00  0.00     0.052 C 
ENDROOT
BRANCH   1   2
ATOM      2  C   UNL     1      -5.959  -9.578   0.050  1.00  0.00     0.041 C 
ATOM      3  O   UNL     1      -5.604 -10.634  -0.538  1.00  0.00    -0.550 OA
ATOM      4  O   UNL     1      -6.527  -8.541  -0.678  1.00  0.00    -0.550 OA
ENDBRANCH   1   2
BRANCH   1   5
ATOM      5  C   UNL     1      -4.540  -8.482   1.774  1.00  0.00     0.003 C 
ATOM      6  C   UNL     1      -4.865  -7.469   2.867  1.00  0.00     0.004 C 
ENDBRANCH   1   5
TORSDOF 2
ENDMDL
MODEL 8
REMARK VINA RESULT:    -1.754     16.879     17.311
REMARK INTER + INTRA:          -1.970
REMARK INTER:                  -1.931
REMARK INTRA:                  -0.038
REMARK UNBOUND:                -0.011
REMARK SMILES CCCC(=O)[O-]
REMARK SMILES IDX 3 1 4 2 5 3 6 4 2 5 1 6
REMARK H PARENT
REMARK Flexibility Score: inf
ROOT
ATOM      1  C   UNL     1      -4.233  -8.458   2.098  1.00  0.00     0.052 C 
ENDROOT
BRANCH   1   2
ATOM      2  C   UNL     1      -5.065  -7.493   2.882  1.00  0.00     0.041 C 
ATOM      3  O   UNL     1      -4.516  -6.563   3.529  1.00  0.00    -0.550 OA
ATOM      4  O   UNL     1      -6.444  -7.650   2.936  1.00  0.00    -0.550 OA
ENDBRANCH   1   2
BRANCH   1   5
ATOM      5  C   UNL     1      -3.556  -9.464   3.032  1.00  0.00     0.003 C 
ATOM      6  C   UNL     1      -2.058  -9.195   3.141  1.00  0.00     0.004 C 
ENDBRANCH   1   5
TORSDOF 2
ENDMDL
MODEL 9
REMARK VINA RESULT:    -1.326     17.276     17.664
REMARK INTER + INTRA:          -1.492
REMARK INTER:                  -1.462
REMARK INTRA:                  -0.030
REMARK UNBOUND:                -0.011
REMARK SMILES CCCC(=O)[O-]
REMARK SMILES IDX 3 1 4 2 5 3 6 4 2 5 1 6
REMARK H PARENT
REMARK Flexibility Score: inf
ROOT
ATOM      1  C   UNL     1      11.071   1.103 -13.935  1.00  0.00     0.052 C 
ENDROOT
BRANCH   1   2
ATOM      2  C   UNL     1      12.483   1.243 -14.409  1.00  0.00     0.041 C 
ATOM      3  O   UNL     1      13.121   0.232 -14.806  1.00  0.00    -0.550 OA
ATOM      4  O   UNL     1      13.112   2.480 -14.367  1.00  0.00    -0.550 OA
ENDBRANCH   1   2
BRANCH   1   5
ATOM      5  C   UNL     1      10.112   1.028 -15.125  1.00  0.00     0.003 C 
ATOM      6  C   UNL     1       9.303  -0.266 -15.101  1.00  0.00     0.004 C 
ENDBRANCH   1   5
TORSDOF 2
ENDMDL
