MODEL 1
REMARK VINA RESULT:     1.666      0.000      0.000
REMARK INTER + INTRA:           1.850
REMARK INTER:                   1.860
REMARK INTRA:                  -0.010
REMARK UNBOUND:                -0.010
REMARK SMILES CCCC(=O)[O-]
REMARK SMILES IDX 3 1 4 2 5 3 6 4 2 5 1 6
REMARK H PARENT
REMARK Flexibility Score: inf
ROOT
ATOM      1  C   UNL     1     -28.753 -19.751  -7.700  1.00  0.00     0.052 C 
ENDROOT
BRANCH   1   2
ATOM      2  C   UNL     1     -30.166 -19.755  -8.198  1.00  0.00     0.041 C 
ATOM      3  O   UNL     1     -31.125 -19.760  -7.383  1.00  0.00    -0.550 OA
ATOM      4  O   UNL     1     -30.423 -19.785  -9.564  1.00  0.00    -0.550 OA
ENDBRANCH   1   2
BRANCH   1   5
ATOM      5  C   UNL     1     -27.761 -19.377  -8.809  1.00  0.00     0.003 C 
ATOM      6  C   UNL     1     -26.533 -18.645  -8.268  1.00  0.00     0.004 C 
ENDBRANCH   1   5
TORSDOF 2
ENDMDL
MODEL 2
REMARK VINA RESULT:     2.885      1.955      3.056
REMARK INTER + INTRA:           3.212
REMARK INTER:                   1.738
REMARK INTRA:                   1.475
REMARK UNBOUND:                -0.010
REMARK SMILES CCCC(=O)[O-]
REMARK SMILES IDX 3 1 4 2 5 3 6 4 2 5 1 6
REMARK H PARENT
REMARK Flexibility Score: inf
ROOT
ATOM      1  C   UNL     1     -29.301 -19.678  -9.514  1.00  0.00     0.052 C 
ENDROOT
BRANCH   1   2
ATOM      2  C   UNL     1     -28.459 -19.500  -8.288  1.00  0.00     0.041 C 
ATOM      3  O   UNL     1     -28.931 -19.762  -7.152  1.00  0.00    -0.550 OA
ATOM      4  O   UNL     1     -27.162 -19.013  -8.399  1.00  0.00    -0.550 OA
ENDBRANCH   1   2
BRANCH   1   5
ATOM      5  C   UNL     1     -30.730 -20.111  -9.163  1.00  0.00     0.003 C 
ATOM      6  C   UNL     1     -31.124 -19.719  -7.739  1.00  0.00     0.004 C 
ENDBRANCH   1   5
TORSDOF 2
ENDMDL
MODEL 3
REMARK VINA RESULT:     3.214     16.965     17.887
REMARK INTER + INTRA:           3.579
REMARK INTER:                   3.598
REMARK INTRA:                  -0.019
REMARK UNBOUND:                -0.010
REMARK SMILES CCCC(=O)[O-]
REMARK SMILES IDX 3 1 4 2 5 3 6 4 2 5 1 6
REMARK H PARENT
REMARK Flexibility Score: inf
ROOT
ATOM      1  C   UNL     1     -21.762 -14.134 -24.194  1.00  0.00     0.052 C 
ENDROOT
BRANCH   1   2
ATOM      2  C   UNL     1     -22.218 -14.483 -22.810  1.00  0.00     0.041 C 
ATOM      3  O   UNL     1     -22.929 -15.504 -22.616  1.00  0.00    -0.550 OA
ATOM      4  O   UNL     1     -21.884 -13.663 -21.740  1.00  0.00    -0.550 OA
ENDBRANCH   1   2
BRANCH   1   5
ATOM      5  C   UNL     1     -20.865 -12.889 -24.199  1.00  0.00     0.003 C 
ATOM      6  C   UNL     1     -19.604 -13.085 -25.040  1.00  0.00     0.004 C 
ENDBRANCH   1   5
TORSDOF 2
ENDMDL
MODEL 4
REMARK VINA RESULT:     4.078      1.943      2.240
REMARK INTER + INTRA:           4.545
REMARK INTER:                   4.108
REMARK INTRA:                   0.437
REMARK UNBOUND:                -0.010
REMARK SMILES CCCC(=O)[O-]
REMARK SMILES IDX 3 1 4 2 5 3 6 4 2 5 1 6
REMARK H PARENT
REMARK Flexibility Score: inf
ROOT
ATOM      1  C   UNL     1     -30.766 -19.337  -8.607  1.00  0.00     0.052 C 
ENDROOT
BRANCH   1   2
ATOM      2  C   UNL     1     -30.295 -19.752  -7.247  1.00  0.00     0.041 C 
ATOM      3  O   UNL     1     -31.125 -20.114  -6.373  1.00  0.00    -0.550 OA
ATOM      4  O   UNL     1     -28.942 -19.707  -6.935  1.00  0.00    -0.550 OA
ENDBRANCH   1   2
BRANCH   1   5
ATOM      5  C   UNL     1     -30.021 -20.087  -9.720  1.00  0.00     0.003 C 
ATOM      6  C   UNL     1     -28.539 -19.719  -9.778  1.00  0.00     0.004 C 
ENDBRANCH   1   5
TORSDOF 2
ENDMDL
MODEL 5
REMARK VINA RESULT:     4.455     23.778     24.962
REMARK INTER + INTRA:           4.966
REMARK INTER:                   4.989
REMARK INTRA:                  -0.023
REMARK UNBOUND:                -0.010
REMARK SMILES CCCC(=O)[O-]
REMARK SMILES IDX 3 1 4 2 5 3 6 4 2 5 1 6
REMARK H PARENT
REMARK Flexibility Score: inf
ROOT
ATOM      1  C   UNL     1     -15.099  -7.098 -25.095  1.00  0.00     0.052 C 
ENDROOT
BRANCH   1   2
ATOM      2  C   UNL     1     -14.988  -7.636 -23.702  1.00  0.00     0.041 C 
ATOM      3  O   UNL     1     -13.869  -7.992 -23.249  1.00  0.00    -0.550 OA
ATOM      4  O   UNL     1     -16.125  -7.776 -22.917  1.00  0.00    -0.550 OA
ENDBRANCH   1   2
BRANCH   1   5
ATOM      5  C   UNL     1     -14.977  -5.569 -25.125  1.00  0.00     0.003 C 
ATOM      6  C   UNL     1     -13.522  -5.101 -25.117  1.00  0.00     0.004 C 
ENDBRANCH   1   5
TORSDOF 2
ENDMDL
