MODEL 1
REMARK VINA RESULT:    -2.885      0.000      0.000
REMARK INTER + INTRA:          -2.885
REMARK INTER:                  -2.885
REMARK INTRA:                   0.000
REMARK UNBOUND:                 0.000
REMARK SMILES CC(=O)[O-]
REMARK SMILES IDX 1 1 2 2 3 3 4 4
REMARK H PARENT
REMARK Flexibility Score: inf
ROOT
ATOM      1  C   UNL     1      18.898   2.682 -15.566  1.00  0.00     0.063 C 
ATOM      2  C   UNL     1      17.769   1.739 -15.813  1.00  0.00     0.038 C 
ATOM      3  O   UNL     1      17.532   0.810 -14.997  1.00  0.00    -0.550 OA
ATOM      4  O   UNL     1      16.946   1.914 -16.917  1.00  0.00    -0.550 OA
ENDROOT
TORSDOF 0
ENDMDL
MODEL 2
REMARK VINA RESULT:    -2.882      0.122      1.624
REMARK INTER + INTRA:          -2.882
REMARK INTER:                  -2.882
REMARK INTRA:                   0.000
REMARK UNBOUND:                 0.000
REMARK SMILES CC(=O)[O-]
REMARK SMILES IDX 1 1 2 2 3 3 4 4
REMARK H PARENT
REMARK Flexibility Score: inf
ROOT
ATOM      1  C   UNL     1      18.830   2.837 -15.561  1.00  0.00     0.063 C 
ATOM      2  C   UNL     1      17.740   1.851 -15.812  1.00  0.00     0.038 C 
ATOM      3  O   UNL     1      17.007   1.965 -16.830  1.00  0.00    -0.550 OA
ATOM      4  O   UNL     1      17.564   0.775 -14.953  1.00  0.00    -0.550 OA
ENDROOT
TORSDOF 0
ENDMDL
MODEL 3
REMARK VINA RESULT:    -2.644      8.645      9.150
REMARK INTER + INTRA:          -2.644
REMARK INTER:                  -2.644
REMARK INTRA:                   0.000
REMARK UNBOUND:                 0.000
REMARK SMILES CC(=O)[O-]
REMARK SMILES IDX 1 1 2 2 3 3 4 4
REMARK H PARENT
REMARK Flexibility Score: inf
ROOT
ATOM      1  C   UNL     1      16.653   0.168 -23.415  1.00  0.00     0.063 C 
ATOM      2  C   UNL     1      16.726  -0.856 -24.497  1.00  0.00     0.038 C 
ATOM      3  O   UNL     1      17.008  -2.051 -24.219  1.00  0.00    -0.550 OA
ATOM      4  O   UNL     1      16.432  -0.505 -25.808  1.00  0.00    -0.550 OA
ENDROOT
TORSDOF 0
ENDMDL
MODEL 4
REMARK VINA RESULT:    -2.619      1.764      2.101
REMARK INTER + INTRA:          -2.619
REMARK INTER:                  -2.619
REMARK INTRA:                   0.000
REMARK UNBOUND:                 0.000
REMARK SMILES CC(=O)[O-]
REMARK SMILES IDX 1 1 2 2 3 3 4 4
REMARK H PARENT
REMARK Flexibility Score: inf
ROOT
ATOM      1  C   UNL     1      18.934   0.892 -16.983  1.00  0.00     0.063 C 
ATOM      2  C   UNL     1      18.656   0.491 -15.574  1.00  0.00     0.038 C 
ATOM      3  O   UNL     1      19.526  -0.131 -14.910  1.00  0.00    -0.550 OA
ATOM      4  O   UNL     1      17.456   0.848 -14.974  1.00  0.00    -0.550 OA
ENDROOT
TORSDOF 0
ENDMDL
MODEL 5
REMARK VINA RESULT:    -2.494     19.096     19.257
REMARK INTER + INTRA:          -2.494
REMARK INTER:                  -2.494
REMARK INTRA:                   0.000
REMARK UNBOUND:                 0.000
REMARK SMILES CC(=O)[O-]
REMARK SMILES IDX 1 1 2 2 3 3 4 4
REMARK H PARENT
REMARK Flexibility Score: inf
ROOT
ATOM      1  C   UNL     1      26.783 -13.394 -25.914  1.00  0.00     0.063 C 
ATOM      2  C   UNL     1      26.108 -13.071 -24.624  1.00  0.00     0.038 C 
ATOM      3  O   UNL     1      25.303 -13.891 -24.109  1.00  0.00    -0.550 OA
ATOM      4  O   UNL     1      26.405 -11.887 -23.961  1.00  0.00    -0.550 OA
ENDROOT
TORSDOF 0
ENDMDL
MODEL 6
REMARK VINA RESULT:    -2.484      9.468      9.896
REMARK INTER + INTRA:          -2.484
REMARK INTER:                  -2.484
REMARK INTRA:                   0.000
REMARK UNBOUND:                 0.000
REMARK SMILES CC(=O)[O-]
REMARK SMILES IDX 1 1 2 2 3 3 4 4
REMARK H PARENT
REMARK Flexibility Score: inf
ROOT
ATOM      1  C   UNL     1      16.377   0.178 -23.959  1.00  0.00     0.063 C 
ATOM      2  C   UNL     1      16.025   0.336 -25.400  1.00  0.00     0.038 C 
ATOM      3  O   UNL     1      16.380  -0.534 -26.237  1.00  0.00    -0.550 OA
ATOM      4  O   UNL     1      15.259   1.418 -25.813  1.00  0.00    -0.550 OA
ENDROOT
TORSDOF 0
ENDMDL
MODEL 7
REMARK VINA RESULT:    -2.454     19.737     19.902
REMARK INTER + INTRA:          -2.454
REMARK INTER:                  -2.454
REMARK INTRA:                   0.000
REMARK UNBOUND:                 0.000
REMARK SMILES CC(=O)[O-]
REMARK SMILES IDX 1 1 2 2 3 3 4 4
REMARK H PARENT
REMARK Flexibility Score: inf
ROOT
ATOM      1  C   UNL     1      26.142 -12.128 -24.711  1.00  0.00     0.063 C 
ATOM      2  C   UNL     1      26.359 -13.540 -25.138  1.00  0.00     0.038 C 
ATOM      3  O   UNL     1      27.170 -13.803 -26.065  1.00  0.00    -0.550 OA
ATOM      4  O   UNL     1      25.705 -14.574 -24.480  1.00  0.00    -0.550 OA
ENDROOT
TORSDOF 0
ENDMDL
MODEL 8
REMARK VINA RESULT:    -2.431      4.989      5.086
REMARK INTER + INTRA:          -2.431
REMARK INTER:                  -2.431
REMARK INTRA:                   0.000
REMARK UNBOUND:                 0.000
REMARK SMILES CC(=O)[O-]
REMARK SMILES IDX 1 1 2 2 3 3 4 4
REMARK H PARENT
REMARK Flexibility Score: inf
ROOT
ATOM      1  C   UNL     1      20.148  -1.820 -16.481  1.00  0.00     0.063 C 
ATOM      2  C   UNL     1      19.784  -2.378 -17.815  1.00  0.00     0.038 C 
ATOM      3  O   UNL     1      19.361  -3.560 -17.912  1.00  0.00    -0.550 OA
ATOM      4  O   UNL     1      19.861  -1.579 -18.948  1.00  0.00    -0.550 OA
ENDROOT
TORSDOF 0
ENDMDL
MODEL 9
REMARK VINA RESULT:    -2.384     17.166     17.380
REMARK INTER + INTRA:          -2.384
REMARK INTER:                  -2.384
REMARK INTRA:                   0.000
REMARK UNBOUND:                 0.000
REMARK SMILES CC(=O)[O-]
REMARK SMILES IDX 1 1 2 2 3 3 4 4
REMARK H PARENT
REMARK Flexibility Score: inf
ROOT
ATOM      1  C   UNL     1      12.113 -15.062 -17.277  1.00  0.00     0.063 C 
ATOM      2  C   UNL     1      13.035 -14.794 -16.136  1.00  0.00     0.038 C 
ATOM      3  O   UNL     1      12.572 -14.591 -14.983  1.00  0.00    -0.550 OA
ATOM      4  O   UNL     1      14.410 -14.821 -16.333  1.00  0.00    -0.550 OA
ENDROOT
TORSDOF 0
ENDMDL
