MODEL 1
REMARK VINA RESULT:    23.464      0.000      0.000
REMARK INTER + INTRA:          36.476
REMARK INTER:                  35.809
REMARK INTRA:                   0.667
REMARK UNBOUND:                 0.667
REMARK SMILES CC1=CCC[C@@H](C)C(=O)C[C@H](C(C)C)C(=O)C1
REMARK SMILES IDX 8 1 9 2 6 3 7 4 5 5 4 6 3 7 2 8 1 9 10 11 11 12 15 13 16 14
REMARK SMILES IDX 17 15 12 17 13 18 14 19
REMARK H PARENT
REMARK Flexibility Score: 70.00
ROOT
ATOM      1  C   UNL     1       4.460  74.345  19.136  1.00  0.00     0.136 C 
ATOM      2  O   UNL     1       4.981  74.009  20.188  1.00  0.00    -0.299 OA
ENDROOT
BRANCH   1   3
ATOM      3  C   UNL     1       3.897  73.260  18.230  1.00  0.00     0.053 C 
ATOM      4  C   UNL     1       4.701  71.960  18.360  1.00  0.00     0.016 C 
BRANCH   3   5
ATOM      5  C   UNL     1       3.820  73.723  16.762  1.00  0.00     0.015 C 
BRANCH   5   6
ATOM      6  C   UNL     1       2.366  74.001  16.340  1.00  0.00     0.028 C 
BRANCH   6   7
ATOM      7  C   UNL     1       1.338  73.309  17.198  1.00  0.00    -0.028 C 
ATOM      8  C   UNL     1       0.723  73.823  18.294  1.00  0.00    -0.070 CG0
ATOM      9  C   UNL     1      -0.151  72.885  19.093  1.00  0.00     0.039 C 
ATOM     10  G   UNL     1       0.762  75.292  18.707  1.00  0.00     0.000 G0
ENDBRANCH   6   7
ENDBRANCH   5   6
ENDBRANCH   3   5
ENDBRANCH   1   3
BRANCH   1  11
ATOM     11  C   UNL     1       4.444  75.812  18.747  1.00  0.00     0.087 C 
BRANCH  11  12
ATOM     12  C   UNL     1       3.071  76.542  18.867  1.00  0.00     0.066 C 
BRANCH  12  13
ATOM     13  C   UNL     1       1.988  75.700  19.528  1.00  0.00     0.140 C 
ATOM     14  O   UNL     1       2.036  75.455  20.724  1.00  0.00    -0.299 OA
BRANCH  13  15
ATOM     15  C   UNL     1       0.773  75.298  18.726  1.00  0.00     0.106 CG0
ATOM     16  G   UNL     1       0.709  73.832  18.304  1.00  0.00     0.000 G0
ENDBRANCH  13  15
ENDBRANCH  12  13
BRANCH  12  17
ATOM     17  C   UNL     1       3.122  78.012  19.404  1.00  0.00    -0.006 C 
ATOM     18  C   UNL     1       1.950  78.314  20.354  1.00  0.00     0.008 C 
ATOM     19  C   UNL     1       3.192  79.088  18.311  1.00  0.00     0.008 C 
ENDBRANCH  12  17
ENDBRANCH  11  12
ENDBRANCH   1  11
TORSDOF 1
ENDMDL
MODEL 2
REMARK VINA RESULT:    25.152      1.521      4.123
REMARK INTER + INTRA:          39.053
REMARK INTER:                  38.005
REMARK INTRA:                   1.048
REMARK UNBOUND:                 0.667
REMARK SMILES CC1=CCC[C@@H](C)C(=O)C[C@H](C(C)C)C(=O)C1
REMARK SMILES IDX 8 1 9 2 6 3 7 4 5 5 4 6 3 7 2 8 1 9 10 11 11 12 15 13 16 14
REMARK SMILES IDX 17 15 12 17 13 18 14 19
REMARK H PARENT
REMARK Flexibility Score: 70.00
ROOT
ATOM      1  C   UNL     1       4.216  76.004  18.629  1.00  0.00     0.136 C 
ATOM      2  O   UNL     1       5.064  76.633  18.017  1.00  0.00    -0.299 OA
ENDROOT
BRANCH   1   3
ATOM      3  C   UNL     1       2.885  76.682  18.922  1.00  0.00     0.053 C 
ATOM      4  C   UNL     1       3.095  78.118  19.418  1.00  0.00     0.016 C 
BRANCH   3   5
ATOM      5  C   UNL     1       2.033  75.867  19.914  1.00  0.00     0.015 C 
BRANCH   5   6
ATOM      6  C   UNL     1       0.683  75.466  19.292  1.00  0.00     0.028 C 
BRANCH   6   7
ATOM      7  C   UNL     1       0.489  73.977  19.162  1.00  0.00    -0.028 C 
ATOM      8  C   UNL     1       0.802  73.214  18.083  1.00  0.00    -0.070 CG0
ATOM      9  C   UNL     1       0.366  71.769  18.116  1.00  0.00     0.039 C 
ATOM     10  G   UNL     1       1.654  73.678  16.904  1.00  0.00     0.000 G0
ENDBRANCH   6   7
ENDBRANCH   5   6
ENDBRANCH   3   5
ENDBRANCH   1   3
BRANCH   1  11
ATOM     11  C   UNL     1       4.536  74.605  19.123  1.00  0.00     0.087 C 
BRANCH  11  12
ATOM     12  C   UNL     1       3.701  73.446  18.499  1.00  0.00     0.066 C 
BRANCH  12  13
ATOM     13  C   UNL     1       3.136  73.773  17.123  1.00  0.00     0.140 C 
ATOM     14  O   UNL     1       3.882  74.015  16.187  1.00  0.00    -0.299 OA
BRANCH  13  15
ATOM     15  C   UNL     1       1.650  73.647  16.886  1.00  0.00     0.106 CG0
ATOM     16  G   UNL     1       0.816  73.228  18.095  1.00  0.00     0.000 G0
ENDBRANCH  13  15
ENDBRANCH  12  13
BRANCH  12  17
ATOM     17  C   UNL     1       4.344  72.020  18.577  1.00  0.00    -0.006 C 
ATOM     18  C   UNL     1       5.245  71.865  19.815  1.00  0.00     0.008 C 
ATOM     19  C   UNL     1       5.117  71.600  17.319  1.00  0.00     0.008 C 
ENDBRANCH  12  17
ENDBRANCH  11  12
ENDBRANCH   1  11
TORSDOF 1
ENDMDL
MODEL 3
REMARK VINA RESULT:    25.417      1.725      3.427
REMARK INTER + INTRA:          39.458
REMARK INTER:                  36.893
REMARK INTRA:                   2.565
REMARK UNBOUND:                 0.667
REMARK SMILES CC1=CCC[C@@H](C)C(=O)C[C@H](C(C)C)C(=O)C1
REMARK SMILES IDX 8 1 9 2 6 3 7 4 5 5 4 6 3 7 2 8 1 9 10 11 11 12 15 13 16 14
REMARK SMILES IDX 17 15 12 17 13 18 14 19
REMARK H PARENT
REMARK Flexibility Score: 70.00
ROOT
ATOM      1  C   UNL     1       0.721  75.204  18.622  1.00  0.00     0.136 C 
ATOM      2  O   UNL     1       0.199  76.258  18.295  1.00  0.00    -0.299 OA
ENDROOT
BRANCH   1   3
ATOM      3  C   UNL     1       0.361  73.947  17.844  1.00  0.00     0.053 C 
ATOM      4  C   UNL     1       0.410  72.707  18.746  1.00  0.00     0.016 C 
BRANCH   3   5
ATOM      5  C   UNL     1       1.254  73.767  16.601  1.00  0.00     0.015 C 
BRANCH   5   6
ATOM      6  C   UNL     1       2.730  74.056  16.928  1.00  0.00     0.028 C 
BRANCH   6   7
ATOM      7  C   UNL     1       3.491  72.856  17.431  1.00  0.00    -0.028 C 
ATOM      8  C   UNL     1       4.329  72.822  18.499  1.00  0.00    -0.070 CG0
ATOM      9  C   UNL     1       5.110  71.547  18.718  1.00  0.00     0.039 C 
ATOM     10  G   UNL     1       4.451  73.925  19.548  1.00  0.00     0.000 G0
ENDBRANCH   6   7
ENDBRANCH   5   6
ENDBRANCH   3   5
ENDBRANCH   1   3
BRANCH   1  11
ATOM     11  C   UNL     1       1.654  75.174  19.819  1.00  0.00     0.087 C 
BRANCH  11  12
ATOM     12  C   UNL     1       2.927  76.069  19.723  1.00  0.00     0.066 C 
BRANCH  12  13
ATOM     13  C   UNL     1       4.130  75.356  19.119  1.00  0.00     0.140 C 
ATOM     14  O   UNL     1       4.896  75.951  18.377  1.00  0.00    -0.299 OA
BRANCH  13  15
ATOM     15  C   UNL     1       4.455  73.950  19.563  1.00  0.00     0.106 CG0
ATOM     16  G   UNL     1       4.338  72.869  18.491  1.00  0.00     0.000 G0
ENDBRANCH  13  15
ENDBRANCH  12  13
BRANCH  12  17
ATOM     17  C   UNL     1       2.711  77.508  19.144  1.00  0.00    -0.006 C 
ATOM     18  C   UNL     1       3.802  77.886  18.128  1.00  0.00     0.008 C 
ATOM     19  C   UNL     1       2.590  78.610  20.207  1.00  0.00     0.008 C 
ENDBRANCH  12  17
ENDBRANCH  11  12
ENDBRANCH   1  11
TORSDOF 1
ENDMDL
MODEL 4
REMARK VINA RESULT:    25.578      1.877      4.473
REMARK INTER + INTRA:          39.702
REMARK INTER:                  38.646
REMARK INTRA:                   1.056
REMARK UNBOUND:                 0.667
REMARK SMILES CC1=CCC[C@@H](C)C(=O)C[C@H](C(C)C)C(=O)C1
REMARK SMILES IDX 8 1 9 2 6 3 7 4 5 5 4 6 3 7 2 8 1 9 10 11 11 12 15 13 16 14
REMARK SMILES IDX 17 15 12 17 13 18 14 19
REMARK H PARENT
REMARK Flexibility Score: 70.00
ROOT
ATOM      1  C   UNL     1       2.169  73.666  16.936  1.00  0.00     0.136 C 
ATOM      2  O   UNL     1       1.674  73.128  15.959  1.00  0.00    -0.299 OA
ENDROOT
BRANCH   1   3
ATOM      3  C   UNL     1       1.420  73.594  18.259  1.00  0.00     0.053 C 
ATOM      4  C   UNL     1       0.295  72.553  18.199  1.00  0.00     0.016 C 
BRANCH   3   5
ATOM      5  C   UNL     1       0.882  74.972  18.690  1.00  0.00     0.015 C 
BRANCH   5   6
ATOM      6  C   UNL     1       1.624  75.497  19.932  1.00  0.00     0.028 C 
BRANCH   6   7
ATOM      7  C   UNL     1       1.911  76.976  19.894  1.00  0.00    -0.028 C 
ATOM      8  C   UNL     1       2.951  77.580  19.264  1.00  0.00    -0.070 CG0
ATOM      9  C   UNL     1       3.129  79.062  19.500  1.00  0.00     0.039 C 
ATOM     10  G   UNL     1       3.875  76.900  18.256  1.00  0.00     0.000 G0
ENDBRANCH   6   7
ENDBRANCH   5   6
ENDBRANCH   3   5
ENDBRANCH   1   3
BRANCH   1  11
ATOM     11  C   UNL     1       3.471  74.432  16.786  1.00  0.00     0.087 C 
BRANCH  11  12
ATOM     12  C   UNL     1       4.463  74.347  17.985  1.00  0.00     0.066 C 
BRANCH  12  13
ATOM     13  C   UNL     1       4.631  75.663  18.733  1.00  0.00     0.140 C 
ATOM     14  O   UNL     1       5.452  75.765  19.633  1.00  0.00    -0.299 OA
BRANCH  13  15
ATOM     15  C   UNL     1       3.885  76.885  18.255  1.00  0.00     0.106 CG0
ATOM     16  G   UNL     1       2.988  77.564  19.288  1.00  0.00     0.000 G0
ENDBRANCH  13  15
ENDBRANCH  12  13
BRANCH  12  17
ATOM     17  C   UNL     1       4.283  73.117  18.938  1.00  0.00    -0.006 C 
ATOM     18  C   UNL     1       4.879  73.379  20.331  1.00  0.00     0.008 C 
ATOM     19  C   UNL     1       4.831  71.795  18.382  1.00  0.00     0.008 C 
ENDBRANCH  12  17
ENDBRANCH  11  12
ENDBRANCH   1  11
TORSDOF 1
ENDMDL
MODEL 5
REMARK VINA RESULT:    26.063      1.629      4.172
REMARK INTER + INTRA:          40.443
REMARK INTER:                  39.546
REMARK INTRA:                   0.897
REMARK UNBOUND:                 0.667
REMARK SMILES CC1=CCC[C@@H](C)C(=O)C[C@H](C(C)C)C(=O)C1
REMARK SMILES IDX 8 1 9 2 6 3 7 4 5 5 4 6 3 7 2 8 1 9 10 11 11 12 15 13 16 14
REMARK SMILES IDX 17 15 12 17 13 18 14 19
REMARK H PARENT
REMARK Flexibility Score: 70.00
ROOT
ATOM      1  C   UNL     1       3.123  73.670  16.847  1.00  0.00     0.136 C 
ATOM      2  O   UNL     1       3.405  74.268  15.821  1.00  0.00    -0.299 OA
ENDROOT
BRANCH   1   3
ATOM      3  C   UNL     1       4.252  73.276  17.788  1.00  0.00     0.053 C 
ATOM      4  C   UNL     1       4.258  71.763  18.038  1.00  0.00     0.016 C 
BRANCH   3   5
ATOM      5  C   UNL     1       4.194  74.060  19.113  1.00  0.00     0.015 C 
BRANCH   5   6
ATOM      6  C   UNL     1       5.073  75.321  19.054  1.00  0.00     0.028 C 
BRANCH   6   7
ATOM      7  C   UNL     1       4.296  76.612  19.111  1.00  0.00    -0.028 C 
ATOM      8  C   UNL     1       2.968  76.743  19.358  1.00  0.00    -0.070 CG0
ATOM      9  C   UNL     1       2.374  78.123  19.203  1.00  0.00     0.039 C 
ATOM     10  G   UNL     1       2.065  75.631  19.886  1.00  0.00     0.000 G0
ENDBRANCH   6   7
ENDBRANCH   5   6
ENDBRANCH   3   5
ENDBRANCH   1   3
BRANCH   1  11
ATOM     11  C   UNL     1       1.678  73.291  17.116  1.00  0.00     0.087 C 
BRANCH  11  12
ATOM     12  C   UNL     1       1.147  73.573  18.554  1.00  0.00     0.066 C 
BRANCH  12  13
ATOM     13  C   UNL     1       1.048  75.056  18.888  1.00  0.00     0.140 C 
ATOM     14  O   UNL     1       0.129  75.731  18.451  1.00  0.00    -0.299 OA
BRANCH  13  15
ATOM     15  C   UNL     1       2.010  75.653  19.889  1.00  0.00     0.106 CG0
ATOM     16  G   UNL     1       2.956  76.722  19.346  1.00  0.00     0.000 G0
ENDBRANCH  13  15
ENDBRANCH  12  13
BRANCH  12  17
ATOM     17  C   UNL     1      -0.118  72.759  18.990  1.00  0.00    -0.006 C 
ATOM     18  C   UNL     1      -0.236  72.662  20.521  1.00  0.00     0.008 C 
ATOM     19  C   UNL     1      -0.215  71.356  18.374  1.00  0.00     0.008 C 
ENDBRANCH  12  17
ENDBRANCH  11  12
ENDBRANCH   1  11
TORSDOF 1
ENDMDL
