MODEL 1
REMARK VINA RESULT:    -4.621      0.000      0.000
REMARK INTER + INTRA:         -10.188
REMARK INTER:                  -8.943
REMARK INTRA:                  -1.246
REMARK UNBOUND:                -1.246
REMARK SMILES CCCCCCCCCCCCCCCCCC(=O)[O-]
REMARK SMILES IDX 10 1 11 2 12 3 13 4 14 5 15 6 16 7 17 8 18 9 19 10 20 11
REMARK SMILES IDX 9 12 8 13 7 14 6 15 5 16 4 17 3 18 2 19 1 20
REMARK H PARENT
REMARK Flexibility Score: inf
ROOT
ATOM      1  C   UNL     1       7.486  -4.545  -4.552  1.00  0.00     0.000 C 
ENDROOT
BRANCH   1   2
ATOM      2  C   UNL     1       8.678  -4.650  -3.578  1.00  0.00     0.000 C 
BRANCH   2   3
ATOM      3  C   UNL     1       8.843  -6.044  -2.939  1.00  0.00     0.000 C 
BRANCH   3   4
ATOM      4  C   UNL     1       8.342  -7.218  -3.799  1.00  0.00     0.000 C 
BRANCH   4   5
ATOM      5  C   UNL     1       8.337  -8.555  -3.042  1.00  0.00     0.000 C 
BRANCH   5   6
ATOM      6  C   UNL     1       8.283  -8.318  -1.526  1.00  0.00     0.000 C 
BRANCH   6   7
ATOM      7  C   UNL     1       7.499  -9.414  -0.780  1.00  0.00     0.006 C 
BRANCH   7   8
ATOM      8  C   UNL     1       7.798  -9.488   0.726  1.00  0.00     0.053 C 
BRANCH   8   9
ATOM      9  C   UNL     1       6.566  -9.766   1.532  1.00  0.00     0.041 C 
ATOM     10  O   UNL     1       5.431  -9.722   0.989  1.00  0.00    -0.550 OA
ATOM     11  O   UNL     1       6.674 -10.102   2.877  1.00  0.00    -0.550 OA
ENDBRANCH   8   9
ENDBRANCH   7   8
ENDBRANCH   6   7
ENDBRANCH   5   6
ENDBRANCH   4   5
ENDBRANCH   3   4
ENDBRANCH   2   3
ENDBRANCH   1   2
BRANCH   1  12
ATOM     12  C   UNL     1       7.654  -3.386  -5.552  1.00  0.00     0.000 C 
BRANCH  12  13
ATOM     13  C   UNL     1       7.984  -3.869  -6.973  1.00  0.00    -0.000 C 
BRANCH  13  14
ATOM     14  C   UNL     1       8.900  -5.106  -6.971  1.00  0.00    -0.000 C 
BRANCH  14  15
ATOM     15  C   UNL     1       8.432  -6.184  -7.962  1.00  0.00    -0.000 C 
BRANCH  15  16
ATOM     16  C   UNL     1       8.705  -7.609  -7.455  1.00  0.00    -0.000 C 
BRANCH  16  17
ATOM     17  C   UNL     1       7.805  -8.627  -8.165  1.00  0.00    -0.000 C 
BRANCH  17  18
ATOM     18  C   UNL     1       7.080  -7.983  -9.356  1.00  0.00    -0.000 C 
BRANCH  18  19
ATOM     19  C   UNL     1       5.914  -8.842  -9.872  1.00  0.00    -0.003 C 
ATOM     20  C   UNL     1       5.138  -9.522  -8.744  1.00  0.00     0.004 C 
ENDBRANCH  18  19
ENDBRANCH  17  18
ENDBRANCH  16  17
ENDBRANCH  15  16
ENDBRANCH  14  15
ENDBRANCH  13  14
ENDBRANCH  12  13
ENDBRANCH   1  12
TORSDOF 16
ENDMDL
MODEL 2
REMARK VINA RESULT:    -4.517      1.147      2.471
REMARK INTER + INTRA:          -9.988
REMARK INTER:                  -9.124
REMARK INTRA:                  -0.864
REMARK UNBOUND:                -1.246
REMARK SMILES CCCCCCCCCCCCCCCCCC(=O)[O-]
REMARK SMILES IDX 10 1 11 2 12 3 13 4 14 5 15 6 16 7 17 8 18 9 19 10 20 11
REMARK SMILES IDX 9 12 8 13 7 14 6 15 5 16 4 17 3 18 2 19 1 20
REMARK H PARENT
REMARK Flexibility Score: inf
ROOT
ATOM      1  C   UNL     1       8.899  -6.123  -3.588  1.00  0.00     0.000 C 
ENDROOT
BRANCH   1   2
ATOM      2  C   UNL     1       8.696  -7.065  -2.383  1.00  0.00     0.000 C 
BRANCH   2   3
ATOM      3  C   UNL     1       7.986  -8.387  -2.736  1.00  0.00     0.000 C 
BRANCH   3   4
ATOM      4  C   UNL     1       7.746  -9.336  -1.548  1.00  0.00     0.000 C 
BRANCH   4   5
ATOM      5  C   UNL     1       8.488  -8.898  -0.275  1.00  0.00     0.000 C 
BRANCH   5   6
ATOM      6  C   UNL     1       8.228  -9.888   0.871  1.00  0.00     0.000 C 
BRANCH   6   7
ATOM      7  C   UNL     1       6.865  -9.666   1.550  1.00  0.00     0.006 C 
BRANCH   7   8
ATOM      8  C   UNL     1       6.316 -10.904   2.279  1.00  0.00     0.053 C 
BRANCH   8   9
ATOM      9  C   UNL     1       5.428 -10.533   3.428  1.00  0.00     0.041 C 
ATOM     10  O   UNL     1       5.679 -10.960   4.586  1.00  0.00    -0.550 OA
ATOM     11  O   UNL     1       4.340  -9.693   3.225  1.00  0.00    -0.550 OA
ENDBRANCH   8   9
ENDBRANCH   7   8
ENDBRANCH   6   7
ENDBRANCH   5   6
ENDBRANCH   4   5
ENDBRANCH   3   4
ENDBRANCH   2   3
ENDBRANCH   1   2
BRANCH   1  12
ATOM     12  C   UNL     1       8.014  -4.866  -3.496  1.00  0.00     0.000 C 
BRANCH  12  13
ATOM     13  C   UNL     1       7.255  -4.575  -4.800  1.00  0.00    -0.000 C 
BRANCH  13  14
ATOM     14  C   UNL     1       8.030  -3.622  -5.727  1.00  0.00    -0.000 C 
BRANCH  14  15
ATOM     15  C   UNL     1       8.776  -4.369  -6.845  1.00  0.00    -0.000 C 
BRANCH  15  16
ATOM     16  C   UNL     1       7.953  -5.528  -7.430  1.00  0.00    -0.000 C 
BRANCH  16  17
ATOM     17  C   UNL     1       8.836  -6.461  -8.266  1.00  0.00    -0.000 C 
BRANCH  17  18
ATOM     18  C   UNL     1       8.156  -7.825  -8.469  1.00  0.00    -0.000 C 
BRANCH  18  19
ATOM     19  C   UNL     1       7.254  -7.855  -9.713  1.00  0.00    -0.003 C 
ATOM     20  C   UNL     1       6.137  -8.892  -9.606  1.00  0.00     0.004 C 
ENDBRANCH  18  19
ENDBRANCH  17  18
ENDBRANCH  16  17
ENDBRANCH  15  16
ENDBRANCH  14  15
ENDBRANCH  13  14
ENDBRANCH  12  13
ENDBRANCH   1  12
TORSDOF 16
ENDMDL
MODEL 3
REMARK VINA RESULT:    -4.438      0.778      1.301
REMARK INTER + INTRA:          -9.834
REMARK INTER:                  -8.790
REMARK INTRA:                  -1.045
REMARK UNBOUND:                -1.246
REMARK SMILES CCCCCCCCCCCCCCCCCC(=O)[O-]
REMARK SMILES IDX 10 1 11 2 12 3 13 4 14 5 15 6 16 7 17 8 18 9 19 10 20 11
REMARK SMILES IDX 9 12 8 13 7 14 6 15 5 16 4 17 3 18 2 19 1 20
REMARK H PARENT
REMARK Flexibility Score: inf
ROOT
ATOM      1  C   UNL     1       8.945  -4.385  -3.973  1.00  0.00     0.000 C 
ENDROOT
BRANCH   1   2
ATOM      2  C   UNL     1       8.873  -5.641  -3.079  1.00  0.00     0.000 C 
BRANCH   2   3
ATOM      3  C   UNL     1       8.943  -6.969  -3.859  1.00  0.00     0.000 C 
BRANCH   3   4
ATOM      4  C   UNL     1       8.706  -8.234  -3.015  1.00  0.00     0.000 C 
BRANCH   4   5
ATOM      5  C   UNL     1       7.969  -7.945  -1.698  1.00  0.00     0.000 C 
BRANCH   5   6
ATOM      6  C   UNL     1       8.731  -8.546  -0.508  1.00  0.00     0.000 C 
BRANCH   6   7
ATOM      7  C   UNL     1       8.230  -9.951  -0.129  1.00  0.00     0.006 C 
BRANCH   7   8
ATOM      8  C   UNL     1       7.991 -10.149   1.377  1.00  0.00     0.053 C 
BRANCH   8   9
ATOM      9  C   UNL     1       6.568  -9.877   1.762  1.00  0.00     0.041 C 
ATOM     10  O   UNL     1       6.265  -9.680   2.968  1.00  0.00    -0.550 OA
ATOM     11  O   UNL     1       5.582  -9.811   0.784  1.00  0.00    -0.550 OA
ENDBRANCH   8   9
ENDBRANCH   7   8
ENDBRANCH   6   7
ENDBRANCH   5   6
ENDBRANCH   4   5
ENDBRANCH   3   4
ENDBRANCH   2   3
ENDBRANCH   1   2
BRANCH   1  12
ATOM     12  C   UNL     1       7.577  -4.032  -4.586  1.00  0.00     0.000 C 
BRANCH  12  13
ATOM     13  C   UNL     1       7.582  -4.084  -6.122  1.00  0.00    -0.000 C 
BRANCH  13  14
ATOM     14  C   UNL     1       8.968  -4.442  -6.689  1.00  0.00    -0.000 C 
BRANCH  14  15
ATOM     15  C   UNL     1       9.039  -5.892  -7.194  1.00  0.00    -0.000 C 
BRANCH  15  16
ATOM     16  C   UNL     1       7.946  -6.211  -8.227  1.00  0.00    -0.000 C 
BRANCH  16  17
ATOM     17  C   UNL     1       8.076  -7.650  -8.738  1.00  0.00    -0.000 C 
BRANCH  17  18
ATOM     18  C   UNL     1       6.755  -8.136  -9.354  1.00  0.00    -0.000 C 
BRANCH  18  19
ATOM     19  C   UNL     1       6.212  -9.398  -8.664  1.00  0.00    -0.003 C 
ATOM     20  C   UNL     1       4.690  -9.512  -8.757  1.00  0.00     0.004 C 
ENDBRANCH  18  19
ENDBRANCH  17  18
ENDBRANCH  16  17
ENDBRANCH  15  16
ENDBRANCH  14  15
ENDBRANCH  13  14
ENDBRANCH  12  13
ENDBRANCH   1  12
TORSDOF 16
ENDMDL
MODEL 4
REMARK VINA RESULT:    -4.159      3.642      6.972
REMARK INTER + INTRA:          -9.295
REMARK INTER:                  -7.643
REMARK INTRA:                  -1.652
REMARK UNBOUND:                -1.246
REMARK SMILES CCCCCCCCCCCCCCCCCC(=O)[O-]
REMARK SMILES IDX 10 1 11 2 12 3 13 4 14 5 15 6 16 7 17 8 18 9 19 10 20 11
REMARK SMILES IDX 9 12 8 13 7 14 6 15 5 16 4 17 3 18 2 19 1 20
REMARK H PARENT
REMARK Flexibility Score: inf
ROOT
ATOM      1  C   UNL     1       7.718  -3.966  -4.301  1.00  0.00     0.000 C 
ENDROOT
BRANCH   1   2
ATOM      2  C   UNL     1       7.626  -4.239  -5.818  1.00  0.00     0.000 C 
BRANCH   2   3
ATOM      3  C   UNL     1       8.977  -4.587  -6.473  1.00  0.00     0.000 C 
BRANCH   3   4
ATOM      4  C   UNL     1       9.123  -6.051  -6.926  1.00  0.00     0.000 C 
BRANCH   4   5
ATOM      5  C   UNL     1       9.009  -6.220  -8.449  1.00  0.00     0.000 C 
BRANCH   5   6
ATOM      6  C   UNL     1       7.639  -6.800  -8.829  1.00  0.00     0.000 C 
BRANCH   6   7
ATOM      7  C   UNL     1       7.746  -8.028  -9.751  1.00  0.00     0.006 C 
BRANCH   7   8
ATOM      8  C   UNL     1       6.950  -9.250  -9.267  1.00  0.00     0.053 C 
BRANCH   8   9
ATOM      9  C   UNL     1       5.485  -9.118  -9.553  1.00  0.00     0.041 C 
ATOM     10  O   UNL     1       5.094  -8.680 -10.666  1.00  0.00    -0.550 OA
ATOM     11  O   UNL     1       4.551  -9.507  -8.599  1.00  0.00    -0.550 OA
ENDBRANCH   8   9
ENDBRANCH   7   8
ENDBRANCH   6   7
ENDBRANCH   5   6
ENDBRANCH   4   5
ENDBRANCH   3   4
ENDBRANCH   2   3
ENDBRANCH   1   2
BRANCH   1  12
ATOM     12  C   UNL     1       8.666  -4.951  -3.592  1.00  0.00     0.000 C 
BRANCH  12  13
ATOM     13  C   UNL     1       8.061  -6.355  -3.440  1.00  0.00    -0.000 C 
BRANCH  13  14
ATOM     14  C   UNL     1       8.686  -7.136  -2.270  1.00  0.00    -0.000 C 
BRANCH  14  15
ATOM     15  C   UNL     1       7.821  -8.328  -1.831  1.00  0.00    -0.000 C 
BRANCH  15  16
ATOM     16  C   UNL     1       8.660  -9.508  -1.316  1.00  0.00    -0.000 C 
BRANCH  16  17
ATOM     17  C   UNL     1       8.677 -10.656  -2.333  1.00  0.00    -0.000 C 
BRANCH  17  18
ATOM     18  C   UNL     1       7.597 -10.454  -3.407  1.00  0.00    -0.000 C 
BRANCH  18  19
ATOM     19  C   UNL     1       8.158 -10.560  -4.834  1.00  0.00    -0.003 C 
ATOM     20  C   UNL     1       7.819  -9.341  -5.693  1.00  0.00     0.004 C 
ENDBRANCH  18  19
ENDBRANCH  17  18
ENDBRANCH  16  17
ENDBRANCH  15  16
ENDBRANCH  14  15
ENDBRANCH  13  14
ENDBRANCH  12  13
ENDBRANCH   1  12
TORSDOF 16
ENDMDL
MODEL 5
REMARK VINA RESULT:    -4.155      2.243      4.643
REMARK INTER + INTRA:          -9.287
REMARK INTER:                  -8.573
REMARK INTRA:                  -0.714
REMARK UNBOUND:                -1.246
REMARK SMILES CCCCCCCCCCCCCCCCCC(=O)[O-]
REMARK SMILES IDX 10 1 11 2 12 3 13 4 14 5 15 6 16 7 17 8 18 9 19 10 20 11
REMARK SMILES IDX 9 12 8 13 7 14 6 15 5 16 4 17 3 18 2 19 1 20
REMARK H PARENT
REMARK Flexibility Score: inf
ROOT
ATOM      1  C   UNL     1       7.825  -8.545  -2.222  1.00  0.00     0.000 C 
ENDROOT
BRANCH   1   2
ATOM      2  C   UNL     1       8.271  -9.353  -0.985  1.00  0.00     0.000 C 
BRANCH   2   3
ATOM      3  C   UNL     1       7.461  -9.044   0.290  1.00  0.00     0.000 C 
BRANCH   3   4
ATOM      4  C   UNL     1       7.532 -10.124   1.385  1.00  0.00     0.000 C 
BRANCH   4   5
ATOM      5  C   UNL     1       6.230 -10.243   2.192  1.00  0.00     0.000 C 
BRANCH   5   6
ATOM      6  C   UNL     1       6.535 -10.497   3.676  1.00  0.00     0.000 C 
BRANCH   6   7
ATOM      7  C   UNL     1       5.300 -10.312   4.577  1.00  0.00     0.006 C 
BRANCH   7   8
ATOM      8  C   UNL     1       3.998 -10.030   3.810  1.00  0.00     0.053 C 
BRANCH   8   9
ATOM      9  C   UNL     1       3.244  -8.870   4.387  1.00  0.00     0.041 C 
ATOM     10  O   UNL     1       2.642  -8.066   3.629  1.00  0.00    -0.550 OA
ATOM     11  O   UNL     1       3.183  -8.695   5.765  1.00  0.00    -0.550 OA
ENDBRANCH   8   9
ENDBRANCH   7   8
ENDBRANCH   6   7
ENDBRANCH   5   6
ENDBRANCH   4   5
ENDBRANCH   3   4
ENDBRANCH   2   3
ENDBRANCH   1   2
BRANCH   1  12
ATOM     12  C   UNL     1       8.423  -7.126  -2.233  1.00  0.00     0.000 C 
BRANCH  12  13
ATOM     13  C   UNL     1       8.342  -6.457  -3.614  1.00  0.00    -0.000 C 
BRANCH  13  14
ATOM     14  C   UNL     1       7.892  -4.987  -3.525  1.00  0.00    -0.000 C 
BRANCH  14  15
ATOM     15  C   UNL     1       8.035  -4.247  -4.864  1.00  0.00    -0.000 C 
BRANCH  15  16
ATOM     16  C   UNL     1       8.770  -5.083  -5.925  1.00  0.00    -0.000 C 
BRANCH  16  17
ATOM     17  C   UNL     1       8.249  -4.768  -7.331  1.00  0.00    -0.000 C 
BRANCH  17  18
ATOM     18  C   UNL     1       7.962  -6.059  -8.114  1.00  0.00    -0.000 C 
BRANCH  18  19
ATOM     19  C   UNL     1       9.026  -7.142  -7.875  1.00  0.00    -0.003 C 
ATOM     20  C   UNL     1       9.125  -8.137  -9.032  1.00  0.00     0.004 C 
ENDBRANCH  18  19
ENDBRANCH  17  18
ENDBRANCH  16  17
ENDBRANCH  15  16
ENDBRANCH  14  15
ENDBRANCH  13  14
ENDBRANCH  12  13
ENDBRANCH   1  12
TORSDOF 16
ENDMDL
MODEL 6
REMARK VINA RESULT:    -4.115      1.367      3.314
REMARK INTER + INTRA:          -9.210
REMARK INTER:                  -8.085
REMARK INTRA:                  -1.125
REMARK UNBOUND:                -1.246
REMARK SMILES CCCCCCCCCCCCCCCCCC(=O)[O-]
REMARK SMILES IDX 10 1 11 2 12 3 13 4 14 5 15 6 16 7 17 8 18 9 19 10 20 11
REMARK SMILES IDX 9 12 8 13 7 14 6 15 5 16 4 17 3 18 2 19 1 20
REMARK H PARENT
REMARK Flexibility Score: inf
ROOT
ATOM      1  C   UNL     1       8.036  -7.840  -4.119  1.00  0.00     0.000 C 
ENDROOT
BRANCH   1   2
ATOM      2  C   UNL     1       8.884  -9.017  -3.592  1.00  0.00     0.000 C 
BRANCH   2   3
ATOM      3  C   UNL     1       8.205  -9.821  -2.464  1.00  0.00     0.000 C 
BRANCH   3   4
ATOM      4  C   UNL     1       8.678  -9.474  -1.041  1.00  0.00     0.000 C 
BRANCH   4   5
ATOM      5  C   UNL     1       9.115 -10.709  -0.238  1.00  0.00     0.000 C 
BRANCH   5   6
ATOM      6  C   UNL     1       9.085 -10.414   1.268  1.00  0.00     0.000 C 
BRANCH   6   7
ATOM      7  C   UNL     1       7.832 -10.980   1.961  1.00  0.00     0.006 C 
BRANCH   7   8
ATOM      8  C   UNL     1       6.661  -9.988   2.054  1.00  0.00     0.053 C 
BRANCH   8   9
ATOM      9  C   UNL     1       5.884 -10.152   3.325  1.00  0.00     0.041 C 
ATOM     10  O   UNL     1       6.473 -10.465   4.392  1.00  0.00    -0.550 OA
ATOM     11  O   UNL     1       4.512  -9.929   3.336  1.00  0.00    -0.550 OA
ENDBRANCH   8   9
ENDBRANCH   7   8
ENDBRANCH   6   7
ENDBRANCH   5   6
ENDBRANCH   4   5
ENDBRANCH   3   4
ENDBRANCH   2   3
ENDBRANCH   1   2
BRANCH   1  12
ATOM     12  C   UNL     1       8.100  -6.616  -3.187  1.00  0.00     0.000 C 
BRANCH  12  13
ATOM     13  C   UNL     1       8.540  -5.336  -3.914  1.00  0.00    -0.000 C 
BRANCH  13  14
ATOM     14  C   UNL     1       7.387  -4.683  -4.697  1.00  0.00    -0.000 C 
BRANCH  14  15
ATOM     15  C   UNL     1       7.877  -3.602  -5.673  1.00  0.00    -0.000 C 
BRANCH  15  16
ATOM     16  C   UNL     1       8.726  -4.181  -6.816  1.00  0.00    -0.000 C 
BRANCH  16  17
ATOM     17  C   UNL     1       8.065  -5.428  -7.414  1.00  0.00    -0.000 C 
BRANCH  17  18
ATOM     18  C   UNL     1       9.057  -6.600  -7.476  1.00  0.00    -0.000 C 
BRANCH  18  19
ATOM     19  C   UNL     1       8.550  -7.756  -8.353  1.00  0.00    -0.003 C 
ATOM     20  C   UNL     1       7.308  -7.383  -9.161  1.00  0.00     0.004 C 
ENDBRANCH  18  19
ENDBRANCH  17  18
ENDBRANCH  16  17
ENDBRANCH  15  16
ENDBRANCH  14  15
ENDBRANCH  13  14
ENDBRANCH  12  13
ENDBRANCH   1  12
TORSDOF 16
ENDMDL
MODEL 7
REMARK VINA RESULT:    -4.069      4.531      7.189
REMARK INTER + INTRA:          -9.120
REMARK INTER:                  -7.399
REMARK INTRA:                  -1.722
REMARK UNBOUND:                -1.246
REMARK SMILES CCCCCCCCCCCCCCCCCC(=O)[O-]
REMARK SMILES IDX 10 1 11 2 12 3 13 4 14 5 15 6 16 7 17 8 18 9 19 10 20 11
REMARK SMILES IDX 9 12 8 13 7 14 6 15 5 16 4 17 3 18 2 19 1 20
REMARK H PARENT
REMARK Flexibility Score: inf
ROOT
ATOM      1  C   UNL     1       7.787  -4.493  -7.078  1.00  0.00     0.000 C 
ENDROOT
BRANCH   1   2
ATOM      2  C   UNL     1       9.125  -5.005  -7.654  1.00  0.00     0.000 C 
BRANCH   2   3
ATOM      3  C   UNL     1       9.038  -6.410  -8.283  1.00  0.00     0.000 C 
BRANCH   3   4
ATOM      4  C   UNL     1       7.640  -7.054  -8.249  1.00  0.00     0.000 C 
BRANCH   4   5
ATOM      5  C   UNL     1       7.625  -8.481  -8.816  1.00  0.00     0.000 C 
BRANCH   5   6
ATOM      6  C   UNL     1       6.312  -8.752  -9.566  1.00  0.00     0.000 C 
BRANCH   6   7
ATOM      7  C   UNL     1       5.254  -9.438  -8.682  1.00  0.00     0.006 C 
BRANCH   7   8
ATOM      8  C   UNL     1       4.225 -10.271  -9.464  1.00  0.00     0.053 C 
BRANCH   8   9
ATOM      9  C   UNL     1       3.853  -9.630 -10.767  1.00  0.00     0.041 C 
ATOM     10  O   UNL     1       4.352 -10.049 -11.844  1.00  0.00    -0.550 OA
ATOM     11  O   UNL     1       2.933  -8.588 -10.793  1.00  0.00    -0.550 OA
ENDBRANCH   8   9
ENDBRANCH   7   8
ENDBRANCH   6   7
ENDBRANCH   5   6
ENDBRANCH   4   5
ENDBRANCH   3   4
ENDBRANCH   2   3
ENDBRANCH   1   2
BRANCH   1  12
ATOM     12  C   UNL     1       7.980  -3.740  -5.749  1.00  0.00     0.000 C 
BRANCH  12  13
ATOM     13  C   UNL     1       7.204  -4.378  -4.586  1.00  0.00    -0.000 C 
BRANCH  13  14
ATOM     14  C   UNL     1       8.139  -5.019  -3.544  1.00  0.00    -0.000 C 
BRANCH  14  15
ATOM     15  C   UNL     1       8.567  -6.442  -3.937  1.00  0.00    -0.000 C 
BRANCH  15  16
ATOM     16  C   UNL     1       8.355  -7.456  -2.802  1.00  0.00    -0.000 C 
BRANCH  16  17
ATOM     17  C   UNL     1       7.876  -8.805  -3.352  1.00  0.00    -0.000 C 
BRANCH  17  18
ATOM     18  C   UNL     1       7.854  -8.796  -4.888  1.00  0.00    -0.000 C 
BRANCH  18  19
ATOM     19  C   UNL     1       8.709  -9.919  -5.497  1.00  0.00    -0.003 C 
ATOM     20  C   UNL     1       7.866 -11.003  -6.169  1.00  0.00     0.004 C 
ENDBRANCH  18  19
ENDBRANCH  17  18
ENDBRANCH  16  17
ENDBRANCH  15  16
ENDBRANCH  14  15
ENDBRANCH  13  14
ENDBRANCH  12  13
ENDBRANCH   1  12
TORSDOF 16
ENDMDL
MODEL 8
REMARK VINA RESULT:    -4.067      1.191      1.816
REMARK INTER + INTRA:          -9.117
REMARK INTER:                  -7.816
REMARK INTRA:                  -1.300
REMARK UNBOUND:                -1.246
REMARK SMILES CCCCCCCCCCCCCCCCCC(=O)[O-]
REMARK SMILES IDX 10 1 11 2 12 3 13 4 14 5 15 6 16 7 17 8 18 9 19 10 20 11
REMARK SMILES IDX 9 12 8 13 7 14 6 15 5 16 4 17 3 18 2 19 1 20
REMARK H PARENT
REMARK Flexibility Score: inf
ROOT
ATOM      1  C   UNL     1       7.399  -4.519  -4.816  1.00  0.00     0.000 C 
ENDROOT
BRANCH   1   2
ATOM      2  C   UNL     1       8.410  -4.647  -3.657  1.00  0.00     0.000 C 
BRANCH   2   3
ATOM      3  C   UNL     1       9.037  -6.050  -3.526  1.00  0.00     0.000 C 
BRANCH   3   4
ATOM      4  C   UNL     1       9.125  -6.593  -2.089  1.00  0.00     0.000 C 
BRANCH   4   5
ATOM      5  C   UNL     1       9.049  -8.126  -2.023  1.00  0.00     0.000 C 
BRANCH   5   6
ATOM      6  C   UNL     1       7.777  -8.574  -1.288  1.00  0.00     0.000 C 
BRANCH   6   7
ATOM      7  C   UNL     1       8.009  -9.807  -0.396  1.00  0.00     0.006 C 
BRANCH   7   8
ATOM      8  C   UNL     1       7.737  -9.564   1.097  1.00  0.00     0.053 C 
BRANCH   8   9
ATOM      9  C   UNL     1       6.386 -10.062   1.513  1.00  0.00     0.041 C 
ATOM     10  O   UNL     1       5.357  -9.698   0.886  1.00  0.00    -0.550 OA
ATOM     11  O   UNL     1       6.268 -10.950   2.575  1.00  0.00    -0.550 OA
ENDBRANCH   8   9
ENDBRANCH   7   8
ENDBRANCH   6   7
ENDBRANCH   5   6
ENDBRANCH   4   5
ENDBRANCH   3   4
ENDBRANCH   2   3
ENDBRANCH   1   2
BRANCH   1  12
ATOM     12  C   UNL     1       7.993  -3.768  -6.022  1.00  0.00     0.000 C 
BRANCH  12  13
ATOM     13  C   UNL     1       8.835  -4.676  -6.932  1.00  0.00    -0.000 C 
BRANCH  13  14
ATOM     14  C   UNL     1       7.963  -5.561  -7.842  1.00  0.00    -0.000 C 
BRANCH  14  15
ATOM     15  C   UNL     1       8.801  -6.506  -8.718  1.00  0.00    -0.000 C 
BRANCH  15  16
ATOM     16  C   UNL     1       8.016  -7.753  -9.157  1.00  0.00    -0.000 C 
BRANCH  16  17
ATOM     17  C   UNL     1       8.630  -9.025  -8.563  1.00  0.00    -0.000 C 
BRANCH  17  18
ATOM     18  C   UNL     1       7.788  -9.546  -7.388  1.00  0.00    -0.000 C 
BRANCH  18  19
ATOM     19  C   UNL     1       8.214  -8.940  -6.042  1.00  0.00    -0.003 C 
ATOM     20  C   UNL     1       7.710  -9.746  -4.845  1.00  0.00     0.004 C 
ENDBRANCH  18  19
ENDBRANCH  17  18
ENDBRANCH  16  17
ENDBRANCH  15  16
ENDBRANCH  14  15
ENDBRANCH  13  14
ENDBRANCH  12  13
ENDBRANCH   1  12
TORSDOF 16
ENDMDL
MODEL 9
REMARK VINA RESULT:    -4.052      1.439      3.070
REMARK INTER + INTRA:          -9.089
REMARK INTER:                  -7.852
REMARK INTRA:                  -1.237
REMARK UNBOUND:                -1.246
REMARK SMILES CCCCCCCCCCCCCCCCCC(=O)[O-]
REMARK SMILES IDX 10 1 11 2 12 3 13 4 14 5 15 6 16 7 17 8 18 9 19 10 20 11
REMARK SMILES IDX 9 12 8 13 7 14 6 15 5 16 4 17 3 18 2 19 1 20
REMARK H PARENT
REMARK Flexibility Score: inf
ROOT
ATOM      1  C   UNL     1       9.095  -5.143  -6.628  1.00  0.00     0.000 C 
ENDROOT
BRANCH   1   2
ATOM      2  C   UNL     1       8.000  -4.099  -6.322  1.00  0.00     0.000 C 
BRANCH   2   3
ATOM      3  C   UNL     1       7.638  -3.993  -4.826  1.00  0.00     0.000 C 
BRANCH   3   4
ATOM      4  C   UNL     1       8.824  -4.145  -3.857  1.00  0.00     0.000 C 
BRANCH   4   5
ATOM      5  C   UNL     1       8.715  -5.394  -2.969  1.00  0.00     0.000 C 
BRANCH   5   6
ATOM      6  C   UNL     1       8.045  -6.545  -3.733  1.00  0.00     0.000 C 
BRANCH   6   7
ATOM      7  C   UNL     1       8.484  -7.931  -3.227  1.00  0.00     0.006 C 
BRANCH   7   8
ATOM      8  C   UNL     1       8.412  -8.095  -1.700  1.00  0.00     0.053 C 
BRANCH   8   9
ATOM      9  C   UNL     1       7.876  -9.437  -1.303  1.00  0.00     0.041 C 
ATOM     10  O   UNL     1       7.796  -9.753  -0.087  1.00  0.00    -0.550 OA
ATOM     11  O   UNL     1       7.437 -10.328  -2.275  1.00  0.00    -0.550 OA
ENDBRANCH   8   9
ENDBRANCH   7   8
ENDBRANCH   6   7
ENDBRANCH   5   6
ENDBRANCH   4   5
ENDBRANCH   3   4
ENDBRANCH   2   3
ENDBRANCH   1   2
BRANCH   1  12
ATOM     12  C   UNL     1       9.125  -5.530  -8.118  1.00  0.00     0.000 C 
BRANCH  12  13
ATOM     13  C   UNL     1       8.233  -6.740  -8.438  1.00  0.00    -0.000 C 
BRANCH  13  14
ATOM     14  C   UNL     1       8.492  -7.923  -7.487  1.00  0.00    -0.000 C 
BRANCH  14  15
ATOM     15  C   UNL     1       7.996  -9.258  -8.064  1.00  0.00    -0.000 C 
BRANCH  15  16
ATOM     16  C   UNL     1       7.815  -9.211  -9.589  1.00  0.00    -0.000 C 
BRANCH  16  17
ATOM     17  C   UNL     1       6.588 -10.021 -10.023  1.00  0.00    -0.000 C 
BRANCH  17  18
ATOM     18  C   UNL     1       5.734 -10.418  -8.808  1.00  0.00    -0.000 C 
BRANCH  18  19
ATOM     19  C   UNL     1       4.228 -10.405  -9.116  1.00  0.00    -0.003 C 
ATOM     20  C   UNL     1       3.891  -9.614 -10.380  1.00  0.00     0.004 C 
ENDBRANCH  18  19
ENDBRANCH  17  18
ENDBRANCH  16  17
ENDBRANCH  15  16
ENDBRANCH  14  15
ENDBRANCH  13  14
ENDBRANCH  12  13
ENDBRANCH   1  12
TORSDOF 16
ENDMDL
