MODEL 1
REMARK VINA RESULT:    -4.139      0.000      0.000
REMARK INTER + INTRA:          -4.260
REMARK INTER:                  -4.260
REMARK INTRA:                   0.000
REMARK UNBOUND:                 0.000
REMARK SMILES CC1(C)[C@H]2CC[C@](C)(C2)[C@@H]1O
REMARK SMILES IDX 1 1 2 2 4 3 5 4 6 5 7 6 9 7 10 8 8 9 3 10 11 11
REMARK H PARENT 11 12
REMARK Flexibility Score: inf
ROOT
ATOM      1  C   UNL     1     166.074 168.910 167.875  1.00  0.00     0.014 C 
ATOM      2  C   UNL     1     167.245 169.268 168.822  1.00  0.00    -0.006 C 
ATOM      3  C   UNL     1     167.516 168.183 169.920  1.00  0.00    -0.002 C 
ATOM      4  C   UNL     1     167.581 166.768 169.310  1.00  0.00     0.005 C 
ATOM      5  C   UNL     1     168.872 166.815 168.478  1.00  0.00     0.010 C 
ATOM      6  C   UNL     1     169.439 168.216 168.809  1.00  0.00    -0.006 C 
ATOM      7  C   UNL     1     168.984 168.402 170.239  1.00  0.00     0.013 C 
ATOM      8  C   UNL     1     168.609 169.287 168.050  1.00  0.00     0.126 C 
ATOM      9  C   UNL     1     170.959 168.315 168.612  1.00  0.00     0.014 C 
ATOM     10  C   UNL     1     166.895 170.620 169.498  1.00  0.00     0.014 C 
ENDROOT
BRANCH   8  11
ATOM     11  O   UNL     1     169.242 170.542 168.120  1.00  0.00    -0.392 OA
ATOM     12  H   UNL     1     169.918 170.559 167.393  1.00  0.00     0.211 HD
ENDBRANCH   8  11
TORSDOF 1
ENDMDL
MODEL 2
REMARK VINA RESULT:    -4.129      1.912      2.979
REMARK INTER + INTRA:          -4.250
REMARK INTER:                  -4.250
REMARK INTRA:                   0.000
REMARK UNBOUND:                 0.000
REMARK SMILES CC1(C)[C@H]2CC[C@](C)(C2)[C@@H]1O
REMARK SMILES IDX 1 1 2 2 4 3 5 4 6 5 7 6 9 7 10 8 8 9 3 10 11 11
REMARK H PARENT 11 12
REMARK Flexibility Score: inf
ROOT
ATOM      1  C   UNL     1     166.447 165.974 167.885  1.00  0.00     0.014 C 
ATOM      2  C   UNL     1     166.047 167.187 168.759  1.00  0.00    -0.006 C 
ATOM      3  C   UNL     1     167.022 167.442 169.959  1.00  0.00    -0.002 C 
ATOM      4  C   UNL     1     168.495 167.426 169.501  1.00  0.00     0.005 C 
ATOM      5  C   UNL     1     168.597 168.692 168.637  1.00  0.00     0.010 C 
ATOM      6  C   UNL     1     167.198 169.331 168.802  1.00  0.00    -0.006 C 
ATOM      7  C   UNL     1     166.842 168.928 170.216  1.00  0.00     0.013 C 
ATOM      8  C   UNL     1     166.175 168.528 167.955  1.00  0.00     0.126 C 
ATOM      9  C   UNL     1     167.193 170.847 168.558  1.00  0.00     0.014 C 
ATOM     10  C   UNL     1     164.617 166.919 169.296  1.00  0.00     0.014 C 
ENDROOT
BRANCH   8  11
ATOM     11  O   UNL     1     164.951 169.218 167.876  1.00  0.00    -0.392 OA
ATOM     12  H   UNL     1     165.062 170.052 168.404  1.00  0.00     0.211 HD
ENDBRANCH   8  11
TORSDOF 1
ENDMDL
MODEL 3
REMARK VINA RESULT:    -4.108      2.010      3.148
REMARK INTER + INTRA:          -4.228
REMARK INTER:                  -4.228
REMARK INTRA:                   0.000
REMARK UNBOUND:                 0.000
REMARK SMILES CC1(C)[C@H]2CC[C@](C)(C2)[C@@H]1O
REMARK SMILES IDX 1 1 2 2 4 3 5 4 6 5 7 6 9 7 10 8 8 9 3 10 11 11
REMARK H PARENT 11 12
REMARK Flexibility Score: inf
ROOT
ATOM      1  C   UNL     1     168.667 169.019 167.875  1.00  0.00     0.014 C 
ATOM      2  C   UNL     1     169.081 167.810 168.749  1.00  0.00    -0.006 C 
ATOM      3  C   UNL     1     168.005 167.412 169.817  1.00  0.00    -0.002 C 
ATOM      4  C   UNL     1     166.600 167.311 169.190  1.00  0.00     0.005 C 
ATOM      5  C   UNL     1     166.721 166.081 168.278  1.00  0.00     0.010 C 
ATOM      6  C   UNL     1     168.148 165.569 168.585  1.00  0.00    -0.006 C 
ATOM      7  C   UNL     1     168.300 165.940 170.043  1.00  0.00     0.013 C 
ATOM      8  C   UNL     1     169.178 166.501 167.892  1.00  0.00     0.126 C 
ATOM      9  C   UNL     1     168.330 164.073 168.293  1.00  0.00     0.014 C 
ATOM     10  C   UNL     1     170.408 168.187 169.459  1.00  0.00     0.014 C 
ENDROOT
BRANCH   8  11
ATOM     11  O   UNL     1     170.464 165.933 167.934  1.00  0.00    -0.392 OA
ATOM     12  H   UNL     1     170.598 165.604 168.861  1.00  0.00     0.211 HD
ENDBRANCH   8  11
TORSDOF 1
ENDMDL
MODEL 4
REMARK VINA RESULT:    -4.082      2.405      4.232
REMARK INTER + INTRA:          -4.202
REMARK INTER:                  -4.202
REMARK INTRA:                   0.000
REMARK UNBOUND:                 0.000
REMARK SMILES CC1(C)[C@H]2CC[C@](C)(C2)[C@@H]1O
REMARK SMILES IDX 1 1 2 2 4 3 5 4 6 5 7 6 9 7 10 8 8 9 3 10 11 11
REMARK H PARENT 11 12
REMARK Flexibility Score: inf
ROOT
ATOM      1  C   UNL     1     169.335 166.554 167.950  1.00  0.00     0.014 C 
ATOM      2  C   UNL     1     168.100 166.152 168.794  1.00  0.00    -0.006 C 
ATOM      3  C   UNL     1     167.777 167.158 169.950  1.00  0.00    -0.002 C 
ATOM      4  C   UNL     1     167.773 168.615 169.443  1.00  0.00     0.005 C 
ATOM      5  C   UNL     1     166.536 168.655 168.532  1.00  0.00     0.010 C 
ATOM      6  C   UNL     1     165.928 167.246 168.722  1.00  0.00    -0.006 C 
ATOM      7  C   UNL     1     166.288 166.947 170.160  1.00  0.00     0.013 C 
ATOM      8  C   UNL     1     166.788 166.217 167.939  1.00  0.00     0.126 C 
ATOM      9  C   UNL     1     164.423 167.192 168.424  1.00  0.00     0.014 C 
ATOM     10  C   UNL     1     168.385 164.747 169.388  1.00  0.00     0.014 C 
ENDROOT
BRANCH   8  11
ATOM     11  O   UNL     1     166.132 164.973 167.876  1.00  0.00    -0.392 OA
ATOM     12  H   UNL     1     165.498 165.025 167.114  1.00  0.00     0.211 HD
ENDBRANCH   8  11
TORSDOF 1
ENDMDL
MODEL 5
REMARK VINA RESULT:    -3.952      2.713      3.643
REMARK INTER + INTRA:          -4.068
REMARK INTER:                  -4.068
REMARK INTRA:                   0.000
REMARK UNBOUND:                 0.000
REMARK SMILES CC1(C)[C@H]2CC[C@](C)(C2)[C@@H]1O
REMARK SMILES IDX 1 1 2 2 4 3 5 4 6 5 7 6 9 7 10 8 8 9 3 10 11 11
REMARK H PARENT 11 12
REMARK Flexibility Score: inf
ROOT
ATOM      1  C   UNL     1     165.933 167.547 170.363  1.00  0.00     0.014 C 
ATOM      2  C   UNL     1     166.569 167.040 169.047  1.00  0.00    -0.006 C 
ATOM      3  C   UNL     1     168.098 167.360 168.926  1.00  0.00    -0.002 C 
ATOM      4  C   UNL     1     168.858 166.969 170.210  1.00  0.00     0.005 C 
ATOM      5  C   UNL     1     168.777 165.435 170.199  1.00  0.00     0.010 C 
ATOM      6  C   UNL     1     168.077 165.140 168.852  1.00  0.00    -0.006 C 
ATOM      7  C   UNL     1     168.586 166.271 167.987  1.00  0.00     0.013 C 
ATOM      8  C   UNL     1     166.567 165.473 168.986  1.00  0.00     0.126 C 
ATOM      9  C   UNL     1     168.385 163.739 168.304  1.00  0.00     0.014 C 
ATOM     10  C   UNL     1     165.801 167.707 167.875  1.00  0.00     0.014 C 
ENDROOT
BRANCH   8  11
ATOM     11  O   UNL     1     165.854 164.985 167.875  1.00  0.00    -0.392 OA
ATOM     12  H   UNL     1     165.174 164.354 168.230  1.00  0.00     0.211 HD
ENDBRANCH   8  11
TORSDOF 1
ENDMDL
MODEL 6
REMARK VINA RESULT:    -3.879      0.951      3.083
REMARK INTER + INTRA:          -3.992
REMARK INTER:                  -3.992
REMARK INTRA:                   0.000
REMARK UNBOUND:                 0.000
REMARK SMILES CC1(C)[C@H]2CC[C@](C)(C2)[C@@H]1O
REMARK SMILES IDX 1 1 2 2 4 3 5 4 6 5 7 6 9 7 10 8 8 9 3 10 11 11
REMARK H PARENT 11 12
REMARK Flexibility Score: inf
ROOT
ATOM      1  C   UNL     1     170.263 168.374 170.944  1.00  0.00     0.014 C 
ATOM      2  C   UNL     1     169.795 168.309 169.469  1.00  0.00    -0.006 C 
ATOM      3  C   UNL     1     168.949 167.033 169.137  1.00  0.00    -0.002 C 
ATOM      4  C   UNL     1     167.838 166.807 170.183  1.00  0.00     0.005 C 
ATOM      5  C   UNL     1     166.886 167.986 169.929  1.00  0.00     0.010 C 
ATOM      6  C   UNL     1     167.517 168.674 168.696  1.00  0.00    -0.006 C 
ATOM      7  C   UNL     1     168.112 167.495 167.958  1.00  0.00     0.013 C 
ATOM      8  C   UNL     1     168.779 169.458 169.148  1.00  0.00     0.126 C 
ATOM      9  C   UNL     1     166.507 169.488 167.875  1.00  0.00     0.014 C 
ATOM     10  C   UNL     1     171.067 168.338 168.580  1.00  0.00     0.014 C 
ENDROOT
BRANCH   8  11
ATOM     11  O   UNL     1     169.234 170.297 168.114  1.00  0.00    -0.392 OA
ATOM     12  H   UNL     1     169.501 171.153 168.541  1.00  0.00     0.211 HD
ENDBRANCH   8  11
TORSDOF 1
ENDMDL
MODEL 7
REMARK VINA RESULT:    -3.787      1.974      3.603
REMARK INTER + INTRA:          -3.898
REMARK INTER:                  -3.898
REMARK INTRA:                   0.000
REMARK UNBOUND:                 0.000
REMARK SMILES CC1(C)[C@H]2CC[C@](C)(C2)[C@@H]1O
REMARK SMILES IDX 1 1 2 2 4 3 5 4 6 5 7 6 9 7 10 8 8 9 3 10 11 11
REMARK H PARENT 11 12
REMARK Flexibility Score: inf
ROOT
ATOM      1  C   UNL     1     168.408 164.970 170.797  1.00  0.00     0.014 C 
ATOM      2  C   UNL     1     168.338 165.499 169.344  1.00  0.00    -0.006 C 
ATOM      3  C   UNL     1     167.074 166.379 169.058  1.00  0.00    -0.002 C 
ATOM      4  C   UNL     1     166.874 167.450 170.150  1.00  0.00     0.005 C 
ATOM      5  C   UNL     1     168.067 168.392 169.925  1.00  0.00     0.010 C 
ATOM      6  C   UNL     1     168.734 167.801 168.661  1.00  0.00    -0.006 C 
ATOM      7  C   UNL     1     167.540 167.256 167.910  1.00  0.00     0.013 C 
ATOM      8  C   UNL     1     169.501 166.509 169.054  1.00  0.00     0.126 C 
ATOM      9  C   UNL     1     169.559 168.830 167.875  1.00  0.00     0.014 C 
ATOM     10  C   UNL     1     168.339 164.265 168.403  1.00  0.00     0.014 C 
ENDROOT
BRANCH   8  11
ATOM     11  O   UNL     1     170.324 166.083 167.995  1.00  0.00    -0.392 OA
ATOM     12  H   UNL     1     170.870 165.331 168.346  1.00  0.00     0.211 HD
ENDBRANCH   8  11
TORSDOF 1
ENDMDL
MODEL 8
REMARK VINA RESULT:    -3.768      1.857      3.017
REMARK INTER + INTRA:          -3.878
REMARK INTER:                  -3.878
REMARK INTRA:                   0.000
REMARK UNBOUND:                 0.000
REMARK SMILES CC1(C)[C@H]2CC[C@](C)(C2)[C@@H]1O
REMARK SMILES IDX 1 1 2 2 4 3 5 4 6 5 7 6 9 7 10 8 8 9 3 10 11 11
REMARK H PARENT 11 12
REMARK Flexibility Score: inf
ROOT
ATOM      1  C   UNL     1     167.233 166.209 170.524  1.00  0.00     0.014 C 
ATOM      2  C   UNL     1     167.755 166.694 169.149  1.00  0.00    -0.006 C 
ATOM      3  C   UNL     1     167.647 168.244 168.950  1.00  0.00    -0.002 C 
ATOM      4  C   UNL     1     168.209 169.008 170.167  1.00  0.00     0.005 C 
ATOM      5  C   UNL     1     169.714 168.707 170.093  1.00  0.00     0.010 C 
ATOM      6  C   UNL     1     169.835 167.900 168.778  1.00  0.00    -0.006 C 
ATOM      7  C   UNL     1     168.742 168.520 167.936  1.00  0.00     0.013 C 
ATOM      8  C   UNL     1     169.300 166.463 169.018  1.00  0.00     0.126 C 
ATOM      9  C   UNL     1     171.234 167.974 168.150  1.00  0.00     0.014 C 
ATOM     10  C   UNL     1     166.924 165.969 168.058  1.00  0.00     0.014 C 
ENDROOT
BRANCH   8  11
ATOM     11  O   UNL     1     169.623 165.629 167.932  1.00  0.00    -0.392 OA
ATOM     12  H   UNL     1     170.370 166.070 167.449  1.00  0.00     0.211 HD
ENDBRANCH   8  11
TORSDOF 1
ENDMDL
