MODEL 1
REMARK VINA RESULT:    -4.382      0.000      0.000
REMARK INTER + INTRA:          -8.553
REMARK INTER:                  -7.713
REMARK INTRA:                  -0.840
REMARK UNBOUND:                -0.840
REMARK SMILES CCCCCCCCCCCCCCC(=O)[O-]
REMARK SMILES IDX 9 1 10 2 11 3 12 4 13 5 14 6 15 7 16 8 17 9 8 10 7 11 6 12
REMARK SMILES IDX 5 13 4 14 3 15 2 16 1 17
REMARK H PARENT
REMARK Flexibility Score: inf
ROOT
ATOM      1  C   UNL     1      21.963   5.629 -11.885  1.00  0.00     0.000 C 
ENDROOT
BRANCH   1   2
ATOM      2  C   UNL     1      22.724   5.904 -13.191  1.00  0.00     0.000 C 
BRANCH   2   3
ATOM      3  C   UNL     1      23.791   4.827 -13.440  1.00  0.00     0.000 C 
BRANCH   3   4
ATOM      4  C   UNL     1      24.964   5.338 -14.292  1.00  0.00     0.000 C 
BRANCH   4   5
ATOM      5  C   UNL     1      26.182   4.400 -14.244  1.00  0.00     0.006 C 
BRANCH   5   6
ATOM      6  C   UNL     1      27.386   4.976 -15.000  1.00  0.00     0.053 C 
BRANCH   6   7
ATOM      7  C   UNL     1      28.471   3.958 -15.180  1.00  0.00     0.041 C 
ATOM      8  O   UNL     1      29.155   3.941 -16.237  1.00  0.00    -0.550 OA
ATOM      9  O   UNL     1      28.748   3.049 -14.167  1.00  0.00    -0.550 OA
ENDBRANCH   6   7
ENDBRANCH   5   6
ENDBRANCH   4   5
ENDBRANCH   3   4
ENDBRANCH   2   3
ENDBRANCH   1   2
BRANCH   1  10
ATOM     10  C   UNL     1      21.951   6.839 -10.937  1.00  0.00     0.000 C 
BRANCH  10  11
ATOM     11  C   UNL     1      21.522   6.467  -9.507  1.00  0.00    -0.000 C 
BRANCH  11  12
ATOM     12  C   UNL     1      20.117   5.849  -9.454  1.00  0.00    -0.000 C 
BRANCH  12  13
ATOM     13  C   UNL     1      19.034   6.785 -10.011  1.00  0.00    -0.000 C 
BRANCH  13  14
ATOM     14  C   UNL     1      18.157   6.060 -11.040  1.00  0.00    -0.000 C 
BRANCH  14  15
ATOM     15  C   UNL     1      18.438   4.550 -11.035  1.00  0.00    -0.000 C 
BRANCH  15  16
ATOM     16  C   UNL     1      17.174   3.716 -10.774  1.00  0.00    -0.003 C 
ATOM     17  C   UNL     1      15.930   4.578 -10.561  1.00  0.00     0.004 C 
ENDBRANCH  15  16
ENDBRANCH  14  15
ENDBRANCH  13  14
ENDBRANCH  12  13
ENDBRANCH  11  12
ENDBRANCH  10  11
ENDBRANCH   1  10
TORSDOF 13
ENDMDL
MODEL 2
REMARK VINA RESULT:    -4.011      5.280      7.558
REMARK INTER + INTRA:          -7.900
REMARK INTER:                  -6.629
REMARK INTRA:                  -1.271
REMARK UNBOUND:                -0.840
REMARK SMILES CCCCCCCCCCCCCCC(=O)[O-]
REMARK SMILES IDX 9 1 10 2 11 3 12 4 13 5 14 6 15 7 16 8 17 9 8 10 7 11 6 12
REMARK SMILES IDX 5 13 4 14 3 15 2 16 1 17
REMARK H PARENT
REMARK Flexibility Score: inf
ROOT
ATOM      1  C   UNL     1      21.956   6.996 -10.914  1.00  0.00     0.000 C 
ENDROOT
BRANCH   1   2
ATOM      2  C   UNL     1      21.634   5.794 -10.012  1.00  0.00     0.000 C 
BRANCH   2   3
ATOM      3  C   UNL     1      20.270   5.974  -9.328  1.00  0.00     0.000 C 
BRANCH   3   4
ATOM      4  C   UNL     1      19.358   6.963 -10.072  1.00  0.00     0.000 C 
BRANCH   4   5
ATOM      5  C   UNL     1      18.211   6.261 -10.820  1.00  0.00     0.006 C 
BRANCH   5   6
ATOM      6  C   UNL     1      18.262   4.737 -10.659  1.00  0.00     0.053 C 
BRANCH   6   7
ATOM      7  C   UNL     1      16.891   4.136 -10.596  1.00  0.00     0.041 C 
ATOM      8  O   UNL     1      16.702   2.948 -10.968  1.00  0.00    -0.550 OA
ATOM      9  O   UNL     1      15.827   4.878 -10.098  1.00  0.00    -0.550 OA
ENDBRANCH   6   7
ENDBRANCH   5   6
ENDBRANCH   4   5
ENDBRANCH   3   4
ENDBRANCH   2   3
ENDBRANCH   1   2
BRANCH   1  10
ATOM     10  C   UNL     1      22.083   6.610 -12.397  1.00  0.00     0.000 C 
BRANCH  10  11
ATOM     11  C   UNL     1      21.779   5.124 -12.650  1.00  0.00    -0.000 C 
BRANCH  11  12
ATOM     12  C   UNL     1      20.496   4.915 -13.470  1.00  0.00    -0.000 C 
BRANCH  12  13
ATOM     13  C   UNL     1      20.279   3.447 -13.870  1.00  0.00    -0.000 C 
BRANCH  13  14
ATOM     14  C   UNL     1      18.876   2.972 -13.472  1.00  0.00    -0.000 C 
BRANCH  14  15
ATOM     15  C   UNL     1      18.685   1.484 -13.804  1.00  0.00    -0.000 C 
BRANCH  15  16
ATOM     16  C   UNL     1      18.389   1.245 -15.292  1.00  0.00    -0.003 C 
ATOM     17  C   UNL     1      17.517   0.013 -15.532  1.00  0.00     0.004 C 
ENDBRANCH  15  16
ENDBRANCH  14  15
ENDBRANCH  13  14
ENDBRANCH  12  13
ENDBRANCH  11  12
ENDBRANCH  10  11
ENDBRANCH   1  10
TORSDOF 13
ENDMDL
MODEL 3
REMARK VINA RESULT:    -3.483      5.232      6.682
REMARK INTER + INTRA:          -6.971
REMARK INTER:                  -5.793
REMARK INTRA:                  -1.178
REMARK UNBOUND:                -0.840
REMARK SMILES CCCCCCCCCCCCCCC(=O)[O-]
REMARK SMILES IDX 9 1 10 2 11 3 12 4 13 5 14 6 15 7 16 8 17 9 8 10 7 11 6 12
REMARK SMILES IDX 5 13 4 14 3 15 2 16 1 17
REMARK H PARENT
REMARK Flexibility Score: inf
ROOT
ATOM      1  C   UNL     1      21.466   4.954 -12.820  1.00  0.00     0.000 C 
ENDROOT
BRANCH   1   2
ATOM      2  C   UNL     1      20.085   4.554 -13.363  1.00  0.00     0.000 C 
BRANCH   2   3
ATOM      3  C   UNL     1      20.170   3.245 -14.163  1.00  0.00     0.000 C 
BRANCH   3   4
ATOM      4  C   UNL     1      19.022   2.275 -13.837  1.00  0.00     0.000 C 
BRANCH   4   5
ATOM      5  C   UNL     1      18.676   1.351 -15.017  1.00  0.00     0.006 C 
BRANCH   5   6
ATOM      6  C   UNL     1      17.582   0.338 -14.658  1.00  0.00     0.053 C 
BRANCH   6   7
ATOM      7  C   UNL     1      17.227  -0.536 -15.821  1.00  0.00     0.041 C 
ATOM      8  O   UNL     1      17.012  -1.765 -15.649  1.00  0.00    -0.550 OA
ATOM      9  O   UNL     1      17.102   0.011 -17.092  1.00  0.00    -0.550 OA
ENDBRANCH   6   7
ENDBRANCH   5   6
ENDBRANCH   4   5
ENDBRANCH   3   4
ENDBRANCH   2   3
ENDBRANCH   1   2
BRANCH   1  10
ATOM     10  C   UNL     1      21.629   6.475 -12.671  1.00  0.00     0.000 C 
BRANCH  10  11
ATOM     11  C   UNL     1      21.979   6.895 -11.233  1.00  0.00    -0.000 C 
BRANCH  11  12
ATOM     12  C   UNL     1      20.733   7.105 -10.359  1.00  0.00    -0.000 C 
BRANCH  12  13
ATOM     13  C   UNL     1      20.540   5.988  -9.322  1.00  0.00    -0.000 C 
BRANCH  13  14
ATOM     14  C   UNL     1      19.384   5.062  -9.720  1.00  0.00    -0.000 C 
BRANCH  14  15
ATOM     15  C   UNL     1      18.438   5.757 -10.711  1.00  0.00    -0.000 C 
BRANCH  15  16
ATOM     16  C   UNL     1      17.027   5.148 -10.707  1.00  0.00    -0.003 C 
ATOM     17  C   UNL     1      17.035   3.637 -10.933  1.00  0.00     0.004 C 
ENDBRANCH  15  16
ENDBRANCH  14  15
ENDBRANCH  13  14
ENDBRANCH  12  13
ENDBRANCH  11  12
ENDBRANCH  10  11
ENDBRANCH   1  10
TORSDOF 13
ENDMDL
MODEL 4
REMARK VINA RESULT:    -3.436      4.907      7.162
REMARK INTER + INTRA:          -6.887
REMARK INTER:                  -5.597
REMARK INTRA:                  -1.290
REMARK UNBOUND:                -0.840
REMARK SMILES CCCCCCCCCCCCCCC(=O)[O-]
REMARK SMILES IDX 9 1 10 2 11 3 12 4 13 5 14 6 15 7 16 8 17 9 8 10 7 11 6 12
REMARK SMILES IDX 5 13 4 14 3 15 2 16 1 17
REMARK H PARENT
REMARK Flexibility Score: inf
ROOT
ATOM      1  C   UNL     1      18.072   4.517 -10.750  1.00  0.00     0.000 C 
ENDROOT
BRANCH   1   2
ATOM      2  C   UNL     1      18.200   3.554 -11.940  1.00  0.00     0.000 C 
BRANCH   2   3
ATOM      3  C   UNL     1      19.350   3.977 -12.866  1.00  0.00     0.000 C 
BRANCH   3   4
ATOM      4  C   UNL     1      19.679   2.915 -13.928  1.00  0.00     0.000 C 
BRANCH   4   5
ATOM      5  C   UNL     1      18.610   1.813 -14.014  1.00  0.00     0.006 C 
BRANCH   5   6
ATOM      6  C   UNL     1      18.636   1.084 -15.363  1.00  0.00     0.053 C 
BRANCH   6   7
ATOM      7  C   UNL     1      17.489   0.131 -15.506  1.00  0.00     0.041 C 
ATOM      8  O   UNL     1      16.942  -0.039 -16.627  1.00  0.00    -0.550 OA
ATOM      9  O   UNL     1      17.042  -0.592 -14.406  1.00  0.00    -0.550 OA
ENDBRANCH   6   7
ENDBRANCH   5   6
ENDBRANCH   4   5
ENDBRANCH   3   4
ENDBRANCH   2   3
ENDBRANCH   1   2
BRANCH   1  10
ATOM     10  C   UNL     1      18.284   5.987 -11.148  1.00  0.00     0.000 C 
BRANCH  10  11
ATOM     11  C   UNL     1      19.165   6.751 -10.145  1.00  0.00    -0.000 C 
BRANCH  11  12
ATOM     12  C   UNL     1      20.117   5.826  -9.371  1.00  0.00    -0.000 C 
BRANCH  12  13
ATOM     13  C   UNL     1      21.520   5.763  -9.992  1.00  0.00    -0.000 C 
BRANCH  13  14
ATOM     14  C   UNL     1      21.781   6.982 -10.886  1.00  0.00    -0.000 C 
BRANCH  14  15
ATOM     15  C   UNL     1      21.808   6.582 -12.369  1.00  0.00    -0.000 C 
BRANCH  15  16
ATOM     16  C   UNL     1      22.572   5.271 -12.612  1.00  0.00    -0.003 C 
ATOM     17  C   UNL     1      23.818   5.464 -13.475  1.00  0.00     0.004 C 
ENDBRANCH  15  16
ENDBRANCH  14  15
ENDBRANCH  13  14
ENDBRANCH  12  13
ENDBRANCH  11  12
ENDBRANCH  10  11
ENDBRANCH   1  10
TORSDOF 13
ENDMDL
MODEL 5
REMARK VINA RESULT:    -3.295      4.570      9.208
REMARK INTER + INTRA:          -6.640
REMARK INTER:                  -6.166
REMARK INTRA:                  -0.473
REMARK UNBOUND:                -0.840
REMARK SMILES CCCCCCCCCCCCCCC(=O)[O-]
REMARK SMILES IDX 9 1 10 2 11 3 12 4 13 5 14 6 15 7 16 8 17 9 8 10 7 11 6 12
REMARK SMILES IDX 5 13 4 14 3 15 2 16 1 17
REMARK H PARENT
REMARK Flexibility Score: inf
ROOT
ATOM      1  C   UNL     1      20.959   5.385 -13.024  1.00  0.00     0.000 C 
ENDROOT
BRANCH   1   2
ATOM      2  C   UNL     1      20.073   6.585 -12.654  1.00  0.00     0.000 C 
BRANCH   2   3
ATOM      3  C   UNL     1      20.433   7.121 -11.260  1.00  0.00     0.000 C 
BRANCH   3   4
ATOM      4  C   UNL     1      19.359   6.805 -10.206  1.00  0.00     0.000 C 
BRANCH   4   5
ATOM      5  C   UNL     1      18.127   6.108 -10.808  1.00  0.00     0.006 C 
BRANCH   5   6
ATOM      6  C   UNL     1      18.245   4.579 -10.757  1.00  0.00     0.053 C 
BRANCH   6   7
ATOM      7  C   UNL     1      16.902   3.916 -10.716  1.00  0.00     0.041 C 
ATOM      8  O   UNL     1      16.749   2.764 -11.200  1.00  0.00    -0.550 OA
ATOM      9  O   UNL     1      15.826   4.559 -10.116  1.00  0.00    -0.550 OA
ENDBRANCH   6   7
ENDBRANCH   5   6
ENDBRANCH   4   5
ENDBRANCH   3   4
ENDBRANCH   2   3
ENDBRANCH   1   2
BRANCH   1  10
ATOM     10  C   UNL     1      22.290   5.368 -12.256  1.00  0.00     0.000 C 
BRANCH  10  11
ATOM     11  C   UNL     1      23.473   5.861 -13.108  1.00  0.00    -0.000 C 
BRANCH  11  12
ATOM     12  C   UNL     1      24.313   4.706 -13.675  1.00  0.00    -0.000 C 
BRANCH  12  13
ATOM     13  C   UNL     1      25.521   5.194 -14.489  1.00  0.00    -0.000 C 
BRANCH  13  14
ATOM     14  C   UNL     1      26.589   4.099 -14.597  1.00  0.00    -0.000 C 
BRANCH  14  15
ATOM     15  C   UNL     1      27.840   4.621 -15.320  1.00  0.00    -0.000 C 
BRANCH  15  16
ATOM     16  C   UNL     1      29.104   3.822 -14.964  1.00  0.00    -0.003 C 
ATOM     17  C   UNL     1      28.828   2.689 -13.977  1.00  0.00     0.004 C 
ENDBRANCH  15  16
ENDBRANCH  14  15
ENDBRANCH  13  14
ENDBRANCH  12  13
ENDBRANCH  11  12
ENDBRANCH  10  11
ENDBRANCH   1  10
TORSDOF 13
ENDMDL
MODEL 6
REMARK VINA RESULT:    -2.861      5.795      8.043
REMARK INTER + INTRA:          -5.876
REMARK INTER:                  -5.071
REMARK INTRA:                  -0.805
REMARK UNBOUND:                -0.840
REMARK SMILES CCCCCCCCCCCCCCC(=O)[O-]
REMARK SMILES IDX 9 1 10 2 11 3 12 4 13 5 14 6 15 7 16 8 17 9 8 10 7 11 6 12
REMARK SMILES IDX 5 13 4 14 3 15 2 16 1 17
REMARK H PARENT
REMARK Flexibility Score: inf
ROOT
ATOM      1  C   UNL     1      21.728   5.092 -13.012  1.00  0.00     0.000 C 
ENDROOT
BRANCH   1   2
ATOM      2  C   UNL     1      21.921   5.858 -11.695  1.00  0.00     0.000 C 
BRANCH   2   3
ATOM      3  C   UNL     1      20.745   6.813 -11.439  1.00  0.00     0.000 C 
BRANCH   3   4
ATOM      4  C   UNL     1      20.070   6.574 -10.079  1.00  0.00     0.000 C 
BRANCH   4   5
ATOM      5  C   UNL     1      19.138   5.350 -10.088  1.00  0.00     0.006 C 
BRANCH   5   6
ATOM      6  C   UNL     1      17.856   5.605 -10.890  1.00  0.00     0.053 C 
BRANCH   6   7
ATOM      7  C   UNL     1      16.837   4.529 -10.672  1.00  0.00     0.041 C 
ATOM      8  O   UNL     1      17.078   3.345 -11.028  1.00  0.00    -0.550 OA
ATOM      9  O   UNL     1      15.633   4.826 -10.046  1.00  0.00    -0.550 OA
ENDBRANCH   6   7
ENDBRANCH   5   6
ENDBRANCH   4   5
ENDBRANCH   3   4
ENDBRANCH   2   3
ENDBRANCH   1   2
BRANCH   1  10
ATOM     10  C   UNL     1      20.257   4.741 -13.287  1.00  0.00     0.000 C 
BRANCH  10  11
ATOM     11  C   UNL     1      20.102   3.532 -14.226  1.00  0.00    -0.000 C 
BRANCH  11  12
ATOM     12  C   UNL     1      19.097   2.498 -13.695  1.00  0.00    -0.000 C 
BRANCH  12  13
ATOM     13  C   UNL     1      18.655   1.493 -14.769  1.00  0.00    -0.000 C 
BRANCH  13  14
ATOM     14  C   UNL     1      17.722   0.429 -14.175  1.00  0.00    -0.000 C 
BRANCH  14  15
ATOM     15  C   UNL     1      17.098  -0.434 -15.282  1.00  0.00    -0.000 C 
BRANCH  15  16
ATOM     16  C   UNL     1      16.822   0.362 -16.567  1.00  0.00    -0.003 C 
ATOM     17  C   UNL     1      17.250  -0.385 -17.829  1.00  0.00     0.004 C 
ENDBRANCH  15  16
ENDBRANCH  14  15
ENDBRANCH  13  14
ENDBRANCH  12  13
ENDBRANCH  11  12
ENDBRANCH  10  11
ENDBRANCH   1  10
TORSDOF 13
ENDMDL
MODEL 7
REMARK VINA RESULT:    -2.690      3.575      7.200
REMARK INTER + INTRA:          -5.575
REMARK INTER:                  -4.512
REMARK INTRA:                  -1.063
REMARK UNBOUND:                -0.840
REMARK SMILES CCCCCCCCCCCCCCC(=O)[O-]
REMARK SMILES IDX 9 1 10 2 11 3 12 4 13 5 14 6 15 7 16 8 17 9 8 10 7 11 6 12
REMARK SMILES IDX 5 13 4 14 3 15 2 16 1 17
REMARK H PARENT
REMARK Flexibility Score: inf
ROOT
ATOM      1  C   UNL     1      19.017   7.054 -10.294  1.00  0.00     0.000 C 
ENDROOT
BRANCH   1   2
ATOM      2  C   UNL     1      17.888   6.098 -10.708  1.00  0.00     0.000 C 
BRANCH   2   3
ATOM      3  C   UNL     1      18.263   4.641 -10.397  1.00  0.00     0.000 C 
BRANCH   3   4
ATOM      4  C   UNL     1      17.136   3.652 -10.736  1.00  0.00     0.000 C 
BRANCH   4   5
ATOM      5  C   UNL     1      17.516   2.690 -11.875  1.00  0.00     0.006 C 
BRANCH   5   6
ATOM      6  C   UNL     1      18.671   3.231 -12.728  1.00  0.00     0.053 C 
BRANCH   6   7
ATOM      7  C   UNL     1      18.998   2.317 -13.869  1.00  0.00     0.041 C 
ATOM      8  O   UNL     1      19.925   2.608 -14.669  1.00  0.00    -0.550 OA
ATOM      9  O   UNL     1      18.298   1.128 -14.032  1.00  0.00    -0.550 OA
ENDBRANCH   6   7
ENDBRANCH   5   6
ENDBRANCH   4   5
ENDBRANCH   3   4
ENDBRANCH   2   3
ENDBRANCH   1   2
BRANCH   1  10
ATOM     10  C   UNL     1      20.325   6.320  -9.956  1.00  0.00     0.000 C 
BRANCH  10  11
ATOM     11  C   UNL     1      21.575   7.125 -10.353  1.00  0.00    -0.000 C 
BRANCH  11  12
ATOM     12  C   UNL     1      22.052   6.808 -11.778  1.00  0.00    -0.000 C 
BRANCH  12  13
ATOM     13  C   UNL     1      21.226   5.701 -12.450  1.00  0.00    -0.000 C 
BRANCH  13  14
ATOM     14  C   UNL     1      22.086   4.890 -13.428  1.00  0.00    -0.000 C 
BRANCH  14  15
ATOM     15  C   UNL     1      23.562   4.899 -13.000  1.00  0.00    -0.000 C 
BRANCH  15  16
ATOM     16  C   UNL     1      24.500   5.362 -14.125  1.00  0.00    -0.003 C 
ATOM     17  C   UNL     1      25.775   4.525 -14.213  1.00  0.00     0.004 C 
ENDBRANCH  15  16
ENDBRANCH  14  15
ENDBRANCH  13  14
ENDBRANCH  12  13
ENDBRANCH  11  12
ENDBRANCH  10  11
ENDBRANCH   1  10
TORSDOF 13
ENDMDL
MODEL 8
REMARK VINA RESULT:    -2.542      3.583      5.616
REMARK INTER + INTRA:          -5.314
REMARK INTER:                  -4.646
REMARK INTRA:                  -0.668
REMARK UNBOUND:                -0.840
REMARK SMILES CCCCCCCCCCCCCCC(=O)[O-]
REMARK SMILES IDX 9 1 10 2 11 3 12 4 13 5 14 6 15 7 16 8 17 9 8 10 7 11 6 12
REMARK SMILES IDX 5 13 4 14 3 15 2 16 1 17
REMARK H PARENT
REMARK Flexibility Score: inf
ROOT
ATOM      1  C   UNL     1      18.269   6.017 -11.244  1.00  0.00     0.000 C 
ENDROOT
BRANCH   1   2
ATOM      2  C   UNL     1      19.017   6.975 -10.302  1.00  0.00     0.000 C 
BRANCH   2   3
ATOM      3  C   UNL     1      20.239   6.285  -9.678  1.00  0.00     0.000 C 
BRANCH   3   4
ATOM      4  C   UNL     1      21.567   6.756 -10.295  1.00  0.00     0.000 C 
BRANCH   4   5
ATOM      5  C   UNL     1      21.466   6.982 -11.813  1.00  0.00     0.006 C 
BRANCH   5   6
ATOM      6  C   UNL     1      22.837   6.932 -12.498  1.00  0.00     0.053 C 
BRANCH   6   7
ATOM      7  C   UNL     1      23.114   5.587 -13.095  1.00  0.00     0.041 C 
ATOM      8  O   UNL     1      22.259   4.667 -13.010  1.00  0.00    -0.550 OA
ATOM      9  O   UNL     1      24.306   5.358 -13.774  1.00  0.00    -0.550 OA
ENDBRANCH   6   7
ENDBRANCH   5   6
ENDBRANCH   4   5
ENDBRANCH   3   4
ENDBRANCH   2   3
ENDBRANCH   1   2
BRANCH   1  10
ATOM     10  C   UNL     1      17.610   4.845 -10.499  1.00  0.00     0.000 C 
BRANCH  10  11
ATOM     11  C   UNL     1      17.350   3.635 -11.413  1.00  0.00    -0.000 C 
BRANCH  11  12
ATOM     12  C   UNL     1      18.514   3.362 -12.378  1.00  0.00    -0.000 C 
BRANCH  12  13
ATOM     13  C   UNL     1      18.479   1.942 -12.965  1.00  0.00    -0.000 C 
BRANCH  13  14
ATOM     14  C   UNL     1      19.079   1.917 -14.376  1.00  0.00    -0.000 C 
BRANCH  14  15
ATOM     15  C   UNL     1      18.067   1.369 -15.394  1.00  0.00    -0.000 C 
BRANCH  15  16
ATOM     16  C   UNL     1      17.530  -0.017 -15.006  1.00  0.00    -0.003 C 
ATOM     17  C   UNL     1      17.139  -0.861 -16.218  1.00  0.00     0.004 C 
ENDBRANCH  15  16
ENDBRANCH  14  15
ENDBRANCH  13  14
ENDBRANCH  12  13
ENDBRANCH  11  12
ENDBRANCH  10  11
ENDBRANCH   1  10
TORSDOF 13
ENDMDL
MODEL 9
REMARK VINA RESULT:    -2.486      1.997      3.938
REMARK INTER + INTRA:          -5.216
REMARK INTER:                  -3.851
REMARK INTRA:                  -1.365
REMARK UNBOUND:                -0.840
REMARK SMILES CCCCCCCCCCCCCCC(=O)[O-]
REMARK SMILES IDX 9 1 10 2 11 3 12 4 13 5 14 6 15 7 16 8 17 9 8 10 7 11 6 12
REMARK SMILES IDX 5 13 4 14 3 15 2 16 1 17
REMARK H PARENT
REMARK Flexibility Score: inf
ROOT
ATOM      1  C   UNL     1      19.380   2.884 -13.740  1.00  0.00     0.000 C 
ENDROOT
BRANCH   1   2
ATOM      2  C   UNL     1      19.879   4.337 -13.724  1.00  0.00     0.000 C 
BRANCH   2   3
ATOM      3  C   UNL     1      21.246   4.438 -13.029  1.00  0.00     0.000 C 
BRANCH   3   4
ATOM      4  C   UNL     1      21.633   5.886 -12.688  1.00  0.00     0.000 C 
BRANCH   4   5
ATOM      5  C   UNL     1      23.120   6.179 -12.954  1.00  0.00     0.006 C 
BRANCH   5   6
ATOM      6  C   UNL     1      23.887   4.926 -13.394  1.00  0.00     0.053 C 
BRANCH   6   7
ATOM      7  C   UNL     1      25.149   5.271 -14.122  1.00  0.00     0.041 C 
ATOM      8  O   UNL     1      25.983   4.372 -14.408  1.00  0.00    -0.550 OA
ATOM      9  O   UNL     1      25.393   6.583 -14.512  1.00  0.00    -0.550 OA
ENDBRANCH   6   7
ENDBRANCH   5   6
ENDBRANCH   4   5
ENDBRANCH   3   4
ENDBRANCH   2   3
ENDBRANCH   1   2
BRANCH   1  10
ATOM     10  C   UNL     1      18.273   2.624 -12.705  1.00  0.00     0.000 C 
BRANCH  10  11
ATOM     11  C   UNL     1      18.396   3.528 -11.466  1.00  0.00    -0.000 C 
BRANCH  11  12
ATOM     12  C   UNL     1      17.034   4.032 -10.965  1.00  0.00    -0.000 C 
BRANCH  12  13
ATOM     13  C   UNL     1      17.090   5.475 -10.440  1.00  0.00    -0.000 C 
BRANCH  13  14
ATOM     14  C   UNL     1      18.240   6.252 -11.093  1.00  0.00    -0.000 C 
BRANCH  14  15
ATOM     15  C   UNL     1      19.195   6.817 -10.031  1.00  0.00    -0.000 C 
BRANCH  15  16
ATOM     16  C   UNL     1      20.051   5.727  -9.368  1.00  0.00    -0.003 C 
ATOM     17  C   UNL     1      21.508   6.150  -9.181  1.00  0.00     0.004 C 
ENDBRANCH  15  16
ENDBRANCH  14  15
ENDBRANCH  13  14
ENDBRANCH  12  13
ENDBRANCH  11  12
ENDBRANCH  10  11
ENDBRANCH   1  10
TORSDOF 13
ENDMDL
