MODEL 1
REMARK VINA RESULT:    -4.266      0.000      0.000
REMARK INTER + INTRA:          -9.451
REMARK INTER:                  -7.757
REMARK INTRA:                  -1.694
REMARK UNBOUND:                -1.694
REMARK SMILES CCCCCCCCCCCCCCCC(=O)[O-]
REMARK SMILES IDX 9 1 10 2 11 3 12 4 13 5 14 6 15 7 16 8 17 9 18 10 8 11 7 12
REMARK SMILES IDX 6 13 5 14 4 15 3 16 2 17 1 18
REMARK H PARENT
REMARK Flexibility Score: inf
ROOT
ATOM      1  C   UNL     1      58.385  34.661  80.551  1.00  0.00     0.000 C 
ENDROOT
BRANCH   1   2
ATOM      2  C   UNL     1      58.985  33.738  79.474  1.00  0.00     0.000 C 
BRANCH   2   3
ATOM      3  C   UNL     1      57.961  33.076  78.534  1.00  0.00     0.000 C 
BRANCH   3   4
ATOM      4  C   UNL     1      57.617  33.944  77.313  1.00  0.00     0.000 C 
BRANCH   4   5
ATOM      5  C   UNL     1      58.019  33.239  76.009  1.00  0.00     0.000 C 
BRANCH   5   6
ATOM      6  C   UNL     1      57.876  31.708  76.089  1.00  0.00     0.006 C 
BRANCH   6   7
ATOM      7  C   UNL     1      57.415  31.047  74.781  1.00  0.00     0.053 C 
BRANCH   7   8
ATOM      8  C   UNL     1      56.564  29.839  75.032  1.00  0.00     0.041 C 
ATOM      9  O   UNL     1      56.877  29.020  75.935  1.00  0.00    -0.550 OA
ATOM     10  O   UNL     1      55.444  29.603  74.245  1.00  0.00    -0.550 OA
ENDBRANCH   7   8
ENDBRANCH   6   7
ENDBRANCH   5   6
ENDBRANCH   4   5
ENDBRANCH   3   4
ENDBRANCH   2   3
ENDBRANCH   1   2
BRANCH   1  11
ATOM     11  C   UNL     1      59.010  36.066  80.553  1.00  0.00     0.000 C 
BRANCH  11  12
ATOM     12  C   UNL     1      57.968  37.187  80.722  1.00  0.00    -0.000 C 
BRANCH  12  13
ATOM     13  C   UNL     1      56.756  37.101  79.777  1.00  0.00    -0.000 C 
BRANCH  13  14
ATOM     14  C   UNL     1      57.111  37.428  78.315  1.00  0.00    -0.000 C 
BRANCH  14  15
ATOM     15  C   UNL     1      57.949  38.710  78.181  1.00  0.00    -0.000 C 
BRANCH  15  16
ATOM     16  C   UNL     1      59.306  38.457  77.504  1.00  0.00    -0.000 C 
BRANCH  16  17
ATOM     17  C   UNL     1      59.437  37.023  76.967  1.00  0.00    -0.003 C 
ATOM     18  C   UNL     1      59.968  36.974  75.534  1.00  0.00     0.004 C 
ENDBRANCH  16  17
ENDBRANCH  15  16
ENDBRANCH  14  15
ENDBRANCH  13  14
ENDBRANCH  12  13
ENDBRANCH  11  12
ENDBRANCH   1  11
TORSDOF 14
ENDMDL
MODEL 2
REMARK VINA RESULT:    -4.153      1.912      2.674
REMARK INTER + INTRA:          -9.247
REMARK INTER:                  -7.842
REMARK INTRA:                  -1.404
REMARK UNBOUND:                -1.694
REMARK SMILES CCCCCCCCCCCCCCCC(=O)[O-]
REMARK SMILES IDX 9 1 10 2 11 3 12 4 13 5 14 6 15 7 16 8 17 9 18 10 8 11 7 12
REMARK SMILES IDX 6 13 5 14 4 15 3 16 2 17 1 18
REMARK H PARENT
REMARK Flexibility Score: inf
ROOT
ATOM      1  C   UNL     1      57.974  33.525  79.616  1.00  0.00     0.000 C 
ENDROOT
BRANCH   1   2
ATOM      2  C   UNL     1      57.863  33.552  78.080  1.00  0.00     0.000 C 
BRANCH   2   3
ATOM      3  C   UNL     1      58.286  32.254  77.369  1.00  0.00     0.000 C 
BRANCH   3   4
ATOM      4  C   UNL     1      58.337  32.395  75.840  1.00  0.00     0.000 C 
BRANCH   4   5
ATOM      5  C   UNL     1      57.461  31.331  75.161  1.00  0.00     0.000 C 
BRANCH   5   6
ATOM      6  C   UNL     1      57.399  30.014  75.957  1.00  0.00     0.006 C 
BRANCH   6   7
ATOM      7  C   UNL     1      58.102  28.830  75.276  1.00  0.00     0.053 C 
BRANCH   7   8
ATOM      8  C   UNL     1      59.566  28.789  75.592  1.00  0.00     0.041 C 
ATOM      9  O   UNL     1      60.378  29.482  74.924  1.00  0.00    -0.550 OA
ATOM     10  O   UNL     1      60.037  27.959  76.602  1.00  0.00    -0.550 OA
ENDBRANCH   7   8
ENDBRANCH   6   7
ENDBRANCH   5   6
ENDBRANCH   4   5
ENDBRANCH   3   4
ENDBRANCH   2   3
ENDBRANCH   1   2
BRANCH   1  11
ATOM     11  C   UNL     1      59.241  34.223  80.138  1.00  0.00     0.000 C 
BRANCH  11  12
ATOM     12  C   UNL     1      58.941  35.296  81.202  1.00  0.00    -0.000 C 
BRANCH  12  13
ATOM     13  C   UNL     1      58.289  36.583  80.666  1.00  0.00    -0.000 C 
BRANCH  13  14
ATOM     14  C   UNL     1      58.924  37.074  79.352  1.00  0.00    -0.000 C 
BRANCH  14  15
ATOM     15  C   UNL     1      57.908  37.758  78.422  1.00  0.00    -0.000 C 
BRANCH  15  16
ATOM     16  C   UNL     1      56.528  37.080  78.458  1.00  0.00    -0.000 C 
BRANCH  16  17
ATOM     17  C   UNL     1      56.105  36.535  77.084  1.00  0.00    -0.003 C 
ATOM     18  C   UNL     1      56.820  37.230  75.925  1.00  0.00     0.004 C 
ENDBRANCH  16  17
ENDBRANCH  15  16
ENDBRANCH  14  15
ENDBRANCH  13  14
ENDBRANCH  12  13
ENDBRANCH  11  12
ENDBRANCH   1  11
TORSDOF 14
ENDMDL
MODEL 3
REMARK VINA RESULT:    -4.140      3.132      6.207
REMARK INTER + INTRA:          -9.223
REMARK INTER:                  -7.671
REMARK INTRA:                  -1.552
REMARK UNBOUND:                -1.694
REMARK SMILES CCCCCCCCCCCCCCCC(=O)[O-]
REMARK SMILES IDX 9 1 10 2 11 3 12 4 13 5 14 6 15 7 16 8 17 9 18 10 8 11 7 12
REMARK SMILES IDX 6 13 5 14 4 15 3 16 2 17 1 18
REMARK H PARENT
REMARK Flexibility Score: inf
ROOT
ATOM      1  C   UNL     1      57.788  33.490  79.953  1.00  0.00     0.000 C 
ENDROOT
BRANCH   1   2
ATOM      2  C   UNL     1      59.088  34.253  80.266  1.00  0.00     0.000 C 
BRANCH   2   3
ATOM      3  C   UNL     1      58.901  35.595  80.997  1.00  0.00     0.000 C 
BRANCH   3   4
ATOM      4  C   UNL     1      58.523  36.746  80.052  1.00  0.00     0.000 C 
BRANCH   4   5
ATOM      5  C   UNL     1      57.049  37.140  80.230  1.00  0.00     0.000 C 
BRANCH   5   6
ATOM      6  C   UNL     1      56.431  37.732  78.951  1.00  0.00     0.006 C 
BRANCH   6   7
ATOM      7  C   UNL     1      56.435  36.778  77.746  1.00  0.00     0.053 C 
BRANCH   7   8
ATOM      8  C   UNL     1      57.166  37.357  76.573  1.00  0.00     0.041 C 
ATOM      9  O   UNL     1      58.425  37.360  76.550  1.00  0.00    -0.550 OA
ATOM     10  O   UNL     1      56.456  37.923  75.522  1.00  0.00    -0.550 OA
ENDBRANCH   7   8
ENDBRANCH   6   7
ENDBRANCH   5   6
ENDBRANCH   4   5
ENDBRANCH   3   4
ENDBRANCH   2   3
ENDBRANCH   1   2
BRANCH   1  11
ATOM     11  C   UNL     1      57.783  32.864  78.548  1.00  0.00     0.000 C 
BRANCH  11  12
ATOM     12  C   UNL     1      58.173  33.864  77.443  1.00  0.00    -0.000 C 
BRANCH  12  13
ATOM     13  C   UNL     1      57.623  33.539  76.043  1.00  0.00    -0.000 C 
BRANCH  13  14
ATOM     14  C   UNL     1      58.733  33.263  75.013  1.00  0.00    -0.000 C 
BRANCH  14  15
ATOM     15  C   UNL     1      58.580  31.895  74.327  1.00  0.00    -0.000 C 
BRANCH  15  16
ATOM     16  C   UNL     1      57.770  30.899  75.175  1.00  0.00    -0.000 C 
BRANCH  16  17
ATOM     17  C   UNL     1      56.517  30.389  74.447  1.00  0.00    -0.003 C 
ATOM     18  C   UNL     1      56.171  31.219  73.210  1.00  0.00     0.004 C 
ENDBRANCH  16  17
ENDBRANCH  15  16
ENDBRANCH  14  15
ENDBRANCH  13  14
ENDBRANCH  12  13
ENDBRANCH  11  12
ENDBRANCH   1  11
TORSDOF 14
ENDMDL
MODEL 4
REMARK VINA RESULT:    -4.106      3.445      6.873
REMARK INTER + INTRA:          -9.161
REMARK INTER:                  -7.495
REMARK INTRA:                  -1.666
REMARK UNBOUND:                -1.694
REMARK SMILES CCCCCCCCCCCCCCCC(=O)[O-]
REMARK SMILES IDX 9 1 10 2 11 3 12 4 13 5 14 6 15 7 16 8 17 9 18 10 8 11 7 12
REMARK SMILES IDX 6 13 5 14 4 15 3 16 2 17 1 18
REMARK H PARENT
REMARK Flexibility Score: inf
ROOT
ATOM      1  C   UNL     1      58.402  34.924  76.236  1.00  0.00     0.000 C 
ENDROOT
BRANCH   1   2
ATOM      2  C   UNL     1      57.464  34.043  77.082  1.00  0.00     0.000 C 
BRANCH   2   3
ATOM      3  C   UNL     1      58.166  32.980  77.947  1.00  0.00     0.000 C 
BRANCH   3   4
ATOM      4  C   UNL     1      58.890  33.576  79.164  1.00  0.00     0.000 C 
BRANCH   4   5
ATOM      5  C   UNL     1      57.967  34.529  79.939  1.00  0.00     0.000 C 
BRANCH   5   6
ATOM      6  C   UNL     1      58.742  35.547  80.795  1.00  0.00     0.006 C 
BRANCH   6   7
ATOM      7  C   UNL     1      58.286  37.003  80.614  1.00  0.00     0.053 C 
BRANCH   7   8
ATOM      8  C   UNL     1      58.275  37.413  79.173  1.00  0.00     0.041 C 
ATOM      9  O   UNL     1      57.190  37.706  78.607  1.00  0.00    -0.550 OA
ATOM     10  O   UNL     1      59.460  37.440  78.449  1.00  0.00    -0.550 OA
ENDBRANCH   7   8
ENDBRANCH   6   7
ENDBRANCH   5   6
ENDBRANCH   4   5
ENDBRANCH   3   4
ENDBRANCH   2   3
ENDBRANCH   1   2
BRANCH   1  11
ATOM     11  C   UNL     1      57.770  35.366  74.905  1.00  0.00     0.000 C 
BRANCH  11  12
ATOM     12  C   UNL     1      56.286  34.974  74.784  1.00  0.00    -0.000 C 
BRANCH  12  13
ATOM     13  C   UNL     1      55.880  34.359  73.433  1.00  0.00    -0.000 C 
BRANCH  13  14
ATOM     14  C   UNL     1      56.926  33.368  72.888  1.00  0.00    -0.000 C 
BRANCH  14  15
ATOM     15  C   UNL     1      56.613  31.910  73.262  1.00  0.00    -0.000 C 
BRANCH  15  16
ATOM     16  C   UNL     1      57.480  31.401  74.425  1.00  0.00    -0.000 C 
BRANCH  16  17
ATOM     17  C   UNL     1      56.869  30.176  75.123  1.00  0.00    -0.003 C 
ATOM     18  C   UNL     1      55.713  29.560  74.334  1.00  0.00     0.004 C 
ENDBRANCH  16  17
ENDBRANCH  15  16
ENDBRANCH  14  15
ENDBRANCH  13  14
ENDBRANCH  12  13
ENDBRANCH  11  12
ENDBRANCH   1  11
TORSDOF 14
ENDMDL
MODEL 5
REMARK VINA RESULT:    -4.074      1.368      2.031
REMARK INTER + INTRA:          -9.103
REMARK INTER:                  -7.492
REMARK INTRA:                  -1.610
REMARK UNBOUND:                -1.694
REMARK SMILES CCCCCCCCCCCCCCCC(=O)[O-]
REMARK SMILES IDX 9 1 10 2 11 3 12 4 13 5 14 6 15 7 16 8 17 9 18 10 8 11 7 12
REMARK SMILES IDX 6 13 5 14 4 15 3 16 2 17 1 18
REMARK H PARENT
REMARK Flexibility Score: inf
ROOT
ATOM      1  C   UNL     1      58.741  35.222  80.805  1.00  0.00     0.000 C 
ENDROOT
BRANCH   1   2
ATOM      2  C   UNL     1      58.232  33.892  80.218  1.00  0.00     0.000 C 
BRANCH   2   3
ATOM      3  C   UNL     1      58.748  33.558  78.806  1.00  0.00     0.000 C 
BRANCH   3   4
ATOM      4  C   UNL     1      57.927  32.462  78.110  1.00  0.00     0.000 C 
BRANCH   4   5
ATOM      5  C   UNL     1      58.770  31.733  77.053  1.00  0.00     0.000 C 
BRANCH   5   6
ATOM      6  C   UNL     1      58.112  31.731  75.662  1.00  0.00     0.006 C 
BRANCH   6   7
ATOM      7  C   UNL     1      57.663  30.344  75.176  1.00  0.00     0.053 C 
BRANCH   7   8
ATOM      8  C   UNL     1      56.454  30.422  74.294  1.00  0.00     0.041 C 
ATOM      9  O   UNL     1      56.385  31.295  73.389  1.00  0.00    -0.550 OA
ATOM     10  O   UNL     1      55.390  29.551  74.494  1.00  0.00    -0.550 OA
ENDBRANCH   7   8
ENDBRANCH   6   7
ENDBRANCH   5   6
ENDBRANCH   4   5
ENDBRANCH   3   4
ENDBRANCH   2   3
ENDBRANCH   1   2
BRANCH   1  11
ATOM     11  C   UNL     1      57.917  36.436  80.346  1.00  0.00     0.000 C 
BRANCH  11  12
ATOM     12  C   UNL     1      58.765  37.502  79.629  1.00  0.00    -0.000 C 
BRANCH  12  13
ATOM     13  C   UNL     1      58.745  37.428  78.091  1.00  0.00    -0.000 C 
BRANCH  13  14
ATOM     14  C   UNL     1      57.684  38.350  77.462  1.00  0.00    -0.000 C 
BRANCH  14  15
ATOM     15  C   UNL     1      56.883  37.658  76.347  1.00  0.00    -0.000 C 
BRANCH  15  16
ATOM     16  C   UNL     1      56.249  36.336  76.812  1.00  0.00    -0.000 C 
BRANCH  16  17
ATOM     17  C   UNL     1      56.698  35.137  75.963  1.00  0.00    -0.003 C 
ATOM     18  C   UNL     1      57.880  35.467  75.050  1.00  0.00     0.004 C 
ENDBRANCH  16  17
ENDBRANCH  15  16
ENDBRANCH  14  15
ENDBRANCH  13  14
ENDBRANCH  12  13
ENDBRANCH  11  12
ENDBRANCH   1  11
TORSDOF 14
ENDMDL
MODEL 6
REMARK VINA RESULT:    -4.066      1.248      2.546
REMARK INTER + INTRA:          -9.087
REMARK INTER:                  -7.177
REMARK INTRA:                  -1.910
REMARK UNBOUND:                -1.694
REMARK SMILES CCCCCCCCCCCCCCCC(=O)[O-]
REMARK SMILES IDX 9 1 10 2 11 3 12 4 13 5 14 6 15 7 16 8 17 9 18 10 8 11 7 12
REMARK SMILES IDX 6 13 5 14 4 15 3 16 2 17 1 18
REMARK H PARENT
REMARK Flexibility Score: inf
ROOT
ATOM      1  C   UNL     1      57.690  37.178  80.874  1.00  0.00     0.000 C 
ENDROOT
BRANCH   1   2
ATOM      2  C   UNL     1      58.793  36.266  80.308  1.00  0.00     0.000 C 
BRANCH   2   3
ATOM      3  C   UNL     1      58.636  34.768  80.631  1.00  0.00     0.000 C 
BRANCH   3   4
ATOM      4  C   UNL     1      59.096  33.855  79.484  1.00  0.00     0.000 C 
BRANCH   4   5
ATOM      5  C   UNL     1      57.897  33.152  78.829  1.00  0.00     0.000 C 
BRANCH   5   6
ATOM      6  C   UNL     1      58.153  32.784  77.356  1.00  0.00     0.006 C 
BRANCH   6   7
ATOM      7  C   UNL     1      58.134  31.275  77.069  1.00  0.00     0.053 C 
BRANCH   7   8
ATOM      8  C   UNL     1      57.787  30.979  75.641  1.00  0.00     0.041 C 
ATOM      9  O   UNL     1      57.374  31.897  74.886  1.00  0.00    -0.550 OA
ATOM     10  O   UNL     1      57.888  29.681  75.156  1.00  0.00    -0.550 OA
ENDBRANCH   7   8
ENDBRANCH   6   7
ENDBRANCH   5   6
ENDBRANCH   4   5
ENDBRANCH   3   4
ENDBRANCH   2   3
ENDBRANCH   1   2
BRANCH   1  11
ATOM     11  C   UNL     1      56.512  37.369  79.904  1.00  0.00     0.000 C 
BRANCH  11  12
ATOM     12  C   UNL     1      56.961  37.539  78.440  1.00  0.00    -0.000 C 
BRANCH  12  13
ATOM     13  C   UNL     1      56.309  36.567  77.440  1.00  0.00    -0.000 C 
BRANCH  13  14
ATOM     14  C   UNL     1      57.275  36.112  76.331  1.00  0.00    -0.000 C 
BRANCH  14  15
ATOM     15  C   UNL     1      58.752  36.281  76.726  1.00  0.00    -0.000 C 
BRANCH  15  16
ATOM     16  C   UNL     1      59.625  36.749  75.549  1.00  0.00    -0.000 C 
BRANCH  16  17
ATOM     17  C   UNL     1      59.510  38.260  75.296  1.00  0.00    -0.003 C 
ATOM     18  C   UNL     1      59.720  39.090  76.563  1.00  0.00     0.004 C 
ENDBRANCH  16  17
ENDBRANCH  15  16
ENDBRANCH  14  15
ENDBRANCH  13  14
ENDBRANCH  12  13
ENDBRANCH  11  12
ENDBRANCH   1  11
TORSDOF 14
ENDMDL
MODEL 7
REMARK VINA RESULT:    -4.064      2.610      5.646
REMARK INTER + INTRA:          -9.083
REMARK INTER:                  -7.350
REMARK INTRA:                  -1.733
REMARK UNBOUND:                -1.694
REMARK SMILES CCCCCCCCCCCCCCCC(=O)[O-]
REMARK SMILES IDX 9 1 10 2 11 3 12 4 13 5 14 6 15 7 16 8 17 9 18 10 8 11 7 12
REMARK SMILES IDX 6 13 5 14 4 15 3 16 2 17 1 18
REMARK H PARENT
REMARK Flexibility Score: inf
ROOT
ATOM      1  C   UNL     1      57.738  35.540  80.010  1.00  0.00     0.000 C 
ENDROOT
BRANCH   1   2
ATOM      2  C   UNL     1      58.383  36.882  80.400  1.00  0.00     0.000 C 
BRANCH   2   3
ATOM      3  C   UNL     1      58.710  37.820  79.223  1.00  0.00     0.000 C 
BRANCH   3   4
ATOM      4  C   UNL     1      59.566  37.148  78.138  1.00  0.00     0.000 C 
BRANCH   4   5
ATOM      5  C   UNL     1      58.760  36.955  76.845  1.00  0.00     0.000 C 
BRANCH   5   6
ATOM      6  C   UNL     1      57.339  37.540  76.934  1.00  0.00     0.006 C 
BRANCH   6   7
ATOM      7  C   UNL     1      56.221  36.541  76.596  1.00  0.00     0.053 C 
BRANCH   7   8
ATOM      8  C   UNL     1      56.092  36.321  75.120  1.00  0.00     0.041 C 
ATOM      9  O   UNL     1      56.014  35.153  74.657  1.00  0.00    -0.550 OA
ATOM     10  O   UNL     1      56.090  37.407  74.253  1.00  0.00    -0.550 OA
ENDBRANCH   7   8
ENDBRANCH   6   7
ENDBRANCH   5   6
ENDBRANCH   4   5
ENDBRANCH   3   4
ENDBRANCH   2   3
ENDBRANCH   1   2
BRANCH   1  11
ATOM     11  C   UNL     1      58.571  34.324  80.449  1.00  0.00     0.000 C 
BRANCH  11  12
ATOM     12  C   UNL     1      59.080  33.484  79.263  1.00  0.00    -0.000 C 
BRANCH  12  13
ATOM     13  C   UNL     1      57.981  32.877  78.373  1.00  0.00    -0.000 C 
BRANCH  13  14
ATOM     14  C   UNL     1      58.038  33.386  76.921  1.00  0.00    -0.000 C 
BRANCH  14  15
ATOM     15  C   UNL     1      57.855  32.259  75.890  1.00  0.00    -0.000 C 
BRANCH  15  16
ATOM     16  C   UNL     1      58.013  30.862  76.512  1.00  0.00    -0.000 C 
BRANCH  16  17
ATOM     17  C   UNL     1      58.036  29.747  75.454  1.00  0.00    -0.003 C 
ATOM     18  C   UNL     1      56.639  29.372  74.959  1.00  0.00     0.004 C 
ENDBRANCH  16  17
ENDBRANCH  15  16
ENDBRANCH  14  15
ENDBRANCH  13  14
ENDBRANCH  12  13
ENDBRANCH  11  12
ENDBRANCH   1  11
TORSDOF 14
ENDMDL
MODEL 8
REMARK VINA RESULT:    -4.053      1.424      3.186
REMARK INTER + INTRA:          -9.065
REMARK INTER:                  -7.331
REMARK INTRA:                  -1.734
REMARK UNBOUND:                -1.694
REMARK SMILES CCCCCCCCCCCCCCCC(=O)[O-]
REMARK SMILES IDX 9 1 10 2 11 3 12 4 13 5 14 6 15 7 16 8 17 9 18 10 8 11 7 12
REMARK SMILES IDX 6 13 5 14 4 15 3 16 2 17 1 18
REMARK H PARENT
REMARK Flexibility Score: inf
ROOT
ATOM      1  C   UNL     1      58.057  34.760  76.970  1.00  0.00     0.000 C 
ENDROOT
BRANCH   1   2
ATOM      2  C   UNL     1      56.906  35.013  75.979  1.00  0.00     0.000 C 
BRANCH   2   3
ATOM      3  C   UNL     1      57.324  35.624  74.629  1.00  0.00     0.000 C 
BRANCH   3   4
ATOM      4  C   UNL     1      57.564  34.568  73.539  1.00  0.00     0.000 C 
BRANCH   4   5
ATOM      5  C   UNL     1      56.599  33.384  73.701  1.00  0.00     0.000 C 
BRANCH   5   6
ATOM      6  C   UNL     1      57.301  32.019  73.578  1.00  0.00     0.006 C 
BRANCH   6   7
ATOM      7  C   UNL     1      57.354  31.214  74.886  1.00  0.00     0.053 C 
BRANCH   7   8
ATOM      8  C   UNL     1      56.666  29.889  74.758  1.00  0.00     0.041 C 
ATOM      9  O   UNL     1      55.540  29.811  74.201  1.00  0.00    -0.550 OA
ATOM     10  O   UNL     1      57.256  28.747  75.284  1.00  0.00    -0.550 OA
ENDBRANCH   7   8
ENDBRANCH   6   7
ENDBRANCH   5   6
ENDBRANCH   4   5
ENDBRANCH   3   4
ENDBRANCH   2   3
ENDBRANCH   1   2
BRANCH   1  11
ATOM     11  C   UNL     1      57.824  33.527  77.859  1.00  0.00     0.000 C 
BRANCH  11  12
ATOM     12  C   UNL     1      58.727  33.506  79.106  1.00  0.00    -0.000 C 
BRANCH  12  13
ATOM     13  C   UNL     1      58.148  34.213  80.345  1.00  0.00    -0.000 C 
BRANCH  13  14
ATOM     14  C   UNL     1      58.912  35.498  80.713  1.00  0.00    -0.000 C 
BRANCH  14  15
ATOM     15  C   UNL     1      58.038  36.758  80.608  1.00  0.00    -0.000 C 
BRANCH  15  16
ATOM     16  C   UNL     1      58.381  37.611  79.375  1.00  0.00    -0.000 C 
BRANCH  16  17
ATOM     17  C   UNL     1      57.136  37.988  78.556  1.00  0.00    -0.003 C 
ATOM     18  C   UNL     1      57.481  38.549  77.177  1.00  0.00     0.004 C 
ENDBRANCH  16  17
ENDBRANCH  15  16
ENDBRANCH  14  15
ENDBRANCH  13  14
ENDBRANCH  12  13
ENDBRANCH  11  12
ENDBRANCH   1  11
TORSDOF 14
ENDMDL
MODEL 9
REMARK VINA RESULT:    -4.040      1.493      3.397
REMARK INTER + INTRA:          -9.040
REMARK INTER:                  -7.468
REMARK INTRA:                  -1.572
REMARK UNBOUND:                -1.694
REMARK SMILES CCCCCCCCCCCCCCCC(=O)[O-]
REMARK SMILES IDX 9 1 10 2 11 3 12 4 13 5 14 6 15 7 16 8 17 9 18 10 8 11 7 12
REMARK SMILES IDX 6 13 5 14 4 15 3 16 2 17 1 18
REMARK H PARENT
REMARK Flexibility Score: inf
ROOT
ATOM      1  C   UNL     1      56.952  35.693  76.814  1.00  0.00     0.000 C 
ENDROOT
BRANCH   1   2
ATOM      2  C   UNL     1      56.424  35.396  75.399  1.00  0.00     0.000 C 
BRANCH   2   3
ATOM      3  C   UNL     1      57.481  34.902  74.394  1.00  0.00     0.000 C 
BRANCH   3   4
ATOM      4  C   UNL     1      58.609  34.095  75.056  1.00  0.00     0.000 C 
BRANCH   4   5
ATOM      5  C   UNL     1      59.070  32.949  74.144  1.00  0.00     0.000 C 
BRANCH   5   6
ATOM      6  C   UNL     1      58.573  31.571  74.619  1.00  0.00     0.006 C 
BRANCH   6   7
ATOM      7  C   UNL     1      57.122  31.252  74.223  1.00  0.00     0.053 C 
BRANCH   7   8
ATOM      8  C   UNL     1      56.601  30.039  74.932  1.00  0.00     0.041 C 
ATOM      9  O   UNL     1      57.279  29.499  75.845  1.00  0.00    -0.550 OA
ATOM     10  O   UNL     1      55.381  29.488  74.561  1.00  0.00    -0.550 OA
ENDBRANCH   7   8
ENDBRANCH   6   7
ENDBRANCH   5   6
ENDBRANCH   4   5
ENDBRANCH   3   4
ENDBRANCH   2   3
ENDBRANCH   1   2
BRANCH   1  11
ATOM     11  C   UNL     1      56.169  36.811  77.524  1.00  0.00     0.000 C 
BRANCH  11  12
ATOM     12  C   UNL     1      57.001  37.539  78.596  1.00  0.00    -0.000 C 
BRANCH  12  13
ATOM     13  C   UNL     1      57.203  36.761  79.908  1.00  0.00    -0.000 C 
BRANCH  13  14
ATOM     14  C   UNL     1      58.685  36.467  80.207  1.00  0.00    -0.000 C 
BRANCH  14  15
ATOM     15  C   UNL     1      58.889  35.127  80.933  1.00  0.00    -0.000 C 
BRANCH  15  16
ATOM     16  C   UNL     1      58.119  33.974  80.268  1.00  0.00    -0.000 C 
BRANCH  16  17
ATOM     17  C   UNL     1      58.843  33.421  79.030  1.00  0.00    -0.003 C 
ATOM     18  C   UNL     1      57.949  32.526  78.171  1.00  0.00     0.004 C 
ENDBRANCH  16  17
ENDBRANCH  15  16
ENDBRANCH  14  15
ENDBRANCH  13  14
ENDBRANCH  12  13
ENDBRANCH  11  12
ENDBRANCH   1  11
TORSDOF 14
ENDMDL
