MODEL 1
REMARK VINA RESULT:   -10.468      0.000      0.000
REMARK INTER + INTRA:         -29.938
REMARK INTER:                 -24.850
REMARK INTRA:                  -5.089
REMARK UNBOUND:                -5.089
REMARK SMILES O=C(OC[C@@H]1O[C@@H](OC(=O)c2cc(O)c(O)c(O)c2)[C@@H](OC(=O)c2cc(O)c(O)c(O)c2)[C@H](OC(=O)c2cc(O)c(O)c(O)c2)[C@@H]1OC(=O)c1cc(O)c(O)c(O)c1)c1cc(O)c(O)c(O)c1
REMARK SMILES IDX 5 1 46 2 33 3 20 4 7 5 6 6 4 7 3 8 2 9 1 10 59 11 60 12
REMARK SMILES IDX 61 13 67 14 63 15 65 16 62 17 64 19 66 21 47 23 48 24 49 25
REMARK SMILES IDX 50 26 58 27 51 28 56 29 52 30 54 31 57 32 53 34 55 36 34 38
REMARK SMILES IDX 35 39 36 40 37 41 45 42 38 43 43 44 39 45 41 46 44 47 40 49
REMARK SMILES IDX 42 51 8 53 9 54 10 55 11 56 19 57 12 58 17 59 13 60 15 61
REMARK SMILES IDX 18 62 14 64 16 66 21 68 22 69 23 70 24 71 32 72 25 73 30 74
REMARK SMILES IDX 26 75 28 76 31 77 27 79 29 81
REMARK H PARENT 62 18 64 20 66 22 57 33 53 35 55 37 44 48 40 50 42 52 18 63
REMARK H PARENT 14 65 16 67 31 78 27 80 29 82
REMARK Flexibility Score: inf
ROOT
ATOM      1  C   UNL     1      28.971  55.084  13.808  1.00  0.00     0.205 C 
ATOM      2  C   UNL     1      27.867  54.456  12.929  1.00  0.00     0.254 C 
ATOM      3  C   UNL     1      26.724  53.954  13.834  1.00  0.00     0.267 C 
ATOM      4  C   UNL     1      27.286  53.039  14.937  1.00  0.00     0.290 C 
ATOM      5  C   UNL     1      28.457  53.732  15.656  1.00  0.00     0.357 C 
ATOM      6  O   UNL     1      29.464  54.133  14.740  1.00  0.00    -0.329 OA
ENDROOT
BRANCH   1   7
ATOM      7  C   UNL     1      30.137  55.599  12.948  1.00  0.00     0.269 C 
BRANCH   7   8
ATOM      8  O   UNL     1      29.912  56.951  12.553  1.00  0.00    -0.459 OA
BRANCH   8   9
ATOM      9  C   UNL     1      29.039  57.335  11.528  1.00  0.00     0.338 C 
ATOM     10  O   UNL     1      29.405  57.266  10.324  1.00  0.00    -0.246 OA
BRANCH   9  11
ATOM     11  C   UNL     1      27.672  57.789  11.865  1.00  0.00     0.067 A 
ATOM     12  C   UNL     1      27.466  58.674  12.931  1.00  0.00     0.066 A 
ATOM     13  C   UNL     1      26.179  59.098  13.270  1.00  0.00     0.162 A 
ATOM     14  C   UNL     1      26.566  57.337  11.130  1.00  0.00     0.066 A 
ATOM     15  C   UNL     1      25.068  58.636  12.540  1.00  0.00     0.200 A 
ATOM     16  C   UNL     1      25.269  57.751  11.452  1.00  0.00     0.162 A 
BRANCH  13  17
ATOM     17  O   UNL     1      26.019  59.967  14.351  1.00  0.00    -0.504 OA
ATOM     18  H   UNL     1      25.352  60.730  14.340  1.00  0.00     0.293 HD
ENDBRANCH  13  17
BRANCH  15  19
ATOM     19  O   UNL     1      23.795  59.067  12.924  1.00  0.00    -0.502 OA
ATOM     20  H   UNL     1      23.232  58.612  13.626  1.00  0.00     0.293 HD
ENDBRANCH  15  19
BRANCH  16  21
ATOM     21  O   UNL     1      24.218  57.269  10.665  1.00  0.00    -0.504 OA
ATOM     22  H   UNL     1      23.678  57.835  10.032  1.00  0.00     0.293 HD
ENDBRANCH  16  21
ENDBRANCH   9  11
ENDBRANCH   8   9
ENDBRANCH   7   8
ENDBRANCH   1   7
BRANCH   2  23
ATOM     23  O   UNL     1      28.413  53.364  12.189  1.00  0.00    -0.452 OA
BRANCH  23  24
ATOM     24  C   UNL     1      28.766  53.434  10.834  1.00  0.00     0.338 C 
ATOM     25  O   UNL     1      29.978  53.526  10.495  1.00  0.00    -0.246 OA
BRANCH  24  26
ATOM     26  C   UNL     1      27.709  53.397   9.803  1.00  0.00     0.067 A 
ATOM     27  C   UNL     1      27.516  52.249   9.014  1.00  0.00     0.066 A 
ATOM     28  C   UNL     1      26.877  54.509   9.608  1.00  0.00     0.066 A 
ATOM     29  C   UNL     1      26.509  52.211   8.046  1.00  0.00     0.162 A 
ATOM     30  C   UNL     1      25.871  54.483   8.637  1.00  0.00     0.162 A 
ATOM     31  C   UNL     1      25.684  53.333   7.850  1.00  0.00     0.200 A 
BRANCH  29  32
ATOM     32  O   UNL     1      26.328  51.045   7.302  1.00  0.00    -0.504 OA
ATOM     33  H   UNL     1      26.332  50.129   7.733  1.00  0.00     0.293 HD
ENDBRANCH  29  32
BRANCH  30  34
ATOM     34  O   UNL     1      25.057  55.601   8.444  1.00  0.00    -0.504 OA
ATOM     35  H   UNL     1      24.271  55.791   9.058  1.00  0.00     0.293 HD
ENDBRANCH  30  34
BRANCH  31  36
ATOM     36  O   UNL     1      24.681  53.289   6.880  1.00  0.00    -0.502 OA
ATOM     37  H   UNL     1      24.713  53.863   6.043  1.00  0.00     0.293 HD
ENDBRANCH  31  36
ENDBRANCH  24  26
ENDBRANCH  23  24
ENDBRANCH   2  23
BRANCH   3  38
ATOM     38  O   UNL     1      25.758  53.227  13.075  1.00  0.00    -0.450 OA
BRANCH  38  39
ATOM     39  C   UNL     1      24.373  53.386  13.195  1.00  0.00     0.338 C 
ATOM     40  O   UNL     1      23.879  53.849  14.259  1.00  0.00    -0.246 OA
BRANCH  39  41
ATOM     41  C   UNL     1      23.493  52.999  12.068  1.00  0.00     0.067 A 
ATOM     42  C   UNL     1      22.130  53.342  12.056  1.00  0.00     0.066 A 
ATOM     43  C   UNL     1      24.017  52.268  10.990  1.00  0.00     0.066 A 
ATOM     44  C   UNL     1      21.297  52.936  11.005  1.00  0.00     0.162 A 
ATOM     45  C   UNL     1      23.195  51.856   9.938  1.00  0.00     0.162 A 
ATOM     46  C   UNL     1      21.829  52.183   9.944  1.00  0.00     0.200 A 
BRANCH  44  47
ATOM     47  O   UNL     1      19.940  53.274  11.010  1.00  0.00    -0.504 OA
ATOM     48  H   UNL     1      19.213  52.568  11.057  1.00  0.00     0.293 HD
ENDBRANCH  44  47
BRANCH  45  49
ATOM     49  O   UNL     1      23.752  51.124   8.889  1.00  0.00    -0.504 OA
ATOM     50  H   UNL     1      23.445  50.186   8.667  1.00  0.00     0.293 HD
ENDBRANCH  45  49
BRANCH  46  51
ATOM     51  O   UNL     1      21.018  51.760   8.892  1.00  0.00    -0.502 OA
ATOM     52  H   UNL     1      20.399  50.960   8.968  1.00  0.00     0.293 HD
ENDBRANCH  46  51
ENDBRANCH  39  41
ENDBRANCH  38  39
ENDBRANCH   3  38
BRANCH   5  53
ATOM     53  O   UNL     1      27.995  54.849  16.419  1.00  0.00    -0.428 OA
BRANCH  53  54
ATOM     54  C   UNL     1      27.762  54.797  17.799  1.00  0.00     0.340 C 
ATOM     55  O   UNL     1      28.725  54.880  18.609  1.00  0.00    -0.246 OA
BRANCH  54  56
ATOM     56  C   UNL     1      26.380  54.615  18.297  1.00  0.00     0.067 A 
ATOM     57  C   UNL     1      26.155  54.277  19.642  1.00  0.00     0.066 A 
ATOM     58  C   UNL     1      25.282  54.789  17.439  1.00  0.00     0.066 A 
ATOM     59  C   UNL     1      24.849  54.104  20.123  1.00  0.00     0.162 A 
ATOM     60  C   UNL     1      23.974  54.625  17.916  1.00  0.00     0.162 A 
ATOM     61  C   UNL     1      23.754  54.275  19.257  1.00  0.00     0.200 A 
BRANCH  59  62
ATOM     62  O   UNL     1      24.633  53.765  21.456  1.00  0.00    -0.504 OA
ATOM     63  H   UNL     1      24.694  54.453  22.197  1.00  0.00     0.293 HD
ENDBRANCH  59  62
BRANCH  60  64
ATOM     64  O   UNL     1      22.900  54.800  17.043  1.00  0.00    -0.504 OA
ATOM     65  H   UNL     1      21.985  55.084  17.371  1.00  0.00     0.293 HD
ENDBRANCH  60  64
BRANCH  61  66
ATOM     66  O   UNL     1      22.445  54.104  19.715  1.00  0.00    -0.502 OA
ATOM     67  H   UNL     1      22.073  54.645  20.495  1.00  0.00     0.293 HD
ENDBRANCH  61  66
ENDBRANCH  54  56
ENDBRANCH  53  54
ENDBRANCH   5  53
BRANCH   4  68
ATOM     68  O   UNL     1      26.264  52.724  15.888  1.00  0.00    -0.448 OA
BRANCH  68  69
ATOM     69  C   UNL     1      26.154  51.478  16.524  1.00  0.00     0.339 C 
ATOM     70  O   UNL     1      25.212  51.263  17.333  1.00  0.00    -0.246 OA
BRANCH  69  71
ATOM     71  C   UNL     1      27.120  50.402  16.216  1.00  0.00     0.067 A 
ATOM     72  C   UNL     1      26.884  49.512  15.152  1.00  0.00     0.066 A 
ATOM     73  C   UNL     1      28.289  50.257  16.980  1.00  0.00     0.066 A 
ATOM     74  C   UNL     1      27.818  48.515  14.837  1.00  0.00     0.162 A 
ATOM     75  C   UNL     1      29.223  49.255  16.686  1.00  0.00     0.162 A 
ATOM     76  C   UNL     1      28.994  48.386  15.589  1.00  0.00     0.200 A 
BRANCH  74  77
ATOM     77  O   UNL     1      27.592  47.653  13.764  1.00  0.00    -0.504 OA
ATOM     78  H   UNL     1      26.987  46.850  13.852  1.00  0.00     0.293 HD
ENDBRANCH  74  77
BRANCH  75  79
ATOM     79  O   UNL     1      30.348  49.157  17.511  1.00  0.00    -0.504 OA
ATOM     80  H   UNL     1      31.114  48.523  17.349  1.00  0.00     0.293 HD
ENDBRANCH  75  79
BRANCH  76  81
ATOM     81  O   UNL     1      29.911  47.401  15.215  1.00  0.00    -0.502 OA
ATOM     82  H   UNL     1      29.849  46.444  15.516  1.00  0.00     0.293 HD
ENDBRANCH  76  81
ENDBRANCH  69  71
ENDBRANCH  68  69
ENDBRANCH   4  68
TORSDOF 31
ENDMDL
MODEL 2
REMARK VINA RESULT:   -10.459      0.687      2.124
REMARK INTER + INTRA:         -29.917
REMARK INTER:                 -24.077
REMARK INTRA:                  -5.841
REMARK UNBOUND:                -5.089
REMARK SMILES O=C(OC[C@@H]1O[C@@H](OC(=O)c2cc(O)c(O)c(O)c2)[C@@H](OC(=O)c2cc(O)c(O)c(O)c2)[C@H](OC(=O)c2cc(O)c(O)c(O)c2)[C@@H]1OC(=O)c1cc(O)c(O)c(O)c1)c1cc(O)c(O)c(O)c1
REMARK SMILES IDX 5 1 46 2 33 3 20 4 7 5 6 6 4 7 3 8 2 9 1 10 59 11 60 12
REMARK SMILES IDX 61 13 67 14 63 15 65 16 62 17 64 19 66 21 47 23 48 24 49 25
REMARK SMILES IDX 50 26 58 27 51 28 56 29 52 30 54 31 57 32 53 34 55 36 34 38
REMARK SMILES IDX 35 39 36 40 37 41 45 42 38 43 43 44 39 45 41 46 44 47 40 49
REMARK SMILES IDX 42 51 8 53 9 54 10 55 11 56 19 57 12 58 17 59 13 60 15 61
REMARK SMILES IDX 18 62 14 64 16 66 21 68 22 69 23 70 24 71 32 72 25 73 30 74
REMARK SMILES IDX 26 75 28 76 31 77 27 79 29 81
REMARK H PARENT 62 18 64 20 66 22 57 33 53 35 55 37 44 48 40 50 42 52 18 63
REMARK H PARENT 14 65 16 67 31 78 27 80 29 82
REMARK Flexibility Score: inf
ROOT
ATOM      1  C   UNL     1      29.022  55.088  13.962  1.00  0.00     0.205 C 
ATOM      2  C   UNL     1      28.029  54.324  13.059  1.00  0.00     0.254 C 
ATOM      3  C   UNL     1      26.886  53.761  13.928  1.00  0.00     0.267 C 
ATOM      4  C   UNL     1      27.465  52.950  15.101  1.00  0.00     0.290 C 
ATOM      5  C   UNL     1      28.528  53.777  15.845  1.00  0.00     0.357 C 
ATOM      6  O   UNL     1      29.545  54.227  14.963  1.00  0.00    -0.329 OA
ENDROOT
BRANCH   1   7
ATOM      7  C   UNL     1      30.184  55.669  13.139  1.00  0.00     0.269 C 
BRANCH   7   8
ATOM      8  O   UNL     1      29.697  56.294  11.952  1.00  0.00    -0.459 OA
BRANCH   8   9
ATOM      9  C   UNL     1      29.289  57.630  11.879  1.00  0.00     0.338 C 
ATOM     10  O   UNL     1      30.111  58.528  11.551  1.00  0.00    -0.246 OA
BRANCH   9  11
ATOM     11  C   UNL     1      27.878  57.979  12.155  1.00  0.00     0.067 A 
ATOM     12  C   UNL     1      26.850  57.431  11.376  1.00  0.00     0.066 A 
ATOM     13  C   UNL     1      25.516  57.765  11.615  1.00  0.00     0.162 A 
ATOM     14  C   UNL     1      27.548  58.865  13.192  1.00  0.00     0.066 A 
ATOM     15  C   UNL     1      25.186  58.662  12.647  1.00  0.00     0.200 A 
ATOM     16  C   UNL     1      26.218  59.210  13.450  1.00  0.00     0.162 A 
BRANCH  13  17
ATOM     17  O   UNL     1      24.526  57.209  10.802  1.00  0.00    -0.504 OA
ATOM     18  H   UNL     1      24.052  56.345  11.039  1.00  0.00     0.293 HD
ENDBRANCH  13  17
BRANCH  15  19
ATOM     19  O   UNL     1      23.840  58.987  12.841  1.00  0.00    -0.502 OA
ATOM     20  H   UNL     1      23.307  59.578  12.223  1.00  0.00     0.293 HD
ENDBRANCH  15  19
BRANCH  16  21
ATOM     21  O   UNL     1      25.967  60.088  14.508  1.00  0.00    -0.504 OA
ATOM     22  H   UNL     1      25.616  61.025  14.398  1.00  0.00     0.293 HD
ENDBRANCH  16  21
ENDBRANCH   9  11
ENDBRANCH   8   9
ENDBRANCH   7   8
ENDBRANCH   1   7
BRANCH   2  23
ATOM     23  O   UNL     1      28.709  53.255  12.402  1.00  0.00    -0.452 OA
BRANCH  23  24
ATOM     24  C   UNL     1      29.088  53.280  11.052  1.00  0.00     0.338 C 
ATOM     25  O   UNL     1      30.308  53.279  10.733  1.00  0.00    -0.246 OA
BRANCH  24  26
ATOM     26  C   UNL     1      28.047  53.304  10.004  1.00  0.00     0.067 A 
ATOM     27  C   UNL     1      27.222  54.431   9.838  1.00  0.00     0.066 A 
ATOM     28  C   UNL     1      27.878  52.201   9.154  1.00  0.00     0.066 A 
ATOM     29  C   UNL     1      26.244  54.456   8.840  1.00  0.00     0.162 A 
ATOM     30  C   UNL     1      26.898  52.215   8.158  1.00  0.00     0.162 A 
ATOM     31  C   UNL     1      26.075  53.344   7.998  1.00  0.00     0.200 A 
BRANCH  29  32
ATOM     32  O   UNL     1      25.463  55.602   8.686  1.00  0.00    -0.504 OA
ATOM     33  H   UNL     1      25.096  56.110   9.482  1.00  0.00     0.293 HD
ENDBRANCH  29  32
BRANCH  30  34
ATOM     34  O   UNL     1      26.732  51.106   7.325  1.00  0.00    -0.504 OA
ATOM     35  H   UNL     1      26.196  50.299   7.627  1.00  0.00     0.293 HD
ENDBRANCH  30  34
BRANCH  31  36
ATOM     36  O   UNL     1      25.096  53.375   7.004  1.00  0.00    -0.502 OA
ATOM     37  H   UNL     1      25.239  53.851   6.118  1.00  0.00     0.293 HD
ENDBRANCH  31  36
ENDBRANCH  24  26
ENDBRANCH  23  24
ENDBRANCH   2  23
BRANCH   3  38
ATOM     38  O   UNL     1      26.031  52.917  13.156  1.00  0.00    -0.450 OA
BRANCH  38  39
ATOM     39  C   UNL     1      24.640  53.048  13.088  1.00  0.00     0.338 C 
ATOM     40  O   UNL     1      23.962  53.155  14.147  1.00  0.00    -0.246 OA
BRANCH  39  41
ATOM     41  C   UNL     1      23.970  53.049  11.767  1.00  0.00     0.067 A 
ATOM     42  C   UNL     1      24.170  52.005  10.848  1.00  0.00     0.066 A 
ATOM     43  C   UNL     1      23.125  54.113  11.414  1.00  0.00     0.066 A 
ATOM     44  C   UNL     1      23.563  52.037   9.584  1.00  0.00     0.162 A 
ATOM     45  C   UNL     1      22.517  54.155  10.156  1.00  0.00     0.162 A 
ATOM     46  C   UNL     1      22.738  53.120   9.233  1.00  0.00     0.200 A 
BRANCH  44  47
ATOM     47  O   UNL     1      23.777  50.999   8.673  1.00  0.00    -0.504 OA
ATOM     48  H   UNL     1      24.711  50.712   8.397  1.00  0.00     0.293 HD
ENDBRANCH  44  47
BRANCH  45  49
ATOM     49  O   UNL     1      21.690  55.233   9.839  1.00  0.00    -0.504 OA
ATOM     50  H   UNL     1      20.714  55.109   9.604  1.00  0.00     0.293 HD
ENDBRANCH  45  49
BRANCH  46  51
ATOM     51  O   UNL     1      22.131  53.177   7.979  1.00  0.00    -0.502 OA
ATOM     52  H   UNL     1      21.140  53.356   7.860  1.00  0.00     0.293 HD
ENDBRANCH  46  51
ENDBRANCH  39  41
ENDBRANCH  38  39
ENDBRANCH   3  38
BRANCH   5  53
ATOM     53  O   UNL     1      27.928  54.881  16.528  1.00  0.00    -0.428 OA
BRANCH  53  54
ATOM     54  C   UNL     1      27.620  54.866  17.894  1.00  0.00     0.340 C 
ATOM     55  O   UNL     1      28.538  54.968  18.753  1.00  0.00    -0.246 OA
BRANCH  54  56
ATOM     56  C   UNL     1      26.212  54.700  18.321  1.00  0.00     0.067 A 
ATOM     57  C   UNL     1      25.181  54.713  17.367  1.00  0.00     0.066 A 
ATOM     58  C   UNL     1      25.893  54.517  19.676  1.00  0.00     0.066 A 
ATOM     59  C   UNL     1      23.845  54.554  17.762  1.00  0.00     0.162 A 
ATOM     60  C   UNL     1      24.560  54.350  20.076  1.00  0.00     0.162 A 
ATOM     61  C   UNL     1      23.532  54.376  19.121  1.00  0.00     0.200 A 
BRANCH  59  62
ATOM     62  O   UNL     1      22.827  54.572  16.812  1.00  0.00    -0.504 OA
ATOM     63  H   UNL     1      21.877  54.306  17.045  1.00  0.00     0.293 HD
ENDBRANCH  59  62
BRANCH  60  64
ATOM     64  O   UNL     1      24.268  54.173  21.428  1.00  0.00    -0.504 OA
ATOM     65  H   UNL     1      23.511  53.574  21.739  1.00  0.00     0.293 HD
ENDBRANCH  60  64
BRANCH  61  66
ATOM     66  O   UNL     1      22.207  54.220  19.536  1.00  0.00    -0.502 OA
ATOM     67  H   UNL     1      21.762  53.304  19.583  1.00  0.00     0.293 HD
ENDBRANCH  61  66
ENDBRANCH  54  56
ENDBRANCH  53  54
ENDBRANCH   5  53
BRANCH   4  68
ATOM     68  O   UNL     1      26.424  52.585  16.013  1.00  0.00    -0.448 OA
BRANCH  68  69
ATOM     69  C   UNL     1      26.268  51.292  16.534  1.00  0.00     0.339 C 
ATOM     70  O   UNL     1      25.287  51.026  17.280  1.00  0.00    -0.246 OA
BRANCH  69  71
ATOM     71  C   UNL     1      27.230  50.229  16.178  1.00  0.00     0.067 A 
ATOM     72  C   UNL     1      26.965  49.353  15.110  1.00  0.00     0.066 A 
ATOM     73  C   UNL     1      28.426  50.083  16.899  1.00  0.00     0.066 A 
ATOM     74  C   UNL     1      27.896  48.368  14.748  1.00  0.00     0.162 A 
ATOM     75  C   UNL     1      29.358  49.093  16.559  1.00  0.00     0.162 A 
ATOM     76  C   UNL     1      29.099  48.238  15.458  1.00  0.00     0.200 A 
BRANCH  74  77
ATOM     77  O   UNL     1      27.641  47.519  13.672  1.00  0.00    -0.504 OA
ATOM     78  H   UNL     1      27.066  47.810  12.896  1.00  0.00     0.293 HD
ENDBRANCH  74  77
BRANCH  75  79
ATOM     79  O   UNL     1      30.511  48.992  17.343  1.00  0.00    -0.504 OA
ATOM     80  H   UNL     1      31.234  49.693  17.377  1.00  0.00     0.293 HD
ENDBRANCH  75  79
BRANCH  76  81
ATOM     81  O   UNL     1      30.009  47.266  15.039  1.00  0.00    -0.502 OA
ATOM     82  H   UNL     1      29.750  46.320  14.823  1.00  0.00     0.293 HD
ENDBRANCH  76  81
ENDBRANCH  69  71
ENDBRANCH  68  69
ENDBRANCH   4  68
TORSDOF 31
ENDMDL
MODEL 3
REMARK VINA RESULT:   -10.452      2.358      8.978
REMARK INTER + INTRA:         -29.898
REMARK INTER:                 -25.421
REMARK INTRA:                  -4.478
REMARK UNBOUND:                -5.089
REMARK SMILES O=C(OC[C@@H]1O[C@@H](OC(=O)c2cc(O)c(O)c(O)c2)[C@@H](OC(=O)c2cc(O)c(O)c(O)c2)[C@H](OC(=O)c2cc(O)c(O)c(O)c2)[C@@H]1OC(=O)c1cc(O)c(O)c(O)c1)c1cc(O)c(O)c(O)c1
REMARK SMILES IDX 5 1 46 2 33 3 20 4 7 5 6 6 4 7 3 8 2 9 1 10 59 11 60 12
REMARK SMILES IDX 61 13 67 14 63 15 65 16 62 17 64 19 66 21 47 23 48 24 49 25
REMARK SMILES IDX 50 26 58 27 51 28 56 29 52 30 54 31 57 32 53 34 55 36 34 38
REMARK SMILES IDX 35 39 36 40 37 41 45 42 38 43 43 44 39 45 41 46 44 47 40 49
REMARK SMILES IDX 42 51 8 53 9 54 10 55 11 56 19 57 12 58 17 59 13 60 15 61
REMARK SMILES IDX 18 62 14 64 16 66 21 68 22 69 23 70 24 71 32 72 25 73 30 74
REMARK SMILES IDX 26 75 28 76 31 77 27 79 29 81
REMARK H PARENT 62 18 64 20 66 22 57 33 53 35 55 37 44 48 40 50 42 52 18 63
REMARK H PARENT 14 65 16 67 31 78 27 80 29 82
REMARK Flexibility Score: inf
ROOT
ATOM      1  C   UNL     1      24.055  53.660  13.488  1.00  0.00     0.205 C 
ATOM      2  C   UNL     1      25.132  54.589  12.887  1.00  0.00     0.254 C 
ATOM      3  C   UNL     1      24.763  54.911  11.424  1.00  0.00     0.267 C 
ATOM      4  C   UNL     1      24.510  53.608  10.644  1.00  0.00     0.290 C 
ATOM      5  C   UNL     1      23.513  52.718  11.408  1.00  0.00     0.357 C 
ATOM      6  O   UNL     1      23.955  52.462  12.732  1.00  0.00    -0.329 OA
ENDROOT
BRANCH   1   7
ATOM      7  C   UNL     1      24.380  53.309  14.949  1.00  0.00     0.269 C 
BRANCH   7   8
ATOM      8  O   UNL     1      23.697  54.187  15.842  1.00  0.00    -0.459 OA
BRANCH   8   9
ATOM      9  C   UNL     1      22.924  53.758  16.927  1.00  0.00     0.338 C 
ATOM     10  O   UNL     1      21.667  53.723  16.836  1.00  0.00    -0.246 OA
BRANCH   9  11
ATOM     11  C   UNL     1      23.592  53.313  18.170  1.00  0.00     0.067 A 
ATOM     12  C   UNL     1      23.687  54.178  19.268  1.00  0.00     0.066 A 
ATOM     13  C   UNL     1      24.330  53.776  20.440  1.00  0.00     0.162 A 
ATOM     14  C   UNL     1      24.143  52.026  18.266  1.00  0.00     0.066 A 
ATOM     15  C   UNL     1      24.893  52.491  20.533  1.00  0.00     0.200 A 
ATOM     16  C   UNL     1      24.789  51.604  19.432  1.00  0.00     0.162 A 
BRANCH  13  17
ATOM     17  O   UNL     1      24.417  54.678  21.503  1.00  0.00    -0.504 OA
ATOM     18  H   UNL     1      24.826  54.427  22.396  1.00  0.00     0.293 HD
ENDBRANCH  13  17
BRANCH  15  19
ATOM     19  O   UNL     1      25.546  52.134  21.717  1.00  0.00    -0.502 OA
ATOM     20  H   UNL     1      25.075  51.947  22.588  1.00  0.00     0.293 HD
ENDBRANCH  15  19
BRANCH  16  21
ATOM     21  O   UNL     1      25.301  50.303  19.458  1.00  0.00    -0.504 OA
ATOM     22  H   UNL     1      26.205  50.042  19.100  1.00  0.00     0.293 HD
ENDBRANCH  16  21
ENDBRANCH   9  11
ENDBRANCH   8   9
ENDBRANCH   7   8
ENDBRANCH   1   7
BRANCH   2  23
ATOM     23  O   UNL     1      26.402  53.939  12.934  1.00  0.00    -0.452 OA
BRANCH  23  24
ATOM     24  C   UNL     1      27.341  54.127  13.957  1.00  0.00     0.338 C 
ATOM     25  O   UNL     1      27.502  55.268  14.473  1.00  0.00    -0.246 OA
BRANCH  24  26
ATOM     26  C   UNL     1      28.141  52.980  14.432  1.00  0.00     0.067 A 
ATOM     27  C   UNL     1      28.002  51.714  13.836  1.00  0.00     0.066 A 
ATOM     28  C   UNL     1      29.058  53.146  15.480  1.00  0.00     0.066 A 
ATOM     29  C   UNL     1      28.767  50.631  14.279  1.00  0.00     0.162 A 
ATOM     30  C   UNL     1      29.822  52.068  15.934  1.00  0.00     0.162 A 
ATOM     31  C   UNL     1      29.678  50.803  15.336  1.00  0.00     0.200 A 
BRANCH  29  32
ATOM     32  O   UNL     1      28.624  49.396  13.646  1.00  0.00    -0.504 OA
ATOM     33  H   UNL     1      28.980  49.228  12.713  1.00  0.00     0.293 HD
ENDBRANCH  29  32
BRANCH  30  34
ATOM     34  O   UNL     1      30.723  52.243  16.986  1.00  0.00    -0.504 OA
ATOM     35  H   UNL     1      31.498  51.603  17.126  1.00  0.00     0.293 HD
ENDBRANCH  30  34
BRANCH  31  36
ATOM     36  O   UNL     1      30.437  49.718  15.775  1.00  0.00    -0.502 OA
ATOM     37  H   UNL     1      30.124  49.105  16.523  1.00  0.00     0.293 HD
ENDBRANCH  31  36
ENDBRANCH  24  26
ENDBRANCH  23  24
ENDBRANCH   2  23
BRANCH   3  38
ATOM     38  O   UNL     1      25.812  55.639  10.785  1.00  0.00    -0.450 OA
BRANCH  38  39
ATOM     39  C   UNL     1      26.008  57.018  10.907  1.00  0.00     0.338 C 
ATOM     40  O   UNL     1      25.087  57.819  10.587  1.00  0.00    -0.246 OA
BRANCH  39  41
ATOM     41  C   UNL     1      27.306  57.531  11.405  1.00  0.00     0.067 A 
ATOM     42  C   UNL     1      27.413  58.137  12.669  1.00  0.00     0.066 A 
ATOM     43  C   UNL     1      28.454  57.423  10.605  1.00  0.00     0.066 A 
ATOM     44  C   UNL     1      28.637  58.656  13.114  1.00  0.00     0.162 A 
ATOM     45  C   UNL     1      29.678  57.939  11.038  1.00  0.00     0.162 A 
ATOM     46  C   UNL     1      29.774  58.563  12.293  1.00  0.00     0.200 A 
BRANCH  44  47
ATOM     47  O   UNL     1      28.729  59.266  14.368  1.00  0.00    -0.504 OA
ATOM     48  H   UNL     1      29.417  58.975  15.056  1.00  0.00     0.293 HD
ENDBRANCH  44  47
BRANCH  45  49
ATOM     49  O   UNL     1      30.795  57.819  10.211  1.00  0.00    -0.504 OA
ATOM     50  H   UNL     1      31.703  58.174  10.481  1.00  0.00     0.293 HD
ENDBRANCH  45  49
BRANCH  46  51
ATOM     51  O   UNL     1      31.000  59.080  12.711  1.00  0.00    -0.502 OA
ATOM     52  H   UNL     1      31.392  59.932  12.326  1.00  0.00     0.293 HD
ENDBRANCH  46  51
ENDBRANCH  39  41
ENDBRANCH  38  39
ENDBRANCH   3  38
BRANCH   5  53
ATOM     53  O   UNL     1      22.210  53.305  11.416  1.00  0.00    -0.428 OA
BRANCH  53  54
ATOM     54  C   UNL     1      21.032  52.569  11.237  1.00  0.00     0.340 C 
ATOM     55  O   UNL     1      20.885  51.845  10.214  1.00  0.00    -0.246 OA
BRANCH  54  56
ATOM     56  C   UNL     1      19.950  52.671  12.243  1.00  0.00     0.067 A 
ATOM     57  C   UNL     1      20.086  53.540  13.338  1.00  0.00     0.066 A 
ATOM     58  C   UNL     1      18.775  51.913  12.107  1.00  0.00     0.066 A 
ATOM     59  C   UNL     1      19.065  53.645  14.293  1.00  0.00     0.162 A 
ATOM     60  C   UNL     1      17.748  52.019  13.055  1.00  0.00     0.162 A 
ATOM     61  C   UNL     1      17.893  52.880  14.155  1.00  0.00     0.200 A 
BRANCH  59  62
ATOM     62  O   UNL     1      19.207  54.504  15.379  1.00  0.00    -0.504 OA
ATOM     63  H   UNL     1      18.704  55.382  15.433  1.00  0.00     0.293 HD
ENDBRANCH  59  62
BRANCH  60  64
ATOM     64  O   UNL     1      16.593  51.253  12.902  1.00  0.00    -0.504 OA
ATOM     65  H   UNL     1      16.627  50.244  12.816  1.00  0.00     0.293 HD
ENDBRANCH  60  64
BRANCH  61  66
ATOM     66  O   UNL     1      16.866  52.966  15.098  1.00  0.00    -0.502 OA
ATOM     67  H   UNL     1      15.883  52.947  14.826  1.00  0.00     0.293 HD
ENDBRANCH  61  66
ENDBRANCH  54  56
ENDBRANCH  53  54
ENDBRANCH   5  53
BRANCH   4  68
ATOM     68  O   UNL     1      23.985  53.902   9.345  1.00  0.00    -0.448 OA
BRANCH  68  69
ATOM     69  C   UNL     1      24.651  53.587   8.151  1.00  0.00     0.339 C 
ATOM     70  O   UNL     1      24.892  52.384   7.862  1.00  0.00    -0.246 OA
BRANCH  69  71
ATOM     71  C   UNL     1      25.035  54.661   7.212  1.00  0.00     0.067 A 
ATOM     72  C   UNL     1      25.744  54.362   6.035  1.00  0.00     0.066 A 
ATOM     73  C   UNL     1      24.693  55.996   7.482  1.00  0.00     0.066 A 
ATOM     74  C   UNL     1      26.076  55.377   5.126  1.00  0.00     0.162 A 
ATOM     75  C   UNL     1      25.032  57.022   6.590  1.00  0.00     0.162 A 
ATOM     76  C   UNL     1      25.714  56.707   5.388  1.00  0.00     0.200 A 
BRANCH  74  77
ATOM     77  O   UNL     1      26.755  55.072   3.946  1.00  0.00    -0.504 OA
ATOM     78  H   UNL     1      26.632  54.186   3.481  1.00  0.00     0.293 HD
ENDBRANCH  74  77
BRANCH  75  79
ATOM     79  O   UNL     1      24.682  58.329   6.944  1.00  0.00    -0.504 OA
ATOM     80  H   UNL     1      24.300  59.005   6.302  1.00  0.00     0.293 HD
ENDBRANCH  75  79
BRANCH  76  81
ATOM     81  O   UNL     1      26.036  57.677   4.437  1.00  0.00    -0.502 OA
ATOM     82  H   UNL     1      25.355  58.277   4.005  1.00  0.00     0.293 HD
ENDBRANCH  76  81
ENDBRANCH  69  71
ENDBRANCH  68  69
ENDBRANCH   4  68
TORSDOF 31
ENDMDL
MODEL 4
REMARK VINA RESULT:   -10.442      2.356      9.039
REMARK INTER + INTRA:         -29.876
REMARK INTER:                 -25.385
REMARK INTRA:                  -4.491
REMARK UNBOUND:                -5.089
REMARK SMILES O=C(OC[C@@H]1O[C@@H](OC(=O)c2cc(O)c(O)c(O)c2)[C@@H](OC(=O)c2cc(O)c(O)c(O)c2)[C@H](OC(=O)c2cc(O)c(O)c(O)c2)[C@@H]1OC(=O)c1cc(O)c(O)c(O)c1)c1cc(O)c(O)c(O)c1
REMARK SMILES IDX 5 1 46 2 33 3 20 4 7 5 6 6 4 7 3 8 2 9 1 10 59 11 60 12
REMARK SMILES IDX 61 13 67 14 63 15 65 16 62 17 64 19 66 21 47 23 48 24 49 25
REMARK SMILES IDX 50 26 58 27 51 28 56 29 52 30 54 31 57 32 53 34 55 36 34 38
REMARK SMILES IDX 35 39 36 40 37 41 45 42 38 43 43 44 39 45 41 46 44 47 40 49
REMARK SMILES IDX 42 51 8 53 9 54 10 55 11 56 19 57 12 58 17 59 13 60 15 61
REMARK SMILES IDX 18 62 14 64 16 66 21 68 22 69 23 70 24 71 32 72 25 73 30 74
REMARK SMILES IDX 26 75 28 76 31 77 27 79 29 81
REMARK H PARENT 62 18 64 20 66 22 57 33 53 35 55 37 44 48 40 50 42 52 18 63
REMARK H PARENT 14 65 16 67 31 78 27 80 29 82
REMARK Flexibility Score: inf
ROOT
ATOM      1  C   UNL     1      24.110  53.711  13.513  1.00  0.00     0.205 C 
ATOM      2  C   UNL     1      25.186  54.632  12.896  1.00  0.00     0.254 C 
ATOM      3  C   UNL     1      24.810  54.936  11.431  1.00  0.00     0.267 C 
ATOM      4  C   UNL     1      24.551  53.624  10.668  1.00  0.00     0.290 C 
ATOM      5  C   UNL     1      23.556  52.745  11.448  1.00  0.00     0.357 C 
ATOM      6  O   UNL     1      24.005  52.505  12.772  1.00  0.00    -0.329 OA
ENDROOT
BRANCH   1   7
ATOM      7  C   UNL     1      24.442  53.377  14.978  1.00  0.00     0.269 C 
BRANCH   7   8
ATOM      8  O   UNL     1      23.714  54.225  15.865  1.00  0.00    -0.459 OA
BRANCH   8   9
ATOM      9  C   UNL     1      22.933  53.761  16.929  1.00  0.00     0.338 C 
ATOM     10  O   UNL     1      21.682  53.668  16.805  1.00  0.00    -0.246 OA
BRANCH   9  11
ATOM     11  C   UNL     1      23.587  53.347  18.190  1.00  0.00     0.067 A 
ATOM     12  C   UNL     1      23.684  54.245  19.261  1.00  0.00     0.066 A 
ATOM     13  C   UNL     1      24.313  53.873  20.451  1.00  0.00     0.162 A 
ATOM     14  C   UNL     1      24.123  52.058  18.330  1.00  0.00     0.066 A 
ATOM     15  C   UNL     1      24.861  52.585  20.587  1.00  0.00     0.200 A 
ATOM     16  C   UNL     1      24.755  51.665  19.514  1.00  0.00     0.162 A 
BRANCH  13  17
ATOM     17  O   UNL     1      24.402  54.806  21.486  1.00  0.00    -0.504 OA
ATOM     18  H   UNL     1      23.593  55.304  21.838  1.00  0.00     0.293 HD
ENDBRANCH  13  17
BRANCH  15  19
ATOM     19  O   UNL     1      25.502  52.258  21.787  1.00  0.00    -0.502 OA
ATOM     20  H   UNL     1      25.095  52.392  22.699  1.00  0.00     0.293 HD
ENDBRANCH  15  19
BRANCH  16  21
ATOM     21  O   UNL     1      25.253  50.361  19.583  1.00  0.00    -0.504 OA
ATOM     22  H   UNL     1      26.193  50.098  19.335  1.00  0.00     0.293 HD
ENDBRANCH  16  21
ENDBRANCH   9  11
ENDBRANCH   8   9
ENDBRANCH   7   8
ENDBRANCH   1   7
BRANCH   2  23
ATOM     23  O   UNL     1      26.455  53.979  12.944  1.00  0.00    -0.452 OA
BRANCH  23  24
ATOM     24  C   UNL     1      27.385  54.152  13.979  1.00  0.00     0.338 C 
ATOM     25  O   UNL     1      27.540  55.284  14.514  1.00  0.00    -0.246 OA
BRANCH  24  26
ATOM     26  C   UNL     1      28.181  52.997  14.441  1.00  0.00     0.067 A 
ATOM     27  C   UNL     1      29.102  53.137  15.495  1.00  0.00     0.066 A 
ATOM     28  C   UNL     1      28.018  51.742  13.837  1.00  0.00     0.066 A 
ATOM     29  C   UNL     1      29.848  52.042  15.938  1.00  0.00     0.162 A 
ATOM     30  C   UNL     1      28.765  50.642  14.269  1.00  0.00     0.162 A 
ATOM     31  C   UNL     1      29.686  50.789  15.321  1.00  0.00     0.200 A 
BRANCH  29  32
ATOM     32  O   UNL     1      30.732  52.211  17.005  1.00  0.00    -0.504 OA
ATOM     33  H   UNL     1      31.700  52.474  16.861  1.00  0.00     0.293 HD
ENDBRANCH  29  32
BRANCH  30  34
ATOM     34  O   UNL     1      28.603  49.401  13.652  1.00  0.00    -0.504 OA
ATOM     35  H   UNL     1      27.739  48.876  13.747  1.00  0.00     0.293 HD
ENDBRANCH  30  34
BRANCH  31  36
ATOM     36  O   UNL     1      30.435  49.699  15.768  1.00  0.00    -0.502 OA
ATOM     37  H   UNL     1      30.713  49.595  16.740  1.00  0.00     0.293 HD
ENDBRANCH  31  36
ENDBRANCH  24  26
ENDBRANCH  23  24
ENDBRANCH   2  23
BRANCH   3  38
ATOM     38  O   UNL     1      25.857  55.654  10.778  1.00  0.00    -0.450 OA
BRANCH  38  39
ATOM     39  C   UNL     1      26.056  57.035  10.884  1.00  0.00     0.338 C 
ATOM     40  O   UNL     1      25.141  57.834  10.547  1.00  0.00    -0.246 OA
BRANCH  39  41
ATOM     41  C   UNL     1      27.352  57.549  11.386  1.00  0.00     0.067 A 
ATOM     42  C   UNL     1      27.454  58.162  12.647  1.00  0.00     0.066 A 
ATOM     43  C   UNL     1      28.504  57.435  10.592  1.00  0.00     0.066 A 
ATOM     44  C   UNL     1      28.676  58.682  13.095  1.00  0.00     0.162 A 
ATOM     45  C   UNL     1      29.727  57.952  11.028  1.00  0.00     0.162 A 
ATOM     46  C   UNL     1      29.817  58.583  12.280  1.00  0.00     0.200 A 
BRANCH  44  47
ATOM     47  O   UNL     1      28.763  59.300  14.346  1.00  0.00    -0.504 OA
ATOM     48  H   UNL     1      28.416  60.240  14.505  1.00  0.00     0.293 HD
ENDBRANCH  44  47
BRANCH  45  49
ATOM     49  O   UNL     1      30.848  57.827  10.207  1.00  0.00    -0.504 OA
ATOM     50  H   UNL     1      31.305  58.631   9.797  1.00  0.00     0.293 HD
ENDBRANCH  45  49
BRANCH  46  51
ATOM     51  O   UNL     1      31.041  59.102  12.701  1.00  0.00    -0.502 OA
ATOM     52  H   UNL     1      31.366  59.025  13.659  1.00  0.00     0.293 HD
ENDBRANCH  46  51
ENDBRANCH  39  41
ENDBRANCH  38  39
ENDBRANCH   3  38
BRANCH   5  53
ATOM     53  O   UNL     1      22.254  53.334  11.456  1.00  0.00    -0.428 OA
BRANCH  53  54
ATOM     54  C   UNL     1      21.075  52.602  11.264  1.00  0.00     0.340 C 
ATOM     55  O   UNL     1      20.936  51.883  10.238  1.00  0.00    -0.246 OA
BRANCH  54  56
ATOM     56  C   UNL     1      19.986  52.703  12.261  1.00  0.00     0.067 A 
ATOM     57  C   UNL     1      18.822  51.930  12.113  1.00  0.00     0.066 A 
ATOM     58  C   UNL     1      20.106  53.559  13.368  1.00  0.00     0.066 A 
ATOM     59  C   UNL     1      17.786  52.017  13.054  1.00  0.00     0.162 A 
ATOM     60  C   UNL     1      19.078  53.645  14.315  1.00  0.00     0.162 A 
ATOM     61  C   UNL     1      17.911  52.880  14.157  1.00  0.00     0.200 A 
BRANCH  59  62
ATOM     62  O   UNL     1      16.633  51.252  12.899  1.00  0.00    -0.504 OA
ATOM     63  H   UNL     1      15.782  51.462  13.409  1.00  0.00     0.293 HD
ENDBRANCH  59  62
BRANCH  60  64
ATOM     64  O   UNL     1      19.219  54.505  15.404  1.00  0.00    -0.504 OA
ATOM     65  H   UNL     1      19.040  54.200  16.354  1.00  0.00     0.293 HD
ENDBRANCH  60  64
BRANCH  61  66
ATOM     66  O   UNL     1      16.889  52.985  15.104  1.00  0.00    -0.502 OA
ATOM     67  H   UNL     1      16.158  53.691  15.029  1.00  0.00     0.293 HD
ENDBRANCH  61  66
ENDBRANCH  54  56
ENDBRANCH  53  54
ENDBRANCH   5  53
BRANCH   4  68
ATOM     68  O   UNL     1      24.020  53.903   9.369  1.00  0.00    -0.448 OA
BRANCH  68  69
ATOM     69  C   UNL     1      24.692  53.598   8.176  1.00  0.00     0.339 C 
ATOM     70  O   UNL     1      24.959  52.400   7.890  1.00  0.00    -0.246 OA
BRANCH  69  71
ATOM     71  C   UNL     1      25.052  54.678   7.232  1.00  0.00     0.067 A 
ATOM     72  C   UNL     1      25.758  54.389   6.051  1.00  0.00     0.066 A 
ATOM     73  C   UNL     1      24.689  56.007   7.503  1.00  0.00     0.066 A 
ATOM     74  C   UNL     1      26.067  55.408   5.138  1.00  0.00     0.162 A 
ATOM     75  C   UNL     1      25.005  57.038   6.607  1.00  0.00     0.162 A 
ATOM     76  C   UNL     1      25.685  56.732   5.402  1.00  0.00     0.200 A 
BRANCH  74  77
ATOM     77  O   UNL     1      26.743  55.113   3.955  1.00  0.00    -0.504 OA
ATOM     78  H   UNL     1      27.558  54.518   3.948  1.00  0.00     0.293 HD
ENDBRANCH  74  77
BRANCH  75  79
ATOM     79  O   UNL     1      24.636  58.339   6.962  1.00  0.00    -0.504 OA
ATOM     80  H   UNL     1      23.734  58.744   6.765  1.00  0.00     0.293 HD
ENDBRANCH  75  79
BRANCH  76  81
ATOM     81  O   UNL     1      25.984  57.706   4.447  1.00  0.00    -0.502 OA
ATOM     82  H   UNL     1      26.692  58.407   4.573  1.00  0.00     0.293 HD
ENDBRANCH  76  81
ENDBRANCH  69  71
ENDBRANCH  68  69
ENDBRANCH   4  68
TORSDOF 31
ENDMDL
MODEL 5
REMARK VINA RESULT:   -10.399      2.355      9.055
REMARK INTER + INTRA:         -29.774
REMARK INTER:                 -25.297
REMARK INTRA:                  -4.477
REMARK UNBOUND:                -5.089
REMARK SMILES O=C(OC[C@@H]1O[C@@H](OC(=O)c2cc(O)c(O)c(O)c2)[C@@H](OC(=O)c2cc(O)c(O)c(O)c2)[C@H](OC(=O)c2cc(O)c(O)c(O)c2)[C@@H]1OC(=O)c1cc(O)c(O)c(O)c1)c1cc(O)c(O)c(O)c1
REMARK SMILES IDX 5 1 46 2 33 3 20 4 7 5 6 6 4 7 3 8 2 9 1 10 59 11 60 12
REMARK SMILES IDX 61 13 67 14 63 15 65 16 62 17 64 19 66 21 47 23 48 24 49 25
REMARK SMILES IDX 50 26 58 27 51 28 56 29 52 30 54 31 57 32 53 34 55 36 34 38
REMARK SMILES IDX 35 39 36 40 37 41 45 42 38 43 43 44 39 45 41 46 44 47 40 49
REMARK SMILES IDX 42 51 8 53 9 54 10 55 11 56 19 57 12 58 17 59 13 60 15 61
REMARK SMILES IDX 18 62 14 64 16 66 21 68 22 69 23 70 24 71 32 72 25 73 30 74
REMARK SMILES IDX 26 75 28 76 31 77 27 79 29 81
REMARK H PARENT 62 18 64 20 66 22 57 33 53 35 55 37 44 48 40 50 42 52 18 63
REMARK H PARENT 14 65 16 67 31 78 27 80 29 82
REMARK Flexibility Score: inf
ROOT
ATOM      1  C   UNL     1      24.125  53.635  13.458  1.00  0.00     0.205 C 
ATOM      2  C   UNL     1      25.208  54.570  12.876  1.00  0.00     0.254 C 
ATOM      3  C   UNL     1      24.845  54.918  11.418  1.00  0.00     0.267 C 
ATOM      4  C   UNL     1      24.590  53.630  10.615  1.00  0.00     0.290 C 
ATOM      5  C   UNL     1      23.588  52.730  11.360  1.00  0.00     0.357 C 
ATOM      6  O   UNL     1      24.024  52.450  12.681  1.00  0.00    -0.329 OA
ENDROOT
BRANCH   1   7
ATOM      7  C   UNL     1      24.444  53.257  14.914  1.00  0.00     0.269 C 
BRANCH   7   8
ATOM      8  O   UNL     1      23.815  54.164  15.819  1.00  0.00    -0.459 OA
BRANCH   8   9
ATOM      9  C   UNL     1      23.017  53.769  16.898  1.00  0.00     0.338 C 
ATOM     10  O   UNL     1      21.760  53.775  16.794  1.00  0.00    -0.246 OA
BRANCH   9  11
ATOM     11  C   UNL     1      23.656  53.310  18.151  1.00  0.00     0.067 A 
ATOM     12  C   UNL     1      23.730  54.165  19.259  1.00  0.00     0.066 A 
ATOM     13  C   UNL     1      24.346  53.750  20.441  1.00  0.00     0.162 A 
ATOM     14  C   UNL     1      24.202  52.021  18.246  1.00  0.00     0.066 A 
ATOM     15  C   UNL     1      24.903  52.462  20.534  1.00  0.00     0.200 A 
ATOM     16  C   UNL     1      24.821  51.586  19.423  1.00  0.00     0.162 A 
BRANCH  13  17
ATOM     17  O   UNL     1      24.412  54.642  21.514  1.00  0.00    -0.504 OA
ATOM     18  H   UNL     1      23.592  55.110  21.882  1.00  0.00     0.293 HD
ENDBRANCH  13  17
BRANCH  15  19
ATOM     19  O   UNL     1      25.530  52.093  21.728  1.00  0.00    -0.502 OA
ATOM     20  H   UNL     1      26.377  52.514  22.075  1.00  0.00     0.293 HD
ENDBRANCH  15  19
BRANCH  16  21
ATOM     21  O   UNL     1      25.329  50.284  19.447  1.00  0.00    -0.504 OA
ATOM     22  H   UNL     1      25.914  49.889  18.729  1.00  0.00     0.293 HD
ENDBRANCH  16  21
ENDBRANCH   9  11
ENDBRANCH   8   9
ENDBRANCH   7   8
ENDBRANCH   1   7
BRANCH   2  23
ATOM     23  O   UNL     1      26.475  53.915  12.917  1.00  0.00    -0.452 OA
BRANCH  23  24
ATOM     24  C   UNL     1      27.425  54.108  13.929  1.00  0.00     0.338 C 
ATOM     25  O   UNL     1      27.631  55.261  14.398  1.00  0.00    -0.246 OA
BRANCH  24  26
ATOM     26  C   UNL     1      28.183  52.951  14.447  1.00  0.00     0.067 A 
ATOM     27  C   UNL     1      28.008  51.672  13.891  1.00  0.00     0.066 A 
ATOM     28  C   UNL     1      29.097  53.121  15.498  1.00  0.00     0.066 A 
ATOM     29  C   UNL     1      28.733  50.579  14.375  1.00  0.00     0.162 A 
ATOM     30  C   UNL     1      29.821  52.033  15.993  1.00  0.00     0.162 A 
ATOM     31  C   UNL     1      29.640  50.756  15.434  1.00  0.00     0.200 A 
BRANCH  29  32
ATOM     32  O   UNL     1      28.554  49.330  13.780  1.00  0.00    -0.504 OA
ATOM     33  H   UNL     1      27.837  49.167  13.083  1.00  0.00     0.293 HD
ENDBRANCH  29  32
BRANCH  30  34
ATOM     34  O   UNL     1      30.719  52.213  17.047  1.00  0.00    -0.504 OA
ATOM     35  H   UNL     1      31.219  53.088  17.168  1.00  0.00     0.293 HD
ENDBRANCH  30  34
BRANCH  31  36
ATOM     36  O   UNL     1      30.360  49.660  15.914  1.00  0.00    -0.502 OA
ATOM     37  H   UNL     1      29.944  48.965  16.526  1.00  0.00     0.293 HD
ENDBRANCH  31  36
ENDBRANCH  24  26
ENDBRANCH  23  24
ENDBRANCH   2  23
BRANCH   3  38
ATOM     38  O   UNL     1      25.899  55.653  10.796  1.00  0.00    -0.450 OA
BRANCH  38  39
ATOM     39  C   UNL     1      26.101  57.029  10.945  1.00  0.00     0.338 C 
ATOM     40  O   UNL     1      25.168  57.838  10.686  1.00  0.00    -0.246 OA
BRANCH  39  41
ATOM     41  C   UNL     1      27.419  57.529  11.401  1.00  0.00     0.067 A 
ATOM     42  C   UNL     1      27.559  58.204  12.626  1.00  0.00     0.066 A 
ATOM     43  C   UNL     1      28.555  57.337  10.599  1.00  0.00     0.066 A 
ATOM     44  C   UNL     1      28.803  58.709  13.028  1.00  0.00     0.162 A 
ATOM     45  C   UNL     1      29.799  57.838  10.990  1.00  0.00     0.162 A 
ATOM     46  C   UNL     1      29.928  58.531  12.204  1.00  0.00     0.200 A 
BRANCH  44  47
ATOM     47  O   UNL     1      28.928  59.389  14.243  1.00  0.00    -0.504 OA
ATOM     48  H   UNL     1      28.172  59.948  14.624  1.00  0.00     0.293 HD
ENDBRANCH  44  47
BRANCH  45  49
ATOM     49  O   UNL     1      30.903  57.634  10.161  1.00  0.00    -0.504 OA
ATOM     50  H   UNL     1      30.878  57.845   9.172  1.00  0.00     0.293 HD
ENDBRANCH  45  49
BRANCH  46  51
ATOM     51  O   UNL     1      31.174  59.033  12.580  1.00  0.00    -0.502 OA
ATOM     52  H   UNL     1      31.281  59.759  13.280  1.00  0.00     0.293 HD
ENDBRANCH  46  51
ENDBRANCH  39  41
ENDBRANCH  38  39
ENDBRANCH   3  38
BRANCH   5  53
ATOM     53  O   UNL     1      22.286  53.321  11.374  1.00  0.00    -0.428 OA
BRANCH  53  54
ATOM     54  C   UNL     1      21.105  52.591  11.189  1.00  0.00     0.340 C 
ATOM     55  O   UNL     1      20.955  51.881  10.157  1.00  0.00    -0.246 OA
BRANCH  54  56
ATOM     56  C   UNL     1      20.027  52.683  12.198  1.00  0.00     0.067 A 
ATOM     57  C   UNL     1      18.868  51.901  12.064  1.00  0.00     0.066 A 
ATOM     58  C   UNL     1      20.154  53.540  13.304  1.00  0.00     0.066 A 
ATOM     59  C   UNL     1      17.842  51.980  13.016  1.00  0.00     0.162 A 
ATOM     60  C   UNL     1      19.135  53.617  14.263  1.00  0.00     0.162 A 
ATOM     61  C   UNL     1      17.973  52.843  14.118  1.00  0.00     0.200 A 
BRANCH  59  62
ATOM     62  O   UNL     1      16.693  51.205  12.875  1.00  0.00    -0.504 OA
ATOM     63  H   UNL     1      15.852  51.398  13.406  1.00  0.00     0.293 HD
ENDBRANCH  59  62
BRANCH  60  64
ATOM     64  O   UNL     1      19.283  54.478  15.351  1.00  0.00    -0.504 OA
ATOM     65  H   UNL     1      18.906  54.255  16.265  1.00  0.00     0.293 HD
ENDBRANCH  60  64
BRANCH  61  66
ATOM     66  O   UNL     1      16.961  52.940  15.077  1.00  0.00    -0.502 OA
ATOM     67  H   UNL     1      15.982  52.781  14.843  1.00  0.00     0.293 HD
ENDBRANCH  61  66
ENDBRANCH  54  56
ENDBRANCH  53  54
ENDBRANCH   5  53
BRANCH   4  68
ATOM     68  O   UNL     1      24.071  53.948   9.320  1.00  0.00    -0.448 OA
BRANCH  68  69
ATOM     69  C   UNL     1      24.750  53.671   8.124  1.00  0.00     0.339 C 
ATOM     70  O   UNL     1      25.060  52.484   7.835  1.00  0.00    -0.246 OA
BRANCH  69  71
ATOM     71  C   UNL     1      25.067  54.765   7.182  1.00  0.00     0.067 A 
ATOM     72  C   UNL     1      24.687  56.088   7.469  1.00  0.00     0.066 A 
ATOM     73  C   UNL     1      25.756  54.496   5.988  1.00  0.00     0.066 A 
ATOM     74  C   UNL     1      25.021  57.131   6.593  1.00  0.00     0.162 A 
ATOM     75  C   UNL     1      26.082  55.526   5.096  1.00  0.00     0.162 A 
ATOM     76  C   UNL     1      25.727  56.862   5.411  1.00  0.00     0.200 A 
BRANCH  74  77
ATOM     77  O   UNL     1      24.666  58.445   6.895  1.00  0.00    -0.504 OA
ATOM     78  H   UNL     1      24.842  58.843   7.805  1.00  0.00     0.293 HD
ENDBRANCH  74  77
BRANCH  75  79
ATOM     79  O   UNL     1      26.743  55.175   3.915  1.00  0.00    -0.504 OA
ATOM     80  H   UNL     1      26.281  54.817   3.094  1.00  0.00     0.293 HD
ENDBRANCH  75  79
BRANCH  76  81
ATOM     81  O   UNL     1      26.067  57.937   4.588  1.00  0.00    -0.502 OA
ATOM     82  H   UNL     1      26.389  57.831   3.642  1.00  0.00     0.293 HD
ENDBRANCH  76  81
ENDBRANCH  69  71
ENDBRANCH  68  69
ENDBRANCH   4  68
TORSDOF 31
ENDMDL
MODEL 6
REMARK VINA RESULT:   -10.360      2.196      9.252
REMARK INTER + INTRA:         -29.680
REMARK INTER:                 -25.631
REMARK INTRA:                  -4.050
REMARK UNBOUND:                -5.089
REMARK SMILES O=C(OC[C@@H]1O[C@@H](OC(=O)c2cc(O)c(O)c(O)c2)[C@@H](OC(=O)c2cc(O)c(O)c(O)c2)[C@H](OC(=O)c2cc(O)c(O)c(O)c2)[C@@H]1OC(=O)c1cc(O)c(O)c(O)c1)c1cc(O)c(O)c(O)c1
REMARK SMILES IDX 5 1 46 2 33 3 20 4 7 5 6 6 4 7 3 8 2 9 1 10 59 11 60 12
REMARK SMILES IDX 61 13 67 14 63 15 65 16 62 17 64 19 66 21 47 23 48 24 49 25
REMARK SMILES IDX 50 26 58 27 51 28 56 29 52 30 54 31 57 32 53 34 55 36 34 38
REMARK SMILES IDX 35 39 36 40 37 41 45 42 38 43 43 44 39 45 41 46 44 47 40 49
REMARK SMILES IDX 42 51 8 53 9 54 10 55 11 56 19 57 12 58 17 59 13 60 15 61
REMARK SMILES IDX 18 62 14 64 16 66 21 68 22 69 23 70 24 71 32 72 25 73 30 74
REMARK SMILES IDX 26 75 28 76 31 77 27 79 29 81
REMARK H PARENT 62 18 64 20 66 22 57 33 53 35 55 37 44 48 40 50 42 52 18 63
REMARK H PARENT 14 65 16 67 31 78 27 80 29 82
REMARK Flexibility Score: inf
ROOT
ATOM      1  C   UNL     1      24.281  53.419  13.674  1.00  0.00     0.205 C 
ATOM      2  C   UNL     1      25.371  54.333  13.071  1.00  0.00     0.254 C 
ATOM      3  C   UNL     1      24.951  54.747  11.646  1.00  0.00     0.267 C 
ATOM      4  C   UNL     1      24.604  53.500  10.813  1.00  0.00     0.290 C 
ATOM      5  C   UNL     1      23.604  52.614  11.577  1.00  0.00     0.357 C 
ATOM      6  O   UNL     1      24.093  52.269  12.863  1.00  0.00    -0.329 OA
ENDROOT
BRANCH   1   7
ATOM      7  C   UNL     1      24.656  52.978  15.099  1.00  0.00     0.269 C 
BRANCH   7   8
ATOM      8  O   UNL     1      25.319  51.714  15.076  1.00  0.00    -0.459 OA
BRANCH   8   9
ATOM      9  C   UNL     1      25.945  51.136  16.187  1.00  0.00     0.338 C 
ATOM     10  O   UNL     1      25.521  51.375  17.350  1.00  0.00    -0.246 OA
BRANCH   9  11
ATOM     11  C   UNL     1      27.084  50.214  15.985  1.00  0.00     0.067 A 
ATOM     12  C   UNL     1      28.160  50.217  16.883  1.00  0.00     0.066 A 
ATOM     13  C   UNL     1      29.250  49.365  16.695  1.00  0.00     0.162 A 
ATOM     14  C   UNL     1      27.108  49.332  14.895  1.00  0.00     0.066 A 
ATOM     15  C   UNL     1      29.280  48.488  15.596  1.00  0.00     0.200 A 
ATOM     16  C   UNL     1      28.189  48.468  14.691  1.00  0.00     0.162 A 
BRANCH  13  17
ATOM     17  O   UNL     1      30.308  49.415  17.605  1.00  0.00    -0.504 OA
ATOM     18  H   UNL     1      31.278  49.422  17.310  1.00  0.00     0.293 HD
ENDBRANCH  13  17
BRANCH  15  19
ATOM     19  O   UNL     1      30.398  47.665  15.432  1.00  0.00    -0.502 OA
ATOM     20  H   UNL     1      30.371  46.658  15.478  1.00  0.00     0.293 HD
ENDBRANCH  15  19
BRANCH  16  21
ATOM     21  O   UNL     1      28.136  47.608  13.590  1.00  0.00    -0.504 OA
ATOM     22  H   UNL     1      28.652  46.747  13.517  1.00  0.00     0.293 HD
ENDBRANCH  16  21
ENDBRANCH   9  11
ENDBRANCH   8   9
ENDBRANCH   7   8
ENDBRANCH   1   7
BRANCH   2  23
ATOM     23  O   UNL     1      26.611  53.627  13.024  1.00  0.00    -0.452 OA
BRANCH  23  24
ATOM     24  C   UNL     1      27.842  54.180  13.403  1.00  0.00     0.338 C 
ATOM     25  O   UNL     1      28.707  54.468  12.531  1.00  0.00    -0.246 OA
BRANCH  24  26
ATOM     26  C   UNL     1      28.120  54.426  14.833  1.00  0.00     0.067 A 
ATOM     27  C   UNL     1      27.068  54.560  15.756  1.00  0.00     0.066 A 
ATOM     28  C   UNL     1      29.444  54.521  15.286  1.00  0.00     0.066 A 
ATOM     29  C   UNL     1      27.333  54.783  17.109  1.00  0.00     0.162 A 
ATOM     30  C   UNL     1      29.719  54.751  16.637  1.00  0.00     0.162 A 
ATOM     31  C   UNL     1      28.662  54.886  17.555  1.00  0.00     0.200 A 
BRANCH  29  32
ATOM     32  O   UNL     1      26.264  54.882  18.002  1.00  0.00    -0.504 OA
ATOM     33  H   UNL     1      25.897  54.073  18.488  1.00  0.00     0.293 HD
ENDBRANCH  29  32
BRANCH  30  34
ATOM     34  O   UNL     1      31.041  54.855  17.074  1.00  0.00    -0.504 OA
ATOM     35  H   UNL     1      31.778  54.298  16.655  1.00  0.00     0.293 HD
ENDBRANCH  30  34
BRANCH  31  36
ATOM     36  O   UNL     1      28.919  55.110  18.908  1.00  0.00    -0.502 OA
ATOM     37  H   UNL     1      29.333  54.401  19.506  1.00  0.00     0.293 HD
ENDBRANCH  31  36
ENDBRANCH  24  26
ENDBRANCH  23  24
ENDBRANCH   2  23
BRANCH   3  38
ATOM     38  O   UNL     1      26.002  55.462  10.996  1.00  0.00    -0.450 OA
BRANCH  38  39
ATOM     39  C   UNL     1      26.145  56.854  11.017  1.00  0.00     0.338 C 
ATOM     40  O   UNL     1      25.198  57.593  10.631  1.00  0.00    -0.246 OA
BRANCH  39  41
ATOM     41  C   UNL     1      27.417  57.451  11.486  1.00  0.00     0.067 A 
ATOM     42  C   UNL     1      27.510  58.070  12.744  1.00  0.00     0.066 A 
ATOM     43  C   UNL     1      28.553  57.411  10.663  1.00  0.00     0.066 A 
ATOM     44  C   UNL     1      28.708  58.669  13.161  1.00  0.00     0.162 A 
ATOM     45  C   UNL     1      29.751  58.006  11.068  1.00  0.00     0.162 A 
ATOM     46  C   UNL     1      29.831  58.643  12.317  1.00  0.00     0.200 A 
BRANCH  44  47
ATOM     47  O   UNL     1      28.786  59.292  14.410  1.00  0.00    -0.504 OA
ATOM     48  H   UNL     1      28.285  60.151  14.612  1.00  0.00     0.293 HD
ENDBRANCH  44  47
BRANCH  45  49
ATOM     49  O   UNL     1      30.856  57.952  10.219  1.00  0.00    -0.504 OA
ATOM     50  H   UNL     1      30.920  57.283   9.463  1.00  0.00     0.293 HD
ENDBRANCH  45  49
BRANCH  46  51
ATOM     51  O   UNL     1      31.030  59.239  12.708  1.00  0.00    -0.502 OA
ATOM     52  H   UNL     1      31.935  58.891  12.409  1.00  0.00     0.293 HD
ENDBRANCH  46  51
ENDBRANCH  39  41
ENDBRANCH  38  39
ENDBRANCH   3  38
BRANCH   5  53
ATOM     53  O   UNL     1      22.330  53.254  11.677  1.00  0.00    -0.428 OA
BRANCH  53  54
ATOM     54  C   UNL     1      21.123  52.627  11.344  1.00  0.00     0.340 C 
ATOM     55  O   UNL     1      21.010  52.012  10.248  1.00  0.00    -0.246 OA
BRANCH  54  56
ATOM     56  C   UNL     1      19.974  52.718  12.272  1.00  0.00     0.067 A 
ATOM     57  C   UNL     1      18.869  51.866  12.111  1.00  0.00     0.066 A 
ATOM     58  C   UNL     1      19.981  53.644  13.329  1.00  0.00     0.066 A 
ATOM     59  C   UNL     1      17.777  51.944  12.988  1.00  0.00     0.162 A 
ATOM     60  C   UNL     1      18.897  53.720  14.213  1.00  0.00     0.162 A 
ATOM     61  C   UNL     1      17.788  52.876  14.041  1.00  0.00     0.200 A 
BRANCH  59  62
ATOM     62  O   UNL     1      16.683  51.100  12.820  1.00  0.00    -0.504 OA
ATOM     63  H   UNL     1      15.733  51.454  12.813  1.00  0.00     0.293 HD
ENDBRANCH  59  62
BRANCH  60  64
ATOM     64  O   UNL     1      18.924  54.650  15.252  1.00  0.00    -0.504 OA
ATOM     65  H   UNL     1      19.054  55.641  15.081  1.00  0.00     0.293 HD
ENDBRANCH  60  64
BRANCH  61  66
ATOM     66  O   UNL     1      16.709  52.972  14.923  1.00  0.00    -0.502 OA
ATOM     67  H   UNL     1      16.815  53.354  15.862  1.00  0.00     0.293 HD
ENDBRANCH  61  66
ENDBRANCH  54  56
ENDBRANCH  53  54
ENDBRANCH   5  53
BRANCH   4  68
ATOM     68  O   UNL     1      24.035  53.884   9.558  1.00  0.00    -0.448 OA
BRANCH  68  69
ATOM     69  C   UNL     1      24.594  53.543   8.317  1.00  0.00     0.339 C 
ATOM     70  O   UNL     1      24.734  52.332   7.999  1.00  0.00    -0.246 OA
BRANCH  69  71
ATOM     71  C   UNL     1      24.982  54.604   7.363  1.00  0.00     0.067 A 
ATOM     72  C   UNL     1      25.682  54.286   6.186  1.00  0.00     0.066 A 
ATOM     73  C   UNL     1      24.652  55.944   7.619  1.00  0.00     0.066 A 
ATOM     74  C   UNL     1      26.017  55.287   5.263  1.00  0.00     0.162 A 
ATOM     75  C   UNL     1      24.995  56.958   6.714  1.00  0.00     0.162 A 
ATOM     76  C   UNL     1      25.668  56.623   5.513  1.00  0.00     0.200 A 
BRANCH  74  77
ATOM     77  O   UNL     1      26.688  54.963   4.084  1.00  0.00    -0.504 OA
ATOM     78  H   UNL     1      27.473  55.506   3.758  1.00  0.00     0.293 HD
ENDBRANCH  74  77
BRANCH  75  79
ATOM     79  O   UNL     1      24.658  58.271   7.055  1.00  0.00    -0.504 OA
ATOM     80  H   UNL     1      25.293  58.924   7.486  1.00  0.00     0.293 HD
ENDBRANCH  75  79
BRANCH  76  81
ATOM     81  O   UNL     1      25.993  57.579   4.549  1.00  0.00    -0.502 OA
ATOM     82  H   UNL     1      25.447  58.407   4.383  1.00  0.00     0.293 HD
ENDBRANCH  76  81
ENDBRANCH  69  71
ENDBRANCH  68  69
ENDBRANCH   4  68
TORSDOF 31
ENDMDL
MODEL 7
REMARK VINA RESULT:   -10.336      2.189      9.310
REMARK INTER + INTRA:         -29.625
REMARK INTER:                 -25.563
REMARK INTRA:                  -4.063
REMARK UNBOUND:                -5.089
REMARK SMILES O=C(OC[C@@H]1O[C@@H](OC(=O)c2cc(O)c(O)c(O)c2)[C@@H](OC(=O)c2cc(O)c(O)c(O)c2)[C@H](OC(=O)c2cc(O)c(O)c(O)c2)[C@@H]1OC(=O)c1cc(O)c(O)c(O)c1)c1cc(O)c(O)c(O)c1
REMARK SMILES IDX 5 1 46 2 33 3 20 4 7 5 6 6 4 7 3 8 2 9 1 10 59 11 60 12
REMARK SMILES IDX 61 13 67 14 63 15 65 16 62 17 64 19 66 21 47 23 48 24 49 25
REMARK SMILES IDX 50 26 58 27 51 28 56 29 52 30 54 31 57 32 53 34 55 36 34 38
REMARK SMILES IDX 35 39 36 40 37 41 45 42 38 43 43 44 39 45 41 46 44 47 40 49
REMARK SMILES IDX 42 51 8 53 9 54 10 55 11 56 19 57 12 58 17 59 13 60 15 61
REMARK SMILES IDX 18 62 14 64 16 66 21 68 22 69 23 70 24 71 32 72 25 73 30 74
REMARK SMILES IDX 26 75 28 76 31 77 27 79 29 81
REMARK H PARENT 62 18 64 20 66 22 57 33 53 35 55 37 44 48 40 50 42 52 18 63
REMARK H PARENT 14 65 16 67 31 78 27 80 29 82
REMARK Flexibility Score: inf
ROOT
ATOM      1  C   UNL     1      24.265  53.436  13.667  1.00  0.00     0.205 C 
ATOM      2  C   UNL     1      25.370  54.332  13.065  1.00  0.00     0.254 C 
ATOM      3  C   UNL     1      24.973  54.731  11.630  1.00  0.00     0.267 C 
ATOM      4  C   UNL     1      24.625  53.475  10.809  1.00  0.00     0.290 C 
ATOM      5  C   UNL     1      23.607  52.609  11.572  1.00  0.00     0.357 C 
ATOM      6  O   UNL     1      24.077  52.277  12.869  1.00  0.00    -0.329 OA
ENDROOT
BRANCH   1   7
ATOM      7  C   UNL     1      24.618  53.010  15.102  1.00  0.00     0.269 C 
BRANCH   7   8
ATOM      8  O   UNL     1      25.263  51.738  15.105  1.00  0.00    -0.459 OA
BRANCH   8   9
ATOM      9  C   UNL     1      25.937  51.202  16.208  1.00  0.00     0.338 C 
ATOM     10  O   UNL     1      25.564  51.485  17.379  1.00  0.00    -0.246 OA
BRANCH   9  11
ATOM     11  C   UNL     1      27.068  50.273  15.993  1.00  0.00     0.067 A 
ATOM     12  C   UNL     1      27.054  49.384  14.910  1.00  0.00     0.066 A 
ATOM     13  C   UNL     1      28.107  48.490  14.705  1.00  0.00     0.162 A 
ATOM     14  C   UNL     1      28.164  50.263  16.869  1.00  0.00     0.066 A 
ATOM     15  C   UNL     1      29.200  48.472  15.589  1.00  0.00     0.200 A 
ATOM     16  C   UNL     1      29.230  49.377  16.680  1.00  0.00     0.162 A 
BRANCH  13  17
ATOM     17  O   UNL     1      28.042  47.610  13.622  1.00  0.00    -0.504 OA
ATOM     18  H   UNL     1      27.201  47.491  13.070  1.00  0.00     0.293 HD
ENDBRANCH  13  17
BRANCH  15  19
ATOM     19  O   UNL     1      30.225  47.548  15.361  1.00  0.00    -0.502 OA
ATOM     20  H   UNL     1      30.225  46.605  15.719  1.00  0.00     0.293 HD
ENDBRANCH  15  19
BRANCH  16  21
ATOM     21  O   UNL     1      30.292  49.435  17.586  1.00  0.00    -0.504 OA
ATOM     22  H   UNL     1      31.230  49.710  17.345  1.00  0.00     0.293 HD
ENDBRANCH  16  21
ENDBRANCH   9  11
ENDBRANCH   8   9
ENDBRANCH   7   8
ENDBRANCH   1   7
BRANCH   2  23
ATOM     23  O   UNL     1      26.604  53.614  13.044  1.00  0.00    -0.452 OA
BRANCH  23  24
ATOM     24  C   UNL     1      27.837  54.164  13.423  1.00  0.00     0.338 C 
ATOM     25  O   UNL     1      28.702  54.451  12.551  1.00  0.00    -0.246 OA
BRANCH  24  26
ATOM     26  C   UNL     1      28.116  54.408  14.853  1.00  0.00     0.067 A 
ATOM     27  C   UNL     1      29.438  54.511  15.319  1.00  0.00     0.066 A 
ATOM     28  C   UNL     1      27.057  54.550  15.762  1.00  0.00     0.066 A 
ATOM     29  C   UNL     1      29.701  54.752  16.670  1.00  0.00     0.162 A 
ATOM     30  C   UNL     1      27.310  54.784  17.117  1.00  0.00     0.162 A 
ATOM     31  C   UNL     1      28.635  54.884  17.577  1.00  0.00     0.200 A 
BRANCH  29  32
ATOM     32  O   UNL     1      31.025  54.876  17.091  1.00  0.00    -0.504 OA
ATOM     33  H   UNL     1      31.501  55.770  17.103  1.00  0.00     0.293 HD
ENDBRANCH  29  32
BRANCH  30  34
ATOM     34  O   UNL     1      26.248  54.913  18.014  1.00  0.00    -0.504 OA
ATOM     35  H   UNL     1      26.145  54.278  18.800  1.00  0.00     0.293 HD
ENDBRANCH  30  34
BRANCH  31  36
ATOM     36  O   UNL     1      28.904  55.124  18.925  1.00  0.00    -0.502 OA
ATOM     37  H   UNL     1      29.347  55.980  19.245  1.00  0.00     0.293 HD
ENDBRANCH  31  36
ENDBRANCH  24  26
ENDBRANCH  23  24
ENDBRANCH   2  23
BRANCH   3  38
ATOM     38  O   UNL     1      26.038  55.428  10.984  1.00  0.00    -0.450 OA
BRANCH  38  39
ATOM     39  C   UNL     1      26.182  56.819  10.972  1.00  0.00     0.338 C 
ATOM     40  O   UNL     1      25.247  57.549  10.543  1.00  0.00    -0.246 OA
BRANCH  39  41
ATOM     41  C   UNL     1      27.443  57.427  11.458  1.00  0.00     0.067 A 
ATOM     42  C   UNL     1      27.514  58.053  12.714  1.00  0.00     0.066 A 
ATOM     43  C   UNL     1      28.592  57.390  10.653  1.00  0.00     0.066 A 
ATOM     44  C   UNL     1      28.701  58.661  13.147  1.00  0.00     0.162 A 
ATOM     45  C   UNL     1      29.780  57.995  11.074  1.00  0.00     0.162 A 
ATOM     46  C   UNL     1      29.837  58.638  12.321  1.00  0.00     0.200 A 
BRANCH  44  47
ATOM     47  O   UNL     1      28.756  59.291  14.394  1.00  0.00    -0.504 OA
ATOM     48  H   UNL     1      29.393  60.059  14.578  1.00  0.00     0.293 HD
ENDBRANCH  44  47
BRANCH  45  49
ATOM     49  O   UNL     1      30.899  57.944  10.242  1.00  0.00    -0.504 OA
ATOM     50  H   UNL     1      30.822  58.010   9.235  1.00  0.00     0.293 HD
ENDBRANCH  45  49
BRANCH  46  51
ATOM     51  O   UNL     1      31.026  59.244  12.726  1.00  0.00    -0.502 OA
ATOM     52  H   UNL     1      31.437  59.082  13.639  1.00  0.00     0.293 HD
ENDBRANCH  46  51
ENDBRANCH  39  41
ENDBRANCH  38  39
ENDBRANCH   3  38
BRANCH   5  53
ATOM     53  O   UNL     1      22.338  53.262  11.647  1.00  0.00    -0.428 OA
BRANCH  53  54
ATOM     54  C   UNL     1      21.127  52.634  11.328  1.00  0.00     0.340 C 
ATOM     55  O   UNL     1      21.002  52.015  10.236  1.00  0.00    -0.246 OA
BRANCH  54  56
ATOM     56  C   UNL     1      19.988  52.728  12.269  1.00  0.00     0.067 A 
ATOM     57  C   UNL     1      18.873  51.888  12.112  1.00  0.00     0.066 A 
ATOM     58  C   UNL     1      20.014  53.645  13.332  1.00  0.00     0.066 A 
ATOM     59  C   UNL     1      17.791  51.968  13.000  1.00  0.00     0.162 A 
ATOM     60  C   UNL     1      18.939  53.725  14.228  1.00  0.00     0.162 A 
ATOM     61  C   UNL     1      17.821  52.892  14.060  1.00  0.00     0.200 A 
BRANCH  59  62
ATOM     62  O   UNL     1      16.687  51.136  12.836  1.00  0.00    -0.504 OA
ATOM     63  H   UNL     1      16.707  50.164  13.120  1.00  0.00     0.293 HD
ENDBRANCH  59  62
BRANCH  60  64
ATOM     64  O   UNL     1      18.985  54.646  15.274  1.00  0.00    -0.504 OA
ATOM     65  H   UNL     1      19.536  54.481  16.109  1.00  0.00     0.293 HD
ENDBRANCH  60  64
BRANCH  61  66
ATOM     66  O   UNL     1      16.752  52.991  14.953  1.00  0.00    -0.502 OA
ATOM     67  H   UNL     1      15.965  53.616  14.783  1.00  0.00     0.293 HD
ENDBRANCH  61  66
ENDBRANCH  54  56
ENDBRANCH  53  54
ENDBRANCH   5  53
BRANCH   4  68
ATOM     68  O   UNL     1      24.075  53.848   9.542  1.00  0.00    -0.448 OA
BRANCH  68  69
ATOM     69  C   UNL     1      24.672  53.525   8.313  1.00  0.00     0.339 C 
ATOM     70  O   UNL     1      24.893  52.320   8.017  1.00  0.00    -0.246 OA
BRANCH  69  71
ATOM     71  C   UNL     1      25.004  54.594   7.348  1.00  0.00     0.067 A 
ATOM     72  C   UNL     1      24.646  55.929   7.607  1.00  0.00     0.066 A 
ATOM     73  C   UNL     1      25.688  54.290   6.160  1.00  0.00     0.066 A 
ATOM     74  C   UNL     1      24.995  56.948   6.709  1.00  0.00     0.162 A 
ATOM     75  C   UNL     1      26.029  55.296   5.246  1.00  0.00     0.162 A 
ATOM     76  C   UNL     1      25.696  56.643   5.533  1.00  0.00     0.200 A 
BRANCH  74  77
ATOM     77  O   UNL     1      24.661  58.274   6.984  1.00  0.00    -0.504 OA
ATOM     78  H   UNL     1      25.367  58.960   7.206  1.00  0.00     0.293 HD
ENDBRANCH  74  77
BRANCH  75  79
ATOM     79  O   UNL     1      26.683  54.909   4.072  1.00  0.00    -0.504 OA
ATOM     80  H   UNL     1      27.374  54.177   4.025  1.00  0.00     0.293 HD
ENDBRANCH  75  79
BRANCH  76  81
ATOM     81  O   UNL     1      26.052  57.695   4.687  1.00  0.00    -0.502 OA
ATOM     82  H   UNL     1      26.958  58.130   4.694  1.00  0.00     0.293 HD
ENDBRANCH  76  81
ENDBRANCH  69  71
ENDBRANCH  68  69
ENDBRANCH   4  68
TORSDOF 31
ENDMDL
MODEL 8
REMARK VINA RESULT:   -10.326      1.677      7.179
REMARK INTER + INTRA:         -29.600
REMARK INTER:                 -24.032
REMARK INTRA:                  -5.568
REMARK UNBOUND:                -5.089
REMARK SMILES O=C(OC[C@@H]1O[C@@H](OC(=O)c2cc(O)c(O)c(O)c2)[C@@H](OC(=O)c2cc(O)c(O)c(O)c2)[C@H](OC(=O)c2cc(O)c(O)c(O)c2)[C@@H]1OC(=O)c1cc(O)c(O)c(O)c1)c1cc(O)c(O)c(O)c1
REMARK SMILES IDX 5 1 46 2 33 3 20 4 7 5 6 6 4 7 3 8 2 9 1 10 59 11 60 12
REMARK SMILES IDX 61 13 67 14 63 15 65 16 62 17 64 19 66 21 47 23 48 24 49 25
REMARK SMILES IDX 50 26 58 27 51 28 56 29 52 30 54 31 57 32 53 34 55 36 34 38
REMARK SMILES IDX 35 39 36 40 37 41 45 42 38 43 43 44 39 45 41 46 44 47 40 49
REMARK SMILES IDX 42 51 8 53 9 54 10 55 11 56 19 57 12 58 17 59 13 60 15 61
REMARK SMILES IDX 18 62 14 64 16 66 21 68 22 69 23 70 24 71 32 72 25 73 30 74
REMARK SMILES IDX 26 75 28 76 31 77 27 79 29 81
REMARK H PARENT 62 18 64 20 66 22 57 33 53 35 55 37 44 48 40 50 42 52 18 63
REMARK H PARENT 14 65 16 67 31 78 27 80 29 82
REMARK Flexibility Score: inf
ROOT
ATOM      1  C   UNL     1      26.234  54.199  15.915  1.00  0.00     0.205 C 
ATOM      2  C   UNL     1      26.625  54.781  14.539  1.00  0.00     0.254 C 
ATOM      3  C   UNL     1      25.344  55.092  13.739  1.00  0.00     0.267 C 
ATOM      4  C   UNL     1      24.434  53.851  13.693  1.00  0.00     0.290 C 
ATOM      5  C   UNL     1      24.221  53.297  15.113  1.00  0.00     0.357 C 
ATOM      6  O   UNL     1      25.457  53.022  15.753  1.00  0.00    -0.329 OA
ENDROOT
BRANCH   1   7
ATOM      7  C   UNL     1      27.482  53.871  16.752  1.00  0.00     0.269 C 
BRANCH   7   8
ATOM      8  O   UNL     1      27.461  52.508  17.172  1.00  0.00    -0.459 OA
BRANCH   8   9
ATOM      9  C   UNL     1      28.346  51.529  16.706  1.00  0.00     0.338 C 
ATOM     10  O   UNL     1      29.572  51.593  16.993  1.00  0.00    -0.246 OA
BRANCH   9  11
ATOM     11  C   UNL     1      27.829  50.400  15.902  1.00  0.00     0.067 A 
ATOM     12  C   UNL     1      28.679  49.710  15.027  1.00  0.00     0.066 A 
ATOM     13  C   UNL     1      28.200  48.653  14.250  1.00  0.00     0.162 A 
ATOM     14  C   UNL     1      26.486  50.008  15.998  1.00  0.00     0.066 A 
ATOM     15  C   UNL     1      26.850  48.267  14.338  1.00  0.00     0.200 A 
ATOM     16  C   UNL     1      25.986  48.951  15.230  1.00  0.00     0.162 A 
BRANCH  13  17
ATOM     17  O   UNL     1      29.079  48.005  13.380  1.00  0.00    -0.504 OA
ATOM     18  H   UNL     1      29.389  47.052  13.531  1.00  0.00     0.293 HD
ENDBRANCH  13  17
BRANCH  15  19
ATOM     19  O   UNL     1      26.405  47.218  13.528  1.00  0.00    -0.502 OA
ATOM     20  H   UNL     1      27.016  46.592  13.027  1.00  0.00     0.293 HD
ENDBRANCH  15  19
BRANCH  16  21
ATOM     21  O   UNL     1      24.640  48.610  15.389  1.00  0.00    -0.504 OA
ATOM     22  H   UNL     1      23.875  49.257  15.295  1.00  0.00     0.293 HD
ENDBRANCH  16  21
ENDBRANCH   9  11
ENDBRANCH   8   9
ENDBRANCH   7   8
ENDBRANCH   1   7
BRANCH   2  23
ATOM     23  O   UNL     1      27.420  53.831  13.830  1.00  0.00    -0.452 OA
BRANCH  23  24
ATOM     24  C   UNL     1      28.460  54.176  12.956  1.00  0.00     0.338 C 
ATOM     25  O   UNL     1      29.315  55.041  13.294  1.00  0.00    -0.246 OA
BRANCH  24  26
ATOM     26  C   UNL     1      28.553  53.518  11.637  1.00  0.00     0.067 A 
ATOM     27  C   UNL     1      27.600  53.780  10.637  1.00  0.00     0.066 A 
ATOM     28  C   UNL     1      29.603  52.629  11.366  1.00  0.00     0.066 A 
ATOM     29  C   UNL     1      27.693  53.164   9.386  1.00  0.00     0.162 A 
ATOM     30  C   UNL     1      29.701  52.004  10.120  1.00  0.00     0.162 A 
ATOM     31  C   UNL     1      28.744  52.268   9.124  1.00  0.00     0.200 A 
BRANCH  29  32
ATOM     32  O   UNL     1      26.746  53.470   8.408  1.00  0.00    -0.504 OA
ATOM     33  H   UNL     1      26.376  54.406   8.295  1.00  0.00     0.293 HD
ENDBRANCH  29  32
BRANCH  30  34
ATOM     34  O   UNL     1      30.745  51.112   9.866  1.00  0.00    -0.504 OA
ATOM     35  H   UNL     1      31.463  51.324   9.180  1.00  0.00     0.293 HD
ENDBRANCH  30  34
BRANCH  31  36
ATOM     36  O   UNL     1      28.831  51.655   7.873  1.00  0.00    -0.502 OA
ATOM     37  H   UNL     1      28.852  50.645   7.765  1.00  0.00     0.293 HD
ENDBRANCH  31  36
ENDBRANCH  24  26
ENDBRANCH  23  24
ENDBRANCH   2  23
BRANCH   3  38
ATOM     38  O   UNL     1      25.663  55.484  12.404  1.00  0.00    -0.450 OA
BRANCH  38  39
ATOM     39  C   UNL     1      25.805  56.810  11.980  1.00  0.00     0.338 C 
ATOM     40  O   UNL     1      24.817  57.431  11.502  1.00  0.00    -0.246 OA
BRANCH  39  41
ATOM     41  C   UNL     1      27.126  57.473  12.087  1.00  0.00     0.067 A 
ATOM     42  C   UNL     1      28.066  57.396  11.045  1.00  0.00     0.066 A 
ATOM     43  C   UNL     1      27.457  58.187  13.249  1.00  0.00     0.066 A 
ATOM     44  C   UNL     1      29.329  57.992  11.173  1.00  0.00     0.162 A 
ATOM     45  C   UNL     1      28.713  58.784  13.387  1.00  0.00     0.162 A 
ATOM     46  C   UNL     1      29.657  58.684  12.352  1.00  0.00     0.200 A 
BRANCH  44  47
ATOM     47  O   UNL     1      30.261  57.900  10.135  1.00  0.00    -0.504 OA
ATOM     48  H   UNL     1      31.245  57.727  10.313  1.00  0.00     0.293 HD
ENDBRANCH  44  47
BRANCH  45  49
ATOM     49  O   UNL     1      29.008  59.479  14.561  1.00  0.00    -0.504 OA
ATOM     50  H   UNL     1      29.712  60.204  14.592  1.00  0.00     0.293 HD
ENDBRANCH  45  49
BRANCH  46  51
ATOM     51  O   UNL     1      30.909  59.278  12.505  1.00  0.00    -0.502 OA
ATOM     52  H   UNL     1      31.773  58.747  12.473  1.00  0.00     0.293 HD
ENDBRANCH  46  51
ENDBRANCH  39  41
ENDBRANCH  38  39
ENDBRANCH   3  38
BRANCH   5  53
ATOM     53  O   UNL     1      23.437  54.198  15.899  1.00  0.00    -0.428 OA
BRANCH  53  54
ATOM     54  C   UNL     1      22.719  53.806  17.035  1.00  0.00     0.340 C 
ATOM     55  O   UNL     1      21.458  53.816  17.023  1.00  0.00    -0.246 OA
BRANCH  54  56
ATOM     56  C   UNL     1      23.452  53.408  18.258  1.00  0.00     0.067 A 
ATOM     57  C   UNL     1      23.614  54.324  19.311  1.00  0.00     0.066 A 
ATOM     58  C   UNL     1      23.981  52.114  18.385  1.00  0.00     0.066 A 
ATOM     59  C   UNL     1      24.305  53.955  20.474  1.00  0.00     0.162 A 
ATOM     60  C   UNL     1      24.666  51.737  19.548  1.00  0.00     0.162 A 
ATOM     61  C   UNL     1      24.837  52.659  20.593  1.00  0.00     0.200 A 
BRANCH  59  62
ATOM     62  O   UNL     1      24.467  54.869  21.512  1.00  0.00    -0.504 OA
ATOM     63  H   UNL     1      24.619  54.568  22.468  1.00  0.00     0.293 HD
ENDBRANCH  59  62
BRANCH  60  64
ATOM     64  O   UNL     1      25.186  50.447  19.650  1.00  0.00    -0.504 OA
ATOM     65  H   UNL     1      25.684  50.008  18.884  1.00  0.00     0.293 HD
ENDBRANCH  60  64
BRANCH  61  66
ATOM     66  O   UNL     1      25.532  52.273  21.742  1.00  0.00    -0.502 OA
ATOM     67  H   UNL     1      25.068  51.806  22.520  1.00  0.00     0.293 HD
ENDBRANCH  61  66
ENDBRANCH  54  56
ENDBRANCH  53  54
ENDBRANCH   5  53
BRANCH   4  68
ATOM     68  O   UNL     1      23.167  54.186  13.119  1.00  0.00    -0.448 OA
BRANCH  68  69
ATOM     69  C   UNL     1      22.524  53.401  12.150  1.00  0.00     0.339 C 
ATOM     70  O   UNL     1      21.520  52.707  12.465  1.00  0.00    -0.246 OA
BRANCH  69  71
ATOM     71  C   UNL     1      22.997  53.419  10.750  1.00  0.00     0.067 A 
ATOM     72  C   UNL     1      23.252  52.217  10.066  1.00  0.00     0.066 A 
ATOM     73  C   UNL     1      23.194  54.639  10.083  1.00  0.00     0.066 A 
ATOM     74  C   UNL     1      23.665  52.234   8.726  1.00  0.00     0.162 A 
ATOM     75  C   UNL     1      23.622  54.671   8.749  1.00  0.00     0.162 A 
ATOM     76  C   UNL     1      23.841  53.454   8.056  1.00  0.00     0.200 A 
BRANCH  74  77
ATOM     77  O   UNL     1      23.890  51.038   8.043  1.00  0.00    -0.504 OA
ATOM     78  H   UNL     1      23.873  50.996   7.036  1.00  0.00     0.293 HD
ENDBRANCH  74  77
BRANCH  75  79
ATOM     79  O   UNL     1      23.824  55.924   8.164  1.00  0.00    -0.504 OA
ATOM     80  H   UNL     1      24.638  56.171   7.624  1.00  0.00     0.293 HD
ENDBRANCH  75  79
BRANCH  76  81
ATOM     81  O   UNL     1      24.220  53.418   6.713  1.00  0.00    -0.502 OA
ATOM     82  H   UNL     1      25.126  53.704   6.384  1.00  0.00     0.293 HD
ENDBRANCH  76  81
ENDBRANCH  69  71
ENDBRANCH  68  69
ENDBRANCH   4  68
TORSDOF 31
ENDMDL
MODEL 9
REMARK VINA RESULT:    -9.980      1.592      7.547
REMARK INTER + INTRA:         -28.780
REMARK INTER:                 -22.763
REMARK INTRA:                  -6.017
REMARK UNBOUND:                -5.089
REMARK SMILES O=C(OC[C@@H]1O[C@@H](OC(=O)c2cc(O)c(O)c(O)c2)[C@@H](OC(=O)c2cc(O)c(O)c(O)c2)[C@H](OC(=O)c2cc(O)c(O)c(O)c2)[C@@H]1OC(=O)c1cc(O)c(O)c(O)c1)c1cc(O)c(O)c(O)c1
REMARK SMILES IDX 5 1 46 2 33 3 20 4 7 5 6 6 4 7 3 8 2 9 1 10 59 11 60 12
REMARK SMILES IDX 61 13 67 14 63 15 65 16 62 17 64 19 66 21 47 23 48 24 49 25
REMARK SMILES IDX 50 26 58 27 51 28 56 29 52 30 54 31 57 32 53 34 55 36 34 38
REMARK SMILES IDX 35 39 36 40 37 41 45 42 38 43 43 44 39 45 41 46 44 47 40 49
REMARK SMILES IDX 42 51 8 53 9 54 10 55 11 56 19 57 12 58 17 59 13 60 15 61
REMARK SMILES IDX 18 62 14 64 16 66 21 68 22 69 23 70 24 71 32 72 25 73 30 74
REMARK SMILES IDX 26 75 28 76 31 77 27 79 29 81
REMARK H PARENT 62 18 64 20 66 22 57 33 53 35 55 37 44 48 40 50 42 52 18 63
REMARK H PARENT 14 65 16 67 31 78 27 80 29 82
REMARK Flexibility Score: inf
ROOT
ATOM      1  C   UNL     1      25.445  52.750  12.075  1.00  0.00     0.205 C 
ATOM      2  C   UNL     1      26.132  52.223  13.355  1.00  0.00     0.254 C 
ATOM      3  C   UNL     1      25.077  52.069  14.468  1.00  0.00     0.267 C 
ATOM      4  C   UNL     1      24.291  53.382  14.637  1.00  0.00     0.290 C 
ATOM      5  C   UNL     1      23.763  53.863  13.274  1.00  0.00     0.357 C 
ATOM      6  O   UNL     1      24.813  53.996  12.329  1.00  0.00    -0.329 OA
ENDROOT
BRANCH   1   7
ATOM      7  C   UNL     1      26.461  52.922  10.933  1.00  0.00     0.269 C 
BRANCH   7   8
ATOM      8  O   UNL     1      26.541  54.289  10.532  1.00  0.00    -0.459 OA
BRANCH   8   9
ATOM      9  C   UNL     1      27.541  55.173  10.953  1.00  0.00     0.338 C 
ATOM     10  O   UNL     1      28.746  54.959  10.650  1.00  0.00    -0.246 OA
BRANCH   9  11
ATOM     11  C   UNL     1      27.172  56.380  11.725  1.00  0.00     0.067 A 
ATOM     12  C   UNL     1      28.092  56.959  12.609  1.00  0.00     0.066 A 
ATOM     13  C   UNL     1      27.751  58.088  13.357  1.00  0.00     0.162 A 
ATOM     14  C   UNL     1      25.901  56.957  11.589  1.00  0.00     0.066 A 
ATOM     15  C   UNL     1      26.472  58.660  13.229  1.00  0.00     0.200 A 
ATOM     16  C   UNL     1      25.540  58.089  12.327  1.00  0.00     0.162 A 
BRANCH  13  17
ATOM     17  O   UNL     1      28.693  58.621  14.239  1.00  0.00    -0.504 OA
ATOM     18  H   UNL     1      29.452  59.217  13.928  1.00  0.00     0.293 HD
ENDBRANCH  13  17
BRANCH  15  19
ATOM     19  O   UNL     1      26.163  59.777  14.011  1.00  0.00    -0.502 OA
ATOM     20  H   UNL     1      26.242  59.804  15.016  1.00  0.00     0.293 HD
ENDBRANCH  15  19
BRANCH  16  21
ATOM     21  O   UNL     1      24.261  58.615  12.128  1.00  0.00    -0.504 OA
ATOM     22  H   UNL     1      24.020  59.261  11.394  1.00  0.00     0.293 HD
ENDBRANCH  16  21
ENDBRANCH   9  11
ENDBRANCH   8   9
ENDBRANCH   7   8
ENDBRANCH   1   7
BRANCH   2  23
ATOM     23  O   UNL     1      27.140  53.146  13.768  1.00  0.00    -0.452 OA
BRANCH  23  24
ATOM     24  C   UNL     1      28.423  52.768  14.188  1.00  0.00     0.338 C 
ATOM     25  O   UNL     1      29.017  51.803  13.633  1.00  0.00    -0.246 OA
BRANCH  24  26
ATOM     26  C   UNL     1      29.078  53.511  15.283  1.00  0.00     0.067 A 
ATOM     27  C   UNL     1      28.347  53.916  16.414  1.00  0.00     0.066 A 
ATOM     28  C   UNL     1      30.446  53.813  15.209  1.00  0.00     0.066 A 
ATOM     29  C   UNL     1      28.970  54.610  17.454  1.00  0.00     0.162 A 
ATOM     30  C   UNL     1      31.077  54.513  16.242  1.00  0.00     0.162 A 
ATOM     31  C   UNL     1      30.340  54.916  17.369  1.00  0.00     0.200 A 
BRANCH  29  32
ATOM     32  O   UNL     1      28.219  54.970  18.574  1.00  0.00    -0.504 OA
ATOM     33  H   UNL     1      27.919  55.925  18.732  1.00  0.00     0.293 HD
ENDBRANCH  29  32
BRANCH  30  34
ATOM     34  O   UNL     1      32.436  54.818  16.151  1.00  0.00    -0.504 OA
ATOM     35  H   UNL     1      32.794  55.718  16.454  1.00  0.00     0.293 HD
ENDBRANCH  30  34
BRANCH  31  36
ATOM     36  O   UNL     1      30.956  55.611  18.411  1.00  0.00    -0.502 OA
ATOM     37  H   UNL     1      30.868  56.618  18.517  1.00  0.00     0.293 HD
ENDBRANCH  31  36
ENDBRANCH  24  26
ENDBRANCH  23  24
ENDBRANCH   2  23
BRANCH   3  38
ATOM     38  O   UNL     1      25.695  51.734  15.710  1.00  0.00    -0.450 OA
BRANCH  38  39
ATOM     39  C   UNL     1      25.910  50.428  16.162  1.00  0.00     0.338 C 
ATOM     40  O   UNL     1      24.990  49.805  16.759  1.00  0.00    -0.246 OA
BRANCH  39  41
ATOM     41  C   UNL     1      27.228  49.786  15.943  1.00  0.00     0.067 A 
ATOM     42  C   UNL     1      28.263  49.908  16.885  1.00  0.00     0.066 A 
ATOM     43  C   UNL     1      27.459  49.047  14.772  1.00  0.00     0.066 A 
ATOM     44  C   UNL     1      29.519  49.332  16.649  1.00  0.00     0.162 A 
ATOM     45  C   UNL     1      28.708  48.470  14.526  1.00  0.00     0.162 A 
ATOM     46  C   UNL     1      29.745  48.614  15.461  1.00  0.00     0.200 A 
BRANCH  44  47
ATOM     47  O   UNL     1      30.546  49.469  17.588  1.00  0.00    -0.504 OA
ATOM     48  H   UNL     1      31.334  48.831  17.617  1.00  0.00     0.293 HD
ENDBRANCH  44  47
BRANCH  45  49
ATOM     49  O   UNL     1      28.901  47.749  13.347  1.00  0.00    -0.504 OA
ATOM     50  H   UNL     1      29.603  48.011  12.668  1.00  0.00     0.293 HD
ENDBRANCH  45  49
BRANCH  46  51
ATOM     51  O   UNL     1      30.989  48.040  15.201  1.00  0.00    -0.502 OA
ATOM     52  H   UNL     1      31.720  48.527  14.694  1.00  0.00     0.293 HD
ENDBRANCH  46  51
ENDBRANCH  39  41
ENDBRANCH  38  39
ENDBRANCH   3  38
BRANCH   5  53
ATOM     53  O   UNL     1      22.749  52.984  12.782  1.00  0.00    -0.428 OA
BRANCH  53  54
ATOM     54  C   UNL     1      21.993  53.246  11.632  1.00  0.00     0.340 C 
ATOM     55  O   UNL     1      20.739  53.353  11.709  1.00  0.00    -0.246 OA
BRANCH  54  56
ATOM     56  C   UNL     1      22.675  53.367  10.324  1.00  0.00     0.067 A 
ATOM     57  C   UNL     1      22.951  54.636   9.788  1.00  0.00     0.066 A 
ATOM     58  C   UNL     1      23.065  52.221   9.613  1.00  0.00     0.066 A 
ATOM     59  C   UNL     1      23.599  54.760   8.550  1.00  0.00     0.162 A 
ATOM     60  C   UNL     1      23.720  52.338   8.379  1.00  0.00     0.162 A 
ATOM     61  C   UNL     1      23.982  53.608   7.841  1.00  0.00     0.200 A 
BRANCH  59  62
ATOM     62  O   UNL     1      23.865  56.021   8.022  1.00  0.00    -0.504 OA
ATOM     63  H   UNL     1      24.413  56.139   7.179  1.00  0.00     0.293 HD
ENDBRANCH  59  62
BRANCH  60  64
ATOM     64  O   UNL     1      24.093  51.185   7.690  1.00  0.00    -0.504 OA
ATOM     65  H   UNL     1      24.068  51.135   6.677  1.00  0.00     0.293 HD
ENDBRANCH  60  64
BRANCH  61  66
ATOM     66  O   UNL     1      24.625  53.709   6.605  1.00  0.00    -0.502 OA
ATOM     67  H   UNL     1      24.461  53.036   5.857  1.00  0.00     0.293 HD
ENDBRANCH  61  66
ENDBRANCH  54  56
ENDBRANCH  53  54
ENDBRANCH   5  53
BRANCH   4  68
ATOM     68  O   UNL     1      23.190  53.189  15.531  1.00  0.00    -0.448 OA
BRANCH  68  69
ATOM     69  C   UNL     1      22.994  53.948  16.695  1.00  0.00     0.339 C 
ATOM     70  O   UNL     1      22.074  54.810  16.739  1.00  0.00    -0.246 OA
BRANCH  69  71
ATOM     71  C   UNL     1      23.839  53.712  17.884  1.00  0.00     0.067 A 
ATOM     72  C   UNL     1      24.600  54.756  18.439  1.00  0.00     0.066 A 
ATOM     73  C   UNL     1      23.889  52.441  18.478  1.00  0.00     0.066 A 
ATOM     74  C   UNL     1      25.373  54.541  19.590  1.00  0.00     0.162 A 
ATOM     75  C   UNL     1      24.669  52.208  19.619  1.00  0.00     0.162 A 
ATOM     76  C   UNL     1      25.404  53.275  20.193  1.00  0.00     0.200 A 
BRANCH  74  77
ATOM     77  O   UNL     1      26.105  55.586  20.152  1.00  0.00    -0.504 OA
ATOM     78  H   UNL     1      25.789  56.542  20.093  1.00  0.00     0.293 HD
ENDBRANCH  74  77
BRANCH  75  79
ATOM     79  O   UNL     1      24.689  50.908  20.134  1.00  0.00    -0.504 OA
ATOM     80  H   UNL     1      23.882  50.308  20.186  1.00  0.00     0.293 HD
ENDBRANCH  75  79
BRANCH  76  81
ATOM     81  O   UNL     1      26.160  53.118  21.356  1.00  0.00    -0.502 OA
ATOM     82  H   UNL     1      25.761  52.885  22.249  1.00  0.00     0.293 HD
ENDBRANCH  76  81
ENDBRANCH  69  71
ENDBRANCH  68  69
ENDBRANCH   4  68
TORSDOF 31
ENDMDL
