MODEL 1
REMARK VINA RESULT:    -4.829      0.000      0.000
REMARK INTER + INTRA:          -4.971
REMARK INTER:                  -4.971
REMARK INTRA:                   0.000
REMARK UNBOUND:                 0.000
REMARK SMILES Cc1cccc(O)c1C
REMARK SMILES IDX 1 1 2 2 8 3 6 4 5 5 4 6 3 7 9 8 7 9
REMARK H PARENT 7 10
REMARK Flexibility Score: inf
ROOT
ATOM      1  C   UNL     1       8.212  12.176   4.155  1.00  0.00     0.045 C 
ATOM      2  C   UNL     1       7.183  11.575   5.078  1.00  0.00    -0.045 A 
ATOM      3  C   UNL     1       7.509  11.146   6.395  1.00  0.00    -0.006 A 
ATOM      4  C   UNL     1       6.490  10.589   7.210  1.00  0.00     0.118 A 
ATOM      5  C   UNL     1       5.188  10.467   6.717  1.00  0.00     0.046 A 
ATOM      6  C   UNL     1       4.876  10.890   5.427  1.00  0.00     0.004 A 
ATOM      7  C   UNL     1       5.863  11.439   4.614  1.00  0.00     0.004 A 
ATOM      8  C   UNL     1       8.911  11.268   6.948  1.00  0.00     0.048 C 
ENDROOT
BRANCH   4   9
ATOM      9  O   UNL     1       6.737  10.146   8.511  1.00  0.00    -0.508 OA
ATOM     10  H   UNL     1       7.549   9.604   8.772  1.00  0.00     0.293 HD
ENDBRANCH   4   9
TORSDOF 1
ENDMDL
MODEL 2
REMARK VINA RESULT:    -4.668     17.329     18.522
REMARK INTER + INTRA:          -4.804
REMARK INTER:                  -4.804
REMARK INTRA:                   0.000
REMARK UNBOUND:                 0.000
REMARK SMILES Cc1cccc(O)c1C
REMARK SMILES IDX 1 1 2 2 8 3 6 4 5 5 4 6 3 7 9 8 7 9
REMARK H PARENT 7 10
REMARK Flexibility Score: inf
ROOT
ATOM      1  C   UNL     1      -5.175  12.271  -5.625  1.00  0.00     0.045 C 
ATOM      2  C   UNL     1      -4.925  11.416  -6.841  1.00  0.00    -0.045 A 
ATOM      3  C   UNL     1      -5.838  10.406  -7.255  1.00  0.00    -0.006 A 
ATOM      4  C   UNL     1      -5.539   9.640  -8.411  1.00  0.00     0.118 A 
ATOM      5  C   UNL     1      -4.362   9.880  -9.125  1.00  0.00     0.046 A 
ATOM      6  C   UNL     1      -3.473  10.871  -8.715  1.00  0.00     0.004 A 
ATOM      7  C   UNL     1      -3.751  11.633  -7.583  1.00  0.00     0.004 A 
ATOM      8  C   UNL     1      -7.116  10.129  -6.497  1.00  0.00     0.048 C 
ENDROOT
BRANCH   4   9
ATOM      9  O   UNL     1      -6.387   8.632  -8.875  1.00  0.00    -0.508 OA
ATOM     10  H   UNL     1      -6.759   8.604  -9.815  1.00  0.00     0.293 HD
ENDBRANCH   4   9
TORSDOF 1
ENDMDL
MODEL 3
REMARK VINA RESULT:    -4.633      0.880      2.599
REMARK INTER + INTRA:          -4.768
REMARK INTER:                  -4.768
REMARK INTRA:                   0.000
REMARK UNBOUND:                 0.000
REMARK SMILES Cc1cccc(O)c1C
REMARK SMILES IDX 1 1 2 2 8 3 6 4 5 5 4 6 3 7 9 8 7 9
REMARK H PARENT 7 10
REMARK Flexibility Score: inf
ROOT
ATOM      1  C   UNL     1       5.999  11.964   4.128  1.00  0.00     0.045 C 
ATOM      2  C   UNL     1       6.701  11.580   5.405  1.00  0.00    -0.045 A 
ATOM      3  C   UNL     1       6.028  10.909   6.464  1.00  0.00    -0.006 A 
ATOM      4  C   UNL     1       6.752  10.578   7.639  1.00  0.00     0.118 A 
ATOM      5  C   UNL     1       8.104  10.911   7.745  1.00  0.00     0.046 A 
ATOM      6  C   UNL     1       8.757  11.567   6.704  1.00  0.00     0.004 A 
ATOM      7  C   UNL     1       8.063  11.899   5.544  1.00  0.00     0.004 A 
ATOM      8  C   UNL     1       4.565  10.540   6.371  1.00  0.00     0.048 C 
ENDROOT
BRANCH   4   9
ATOM      9  O   UNL     1       6.157   9.920   8.718  1.00  0.00    -0.508 OA
ATOM     10  H   UNL     1       6.473  10.017   9.674  1.00  0.00     0.293 HD
ENDBRANCH   4   9
TORSDOF 1
ENDMDL
MODEL 4
REMARK VINA RESULT:    -4.546      2.038      3.297
REMARK INTER + INTRA:          -4.679
REMARK INTER:                  -4.679
REMARK INTRA:                   0.000
REMARK UNBOUND:                 0.000
REMARK SMILES Cc1cccc(O)c1C
REMARK SMILES IDX 1 1 2 2 8 3 6 4 5 5 4 6 3 7 9 8 7 9
REMARK H PARENT 7 10
REMARK Flexibility Score: inf
ROOT
ATOM      1  C   UNL     1       5.333  10.887   5.195  1.00  0.00     0.045 C 
ATOM      2  C   UNL     1       5.539  11.406   6.595  1.00  0.00    -0.045 A 
ATOM      3  C   UNL     1       4.876  10.836   7.717  1.00  0.00    -0.006 A 
ATOM      4  C   UNL     1       5.118  11.375   9.007  1.00  0.00     0.118 A 
ATOM      5  C   UNL     1       5.996  12.452   9.162  1.00  0.00     0.046 A 
ATOM      6  C   UNL     1       6.642  13.004   8.059  1.00  0.00     0.004 A 
ATOM      7  C   UNL     1       6.417  12.487   6.787  1.00  0.00     0.004 A 
ATOM      8  C   UNL     1       3.923   9.672   7.572  1.00  0.00     0.048 C 
ENDROOT
BRANCH   4   9
ATOM      9  O   UNL     1       4.503  10.867  10.153  1.00  0.00    -0.508 OA
ATOM     10  H   UNL     1       3.937  10.029  10.159  1.00  0.00     0.293 HD
ENDBRANCH   4   9
TORSDOF 1
ENDMDL
MODEL 5
REMARK VINA RESULT:    -4.464      1.903      2.533
REMARK INTER + INTRA:          -4.594
REMARK INTER:                  -4.594
REMARK INTRA:                   0.000
REMARK UNBOUND:                 0.000
REMARK SMILES Cc1cccc(O)c1C
REMARK SMILES IDX 1 1 2 2 8 3 6 4 5 5 4 6 3 7 9 8 7 9
REMARK H PARENT 7 10
REMARK Flexibility Score: inf
ROOT
ATOM      1  C   UNL     1       6.591  11.927   5.867  1.00  0.00     0.045 C 
ATOM      2  C   UNL     1       5.522  11.312   6.735  1.00  0.00    -0.045 A 
ATOM      3  C   UNL     1       5.574  11.376   8.155  1.00  0.00    -0.006 A 
ATOM      4  C   UNL     1       4.532  10.776   8.910  1.00  0.00     0.118 A 
ATOM      5  C   UNL     1       3.477  10.132   8.257  1.00  0.00     0.046 A 
ATOM      6  C   UNL     1       3.433  10.074   6.867  1.00  0.00     0.004 A 
ATOM      7  C   UNL     1       4.446  10.659   6.111  1.00  0.00     0.004 A 
ATOM      8  C   UNL     1       6.706  12.066   8.881  1.00  0.00     0.048 C 
ENDROOT
BRANCH   4   9
ATOM      9  O   UNL     1       4.517  10.798  10.306  1.00  0.00    -0.508 OA
ATOM     10  H   UNL     1       3.891  10.237  10.867  1.00  0.00     0.293 HD
ENDBRANCH   4   9
TORSDOF 1
ENDMDL
MODEL 6
REMARK VINA RESULT:    -4.334      2.341      3.540
REMARK INTER + INTRA:          -4.461
REMARK INTER:                  -4.461
REMARK INTRA:                   0.000
REMARK UNBOUND:                 0.000
REMARK SMILES Cc1cccc(O)c1C
REMARK SMILES IDX 1 1 2 2 8 3 6 4 5 5 4 6 3 7 9 8 7 9
REMARK H PARENT 7 10
REMARK Flexibility Score: inf
ROOT
ATOM      1  C   UNL     1       6.597  12.735   9.205  1.00  0.00     0.045 C 
ATOM      2  C   UNL     1       5.565  11.844   8.561  1.00  0.00    -0.045 A 
ATOM      3  C   UNL     1       5.625  11.493   7.183  1.00  0.00    -0.006 A 
ATOM      4  C   UNL     1       4.620  10.649   6.644  1.00  0.00     0.118 A 
ATOM      5  C   UNL     1       3.590  10.176   7.462  1.00  0.00     0.046 A 
ATOM      6  C   UNL     1       3.538  10.524   8.809  1.00  0.00     0.004 A 
ATOM      7  C   UNL     1       4.516  11.350   9.356  1.00  0.00     0.004 A 
ATOM      8  C   UNL     1       6.729  11.994   6.281  1.00  0.00     0.048 C 
ENDROOT
BRANCH   4   9
ATOM      9  O   UNL     1       4.614  10.264   5.301  1.00  0.00    -0.508 OA
ATOM     10  H   UNL     1       5.112  10.762   4.576  1.00  0.00     0.293 HD
ENDBRANCH   4   9
TORSDOF 1
ENDMDL
MODEL 7
REMARK VINA RESULT:    -4.330      2.197      3.383
REMARK INTER + INTRA:          -4.456
REMARK INTER:                  -4.456
REMARK INTRA:                   0.000
REMARK UNBOUND:                 0.000
REMARK SMILES Cc1cccc(O)c1C
REMARK SMILES IDX 1 1 2 2 8 3 6 4 5 5 4 6 3 7 9 8 7 9
REMARK H PARENT 7 10
REMARK Flexibility Score: inf
ROOT
ATOM      1  C   UNL     1       6.742  12.614   8.861  1.00  0.00     0.045 C 
ATOM      2  C   UNL     1       5.912  11.886   7.835  1.00  0.00    -0.045 A 
ATOM      3  C   UNL     1       4.716  11.198   8.182  1.00  0.00    -0.006 A 
ATOM      4  C   UNL     1       3.984  10.533   7.163  1.00  0.00     0.118 A 
ATOM      5  C   UNL     1       4.441  10.559   5.843  1.00  0.00     0.046 A 
ATOM      6  C   UNL     1       5.612  11.235   5.511  1.00  0.00     0.004 A 
ATOM      7  C   UNL     1       6.342  11.893   6.497  1.00  0.00     0.004 A 
ATOM      8  C   UNL     1       4.204  11.157   9.603  1.00  0.00     0.048 C 
ENDROOT
BRANCH   4   9
ATOM      9  O   UNL     1       2.803   9.838   7.430  1.00  0.00    -0.508 OA
ATOM     10  H   UNL     1       1.968   9.918   6.865  1.00  0.00     0.293 HD
ENDBRANCH   4   9
TORSDOF 1
ENDMDL
MODEL 8
REMARK VINA RESULT:    -4.306      2.486      4.390
REMARK INTER + INTRA:          -4.432
REMARK INTER:                  -4.432
REMARK INTRA:                   0.000
REMARK UNBOUND:                 0.000
REMARK SMILES Cc1cccc(O)c1C
REMARK SMILES IDX 1 1 2 2 8 3 6 4 5 5 4 6 3 7 9 8 7 9
REMARK H PARENT 7 10
REMARK Flexibility Score: inf
ROOT
ATOM      1  C   UNL     1       2.619  11.173   9.623  1.00  0.00     0.045 C 
ATOM      2  C   UNL     1       3.875  11.460   8.841  1.00  0.00    -0.045 A 
ATOM      3  C   UNL     1       4.525  10.461   8.063  1.00  0.00    -0.006 A 
ATOM      4  C   UNL     1       5.705  10.803   7.352  1.00  0.00     0.118 A 
ATOM      5  C   UNL     1       6.212  12.103   7.421  1.00  0.00     0.046 A 
ATOM      6  C   UNL     1       5.570  13.075   8.183  1.00  0.00     0.004 A 
ATOM      7  C   UNL     1       4.411  12.758   8.887  1.00  0.00     0.004 A 
ATOM      8  C   UNL     1       3.994   9.049   7.975  1.00  0.00     0.048 C 
ENDROOT
BRANCH   4   9
ATOM      9  O   UNL     1       6.396   9.875   6.570  1.00  0.00    -0.508 OA
ATOM     10  H   UNL     1       6.712   8.978   6.915  1.00  0.00     0.293 HD
ENDBRANCH   4   9
TORSDOF 1
ENDMDL
