MODEL 1
REMARK VINA RESULT:    -5.217      0.000      0.000
REMARK INTER + INTRA:          -5.720
REMARK INTER:                  -5.675
REMARK INTRA:                  -0.045
REMARK UNBOUND:                -0.045
REMARK SMILES COc1cc2ccc(=O)oc2cc1O
REMARK SMILES IDX 3 1 13 2 12 3 11 4 5 5 4 6 6 7 7 8 8 9 9 10 10 11 2 12 1 13
REMARK SMILES IDX 14 14
REMARK H PARENT 14 15
REMARK Flexibility Score: inf
ROOT
ATOM      1  C   UNL     1       8.029  -7.043  -7.231  1.00  0.00     0.161 A 
ATOM      2  C   UNL     1       7.697  -5.689  -7.033  1.00  0.00     0.161 A 
ATOM      3  C   UNL     1       7.573  -4.826  -8.128  1.00  0.00     0.098 A 
ATOM      4  C   UNL     1       7.774  -5.297  -9.427  1.00  0.00     0.142 A 
ATOM      5  C   UNL     1       8.106  -6.652  -9.637  1.00  0.00     0.022 A 
ATOM      6  C   UNL     1       8.233  -7.519  -8.543  1.00  0.00     0.062 A 
ATOM      7  C   UNL     1       8.302  -7.095 -10.949  1.00  0.00     0.019 A 
ATOM      8  C   UNL     1       8.166  -6.193 -12.004  1.00  0.00     0.094 A 
ATOM      9  C   UNL     1       7.834  -4.865 -11.720  1.00  0.00     0.336 A 
ATOM     10  O   UNL     1       7.707  -4.035 -12.658  1.00  0.00    -0.246 OA
ATOM     11  O   UNL     1       7.654  -4.469 -10.462  1.00  0.00    -0.423 OA
ENDROOT
BRANCH   1  12
ATOM     12  O   UNL     1       8.146  -7.881  -6.111  1.00  0.00    -0.493 OA
ATOM     13  C   UNL     1       7.068  -8.602  -5.525  1.00  0.00     0.278 C 
ENDBRANCH   1  12
BRANCH   2  14
ATOM     14  O   UNL     1       7.488  -5.180  -5.752  1.00  0.00    -0.504 OA
ATOM     15  H   UNL     1       8.112  -5.383  -4.981  1.00  0.00     0.293 HD
ENDBRANCH   2  14
TORSDOF 2
ENDMDL
MODEL 2
REMARK VINA RESULT:    -4.997      1.371      2.433
REMARK INTER + INTRA:          -5.481
REMARK INTER:                  -5.435
REMARK INTRA:                  -0.046
REMARK UNBOUND:                -0.045
REMARK SMILES COc1cc2ccc(=O)oc2cc1O
REMARK SMILES IDX 3 1 13 2 12 3 11 4 5 5 4 6 6 7 7 8 8 9 9 10 10 11 2 12 1 13
REMARK SMILES IDX 14 14
REMARK H PARENT 14 15
REMARK Flexibility Score: inf
ROOT
ATOM      1  C   UNL     1       8.066  -6.662  -6.740  1.00  0.00     0.161 A 
ATOM      2  C   UNL     1       8.346  -7.911  -7.326  1.00  0.00     0.161 A 
ATOM      3  C   UNL     1       8.405  -8.040  -8.719  1.00  0.00     0.098 A 
ATOM      4  C   UNL     1       8.187  -6.933  -9.541  1.00  0.00     0.142 A 
ATOM      5  C   UNL     1       7.906  -5.677  -8.965  1.00  0.00     0.022 A 
ATOM      6  C   UNL     1       7.846  -5.543  -7.571  1.00  0.00     0.062 A 
ATOM      7  C   UNL     1       7.692  -4.586  -9.814  1.00  0.00     0.019 A 
ATOM      8  C   UNL     1       7.762  -4.769 -11.195  1.00  0.00     0.094 A 
ATOM      9  C   UNL     1       8.046  -6.044 -11.695  1.00  0.00     0.336 A 
ATOM     10  O   UNL     1       8.113  -6.231 -12.938  1.00  0.00    -0.246 OA
ATOM     11  O   UNL     1       8.244  -7.065 -10.865  1.00  0.00    -0.423 OA
ENDROOT
BRANCH   1  12
ATOM     12  O   UNL     1       8.014  -6.568  -5.341  1.00  0.00    -0.493 OA
ATOM     13  C   UNL     1       8.380  -5.412  -4.594  1.00  0.00     0.278 C 
ENDBRANCH   1  12
BRANCH   2  14
ATOM     14  O   UNL     1       8.569  -9.041  -6.539  1.00  0.00    -0.504 OA
ATOM     15  H   UNL     1       8.144  -9.937  -6.746  1.00  0.00     0.293 HD
ENDBRANCH   2  14
TORSDOF 2
ENDMDL
MODEL 3
REMARK VINA RESULT:    -4.883      1.309      5.431
REMARK INTER + INTRA:          -5.356
REMARK INTER:                  -5.309
REMARK INTRA:                  -0.048
REMARK UNBOUND:                -0.045
REMARK SMILES COc1cc2ccc(=O)oc2cc1O
REMARK SMILES IDX 3 1 13 2 12 3 11 4 5 5 4 6 6 7 7 8 8 9 9 10 10 11 2 12 1 13
REMARK SMILES IDX 14 14
REMARK H PARENT 14 15
REMARK Flexibility Score: inf
ROOT
ATOM      1  C   UNL     1       8.010  -5.420 -11.460  1.00  0.00     0.161 A 
ATOM      2  C   UNL     1       8.068  -6.817 -11.625  1.00  0.00     0.161 A 
ATOM      3  C   UNL     1       8.056  -7.661 -10.509  1.00  0.00     0.098 A 
ATOM      4  C   UNL     1       7.987  -7.128  -9.220  1.00  0.00     0.142 A 
ATOM      5  C   UNL     1       7.929  -5.730  -9.043  1.00  0.00     0.022 A 
ATOM      6  C   UNL     1       7.941  -4.881 -10.158  1.00  0.00     0.062 A 
ATOM      7  C   UNL     1       7.861  -5.225  -7.740  1.00  0.00     0.019 A 
ATOM      8  C   UNL     1       7.853  -6.110  -6.662  1.00  0.00     0.094 A 
ATOM      9  C   UNL     1       7.913  -7.484  -6.915  1.00  0.00     0.336 A 
ATOM     10  O   UNL     1       7.907  -8.300  -5.956  1.00  0.00    -0.246 OA
ATOM     11  O   UNL     1       7.978  -7.938  -8.164  1.00  0.00    -0.423 OA
ENDROOT
BRANCH   1  12
ATOM     12  O   UNL     1       8.024  -4.603 -12.601  1.00  0.00    -0.493 OA
ATOM     13  C   UNL     1       7.247  -3.420 -12.758  1.00  0.00     0.278 C 
ENDBRANCH   1  12
BRANCH   2  14
ATOM     14  O   UNL     1       8.137  -7.388 -12.896  1.00  0.00    -0.504 OA
ATOM     15  H   UNL     1       7.423  -8.014 -13.248  1.00  0.00     0.293 HD
ENDBRANCH   2  14
TORSDOF 2
ENDMDL
MODEL 4
REMARK VINA RESULT:    -4.882      2.403      2.712
REMARK INTER + INTRA:          -5.356
REMARK INTER:                  -5.291
REMARK INTRA:                  -0.065
REMARK UNBOUND:                -0.045
REMARK SMILES COc1cc2ccc(=O)oc2cc1O
REMARK SMILES IDX 3 1 13 2 12 3 11 4 5 5 4 6 6 7 7 8 8 9 9 10 10 11 2 12 1 13
REMARK SMILES IDX 14 14
REMARK H PARENT 14 15
REMARK Flexibility Score: inf
ROOT
ATOM      1  C   UNL     1       8.564  -6.427  -6.918  1.00  0.00     0.161 A 
ATOM      2  C   UNL     1       9.859  -5.945  -7.192  1.00  0.00     0.161 A 
ATOM      3  C   UNL     1      10.470  -6.225  -8.419  1.00  0.00     0.098 A 
ATOM      4  C   UNL     1       9.804  -6.984  -9.385  1.00  0.00     0.142 A 
ATOM      5  C   UNL     1       8.507  -7.470  -9.121  1.00  0.00     0.022 A 
ATOM      6  C   UNL     1       7.892  -7.193  -7.893  1.00  0.00     0.062 A 
ATOM      7  C   UNL     1       7.865  -8.227 -10.107  1.00  0.00     0.019 A 
ATOM      8  C   UNL     1       8.520  -8.477 -11.313  1.00  0.00     0.094 A 
ATOM      9  C   UNL     1       9.806  -7.961 -11.504  1.00  0.00     0.336 A 
ATOM     10  O   UNL     1      10.414  -8.176 -12.585  1.00  0.00    -0.246 OA
ATOM     11  O   UNL     1      10.394  -7.245 -10.549  1.00  0.00    -0.423 OA
ENDROOT
BRANCH   1  12
ATOM     12  O   UNL     1       7.981  -6.128  -5.677  1.00  0.00    -0.493 OA
ATOM     13  C   UNL     1       7.917  -7.028  -4.575  1.00  0.00     0.278 C 
ENDBRANCH   1  12
BRANCH   2  14
ATOM     14  O   UNL     1      10.557  -5.185  -6.254  1.00  0.00    -0.504 OA
ATOM     15  H   UNL     1      10.927  -5.586  -5.401  1.00  0.00     0.293 HD
ENDBRANCH   2  14
TORSDOF 2
ENDMDL
MODEL 5
REMARK VINA RESULT:    -4.874     15.841     17.845
REMARK INTER + INTRA:          -5.346
REMARK INTER:                  -5.299
REMARK INTRA:                  -0.047
REMARK UNBOUND:                -0.045
REMARK SMILES COc1cc2ccc(=O)oc2cc1O
REMARK SMILES IDX 3 1 13 2 12 3 11 4 5 5 4 6 6 7 7 8 8 9 9 10 10 11 2 12 1 13
REMARK SMILES IDX 14 14
REMARK H PARENT 14 15
REMARK Flexibility Score: inf
ROOT
ATOM      1  C   UNL     1      20.256  -0.019 -19.856  1.00  0.00     0.161 A 
ATOM      2  C   UNL     1      19.288  -0.413 -18.913  1.00  0.00     0.161 A 
ATOM      3  C   UNL     1      19.472  -0.133 -17.554  1.00  0.00     0.098 A 
ATOM      4  C   UNL     1      20.615   0.541 -17.119  1.00  0.00     0.142 A 
ATOM      5  C   UNL     1      21.591   0.941 -18.055  1.00  0.00     0.022 A 
ATOM      6  C   UNL     1      21.411   0.661 -19.417  1.00  0.00     0.062 A 
ATOM      7  C   UNL     1      22.726   1.613 -17.590  1.00  0.00     0.019 A 
ATOM      8  C   UNL     1      22.860   1.867 -16.225  1.00  0.00     0.094 A 
ATOM      9  C   UNL     1      21.850   1.441 -15.356  1.00  0.00     0.336 A 
ATOM     10  O   UNL     1      21.952   1.660 -14.120  1.00  0.00    -0.246 OA
ATOM     11  O   UNL     1      20.781   0.803 -15.824  1.00  0.00    -0.423 OA
ENDROOT
BRANCH   1  12
ATOM     12  O   UNL     1      20.040  -0.317 -21.211  1.00  0.00    -0.493 OA
ATOM     13  C   UNL     1      21.060  -0.703 -22.126  1.00  0.00     0.278 C 
ENDBRANCH   1  12
BRANCH   2  14
ATOM     14  O   UNL     1      18.133  -1.088 -19.307  1.00  0.00    -0.504 OA
ATOM     15  H   UNL     1      17.455  -0.677 -19.938  1.00  0.00     0.293 HD
ENDBRANCH   2  14
TORSDOF 2
ENDMDL
MODEL 6
REMARK VINA RESULT:    -4.846      1.521      4.804
REMARK INTER + INTRA:          -5.316
REMARK INTER:                  -5.253
REMARK INTRA:                  -0.063
REMARK UNBOUND:                -0.045
REMARK SMILES COc1cc2ccc(=O)oc2cc1O
REMARK SMILES IDX 3 1 13 2 12 3 11 4 5 5 4 6 6 7 7 8 8 9 9 10 10 11 2 12 1 13
REMARK SMILES IDX 14 14
REMARK H PARENT 14 15
REMARK Flexibility Score: inf
ROOT
ATOM      1  C   UNL     1       8.049  -7.146 -10.793  1.00  0.00     0.161 A 
ATOM      2  C   UNL     1       8.089  -5.738 -10.753  1.00  0.00     0.161 A 
ATOM      3  C   UNL     1       8.115  -5.069  -9.524  1.00  0.00     0.098 A 
ATOM      4  C   UNL     1       8.102  -5.787  -8.326  1.00  0.00     0.142 A 
ATOM      5  C   UNL     1       8.063  -7.196  -8.356  1.00  0.00     0.022 A 
ATOM      6  C   UNL     1       8.037  -7.871  -9.584  1.00  0.00     0.062 A 
ATOM      7  C   UNL     1       8.051  -7.888  -7.140  1.00  0.00     0.019 A 
ATOM      8  C   UNL     1       8.077  -7.172  -5.944  1.00  0.00     0.094 A 
ATOM      9  C   UNL     1       8.117  -5.775  -5.993  1.00  0.00     0.336 A 
ATOM     10  O   UNL     1       8.141  -5.109  -4.924  1.00  0.00    -0.246 OA
ATOM     11  O   UNL     1       8.126  -5.141  -7.163  1.00  0.00    -0.423 OA
ENDROOT
BRANCH   1  12
ATOM     12  O   UNL     1       8.024  -7.785 -12.043  1.00  0.00    -0.493 OA
ATOM     13  C   UNL     1       9.174  -8.278 -12.722  1.00  0.00     0.278 C 
ENDBRANCH   1  12
BRANCH   2  14
ATOM     14  O   UNL     1       8.103  -4.986 -11.927  1.00  0.00    -0.504 OA
ATOM     15  H   UNL     1       7.572  -5.253 -12.747  1.00  0.00     0.293 HD
ENDBRANCH   2  14
TORSDOF 2
ENDMDL
MODEL 7
REMARK VINA RESULT:    -4.780     15.725     17.653
REMARK INTER + INTRA:          -5.245
REMARK INTER:                  -5.442
REMARK INTRA:                   0.198
REMARK UNBOUND:                -0.045
REMARK SMILES COc1cc2ccc(=O)oc2cc1O
REMARK SMILES IDX 3 1 13 2 12 3 11 4 5 5 4 6 6 7 7 8 8 9 9 10 10 11 2 12 1 13
REMARK SMILES IDX 14 14
REMARK H PARENT 14 15
REMARK Flexibility Score: inf
ROOT
ATOM      1  C   UNL     1      19.632  -0.795 -17.967  1.00  0.00     0.161 A 
ATOM      2  C   UNL     1      20.376   0.356 -17.644  1.00  0.00     0.161 A 
ATOM      3  C   UNL     1      21.118   1.017 -18.630  1.00  0.00     0.098 A 
ATOM      4  C   UNL     1      21.127   0.543 -19.944  1.00  0.00     0.142 A 
ATOM      5  C   UNL     1      20.384  -0.608 -20.278  1.00  0.00     0.022 A 
ATOM      6  C   UNL     1      19.641  -1.273 -19.294  1.00  0.00     0.062 A 
ATOM      7  C   UNL     1      20.413  -1.059 -21.603  1.00  0.00     0.019 A 
ATOM      8  C   UNL     1      21.168  -0.364 -22.546  1.00  0.00     0.094 A 
ATOM      9  C   UNL     1      21.879   0.771 -22.142  1.00  0.00     0.336 A 
ATOM     10  O   UNL     1      22.567   1.412 -22.978  1.00  0.00    -0.246 OA
ATOM     11  O   UNL     1      21.835   1.178 -20.876  1.00  0.00    -0.423 OA
ENDROOT
BRANCH   1  12
ATOM     12  O   UNL     1      18.900  -1.433 -16.953  1.00  0.00    -0.493 OA
ATOM     13  C   UNL     1      17.838  -0.830 -16.221  1.00  0.00     0.278 C 
ENDBRANCH   1  12
BRANCH   2  14
ATOM     14  O   UNL     1      20.393   0.860 -16.343  1.00  0.00    -0.504 OA
ATOM     15  H   UNL     1      19.553   1.179 -15.876  1.00  0.00     0.293 HD
ENDBRANCH   2  14
TORSDOF 2
ENDMDL
MODEL 8
REMARK VINA RESULT:    -4.764      2.613      5.164
REMARK INTER + INTRA:          -5.227
REMARK INTER:                  -5.162
REMARK INTRA:                  -0.065
REMARK UNBOUND:                -0.045
REMARK SMILES COc1cc2ccc(=O)oc2cc1O
REMARK SMILES IDX 3 1 13 2 12 3 11 4 5 5 4 6 6 7 7 8 8 9 9 10 10 11 2 12 1 13
REMARK SMILES IDX 14 14
REMARK H PARENT 14 15
REMARK Flexibility Score: inf
ROOT
ATOM      1  C   UNL     1       9.747  -7.167 -11.273  1.00  0.00     0.161 A 
ATOM      2  C   UNL     1      11.011  -6.830 -10.753  1.00  0.00     0.161 A 
ATOM      3  C   UNL     1      11.132  -6.361  -9.440  1.00  0.00     0.098 A 
ATOM      4  C   UNL     1      10.001  -6.224  -8.632  1.00  0.00     0.142 A 
ATOM      5  C   UNL     1       8.730  -6.560  -9.143  1.00  0.00     0.022 A 
ATOM      6  C   UNL     1       8.605  -7.029 -10.457  1.00  0.00     0.062 A 
ATOM      7  C   UNL     1       7.616  -6.411  -8.309  1.00  0.00     0.019 A 
ATOM      8  C   UNL     1       7.792  -5.939  -7.009  1.00  0.00     0.094 A 
ATOM      9  C   UNL     1       9.083  -5.627  -6.571  1.00  0.00     0.336 A 
ATOM     10  O   UNL     1       9.263  -5.199  -5.400  1.00  0.00    -0.246 OA
ATOM     11  O   UNL     1      10.125  -5.776  -7.384  1.00  0.00    -0.423 OA
ENDROOT
BRANCH   1  12
ATOM     12  O   UNL     1       9.662  -7.634 -12.595  1.00  0.00    -0.493 OA
ATOM     13  C   UNL     1       9.586  -9.007 -12.964  1.00  0.00     0.278 C 
ENDBRANCH   1  12
BRANCH   2  14
ATOM     14  O   UNL     1      12.164  -6.952 -11.529  1.00  0.00    -0.504 OA
ATOM     15  H   UNL     1      13.085  -6.733 -11.168  1.00  0.00     0.293 HD
ENDBRANCH   2  14
TORSDOF 2
ENDMDL
MODEL 9
REMARK VINA RESULT:    -4.758      2.366      3.062
REMARK INTER + INTRA:          -5.220
REMARK INTER:                  -5.166
REMARK INTRA:                  -0.055
REMARK UNBOUND:                -0.045
REMARK SMILES COc1cc2ccc(=O)oc2cc1O
REMARK SMILES IDX 3 1 13 2 12 3 11 4 5 5 4 6 6 7 7 8 8 9 9 10 10 11 2 12 1 13
REMARK SMILES IDX 14 14
REMARK H PARENT 14 15
REMARK Flexibility Score: inf
ROOT
ATOM      1  C   UNL     1       8.194  -5.898  -7.336  1.00  0.00     0.161 A 
ATOM      2  C   UNL     1       7.831  -5.177  -8.490  1.00  0.00     0.161 A 
ATOM      3  C   UNL     1       8.370  -5.520  -9.735  1.00  0.00     0.098 A 
ATOM      4  C   UNL     1       9.271  -6.582  -9.847  1.00  0.00     0.142 A 
ATOM      5  C   UNL     1       9.640  -7.312  -8.698  1.00  0.00     0.022 A 
ATOM      6  C   UNL     1       9.103  -6.970  -7.449  1.00  0.00     0.062 A 
ATOM      7  C   UNL     1      10.544  -8.369  -8.841  1.00  0.00     0.019 A 
ATOM      8  C   UNL     1      11.051  -8.670 -10.105  1.00  0.00     0.094 A 
ATOM      9  C   UNL     1      10.639  -7.903 -11.200  1.00  0.00     0.336 A 
ATOM     10  O   UNL     1      11.086  -8.158 -12.349  1.00  0.00    -0.246 OA
ATOM     11  O   UNL     1       9.779  -6.901 -11.035  1.00  0.00    -0.423 OA
ENDROOT
BRANCH   1  12
ATOM     12  O   UNL     1       7.634  -5.526  -6.103  1.00  0.00    -0.493 OA
ATOM     13  C   UNL     1       8.387  -5.201  -4.939  1.00  0.00     0.278 C 
ENDBRANCH   1  12
BRANCH   2  14
ATOM     14  O   UNL     1       6.935  -4.110  -8.419  1.00  0.00    -0.504 OA
ATOM     15  H   UNL     1       7.219  -3.184  -8.123  1.00  0.00     0.293 HD
ENDBRANCH   2  14
TORSDOF 2
ENDMDL
