MODEL 1
REMARK VINA RESULT:    -4.041      0.000      0.000
REMARK INTER + INTRA:          -9.606
REMARK INTER:                  -7.349
REMARK INTRA:                  -2.257
REMARK UNBOUND:                -2.257
REMARK SMILES CCCCCCCCCCCCCCCC(=O)[O-]
REMARK SMILES IDX 9 1 10 2 11 3 12 4 13 5 14 6 15 7 16 8 17 9 18 10 8 11 7 12
REMARK SMILES IDX 6 13 5 14 4 15 3 16 2 17 1 18
REMARK H PARENT
REMARK Flexibility Score: inf
ROOT
ATOM      1  C   UNL     1     -23.382  -7.809  -6.479  1.00  0.00     0.000 C 
ENDROOT
BRANCH   1   2
ATOM      2  C   UNL     1     -22.530  -8.106  -7.728  1.00  0.00     0.000 C 
BRANCH   2   3
ATOM      3  C   UNL     1     -22.494  -9.602  -8.079  1.00  0.00     0.000 C 
BRANCH   3   4
ATOM      4  C   UNL     1     -21.224 -10.300  -7.569  1.00  0.00     0.000 C 
BRANCH   4   5
ATOM      5  C   UNL     1     -21.573 -11.383  -6.537  1.00  0.00     0.000 C 
BRANCH   5   6
ATOM      6  C   UNL     1     -21.228 -10.967  -5.095  1.00  0.00     0.006 C 
BRANCH   6   7
ATOM      7  C   UNL     1     -20.332  -9.722  -4.991  1.00  0.00     0.053 C 
BRANCH   7   8
ATOM      8  C   UNL     1     -18.991 -10.042  -4.409  1.00  0.00     0.041 C 
ATOM      9  O   UNL     1     -18.300 -10.983  -4.885  1.00  0.00    -0.550 OA
ATOM     10  O   UNL     1     -18.490  -9.285  -3.358  1.00  0.00    -0.550 OA
ENDBRANCH   7   8
ENDBRANCH   6   7
ENDBRANCH   5   6
ENDBRANCH   4   5
ENDBRANCH   3   4
ENDBRANCH   2   3
ENDBRANCH   1   2
BRANCH   1  11
ATOM     11  C   UNL     1     -24.462  -8.873  -6.228  1.00  0.00     0.000 C 
BRANCH  11  12
ATOM     12  C   UNL     1     -24.451  -9.395  -4.780  1.00  0.00    -0.000 C 
BRANCH  12  13
ATOM     13  C   UNL     1     -24.064  -8.314  -3.754  1.00  0.00    -0.000 C 
BRANCH  13  14
ATOM     14  C   UNL     1     -25.248  -7.590  -3.084  1.00  0.00    -0.000 C 
BRANCH  14  15
ATOM     15  C   UNL     1     -25.429  -6.149  -3.589  1.00  0.00    -0.000 C 
BRANCH  15  16
ATOM     16  C   UNL     1     -26.667  -5.987  -4.487  1.00  0.00    -0.000 C 
BRANCH  16  17
ATOM     17  C   UNL     1     -26.347  -5.298  -5.821  1.00  0.00    -0.003 C 
ATOM     18  C   UNL     1     -26.664  -6.214  -7.001  1.00  0.00     0.004 C 
ENDBRANCH  16  17
ENDBRANCH  15  16
ENDBRANCH  14  15
ENDBRANCH  13  14
ENDBRANCH  12  13
ENDBRANCH  11  12
ENDBRANCH   1  11
TORSDOF 14
ENDMDL
MODEL 2
REMARK VINA RESULT:    -4.029      3.308      6.833
REMARK INTER + INTRA:          -9.585
REMARK INTER:                  -7.473
REMARK INTRA:                  -2.111
REMARK UNBOUND:                -2.257
REMARK SMILES CCCCCCCCCCCCCCCC(=O)[O-]
REMARK SMILES IDX 9 1 10 2 11 3 12 4 13 5 14 6 15 7 16 8 17 9 18 10 8 11 7 12
REMARK SMILES IDX 6 13 5 14 4 15 3 16 2 17 1 18
REMARK H PARENT
REMARK Flexibility Score: inf
ROOT
ATOM      1  C   UNL     1     -22.149  -9.564  -3.704  1.00  0.00     0.000 C 
ENDROOT
BRANCH   1   2
ATOM      2  C   UNL     1     -23.256  -8.611  -4.195  1.00  0.00     0.000 C 
BRANCH   2   3
ATOM      3  C   UNL     1     -24.409  -9.350  -4.892  1.00  0.00     0.000 C 
BRANCH   3   4
ATOM      4  C   UNL     1     -24.587  -8.921  -6.356  1.00  0.00     0.000 C 
BRANCH   4   5
ATOM      5  C   UNL     1     -23.664  -7.741  -6.697  1.00  0.00     0.000 C 
BRANCH   5   6
ATOM      6  C   UNL     1     -24.437  -6.441  -6.981  1.00  0.00     0.006 C 
BRANCH   6   7
ATOM      7  C   UNL     1     -25.958  -6.552  -6.785  1.00  0.00     0.053 C 
BRANCH   7   8
ATOM      8  C   UNL     1     -26.415  -5.870  -5.533  1.00  0.00     0.041 C 
ATOM      9  O   UNL     1     -27.609  -5.485  -5.419  1.00  0.00    -0.550 OA
ATOM     10  O   UNL     1     -25.528  -5.684  -4.479  1.00  0.00    -0.550 OA
ENDBRANCH   7   8
ENDBRANCH   6   7
ENDBRANCH   5   6
ENDBRANCH   4   5
ENDBRANCH   3   4
ENDBRANCH   2   3
ENDBRANCH   1   2
BRANCH   1  11
ATOM     11  C   UNL     1     -22.329 -11.001  -4.218  1.00  0.00     0.000 C 
BRANCH  11  12
ATOM     12  C   UNL     1     -21.245 -11.405  -5.234  1.00  0.00    -0.000 C 
BRANCH  12  13
ATOM     13  C   UNL     1     -21.722 -11.301  -6.694  1.00  0.00    -0.000 C 
BRANCH  13  14
ATOM     14  C   UNL     1     -21.053 -10.191  -7.526  1.00  0.00    -0.000 C 
BRANCH  14  15
ATOM     15  C   UNL     1     -19.993  -9.407  -6.733  1.00  0.00    -0.000 C 
BRANCH  15  16
ATOM     16  C   UNL     1     -18.563  -9.675  -7.230  1.00  0.00    -0.000 C 
BRANCH  16  17
ATOM     17  C   UNL     1     -17.535  -9.715  -6.090  1.00  0.00    -0.003 C 
ATOM     18  C   UNL     1     -17.715 -10.967  -5.234  1.00  0.00     0.004 C 
ENDBRANCH  16  17
ENDBRANCH  15  16
ENDBRANCH  14  15
ENDBRANCH  13  14
ENDBRANCH  12  13
ENDBRANCH  11  12
ENDBRANCH   1  11
TORSDOF 14
ENDMDL
MODEL 3
REMARK VINA RESULT:    -3.973      3.115      6.335
REMARK INTER + INTRA:          -9.482
REMARK INTER:                  -7.316
REMARK INTRA:                  -2.165
REMARK UNBOUND:                -2.257
REMARK SMILES CCCCCCCCCCCCCCCC(=O)[O-]
REMARK SMILES IDX 9 1 10 2 11 3 12 4 13 5 14 6 15 7 16 8 17 9 18 10 8 11 7 12
REMARK SMILES IDX 6 13 5 14 4 15 3 16 2 17 1 18
REMARK H PARENT
REMARK Flexibility Score: inf
ROOT
ATOM      1  C   UNL     1     -22.441 -10.213  -7.650  1.00  0.00     0.000 C 
ENDROOT
BRANCH   1   2
ATOM      2  C   UNL     1     -22.323  -8.684  -7.496  1.00  0.00     0.000 C 
BRANCH   2   3
ATOM      3  C   UNL     1     -23.306  -8.115  -6.460  1.00  0.00     0.000 C 
BRANCH   3   4
ATOM      4  C   UNL     1     -24.440  -9.094  -6.120  1.00  0.00     0.000 C 
BRANCH   4   5
ATOM      5  C   UNL     1     -24.435  -9.438  -4.623  1.00  0.00     0.000 C 
BRANCH   5   6
ATOM      6  C   UNL     1     -23.882  -8.297  -3.750  1.00  0.00     0.006 C 
BRANCH   6   7
ATOM      7  C   UNL     1     -24.918  -7.660  -2.809  1.00  0.00     0.053 C 
BRANCH   7   8
ATOM      8  C   UNL     1     -25.573  -6.462  -3.425  1.00  0.00     0.041 C 
ATOM      9  O   UNL     1     -26.478  -6.609  -4.289  1.00  0.00    -0.550 OA
ATOM     10  O   UNL     1     -25.204  -5.184  -3.024  1.00  0.00    -0.550 OA
ENDBRANCH   7   8
ENDBRANCH   6   7
ENDBRANCH   5   6
ENDBRANCH   4   5
ENDBRANCH   3   4
ENDBRANCH   2   3
ENDBRANCH   1   2
BRANCH   1  11
ATOM     11  C   UNL     1     -21.176 -10.956  -7.195  1.00  0.00     0.000 C 
BRANCH  11  12
ATOM     12  C   UNL     1     -21.357 -11.653  -5.834  1.00  0.00    -0.000 C 
BRANCH  12  13
ATOM     13  C   UNL     1     -21.081 -10.719  -4.641  1.00  0.00    -0.000 C 
BRANCH  13  14
ATOM     14  C   UNL     1     -19.913  -9.734  -4.833  1.00  0.00    -0.000 C 
BRANCH  14  15
ATOM     15  C   UNL     1     -18.538 -10.387  -4.610  1.00  0.00    -0.000 C 
BRANCH  15  16
ATOM     16  C   UNL     1     -17.682 -10.416  -5.887  1.00  0.00    -0.000 C 
BRANCH  16  17
ATOM     17  C   UNL     1     -17.953  -9.220  -6.810  1.00  0.00    -0.003 C 
ATOM     18  C   UNL     1     -18.018  -9.659  -8.272  1.00  0.00     0.004 C 
ENDBRANCH  16  17
ENDBRANCH  15  16
ENDBRANCH  14  15
ENDBRANCH  13  14
ENDBRANCH  12  13
ENDBRANCH  11  12
ENDBRANCH   1  11
TORSDOF 14
ENDMDL
MODEL 4
REMARK VINA RESULT:    -3.942      1.402      2.636
REMARK INTER + INTRA:          -9.426
REMARK INTER:                  -7.474
REMARK INTRA:                  -1.952
REMARK UNBOUND:                -2.257
REMARK SMILES CCCCCCCCCCCCCCCC(=O)[O-]
REMARK SMILES IDX 9 1 10 2 11 3 12 4 13 5 14 6 15 7 16 8 17 9 18 10 8 11 7 12
REMARK SMILES IDX 6 13 5 14 4 15 3 16 2 17 1 18
REMARK H PARENT
REMARK Flexibility Score: inf
ROOT
ATOM      1  C   UNL     1     -22.179  -9.900  -3.601  1.00  0.00     0.000 C 
ENDROOT
BRANCH   1   2
ATOM      2  C   UNL     1     -22.305 -11.256  -4.322  1.00  0.00     0.000 C 
BRANCH   2   3
ATOM      3  C   UNL     1     -21.145 -11.521  -5.294  1.00  0.00     0.000 C 
BRANCH   3   4
ATOM      4  C   UNL     1     -21.550 -11.333  -6.764  1.00  0.00     0.000 C 
BRANCH   4   5
ATOM      5  C   UNL     1     -20.865 -10.097  -7.367  1.00  0.00     0.000 C 
BRANCH   5   6
ATOM      6  C   UNL     1     -19.850  -9.449  -6.407  1.00  0.00     0.006 C 
BRANCH   6   7
ATOM      7  C   UNL     1     -18.380  -9.652  -6.809  1.00  0.00     0.053 C 
BRANCH   7   8
ATOM      8  C   UNL     1     -17.547 -10.138  -5.663  1.00  0.00     0.041 C 
ATOM      9  O   UNL     1     -17.745 -11.284  -5.176  1.00  0.00    -0.550 OA
ATOM     10  O   UNL     1     -16.535  -9.337  -5.150  1.00  0.00    -0.550 OA
ENDBRANCH   7   8
ENDBRANCH   6   7
ENDBRANCH   5   6
ENDBRANCH   4   5
ENDBRANCH   3   4
ENDBRANCH   2   3
ENDBRANCH   1   2
BRANCH   1  11
ATOM     11  C   UNL     1     -23.232  -8.880  -4.063  1.00  0.00     0.000 C 
BRANCH  11  12
ATOM     12  C   UNL     1     -24.352  -9.526  -4.899  1.00  0.00    -0.000 C 
BRANCH  12  13
ATOM     13  C   UNL     1     -24.459  -8.937  -6.317  1.00  0.00    -0.000 C 
BRANCH  13  14
ATOM     14  C   UNL     1     -23.692  -7.620  -6.541  1.00  0.00    -0.000 C 
BRANCH  14  15
ATOM     15  C   UNL     1     -24.617  -6.393  -6.604  1.00  0.00    -0.000 C 
BRANCH  15  16
ATOM     16  C   UNL     1     -24.956  -5.834  -5.212  1.00  0.00    -0.000 C 
BRANCH  16  17
ATOM     17  C   UNL     1     -26.346  -6.263  -4.722  1.00  0.00    -0.003 C 
ATOM     18  C   UNL     1     -27.437  -5.382  -5.329  1.00  0.00     0.004 C 
ENDBRANCH  16  17
ENDBRANCH  15  16
ENDBRANCH  14  15
ENDBRANCH  13  14
ENDBRANCH  12  13
ENDBRANCH  11  12
ENDBRANCH   1  11
TORSDOF 14
ENDMDL
MODEL 5
REMARK VINA RESULT:    -3.928      2.968      6.266
REMARK INTER + INTRA:          -9.401
REMARK INTER:                  -7.101
REMARK INTRA:                  -2.299
REMARK UNBOUND:                -2.257
REMARK SMILES CCCCCCCCCCCCCCCC(=O)[O-]
REMARK SMILES IDX 9 1 10 2 11 3 12 4 13 5 14 6 15 7 16 8 17 9 18 10 8 11 7 12
REMARK SMILES IDX 6 13 5 14 4 15 3 16 2 17 1 18
REMARK H PARENT
REMARK Flexibility Score: inf
ROOT
ATOM      1  C   UNL     1     -21.475 -11.711  -5.841  1.00  0.00     0.000 C 
ENDROOT
BRANCH   1   2
ATOM      2  C   UNL     1     -21.195 -10.849  -7.088  1.00  0.00     0.000 C 
BRANCH   2   3
ATOM      3  C   UNL     1     -22.474 -10.248  -7.692  1.00  0.00     0.000 C 
BRANCH   3   4
ATOM      4  C   UNL     1     -22.344  -8.743  -7.972  1.00  0.00     0.000 C 
BRANCH   4   5
ATOM      5  C   UNL     1     -23.198  -7.928  -6.989  1.00  0.00     0.000 C 
BRANCH   5   6
ATOM      6  C   UNL     1     -24.406  -8.717  -6.451  1.00  0.00     0.006 C 
BRANCH   6   7
ATOM      7  C   UNL     1     -24.546  -8.696  -4.921  1.00  0.00     0.053 C 
BRANCH   7   8
ATOM      8  C   UNL     1     -25.446  -7.594  -4.454  1.00  0.00     0.041 C 
ATOM      9  O   UNL     1     -26.032  -6.856  -5.291  1.00  0.00    -0.550 OA
ATOM     10  O   UNL     1     -25.661  -7.398  -3.096  1.00  0.00    -0.550 OA
ENDBRANCH   7   8
ENDBRANCH   6   7
ENDBRANCH   5   6
ENDBRANCH   4   5
ENDBRANCH   3   4
ENDBRANCH   2   3
ENDBRANCH   1   2
BRANCH   1  11
ATOM     11  C   UNL     1     -21.680 -10.871  -4.571  1.00  0.00     0.000 C 
BRANCH  11  12
ATOM     12  C   UNL     1     -20.810  -9.601  -4.556  1.00  0.00    -0.000 C 
BRANCH  12  13
ATOM     13  C   UNL     1     -19.599  -9.713  -3.612  1.00  0.00    -0.000 C 
BRANCH  13  14
ATOM     14  C   UNL     1     -18.226  -9.498  -4.275  1.00  0.00    -0.000 C 
BRANCH  14  15
ATOM     15  C   UNL     1     -17.811 -10.670  -5.181  1.00  0.00    -0.000 C 
BRANCH  15  16
ATOM     16  C   UNL     1     -17.727 -10.271  -6.664  1.00  0.00    -0.000 C 
BRANCH  16  17
ATOM     17  C   UNL     1     -18.080  -8.796  -6.903  1.00  0.00    -0.003 C 
ATOM     18  C   UNL     1     -18.546  -8.571  -8.340  1.00  0.00     0.004 C 
ENDBRANCH  16  17
ENDBRANCH  15  16
ENDBRANCH  14  15
ENDBRANCH  13  14
ENDBRANCH  12  13
ENDBRANCH  11  12
ENDBRANCH   1  11
TORSDOF 14
ENDMDL
MODEL 6
REMARK VINA RESULT:    -3.906      1.827      3.408
REMARK INTER + INTRA:          -9.359
REMARK INTER:                  -7.254
REMARK INTRA:                  -2.105
REMARK UNBOUND:                -2.257
REMARK SMILES CCCCCCCCCCCCCCCC(=O)[O-]
REMARK SMILES IDX 9 1 10 2 11 3 12 4 13 5 14 6 15 7 16 8 17 9 18 10 8 11 7 12
REMARK SMILES IDX 6 13 5 14 4 15 3 16 2 17 1 18
REMARK H PARENT
REMARK Flexibility Score: inf
ROOT
ATOM      1  C   UNL     1     -23.670  -7.498  -6.522  1.00  0.00     0.000 C 
ENDROOT
BRANCH   1   2
ATOM      2  C   UNL     1     -24.537  -8.759  -6.341  1.00  0.00     0.000 C 
BRANCH   2   3
ATOM      3  C   UNL     1     -24.354  -9.411  -4.961  1.00  0.00     0.000 C 
BRANCH   3   4
ATOM      4  C   UNL     1     -22.883  -9.457  -4.519  1.00  0.00     0.000 C 
BRANCH   4   5
ATOM      5  C   UNL     1     -22.402 -10.908  -4.368  1.00  0.00     0.000 C 
BRANCH   5   6
ATOM      6  C   UNL     1     -21.681 -11.432  -5.623  1.00  0.00     0.006 C 
BRANCH   6   7
ATOM      7  C   UNL     1     -20.413 -10.648  -6.000  1.00  0.00     0.053 C 
BRANCH   7   8
ATOM      8  C   UNL     1     -20.491 -10.087  -7.386  1.00  0.00     0.041 C 
ATOM      9  O   UNL     1     -19.452  -9.662  -7.957  1.00  0.00    -0.550 OA
ATOM     10  O   UNL     1     -21.706 -10.060  -8.058  1.00  0.00    -0.550 OA
ENDBRANCH   7   8
ENDBRANCH   6   7
ENDBRANCH   5   6
ENDBRANCH   4   5
ENDBRANCH   3   4
ENDBRANCH   2   3
ENDBRANCH   1   2
BRANCH   1  11
ATOM     11  C   UNL     1     -24.497  -6.255  -6.888  1.00  0.00     0.000 C 
BRANCH  11  12
ATOM     12  C   UNL     1     -26.005  -6.553  -6.976  1.00  0.00    -0.000 C 
BRANCH  12  13
ATOM     13  C   UNL     1     -26.837  -5.749  -5.960  1.00  0.00    -0.000 C 
BRANCH  13  14
ATOM     14  C   UNL     1     -26.095  -4.582  -5.281  1.00  0.00    -0.000 C 
BRANCH  14  15
ATOM     15  C   UNL     1     -25.964  -4.764  -3.759  1.00  0.00    -0.000 C 
BRANCH  15  16
ATOM     16  C   UNL     1     -25.683  -6.222  -3.359  1.00  0.00    -0.000 C 
BRANCH  16  17
ATOM     17  C   UNL     1     -24.306  -6.404  -2.706  1.00  0.00    -0.003 C 
ATOM     18  C   UNL     1     -24.344  -7.499  -1.641  1.00  0.00     0.004 C 
ENDBRANCH  16  17
ENDBRANCH  15  16
ENDBRANCH  14  15
ENDBRANCH  13  14
ENDBRANCH  12  13
ENDBRANCH  11  12
ENDBRANCH   1  11
TORSDOF 14
ENDMDL
MODEL 7
REMARK VINA RESULT:    -3.876      2.891      6.066
REMARK INTER + INTRA:          -9.305
REMARK INTER:                  -7.057
REMARK INTRA:                  -2.248
REMARK UNBOUND:                -2.257
REMARK SMILES CCCCCCCCCCCCCCCC(=O)[O-]
REMARK SMILES IDX 9 1 10 2 11 3 12 4 13 5 14 6 15 7 16 8 17 9 18 10 8 11 7 12
REMARK SMILES IDX 6 13 5 14 4 15 3 16 2 17 1 18
REMARK H PARENT
REMARK Flexibility Score: inf
ROOT
ATOM      1  C   UNL     1     -24.178  -9.456  -4.524  1.00  0.00     0.000 C 
ENDROOT
BRANCH   1   2
ATOM      2  C   UNL     1     -24.692  -8.790  -5.815  1.00  0.00     0.000 C 
BRANCH   2   3
ATOM      3  C   UNL     1     -23.783  -7.648  -6.296  1.00  0.00     0.000 C 
BRANCH   3   4
ATOM      4  C   UNL     1     -24.543  -6.591  -7.112  1.00  0.00     0.000 C 
BRANCH   4   5
ATOM      5  C   UNL     1     -26.050  -6.654  -6.821  1.00  0.00     0.000 C 
BRANCH   5   6
ATOM      6  C   UNL     1     -26.535  -5.496  -5.929  1.00  0.00     0.006 C 
BRANCH   6   7
ATOM      7  C   UNL     1     -26.758  -5.881  -4.457  1.00  0.00     0.053 C 
BRANCH   7   8
ATOM      8  C   UNL     1     -25.507  -5.747  -3.645  1.00  0.00     0.041 C 
ATOM      9  O   UNL     1     -24.707  -4.799  -3.864  1.00  0.00    -0.550 OA
ATOM     10  O   UNL     1     -25.238  -6.655  -2.629  1.00  0.00    -0.550 OA
ENDBRANCH   7   8
ENDBRANCH   6   7
ENDBRANCH   5   6
ENDBRANCH   4   5
ENDBRANCH   3   4
ENDBRANCH   2   3
ENDBRANCH   1   2
BRANCH   1  11
ATOM     11  C   UNL     1     -22.838  -8.876  -4.048  1.00  0.00     0.000 C 
BRANCH  11  12
ATOM     12  C   UNL     1     -21.740  -9.949  -3.924  1.00  0.00    -0.000 C 
BRANCH  12  13
ATOM     13  C   UNL     1     -22.153 -11.302  -4.530  1.00  0.00    -0.000 C 
BRANCH  13  14
ATOM     14  C   UNL     1     -21.407 -11.700  -5.818  1.00  0.00    -0.000 C 
BRANCH  14  15
ATOM     15  C   UNL     1     -21.851 -10.882  -7.042  1.00  0.00    -0.000 C 
BRANCH  15  16
ATOM     16  C   UNL     1     -20.768  -9.904  -7.525  1.00  0.00    -0.000 C 
BRANCH  16  17
ATOM     17  C   UNL     1     -21.267  -8.964  -8.632  1.00  0.00    -0.003 C 
ATOM     18  C   UNL     1     -20.757  -7.541  -8.414  1.00  0.00     0.004 C 
ENDBRANCH  16  17
ENDBRANCH  15  16
ENDBRANCH  14  15
ENDBRANCH  13  14
ENDBRANCH  12  13
ENDBRANCH  11  12
ENDBRANCH   1  11
TORSDOF 14
ENDMDL
MODEL 8
REMARK VINA RESULT:    -3.860      1.763      3.132
REMARK INTER + INTRA:          -9.277
REMARK INTER:                  -6.712
REMARK INTRA:                  -2.566
REMARK UNBOUND:                -2.257
REMARK SMILES CCCCCCCCCCCCCCCC(=O)[O-]
REMARK SMILES IDX 9 1 10 2 11 3 12 4 13 5 14 6 15 7 16 8 17 9 18 10 8 11 7 12
REMARK SMILES IDX 6 13 5 14 4 15 3 16 2 17 1 18
REMARK H PARENT
REMARK Flexibility Score: inf
ROOT
ATOM      1  C   UNL     1     -24.513  -6.505  -7.105  1.00  0.00     0.000 C 
ENDROOT
BRANCH   1   2
ATOM      2  C   UNL     1     -23.625  -7.648  -6.576  1.00  0.00     0.000 C 
BRANCH   2   3
ATOM      3  C   UNL     1     -24.389  -8.974  -6.429  1.00  0.00     0.000 C 
BRANCH   3   4
ATOM      4  C   UNL     1     -24.081  -9.692  -5.107  1.00  0.00     0.000 C 
BRANCH   4   5
ATOM      5  C   UNL     1     -22.578  -9.634  -4.791  1.00  0.00     0.000 C 
BRANCH   5   6
ATOM      6  C   UNL     1     -21.903 -11.017  -4.848  1.00  0.00     0.006 C 
BRANCH   6   7
ATOM      7  C   UNL     1     -21.553 -11.492  -6.268  1.00  0.00     0.053 C 
BRANCH   7   8
ATOM      8  C   UNL     1     -20.806 -10.450  -7.041  1.00  0.00     0.041 C 
ATOM      9  O   UNL     1     -21.322  -9.927  -8.064  1.00  0.00    -0.550 OA
ATOM     10  O   UNL     1     -19.550 -10.035  -6.615  1.00  0.00    -0.550 OA
ENDBRANCH   7   8
ENDBRANCH   6   7
ENDBRANCH   5   6
ENDBRANCH   4   5
ENDBRANCH   3   4
ENDBRANCH   2   3
ENDBRANCH   1   2
BRANCH   1  11
ATOM     11  C   UNL     1     -25.987  -6.661  -6.700  1.00  0.00     0.000 C 
BRANCH  11  12
ATOM     12  C   UNL     1     -26.544  -5.405  -6.004  1.00  0.00    -0.000 C 
BRANCH  12  13
ATOM     13  C   UNL     1     -26.667  -5.569  -4.479  1.00  0.00    -0.000 C 
BRANCH  13  14
ATOM     14  C   UNL     1     -26.231  -6.940  -3.928  1.00  0.00    -0.000 C 
BRANCH  14  15
ATOM     15  C   UNL     1     -25.014  -6.848  -2.992  1.00  0.00    -0.000 C 
BRANCH  15  16
ATOM     16  C   UNL     1     -24.425  -5.429  -2.924  1.00  0.00    -0.000 C 
BRANCH  16  17
ATOM     17  C   UNL     1     -23.108  -5.295  -3.702  1.00  0.00    -0.003 C 
ATOM     18  C   UNL     1     -23.151  -4.100  -4.651  1.00  0.00     0.004 C 
ENDBRANCH  16  17
ENDBRANCH  15  16
ENDBRANCH  14  15
ENDBRANCH  13  14
ENDBRANCH  12  13
ENDBRANCH  11  12
ENDBRANCH   1  11
TORSDOF 14
ENDMDL
MODEL 9
REMARK VINA RESULT:    -3.825      3.321      6.511
REMARK INTER + INTRA:          -9.214
REMARK INTER:                  -6.733
REMARK INTRA:                  -2.481
REMARK UNBOUND:                -2.257
REMARK SMILES CCCCCCCCCCCCCCCC(=O)[O-]
REMARK SMILES IDX 9 1 10 2 11 3 12 4 13 5 14 6 15 7 16 8 17 9 18 10 8 11 7 12
REMARK SMILES IDX 6 13 5 14 4 15 3 16 2 17 1 18
REMARK H PARENT
REMARK Flexibility Score: inf
ROOT
ATOM      1  C   UNL     1     -21.120 -11.549  -5.267  1.00  0.00     0.000 C 
ENDROOT
BRANCH   1   2
ATOM      2  C   UNL     1     -22.237 -10.976  -4.374  1.00  0.00     0.000 C 
BRANCH   2   3
ATOM      3  C   UNL     1     -21.788  -9.738  -3.582  1.00  0.00     0.000 C 
BRANCH   3   4
ATOM      4  C   UNL     1     -22.567  -8.472  -3.971  1.00  0.00     0.000 C 
BRANCH   4   5
ATOM      5  C   UNL     1     -24.068  -8.647  -3.695  1.00  0.00     0.000 C 
BRANCH   5   6
ATOM      6  C   UNL     1     -24.911  -8.685  -4.982  1.00  0.00     0.006 C 
BRANCH   6   7
ATOM      7  C   UNL     1     -24.641  -7.523  -5.952  1.00  0.00     0.053 C 
BRANCH   7   8
ATOM      8  C   UNL     1     -25.809  -6.592  -6.052  1.00  0.00     0.041 C 
ATOM      9  O   UNL     1     -26.496  -6.324  -5.030  1.00  0.00    -0.550 OA
ATOM     10  O   UNL     1     -26.122  -5.997  -7.268  1.00  0.00    -0.550 OA
ENDBRANCH   7   8
ENDBRANCH   6   7
ENDBRANCH   5   6
ENDBRANCH   4   5
ENDBRANCH   3   4
ENDBRANCH   2   3
ENDBRANCH   1   2
BRANCH   1  11
ATOM     11  C   UNL     1     -21.474 -11.507  -6.762  1.00  0.00     0.000 C 
BRANCH  11  12
ATOM     12  C   UNL     1     -22.592 -10.496  -7.077  1.00  0.00    -0.000 C 
BRANCH  12  13
ATOM     13  C   UNL     1     -22.215  -9.515  -8.202  1.00  0.00    -0.000 C 
BRANCH  13  14
ATOM     14  C   UNL     1     -20.751  -9.038  -8.194  1.00  0.00    -0.000 C 
BRANCH  14  15
ATOM     15  C   UNL     1     -20.457  -8.029  -7.072  1.00  0.00    -0.000 C 
BRANCH  15  16
ATOM     16  C   UNL     1     -19.319  -8.488  -6.145  1.00  0.00    -0.000 C 
BRANCH  16  17
ATOM     17  C   UNL     1     -18.332  -9.436  -6.842  1.00  0.00    -0.003 C 
ATOM     18  C   UNL     1     -17.639 -10.345  -5.830  1.00  0.00     0.004 C 
ENDBRANCH  16  17
ENDBRANCH  15  16
ENDBRANCH  14  15
ENDBRANCH  13  14
ENDBRANCH  12  13
ENDBRANCH  11  12
ENDBRANCH   1  11
TORSDOF 14
ENDMDL
