MODEL 1
REMARK VINA RESULT:    -5.832      0.000      0.000
REMARK INTER + INTRA:          -7.353
REMARK INTER:                  -7.025
REMARK INTRA:                  -0.328
REMARK UNBOUND:                -0.328
REMARK SMILES Oc1cc(O)c2c(c1)O[C@@H](c1ccc(O)c(O)c1)[C@H](O)C2
REMARK SMILES IDX 21 1 19 2 10 3 9 4 7 5 8 6 2 7 3 8 4 9 6 10 20 11 11 13
REMARK SMILES IDX 18 14 12 15 16 16 13 17 14 18 17 19 15 21 5 23 1 25
REMARK H PARENT 20 12 17 20 15 22 5 24 1 26
REMARK Flexibility Score: inf
ROOT
ATOM      1  C   UNL     1     -10.285  41.686 -17.780  1.00  0.00     0.079 C 
ATOM      2  C   UNL     1      -9.257  41.574 -18.921  1.00  0.00     0.164 C 
ATOM      3  C   UNL     1      -8.329  42.804 -18.906  1.00  0.00     0.232 C 
ATOM      4  O   UNL     1      -7.704  42.932 -17.628  1.00  0.00    -0.482 OA
ATOM      5  C   UNL     1      -8.367  42.628 -16.433  1.00  0.00     0.131 A 
ATOM      6  C   UNL     1      -7.758  42.936 -15.213  1.00  0.00     0.093 A 
ATOM      7  C   UNL     1      -8.405  42.640 -14.008  1.00  0.00     0.122 A 
ATOM      8  C   UNL     1      -9.665  42.035 -14.025  1.00  0.00     0.092 A 
ATOM      9  C   UNL     1     -10.283  41.716 -15.244  1.00  0.00     0.126 A 
ATOM     10  C   UNL     1      -9.625  41.994 -16.456  1.00  0.00     0.039 A 
ENDROOT
BRANCH   2  11
ATOM     11  O   UNL     1      -9.924  41.500 -20.155  1.00  0.00    -0.389 OA
ATOM     12  H   UNL     1     -10.255  40.569 -20.244  1.00  0.00     0.211 HD
ENDBRANCH   2  11
BRANCH   3  13
ATOM     13  C   UNL     1      -7.272  42.702 -19.980  1.00  0.00    -0.001 A 
ATOM     14  C   UNL     1      -7.375  43.471 -21.152  1.00  0.00     0.057 A 
ATOM     15  C   UNL     1      -6.200  41.802 -19.842  1.00  0.00     0.012 A 
ATOM     16  C   UNL     1      -6.410  43.357 -22.163  1.00  0.00     0.157 A 
ATOM     17  C   UNL     1      -5.239  41.690 -20.850  1.00  0.00     0.050 A 
ATOM     18  C   UNL     1      -5.340  42.467 -22.011  1.00  0.00     0.157 A 
BRANCH  16  19
ATOM     19  O   UNL     1      -6.510  44.125 -23.322  1.00  0.00    -0.504 OA
ATOM     20  H   UNL     1      -7.400  44.493 -23.640  1.00  0.00     0.293 HD
ENDBRANCH  16  19
BRANCH  18  21
ATOM     21  O   UNL     1      -4.382  42.359 -23.018  1.00  0.00    -0.504 OA
ATOM     22  H   UNL     1      -4.624  42.480 -23.995  1.00  0.00     0.293 HD
ENDBRANCH  18  21
ENDBRANCH   3  13
BRANCH   9  23
ATOM     23  O   UNL     1     -11.546  41.125 -15.250  1.00  0.00    -0.507 OA
ATOM     24  H   UNL     1     -11.663  40.119 -15.207  1.00  0.00     0.293 HD
ENDBRANCH   9  23
BRANCH   7  25
ATOM     25  O   UNL     1      -7.806  42.946 -12.788  1.00  0.00    -0.508 OA
ATOM     26  H   UNL     1      -6.991  43.546 -12.733  1.00  0.00     0.293 HD
ENDBRANCH   7  25
TORSDOF 6
ENDMDL
MODEL 2
REMARK VINA RESULT:    -5.599      2.694      7.351
REMARK INTER + INTRA:          -7.073
REMARK INTER:                  -6.695
REMARK INTRA:                  -0.378
REMARK UNBOUND:                -0.328
REMARK SMILES Oc1cc(O)c2c(c1)O[C@@H](c1ccc(O)c(O)c1)[C@H](O)C2
REMARK SMILES IDX 21 1 19 2 10 3 9 4 7 5 8 6 2 7 3 8 4 9 6 10 20 11 11 13
REMARK SMILES IDX 18 14 12 15 16 16 13 17 14 18 17 19 15 21 5 23 1 25
REMARK H PARENT 20 12 17 20 15 22 5 24 1 26
REMARK Flexibility Score: inf
ROOT
ATOM      1  C   UNL     1      -7.471  43.123 -17.420  1.00  0.00     0.079 C 
ATOM      2  C   UNL     1      -7.029  42.826 -15.976  1.00  0.00     0.164 C 
ATOM      3  C   UNL     1      -8.244  42.910 -15.034  1.00  0.00     0.232 C 
ATOM      4  O   UNL     1      -9.272  42.023 -15.476  1.00  0.00    -0.482 OA
ATOM      5  C   UNL     1      -9.540  41.800 -16.832  1.00  0.00     0.131 A 
ATOM      6  C   UNL     1     -10.665  41.054 -17.195  1.00  0.00     0.093 A 
ATOM      7  C   UNL     1     -10.950  40.821 -18.545  1.00  0.00     0.122 A 
ATOM      8  C   UNL     1     -10.107  41.336 -19.534  1.00  0.00     0.092 A 
ATOM      9  C   UNL     1      -8.971  42.081 -19.180  1.00  0.00     0.126 A 
ATOM     10  C   UNL     1      -8.672  42.299 -17.822  1.00  0.00     0.039 A 
ENDROOT
BRANCH   2  11
ATOM     11  O   UNL     1      -6.055  43.756 -15.577  1.00  0.00    -0.389 OA
ATOM     12  H   UNL     1      -5.336  43.726 -16.260  1.00  0.00     0.211 HD
ENDBRANCH   2  11
BRANCH   3  13
ATOM     13  C   UNL     1      -7.857  42.570 -13.613  1.00  0.00    -0.001 A 
ATOM     14  C   UNL     1      -7.415  41.275 -13.290  1.00  0.00     0.057 A 
ATOM     15  C   UNL     1      -7.981  43.527 -12.592  1.00  0.00     0.012 A 
ATOM     16  C   UNL     1      -7.082  40.948 -11.968  1.00  0.00     0.157 A 
ATOM     17  C   UNL     1      -7.649  43.201 -11.274  1.00  0.00     0.050 A 
ATOM     18  C   UNL     1      -7.197  41.912 -10.959  1.00  0.00     0.157 A 
BRANCH  16  19
ATOM     19  O   UNL     1      -6.638  39.666 -11.649  1.00  0.00    -0.504 OA
ATOM     20  H   UNL     1      -7.287  38.913 -11.449  1.00  0.00     0.293 HD
ENDBRANCH  16  19
BRANCH  18  21
ATOM     21  O   UNL     1      -6.864  41.583  -9.646  1.00  0.00    -0.504 OA
ATOM     22  H   UNL     1      -7.273  42.070  -8.857  1.00  0.00     0.293 HD
ENDBRANCH  18  21
ENDBRANCH   3  13
BRANCH   9  23
ATOM     23  O   UNL     1      -8.144  42.603 -20.174  1.00  0.00    -0.507 OA
ATOM     24  H   UNL     1      -7.978  43.599 -20.259  1.00  0.00     0.293 HD
ENDBRANCH   9  23
BRANCH   7  25
ATOM     25  O   UNL     1     -12.072  40.081 -18.916  1.00  0.00    -0.508 OA
ATOM     26  H   UNL     1     -12.065  39.068 -18.906  1.00  0.00     0.293 HD
ENDBRANCH   7  25
TORSDOF 6
ENDMDL
MODEL 3
REMARK VINA RESULT:    -5.563      1.149      2.965
REMARK INTER + INTRA:          -7.029
REMARK INTER:                  -6.665
REMARK INTRA:                  -0.364
REMARK UNBOUND:                -0.328
REMARK SMILES Oc1cc(O)c2c(c1)O[C@@H](c1ccc(O)c(O)c1)[C@H](O)C2
REMARK SMILES IDX 21 1 19 2 10 3 9 4 7 5 8 6 2 7 3 8 4 9 6 10 20 11 11 13
REMARK SMILES IDX 18 14 12 15 16 16 13 17 14 18 17 19 15 21 5 23 1 25
REMARK H PARENT 20 12 17 20 15 22 5 24 1 26
REMARK Flexibility Score: inf
ROOT
ATOM      1  C   UNL     1      -7.012  43.134 -16.112  1.00  0.00     0.079 C 
ATOM      2  C   UNL     1      -6.654  43.507 -17.562  1.00  0.00     0.164 C 
ATOM      3  C   UNL     1      -6.961  42.319 -18.493  1.00  0.00     0.232 C 
ATOM      4  O   UNL     1      -8.328  41.928 -18.359  1.00  0.00    -0.482 OA
ATOM      5  C   UNL     1      -9.000  41.956 -17.132  1.00  0.00     0.131 A 
ATOM      6  C   UNL     1     -10.280  41.402 -17.038  1.00  0.00     0.093 A 
ATOM      7  C   UNL     1     -10.968  41.420 -15.820  1.00  0.00     0.122 A 
ATOM      8  C   UNL     1     -10.373  41.993 -14.693  1.00  0.00     0.092 A 
ATOM      9  C   UNL     1      -9.091  42.557 -14.777  1.00  0.00     0.126 A 
ATOM     10  C   UNL     1      -8.405  42.559 -16.006  1.00  0.00     0.039 A 
ENDROOT
BRANCH   2  11
ATOM     11  O   UNL     1      -5.291  43.835 -17.645  1.00  0.00    -0.389 OA
ATOM     12  H   UNL     1      -4.869  43.151 -18.228  1.00  0.00     0.211 HD
ENDBRANCH   2  11
BRANCH   3  13
ATOM     13  C   UNL     1      -6.672  42.669 -19.935  1.00  0.00    -0.001 A 
ATOM     14  C   UNL     1      -5.747  41.913 -20.676  1.00  0.00     0.057 A 
ATOM     15  C   UNL     1      -7.287  43.780 -20.536  1.00  0.00     0.012 A 
ATOM     16  C   UNL     1      -5.455  42.253 -22.005  1.00  0.00     0.157 A 
ATOM     17  C   UNL     1      -6.998  44.118 -21.860  1.00  0.00     0.050 A 
ATOM     18  C   UNL     1      -6.083  43.355 -22.598  1.00  0.00     0.157 A 
BRANCH  16  19
ATOM     19  O   UNL     1      -4.543  41.499 -22.741  1.00  0.00    -0.504 OA
ATOM     20  H   UNL     1      -4.283  41.756 -23.687  1.00  0.00     0.293 HD
ENDBRANCH  16  19
BRANCH  18  21
ATOM     21  O   UNL     1      -5.792  43.687 -23.921  1.00  0.00    -0.504 OA
ATOM     22  H   UNL     1      -5.226  43.084 -24.507  1.00  0.00     0.293 HD
ENDBRANCH  18  21
ENDBRANCH   3  13
BRANCH   9  23
ATOM     23  O   UNL     1      -8.499  43.114 -13.643  1.00  0.00    -0.507 OA
ATOM     24  H   UNL     1      -8.906  43.002 -12.721  1.00  0.00     0.293 HD
ENDBRANCH   9  23
BRANCH   7  25
ATOM     25  O   UNL     1     -12.244  40.868 -15.717  1.00  0.00    -0.508 OA
ATOM     26  H   UNL     1     -12.854  40.791 -16.523  1.00  0.00     0.293 HD
ENDBRANCH   7  25
TORSDOF 6
ENDMDL
MODEL 4
REMARK VINA RESULT:    -5.421      2.148      7.366
REMARK INTER + INTRA:          -6.858
REMARK INTER:                  -6.491
REMARK INTRA:                  -0.367
REMARK UNBOUND:                -0.328
REMARK SMILES Oc1cc(O)c2c(c1)O[C@@H](c1ccc(O)c(O)c1)[C@H](O)C2
REMARK SMILES IDX 21 1 19 2 10 3 9 4 7 5 8 6 2 7 3 8 4 9 6 10 20 11 11 13
REMARK SMILES IDX 18 14 12 15 16 16 13 17 14 18 17 19 15 21 5 23 1 25
REMARK H PARENT 20 12 17 20 15 22 5 24 1 26
REMARK Flexibility Score: inf
ROOT
ATOM      1  C   UNL     1     -10.324  41.961 -16.187  1.00  0.00     0.079 C 
ATOM      2  C   UNL     1      -9.785  42.410 -14.817  1.00  0.00     0.164 C 
ATOM      3  C   UNL     1      -8.363  41.856 -14.611  1.00  0.00     0.232 C 
ATOM      4  O   UNL     1      -7.515  42.266 -15.685  1.00  0.00    -0.482 OA
ATOM      5  C   UNL     1      -7.969  42.363 -17.005  1.00  0.00     0.131 A 
ATOM      6  C   UNL     1      -7.049  42.604 -18.030  1.00  0.00     0.093 A 
ATOM      7  C   UNL     1      -7.483  42.705 -19.357  1.00  0.00     0.122 A 
ATOM      8  C   UNL     1      -8.841  42.562 -19.657  1.00  0.00     0.092 A 
ATOM      9  C   UNL     1      -9.773  42.325 -18.636  1.00  0.00     0.126 A 
ATOM     10  C   UNL     1      -9.341  42.245 -17.299  1.00  0.00     0.039 A 
ENDROOT
BRANCH   2  11
ATOM     11  O   UNL     1     -10.629  41.940 -13.797  1.00  0.00    -0.389 OA
ATOM     12  H   UNL     1     -11.146  41.185 -14.181  1.00  0.00     0.211 HD
ENDBRANCH   2  11
BRANCH   3  13
ATOM     13  C   UNL     1      -7.780  42.323 -13.298  1.00  0.00    -0.001 A 
ATOM     14  C   UNL     1      -7.514  41.399 -12.272  1.00  0.00     0.057 A 
ATOM     15  C   UNL     1      -7.544  43.689 -13.068  1.00  0.00     0.012 A 
ATOM     16  C   UNL     1      -7.000  41.834 -11.041  1.00  0.00     0.157 A 
ATOM     17  C   UNL     1      -7.032  44.122 -11.843  1.00  0.00     0.050 A 
ATOM     18  C   UNL     1      -6.757  43.196 -10.827  1.00  0.00     0.157 A 
BRANCH  16  19
ATOM     19  O   UNL     1      -6.730  40.917 -10.027  1.00  0.00    -0.504 OA
ATOM     20  H   UNL     1      -5.899  40.993  -9.451  1.00  0.00     0.293 HD
ENDBRANCH  16  19
BRANCH  18  21
ATOM     21  O   UNL     1      -6.244  43.623  -9.603  1.00  0.00    -0.504 OA
ATOM     22  H   UNL     1      -6.521  44.507  -9.192  1.00  0.00     0.293 HD
ENDBRANCH  18  21
ENDBRANCH   3  13
BRANCH   9  23
ATOM     23  O   UNL     1     -11.124  42.170 -18.948  1.00  0.00    -0.507 OA
ATOM     24  H   UNL     1     -11.819  42.844 -18.649  1.00  0.00     0.293 HD
ENDBRANCH   9  23
BRANCH   7  25
ATOM     25  O   UNL     1      -6.573  42.943 -20.385  1.00  0.00    -0.508 OA
ATOM     26  H   UNL     1      -5.625  42.588 -20.346  1.00  0.00     0.293 HD
ENDBRANCH   7  25
TORSDOF 6
ENDMDL
MODEL 5
REMARK VINA RESULT:    -5.284      1.478      1.728
REMARK INTER + INTRA:          -6.694
REMARK INTER:                  -6.626
REMARK INTRA:                  -0.068
REMARK UNBOUND:                -0.328
REMARK SMILES Oc1cc(O)c2c(c1)O[C@@H](c1ccc(O)c(O)c1)[C@H](O)C2
REMARK SMILES IDX 21 1 19 2 10 3 9 4 7 5 8 6 2 7 3 8 4 9 6 10 20 11 11 13
REMARK SMILES IDX 18 14 12 15 16 16 13 17 14 18 17 19 15 21 5 23 1 25
REMARK H PARENT 20 12 17 20 15 22 5 24 1 26
REMARK Flexibility Score: inf
ROOT
ATOM      1  C   UNL     1     -10.008  42.619 -16.200  1.00  0.00     0.079 C 
ATOM      2  C   UNL     1      -9.576  42.283 -17.639  1.00  0.00     0.164 C 
ATOM      3  C   UNL     1      -8.262  43.015 -17.970  1.00  0.00     0.232 C 
ATOM      4  O   UNL     1      -7.256  42.679 -17.013  1.00  0.00    -0.482 OA
ATOM      5  C   UNL     1      -7.545  42.485 -15.657  1.00  0.00     0.131 A 
ATOM      6  C   UNL     1      -6.495  42.327 -14.748  1.00  0.00     0.093 A 
ATOM      7  C   UNL     1      -6.764  42.132 -13.388  1.00  0.00     0.122 A 
ATOM      8  C   UNL     1      -8.086  42.097 -12.938  1.00  0.00     0.092 A 
ATOM      9  C   UNL     1      -9.148  42.249 -13.842  1.00  0.00     0.126 A 
ATOM     10  C   UNL     1      -8.881  42.424 -15.213  1.00  0.00     0.039 A 
ENDROOT
BRANCH   2  11
ATOM     11  O   UNL     1     -10.578  42.677 -18.540  1.00  0.00    -0.389 OA
ATOM     12  H   UNL     1     -10.493  42.090 -19.335  1.00  0.00     0.211 HD
ENDBRANCH   2  11
BRANCH   3  13
ATOM     13  C   UNL     1      -7.778  42.664 -19.358  1.00  0.00    -0.001 A 
ATOM     14  C   UNL     1      -6.950  43.553 -20.066  1.00  0.00     0.057 A 
ATOM     15  C   UNL     1      -8.188  41.470 -19.975  1.00  0.00     0.012 A 
ATOM     16  C   UNL     1      -6.523  43.243 -21.365  1.00  0.00     0.157 A 
ATOM     17  C   UNL     1      -7.761  41.161 -21.269  1.00  0.00     0.050 A 
ATOM     18  C   UNL     1      -6.927  42.045 -21.966  1.00  0.00     0.157 A 
BRANCH  16  19
ATOM     19  O   UNL     1      -5.698  44.122 -22.064  1.00  0.00    -0.504 OA
ATOM     20  H   UNL     1      -5.765  45.126 -21.939  1.00  0.00     0.293 HD
ENDBRANCH  16  19
BRANCH  18  21
ATOM     21  O   UNL     1      -6.498  41.740 -23.258  1.00  0.00    -0.504 OA
ATOM     22  H   UNL     1      -5.545  41.452 -23.446  1.00  0.00     0.293 HD
ENDBRANCH  18  21
ENDBRANCH   3  13
BRANCH   9  23
ATOM     23  O   UNL     1     -10.464  42.227 -13.381  1.00  0.00    -0.507 OA
ATOM     24  H   UNL     1     -11.210  41.802 -13.920  1.00  0.00     0.293 HD
ENDBRANCH   9  23
BRANCH   7  25
ATOM     25  O   UNL     1      -5.722  41.976 -12.475  1.00  0.00    -0.508 OA
ATOM     26  H   UNL     1      -5.869  42.094 -11.479  1.00  0.00     0.293 HD
ENDBRANCH   7  25
TORSDOF 6
ENDMDL
MODEL 6
REMARK VINA RESULT:    -5.218      1.782      7.199
REMARK INTER + INTRA:          -6.614
REMARK INTER:                  -6.995
REMARK INTRA:                   0.381
REMARK UNBOUND:                -0.328
REMARK SMILES Oc1cc(O)c2c(c1)O[C@@H](c1ccc(O)c(O)c1)[C@H](O)C2
REMARK SMILES IDX 21 1 19 2 10 3 9 4 7 5 8 6 2 7 3 8 4 9 6 10 20 11 11 13
REMARK SMILES IDX 18 14 12 15 16 16 13 17 14 18 17 19 15 21 5 23 1 25
REMARK H PARENT 20 12 17 20 15 22 5 24 1 26
REMARK Flexibility Score: inf
ROOT
ATOM      1  C   UNL     1      -5.786  43.250 -20.040  1.00  0.00     0.079 C 
ATOM      2  C   UNL     1      -6.280  43.048 -18.596  1.00  0.00     0.164 C 
ATOM      3  C   UNL     1      -7.819  42.989 -18.577  1.00  0.00     0.232 C 
ATOM      4  O   UNL     1      -8.283  41.962 -19.453  1.00  0.00    -0.482 OA
ATOM      5  C   UNL     1      -7.656  41.673 -20.671  1.00  0.00     0.131 A 
ATOM      6  C   UNL     1      -8.259  40.775 -21.557  1.00  0.00     0.093 A 
ATOM      7  C   UNL     1      -7.648  40.475 -22.780  1.00  0.00     0.122 A 
ATOM      8  C   UNL     1      -6.432  41.076 -23.116  1.00  0.00     0.092 A 
ATOM      9  C   UNL     1      -5.816  41.975 -22.233  1.00  0.00     0.126 A 
ATOM     10  C   UNL     1      -6.418  42.263 -20.994  1.00  0.00     0.039 A 
ENDROOT
BRANCH   2  11
ATOM     11  O   UNL     1      -5.837  44.110 -17.790  1.00  0.00    -0.389 OA
ATOM     12  H   UNL     1      -6.488  44.849 -17.909  1.00  0.00     0.211 HD
ENDBRANCH   2  11
BRANCH   3  13
ATOM     13  C   UNL     1      -8.338  42.737 -17.180  1.00  0.00    -0.001 A 
ATOM     14  C   UNL     1      -9.666  42.323 -16.981  1.00  0.00     0.057 A 
ATOM     15  C   UNL     1      -7.514  42.960 -16.063  1.00  0.00     0.012 A 
ATOM     16  C   UNL     1     -10.159  42.116 -15.685  1.00  0.00     0.157 A 
ATOM     17  C   UNL     1      -8.005  42.752 -14.771  1.00  0.00     0.050 A 
ATOM     18  C   UNL     1      -9.326  42.328 -14.579  1.00  0.00     0.157 A 
BRANCH  16  19
ATOM     19  O   UNL     1     -11.474  41.699 -15.489  1.00  0.00    -0.504 OA
ATOM     20  H   UNL     1     -11.998  41.967 -14.663  1.00  0.00     0.293 HD
ENDBRANCH  16  19
BRANCH  18  21
ATOM     21  O   UNL     1      -9.820  42.119 -13.292  1.00  0.00    -0.504 OA
ATOM     22  H   UNL     1     -10.618  41.518 -13.121  1.00  0.00     0.293 HD
ENDBRANCH  18  21
ENDBRANCH   3  13
BRANCH   9  23
ATOM     23  O   UNL     1      -4.609  42.580 -22.584  1.00  0.00    -0.507 OA
ATOM     24  H   UNL     1      -4.376  43.518 -22.278  1.00  0.00     0.293 HD
ENDBRANCH   9  23
BRANCH   7  25
ATOM     25  O   UNL     1      -8.243  39.582 -23.669  1.00  0.00    -0.508 OA
ATOM     26  H   UNL     1      -8.308  38.592 -23.462  1.00  0.00     0.293 HD
ENDBRANCH   7  25
TORSDOF 6
ENDMDL
MODEL 7
REMARK VINA RESULT:    -4.996      2.577      4.764
REMARK INTER + INTRA:          -6.346
REMARK INTER:                  -6.673
REMARK INTRA:                   0.328
REMARK UNBOUND:                -0.328
REMARK SMILES Oc1cc(O)c2c(c1)O[C@@H](c1ccc(O)c(O)c1)[C@H](O)C2
REMARK SMILES IDX 21 1 19 2 10 3 9 4 7 5 8 6 2 7 3 8 4 9 6 10 20 11 11 13
REMARK SMILES IDX 18 14 12 15 16 16 13 17 14 18 17 19 15 21 5 23 1 25
REMARK H PARENT 20 12 17 20 15 22 5 24 1 26
REMARK Flexibility Score: inf
ROOT
ATOM      1  C   UNL     1      -9.175  42.274 -12.859  1.00  0.00     0.079 C 
ATOM      2  C   UNL     1      -9.530  41.910 -14.312  1.00  0.00     0.164 C 
ATOM      3  C   UNL     1      -8.604  42.671 -15.280  1.00  0.00     0.232 C 
ATOM      4  O   UNL     1      -7.237  42.394 -14.974  1.00  0.00    -0.482 OA
ATOM      5  C   UNL     1      -6.780  42.230 -13.661  1.00  0.00     0.131 A 
ATOM      6  C   UNL     1      -5.406  42.130 -13.421  1.00  0.00     0.093 A 
ATOM      7  C   UNL     1      -4.929  41.967 -12.115  1.00  0.00     0.122 A 
ATOM      8  C   UNL     1      -5.829  41.905 -11.048  1.00  0.00     0.092 A 
ATOM      9  C   UNL     1      -7.210  41.998 -11.278  1.00  0.00     0.126 A 
ATOM     10  C   UNL     1      -7.693  42.142 -12.592  1.00  0.00     0.039 A 
ENDROOT
BRANCH   2  11
ATOM     11  O   UNL     1     -10.868  42.248 -14.573  1.00  0.00    -0.389 OA
ATOM     12  H   UNL     1     -11.032  43.122 -14.132  1.00  0.00     0.211 HD
ENDBRANCH   2  11
BRANCH   3  13
ATOM     13  C   UNL     1      -8.889  42.296 -16.715  1.00  0.00    -0.001 A 
ATOM     14  C   UNL     1     -10.015  41.517 -17.034  1.00  0.00     0.057 A 
ATOM     15  C   UNL     1      -8.007  42.678 -17.741  1.00  0.00     0.012 A 
ATOM     16  C   UNL     1     -10.266  41.142 -18.362  1.00  0.00     0.157 A 
ATOM     17  C   UNL     1      -8.258  42.306 -19.064  1.00  0.00     0.050 A 
ATOM     18  C   UNL     1      -9.388  41.539 -19.378  1.00  0.00     0.157 A 
BRANCH  16  19
ATOM     19  O   UNL     1     -11.386  40.375 -18.678  1.00  0.00    -0.504 OA
ATOM     20  H   UNL     1     -12.325  40.743 -18.583  1.00  0.00     0.293 HD
ENDBRANCH  16  19
BRANCH  18  21
ATOM     21  O   UNL     1      -9.643  41.166 -20.697  1.00  0.00    -0.504 OA
ATOM     22  H   UNL     1      -9.984  41.832 -21.380  1.00  0.00     0.293 HD
ENDBRANCH  18  21
ENDBRANCH   3  13
BRANCH   9  23
ATOM     23  O   UNL     1      -8.100  41.949 -10.205  1.00  0.00    -0.507 OA
ATOM     24  H   UNL     1      -9.098  41.850 -10.346  1.00  0.00     0.293 HD
ENDBRANCH   9  23
BRANCH   7  25
ATOM     25  O   UNL     1      -3.561  41.869 -11.867  1.00  0.00    -0.508 OA
ATOM     26  H   UNL     1      -3.193  41.856 -10.923  1.00  0.00     0.293 HD
ENDBRANCH   7  25
TORSDOF 6
ENDMDL
MODEL 8
REMARK VINA RESULT:    -4.858      4.162      7.403
REMARK INTER + INTRA:          -6.180
REMARK INTER:                  -5.821
REMARK INTRA:                  -0.358
REMARK UNBOUND:                -0.328
REMARK SMILES Oc1cc(O)c2c(c1)O[C@@H](c1ccc(O)c(O)c1)[C@H](O)C2
REMARK SMILES IDX 21 1 19 2 10 3 9 4 7 5 8 6 2 7 3 8 4 9 6 10 20 11 11 13
REMARK SMILES IDX 18 14 12 15 16 16 13 17 14 18 17 19 15 21 5 23 1 25
REMARK H PARENT 20 12 17 20 15 22 5 24 1 26
REMARK Flexibility Score: inf
ROOT
ATOM      1  C   UNL     1      -5.931  39.660 -10.963  1.00  0.00     0.079 C 
ATOM      2  C   UNL     1      -6.583  39.952 -12.327  1.00  0.00     0.164 C 
ATOM      3  C   UNL     1      -7.317  41.306 -12.271  1.00  0.00     0.232 C 
ATOM      4  O   UNL     1      -6.416  42.339 -11.872  1.00  0.00    -0.482 OA
ATOM      5  C   UNL     1      -5.406  42.130 -10.926  1.00  0.00     0.131 A 
ATOM      6  C   UNL     1      -4.670  43.222 -10.456  1.00  0.00     0.093 A 
ATOM      7  C   UNL     1      -3.657  43.034  -9.509  1.00  0.00     0.122 A 
ATOM      8  C   UNL     1      -3.381  41.751  -9.030  1.00  0.00     0.092 A 
ATOM      9  C   UNL     1      -4.110  40.647  -9.499  1.00  0.00     0.126 A 
ATOM     10  C   UNL     1      -5.115  40.831 -10.466  1.00  0.00     0.039 A 
ENDROOT
BRANCH   2  11
ATOM     11  O   UNL     1      -7.494  38.932 -12.646  1.00  0.00    -0.389 OA
ATOM     12  H   UNL     1      -7.196  38.121 -12.158  1.00  0.00     0.211 HD
ENDBRANCH   2  11
BRANCH   3  13
ATOM     13  C   UNL     1      -7.924  41.651 -13.612  1.00  0.00    -0.001 A 
ATOM     14  C   UNL     1      -9.319  41.654 -13.778  1.00  0.00     0.057 A 
ATOM     15  C   UNL     1      -7.101  41.926 -14.717  1.00  0.00     0.012 A 
ATOM     16  C   UNL     1      -9.885  41.946 -15.028  1.00  0.00     0.157 A 
ATOM     17  C   UNL     1      -7.664  42.218 -15.962  1.00  0.00     0.050 A 
ATOM     18  C   UNL     1      -9.056  42.231 -16.120  1.00  0.00     0.157 A 
BRANCH  16  19
ATOM     19  O   UNL     1     -11.269  41.955 -15.191  1.00  0.00    -0.504 OA
ATOM     20  H   UNL     1     -11.893  42.138 -14.414  1.00  0.00     0.293 HD
ENDBRANCH  16  19
BRANCH  18  21
ATOM     21  O   UNL     1      -9.622  42.523 -17.360  1.00  0.00    -0.504 OA
ATOM     22  H   UNL     1     -10.537  42.173 -17.621  1.00  0.00     0.293 HD
ENDBRANCH  18  21
ENDBRANCH   3  13
BRANCH   9  23
ATOM     23  O   UNL     1      -3.836  39.371  -9.004  1.00  0.00    -0.507 OA
ATOM     24  H   UNL     1      -2.955  38.907  -9.188  1.00  0.00     0.293 HD
ENDBRANCH   9  23
BRANCH   7  25
ATOM     25  O   UNL     1      -2.921  44.118  -9.034  1.00  0.00    -0.508 OA
ATOM     26  H   UNL     1      -3.292  44.742  -8.327  1.00  0.00     0.293 HD
ENDBRANCH   7  25
TORSDOF 6
ENDMDL
