MODEL 1
REMARK VINA RESULT:    -3.392      0.000      0.000
REMARK INTER + INTRA:          -4.661
REMARK INTER:                  -4.384
REMARK INTRA:                  -0.277
REMARK UNBOUND:                -0.277
REMARK SMILES C=CC(=O)CCCCC
REMARK SMILES IDX 6 1 7 2 8 3 9 4 5 5 3 6 4 7 2 8 1 9
REMARK H PARENT
REMARK Flexibility Score: inf
ROOT
ATOM      1  C   UNL     1      10.912 -22.257  40.970  1.00  0.00     0.008 C 
ENDROOT
BRANCH   1   2
ATOM      2  C   UNL     1      11.344 -22.635  42.394  1.00  0.00     0.000 C 
BRANCH   2   3
ATOM      3  C   UNL     1      12.825 -22.327  42.664  1.00  0.00    -0.003 C 
ATOM      4  C   UNL     1      13.102 -21.990  44.128  1.00  0.00     0.004 C 
ENDBRANCH   2   3
ENDBRANCH   1   2
BRANCH   1   5
ATOM      5  C   UNL     1       9.540 -22.851  40.638  1.00  0.00     0.080 C 
BRANCH   5   6
ATOM      6  C   UNL     1       9.679 -24.264  40.154  1.00  0.00     0.155 C 
ATOM      7  O   UNL     1      10.354 -24.497  39.114  1.00  0.00    -0.295 OA
BRANCH   6   8
ATOM      8  C   UNL     1       9.069 -25.370  40.917  1.00  0.00     0.039 C 
ATOM      9  C   UNL     1       9.793 -26.231  41.630  1.00  0.00     0.012 C 
ENDBRANCH   6   8
ENDBRANCH   5   6
ENDBRANCH   1   5
TORSDOF 5
ENDMDL
MODEL 2
REMARK VINA RESULT:    -3.368      8.294     10.254
REMARK INTER + INTRA:          -4.629
REMARK INTER:                  -4.432
REMARK INTRA:                  -0.197
REMARK UNBOUND:                -0.277
REMARK SMILES C=CC(=O)CCCCC
REMARK SMILES IDX 6 1 7 2 8 3 9 4 5 5 3 6 4 7 2 8 1 9
REMARK H PARENT
REMARK Flexibility Score: inf
ROOT
ATOM      1  C   UNL     1       2.762 -28.137  39.682  1.00  0.00     0.008 C 
ENDROOT
BRANCH   1   2
ATOM      2  C   UNL     1       2.059 -27.216  40.690  1.00  0.00     0.000 C 
BRANCH   2   3
ATOM      3  C   UNL     1       2.923 -26.011  41.093  1.00  0.00    -0.003 C 
ATOM      4  C   UNL     1       4.139 -26.408  41.928  1.00  0.00     0.004 C 
ENDBRANCH   2   3
ENDBRANCH   1   2
BRANCH   1   5
ATOM      5  C   UNL     1       1.966 -29.428  39.472  1.00  0.00     0.080 C 
BRANCH   5   6
ATOM      6  C   UNL     1       2.088 -29.898  38.053  1.00  0.00     0.155 C 
ATOM      7  O   UNL     1       3.203 -30.312  37.633  1.00  0.00    -0.295 OA
BRANCH   6   8
ATOM      8  C   UNL     1       0.902 -29.917  37.176  1.00  0.00     0.039 C 
ATOM      9  C   UNL     1      -0.331 -29.703  37.634  1.00  0.00     0.012 C 
ENDBRANCH   6   8
ENDBRANCH   5   6
ENDBRANCH   1   5
TORSDOF 5
ENDMDL
MODEL 3
REMARK VINA RESULT:    -3.326     10.045     12.129
REMARK INTER + INTRA:          -4.575
REMARK INTER:                  -4.299
REMARK INTRA:                  -0.276
REMARK UNBOUND:                -0.277
REMARK SMILES C=CC(=O)CCCCC
REMARK SMILES IDX 6 1 7 2 8 3 9 4 5 5 3 6 4 7 2 8 1 9
REMARK H PARENT
REMARK Flexibility Score: inf
ROOT
ATOM      1  C   UNL     1       2.058 -30.330  39.487  1.00  0.00     0.008 C 
ENDROOT
BRANCH   1   2
ATOM      2  C   UNL     1       2.220 -28.829  39.202  1.00  0.00     0.000 C 
BRANCH   2   3
ATOM      3  C   UNL     1       1.795 -27.954  40.391  1.00  0.00    -0.003 C 
ATOM      4  C   UNL     1       2.826 -26.879  40.732  1.00  0.00     0.004 C 
ENDBRANCH   2   3
ENDBRANCH   1   2
BRANCH   1   5
ATOM      5  C   UNL     1       1.635 -31.085  38.223  1.00  0.00     0.080 C 
BRANCH   5   6
ATOM      6  C   UNL     1       0.330 -31.790  38.441  1.00  0.00     0.155 C 
ATOM      7  O   UNL     1       0.286 -32.782  39.219  1.00  0.00    -0.295 OA
BRANCH   6   8
ATOM      8  C   UNL     1      -0.896 -31.295  37.786  1.00  0.00     0.039 C 
ATOM      9  C   UNL     1      -1.063 -30.016  37.454  1.00  0.00     0.012 C 
ENDBRANCH   6   8
ENDBRANCH   5   6
ENDBRANCH   1   5
TORSDOF 5
ENDMDL
MODEL 4
REMARK VINA RESULT:    -3.320      1.766      4.417
REMARK INTER + INTRA:          -4.567
REMARK INTER:                  -4.246
REMARK INTRA:                  -0.322
REMARK UNBOUND:                -0.277
REMARK SMILES C=CC(=O)CCCCC
REMARK SMILES IDX 6 1 7 2 8 3 9 4 5 5 3 6 4 7 2 8 1 9
REMARK H PARENT
REMARK Flexibility Score: inf
ROOT
ATOM      1  C   UNL     1       8.593 -25.836  41.007  1.00  0.00     0.008 C 
ENDROOT
BRANCH   1   2
ATOM      2  C   UNL     1       9.776 -26.420  41.793  1.00  0.00     0.000 C 
BRANCH   2   3
ATOM      3  C   UNL     1       9.800 -27.957  41.770  1.00  0.00    -0.003 C 
ATOM      4  C   UNL     1       8.497 -28.576  42.275  1.00  0.00     0.004 C 
ENDBRANCH   2   3
ENDBRANCH   1   2
BRANCH   1   5
ATOM      5  C   UNL     1       9.012 -25.465  39.582  1.00  0.00     0.080 C 
BRANCH   5   6
ATOM      6  C   UNL     1       9.998 -24.335  39.599  1.00  0.00     0.155 C 
ATOM      7  O   UNL     1      11.084 -24.453  38.967  1.00  0.00    -0.295 OA
BRANCH   6   8
ATOM      8  C   UNL     1       9.675 -23.083  40.309  1.00  0.00     0.039 C 
ATOM      9  C   UNL     1      10.570 -22.429  41.048  1.00  0.00     0.012 C 
ENDBRANCH   6   8
ENDBRANCH   5   6
ENDBRANCH   1   5
TORSDOF 5
ENDMDL
MODEL 5
REMARK VINA RESULT:    -3.277      1.346      4.054
REMARK INTER + INTRA:          -4.512
REMARK INTER:                  -4.012
REMARK INTRA:                  -0.499
REMARK UNBOUND:                -0.277
REMARK SMILES C=CC(=O)CCCCC
REMARK SMILES IDX 6 1 7 2 8 3 9 4 5 5 3 6 4 7 2 8 1 9
REMARK H PARENT
REMARK Flexibility Score: inf
ROOT
ATOM      1  C   UNL     1      10.462 -25.090  39.672  1.00  0.00     0.008 C 
ENDROOT
BRANCH   1   2
ATOM      2  C   UNL     1      10.913 -25.929  40.878  1.00  0.00     0.000 C 
BRANCH   2   3
ATOM      3  C   UNL     1       9.739 -26.358  41.771  1.00  0.00    -0.003 C 
ATOM      4  C   UNL     1       8.378 -26.053  41.147  1.00  0.00     0.004 C 
ENDBRANCH   2   3
ENDBRANCH   1   2
BRANCH   1   5
ATOM      5  C   UNL     1      11.183 -23.740  39.645  1.00  0.00     0.080 C 
BRANCH   5   6
ATOM      6  C   UNL     1      10.535 -22.776  40.595  1.00  0.00     0.155 C 
ATOM      7  O   UNL     1       9.278 -22.670  40.605  1.00  0.00    -0.295 OA
BRANCH   6   8
ATOM      8  C   UNL     1      11.361 -21.997  41.536  1.00  0.00     0.039 C 
ATOM      9  C   UNL     1      11.772 -22.489  42.704  1.00  0.00     0.012 C 
ENDBRANCH   6   8
ENDBRANCH   5   6
ENDBRANCH   1   5
TORSDOF 5
ENDMDL
MODEL 6
REMARK VINA RESULT:    -3.204      1.490      1.908
REMARK INTER + INTRA:          -4.418
REMARK INTER:                  -3.883
REMARK INTRA:                  -0.535
REMARK UNBOUND:                -0.277
REMARK SMILES C=CC(=O)CCCCC
REMARK SMILES IDX 6 1 7 2 8 3 9 4 5 5 3 6 4 7 2 8 1 9
REMARK H PARENT
REMARK Flexibility Score: inf
ROOT
ATOM      1  C   UNL     1       9.606 -22.964  40.606  1.00  0.00     0.008 C 
ENDROOT
BRANCH   1   2
ATOM      2  C   UNL     1      10.878 -22.242  41.077  1.00  0.00     0.000 C 
BRANCH   2   3
ATOM      3  C   UNL     1      11.316 -22.677  42.484  1.00  0.00    -0.003 C 
ATOM      4  C   UNL     1      12.731 -22.217  42.831  1.00  0.00     0.004 C 
ENDBRANCH   2   3
ENDBRANCH   1   2
BRANCH   1   5
ATOM      5  C   UNL     1       9.708 -24.471  40.853  1.00  0.00     0.080 C 
BRANCH   5   6
ATOM      6  C   UNL     1      10.384 -25.151  39.700  1.00  0.00     0.155 C 
ATOM      7  O   UNL     1       9.914 -25.009  38.538  1.00  0.00    -0.295 OA
BRANCH   6   8
ATOM      8  C   UNL     1      11.611 -25.939  39.922  1.00  0.00     0.039 C 
ATOM      9  C   UNL     1      12.759 -25.382  40.305  1.00  0.00     0.012 C 
ENDBRANCH   6   8
ENDBRANCH   5   6
ENDBRANCH   1   5
TORSDOF 5
ENDMDL
MODEL 7
REMARK VINA RESULT:    -3.165      1.828      2.534
REMARK INTER + INTRA:          -4.367
REMARK INTER:                  -4.087
REMARK INTRA:                  -0.280
REMARK UNBOUND:                -0.277
REMARK SMILES C=CC(=O)CCCCC
REMARK SMILES IDX 6 1 7 2 8 3 9 4 5 5 3 6 4 7 2 8 1 9
REMARK H PARENT
REMARK Flexibility Score: inf
ROOT
ATOM      1  C   UNL     1       9.735 -24.094  40.198  1.00  0.00     0.008 C 
ENDROOT
BRANCH   1   2
ATOM      2  C   UNL     1       9.880 -22.644  40.684  1.00  0.00     0.000 C 
BRANCH   2   3
ATOM      3  C   UNL     1      10.953 -22.491  41.774  1.00  0.00    -0.003 C 
ATOM      4  C   UNL     1      12.125 -21.617  41.332  1.00  0.00     0.004 C 
ENDBRANCH   2   3
ENDBRANCH   1   2
BRANCH   1   5
ATOM      5  C   UNL     1      10.565 -25.048  41.062  1.00  0.00     0.080 C 
BRANCH   5   6
ATOM      6  C   UNL     1       9.894 -26.385  41.166  1.00  0.00     0.155 C 
ATOM      7  O   UNL     1      10.504 -27.340  41.720  1.00  0.00    -0.295 OA
BRANCH   6   8
ATOM      8  C   UNL     1       8.518 -26.563  40.665  1.00  0.00     0.039 C 
ATOM      9  C   UNL     1       7.540 -27.059  41.422  1.00  0.00     0.012 C 
ENDBRANCH   6   8
ENDBRANCH   5   6
ENDBRANCH   1   5
TORSDOF 5
ENDMDL
MODEL 8
REMARK VINA RESULT:    -3.135      1.422      2.209
REMARK INTER + INTRA:          -4.328
REMARK INTER:                  -3.951
REMARK INTRA:                  -0.378
REMARK UNBOUND:                -0.277
REMARK SMILES C=CC(=O)CCCCC
REMARK SMILES IDX 6 1 7 2 8 3 9 4 5 5 3 6 4 7 2 8 1 9
REMARK H PARENT
REMARK Flexibility Score: inf
ROOT
ATOM      1  C   UNL     1      10.619 -22.654  41.487  1.00  0.00     0.008 C 
ENDROOT
BRANCH   1   2
ATOM      2  C   UNL     1      12.086 -22.870  41.084  1.00  0.00     0.000 C 
BRANCH   2   3
ATOM      3  C   UNL     1      12.476 -22.080  39.825  1.00  0.00    -0.003 C 
ATOM      4  C   UNL     1      13.120 -22.957  38.753  1.00  0.00     0.004 C 
ENDBRANCH   2   3
ENDBRANCH   1   2
BRANCH   1   5
ATOM      5  C   UNL     1       9.681 -22.940  40.310  1.00  0.00     0.080 C 
BRANCH   5   6
ATOM      6  C   UNL     1       9.695 -24.401  39.968  1.00  0.00     0.155 C 
ATOM      7  O   UNL     1       9.919 -24.754  38.778  1.00  0.00    -0.295 OA
BRANCH   6   8
ATOM      8  C   UNL     1       9.494 -25.410  41.025  1.00  0.00     0.039 C 
ATOM      9  C   UNL     1       8.375 -26.126  41.127  1.00  0.00     0.012 C 
ENDBRANCH   6   8
ENDBRANCH   5   6
ENDBRANCH   1   5
TORSDOF 5
ENDMDL
MODEL 9
REMARK VINA RESULT:    -3.116      2.088      3.742
REMARK INTER + INTRA:          -4.304
REMARK INTER:                  -3.682
REMARK INTRA:                  -0.622
REMARK UNBOUND:                -0.277
REMARK SMILES C=CC(=O)CCCCC
REMARK SMILES IDX 6 1 7 2 8 3 9 4 5 5 3 6 4 7 2 8 1 9
REMARK H PARENT
REMARK Flexibility Score: inf
ROOT
ATOM      1  C   UNL     1      11.196 -22.419  41.267  1.00  0.00     0.008 C 
ENDROOT
BRANCH   1   2
ATOM      2  C   UNL     1       9.800 -22.660  40.673  1.00  0.00     0.000 C 
BRANCH   2   3
ATOM      3  C   UNL     1       9.396 -24.142  40.695  1.00  0.00    -0.003 C 
ATOM      4  C   UNL     1       9.327 -24.757  39.299  1.00  0.00     0.004 C 
ENDBRANCH   2   3
ENDBRANCH   1   2
BRANCH   1   5
ATOM      5  C   UNL     1      12.212 -22.097  40.167  1.00  0.00     0.080 C 
BRANCH   5   6
ATOM      6  C   UNL     1      12.738 -23.359  39.550  1.00  0.00     0.155 C 
ATOM      7  O   UNL     1      12.734 -23.481  38.294  1.00  0.00    -0.295 OA
BRANCH   6   8
ATOM      8  C   UNL     1      13.295 -24.424  40.405  1.00  0.00     0.039 C 
ATOM      9  C   UNL     1      12.874 -25.687  40.341  1.00  0.00     0.012 C 
ENDBRANCH   6   8
ENDBRANCH   5   6
ENDBRANCH   1   5
TORSDOF 5
ENDMDL
