MODEL 1
REMARK VINA RESULT:    -2.050      0.000      0.000
REMARK INTER + INTRA:          -2.351
REMARK INTER:                  -2.289
REMARK INTRA:                  -0.062
REMARK UNBOUND:                -0.062
REMARK SMILES COc1ccc(C(=O)[O-])cc1
REMARK SMILES IDX 6 1 5 2 10 3 4 4 11 5 3 6 7 7 8 8 9 9 2 10 1 11
REMARK H PARENT
REMARK Flexibility Score: inf
ROOT
ATOM      1  C   UNL     1     139.571 128.030 130.429  1.00  0.00    -0.003 A 
ATOM      2  C   UNL     1     138.847 127.800 129.247  1.00  0.00     0.014 A 
ATOM      3  C   UNL     1     138.879 128.084 131.652  1.00  0.00     0.014 A 
ATOM      4  C   UNL     1     137.461 127.627 129.288  1.00  0.00     0.047 A 
ATOM      5  C   UNL     1     137.493 127.912 131.691  1.00  0.00     0.047 A 
ATOM      6  C   UNL     1     136.771 127.680 130.504  1.00  0.00     0.118 A 
ENDROOT
BRANCH   1   7
ATOM      7  C   UNL     1     141.039 128.213 130.383  1.00  0.00     0.071 C 
ATOM      8  O   UNL     1     141.743 128.005 131.407  1.00  0.00    -0.545 OA
ATOM      9  O   UNL     1     141.662 128.617 129.208  1.00  0.00    -0.545 OA
ENDBRANCH   1   7
BRANCH   6  10
ATOM     10  O   UNL     1     135.380 127.501 130.491  1.00  0.00    -0.497 OA
ATOM     11  C   UNL     1     134.470 128.338 129.784  1.00  0.00     0.278 C 
ENDBRANCH   6  10
TORSDOF 2
ENDMDL
MODEL 2
REMARK VINA RESULT:    -1.938      0.065      1.461
REMARK INTER + INTRA:          -2.227
REMARK INTER:                  -2.167
REMARK INTRA:                  -0.060
REMARK UNBOUND:                -0.062
REMARK SMILES COc1ccc(C(=O)[O-])cc1
REMARK SMILES IDX 6 1 5 2 10 3 4 4 11 5 3 6 7 7 8 8 9 9 2 10 1 11
REMARK H PARENT
REMARK Flexibility Score: inf
ROOT
ATOM      1  C   UNL     1     139.537 128.036 130.424  1.00  0.00    -0.003 A 
ATOM      2  C   UNL     1     138.819 128.114 131.628  1.00  0.00     0.014 A 
ATOM      3  C   UNL     1     138.839 127.779 129.231  1.00  0.00     0.014 A 
ATOM      4  C   UNL     1     137.432 127.939 131.639  1.00  0.00     0.047 A 
ATOM      5  C   UNL     1     137.452 127.604 129.243  1.00  0.00     0.047 A 
ATOM      6  C   UNL     1     136.736 127.684 130.452  1.00  0.00     0.118 A 
ENDROOT
BRANCH   1   7
ATOM      7  C   UNL     1     141.005 128.221 130.416  1.00  0.00     0.071 C 
ATOM      8  O   UNL     1     141.680 128.039 131.464  1.00  0.00    -0.545 OA
ATOM      9  O   UNL     1     141.661 128.598 129.250  1.00  0.00    -0.545 OA
ENDBRANCH   1   7
BRANCH   6  10
ATOM     10  O   UNL     1     135.345 127.516 130.517  1.00  0.00    -0.497 OA
ATOM     11  C   UNL     1     134.403 128.359 129.862  1.00  0.00     0.278 C 
ENDBRANCH   6  10
TORSDOF 2
ENDMDL
MODEL 3
REMARK VINA RESULT:    -1.760      0.178      0.989
REMARK INTER + INTRA:          -2.028
REMARK INTER:                  -1.967
REMARK INTRA:                  -0.061
REMARK UNBOUND:                -0.062
REMARK SMILES COc1ccc(C(=O)[O-])cc1
REMARK SMILES IDX 6 1 5 2 10 3 4 4 11 5 3 6 7 7 8 8 9 9 2 10 1 11
REMARK H PARENT
REMARK Flexibility Score: inf
ROOT
ATOM      1  C   UNL     1     139.520 128.022 130.290  1.00  0.00    -0.003 A 
ATOM      2  C   UNL     1     138.817 127.844 129.087  1.00  0.00     0.014 A 
ATOM      3  C   UNL     1     138.804 128.036 131.501  1.00  0.00     0.014 A 
ATOM      4  C   UNL     1     137.429 127.682 129.094  1.00  0.00     0.047 A 
ATOM      5  C   UNL     1     137.416 127.874 131.507  1.00  0.00     0.047 A 
ATOM      6  C   UNL     1     136.716 127.695 130.298  1.00  0.00     0.118 A 
ENDROOT
BRANCH   1   7
ATOM      7  C   UNL     1     140.990 128.194 130.280  1.00  0.00     0.071 C 
ATOM      8  O   UNL     1     141.591 128.500 129.215  1.00  0.00    -0.545 OA
ATOM      9  O   UNL     1     141.727 128.019 131.444  1.00  0.00    -0.545 OA
ENDBRANCH   1   7
BRANCH   6  10
ATOM     10  O   UNL     1     135.324 127.528 130.251  1.00  0.00    -0.497 OA
ATOM     11  C   UNL     1     134.409 128.535 129.830  1.00  0.00     0.278 C 
ENDBRANCH   6  10
TORSDOF 2
ENDMDL
MODEL 4
REMARK VINA RESULT:    -1.609      1.091      4.733
REMARK INTER + INTRA:          -1.859
REMARK INTER:                  -1.793
REMARK INTRA:                  -0.066
REMARK UNBOUND:                -0.062
REMARK SMILES COc1ccc(C(=O)[O-])cc1
REMARK SMILES IDX 6 1 5 2 10 3 4 4 11 5 3 6 7 7 8 8 9 9 2 10 1 11
REMARK H PARENT
REMARK Flexibility Score: inf
ROOT
ATOM      1  C   UNL     1     137.484 127.737 130.227  1.00  0.00    -0.003 A 
ATOM      2  C   UNL     1     138.528 127.891 129.300  1.00  0.00     0.014 A 
ATOM      3  C   UNL     1     137.783 127.768 131.600  1.00  0.00     0.014 A 
ATOM      4  C   UNL     1     139.843 128.072 129.737  1.00  0.00     0.047 A 
ATOM      5  C   UNL     1     139.099 127.949 132.037  1.00  0.00     0.047 A 
ATOM      6  C   UNL     1     140.142 128.103 131.104  1.00  0.00     0.118 A 
ENDROOT
BRANCH   1   7
ATOM      7  C   UNL     1     136.093 127.545 129.761  1.00  0.00     0.071 C 
ATOM      8  O   UNL     1     135.851 126.855 128.734  1.00  0.00    -0.545 OA
ATOM      9  O   UNL     1     135.033 128.122 130.450  1.00  0.00    -0.545 OA
ENDBRANCH   1   7
BRANCH   6  10
ATOM     10  O   UNL     1     141.478 128.288 131.491  1.00  0.00    -0.497 OA
ATOM     11  C   UNL     1     142.597 128.071 130.638  1.00  0.00     0.278 C 
ENDBRANCH   6  10
TORSDOF 2
ENDMDL
MODEL 5
REMARK VINA RESULT:    -1.434      1.090      4.949
REMARK INTER + INTRA:          -1.663
REMARK INTER:                  -1.601
REMARK INTRA:                  -0.062
REMARK UNBOUND:                -0.062
REMARK SMILES COc1ccc(C(=O)[O-])cc1
REMARK SMILES IDX 6 1 5 2 10 3 4 4 11 5 3 6 7 7 8 8 9 9 2 10 1 11
REMARK H PARENT
REMARK Flexibility Score: inf
ROOT
ATOM      1  C   UNL     1     137.475 127.748 130.206  1.00  0.00    -0.003 A 
ATOM      2  C   UNL     1     137.796 127.798 131.572  1.00  0.00     0.014 A 
ATOM      3  C   UNL     1     138.505 127.889 129.259  1.00  0.00     0.014 A 
ATOM      4  C   UNL     1     139.119 127.983 131.984  1.00  0.00     0.047 A 
ATOM      5  C   UNL     1     139.828 128.075 129.671  1.00  0.00     0.047 A 
ATOM      6  C   UNL     1     140.145 128.123 131.042  1.00  0.00     0.118 A 
ENDROOT
BRANCH   1   7
ATOM      7  C   UNL     1     136.073 127.552 129.774  1.00  0.00     0.071 C 
ATOM      8  O   UNL     1     135.808 126.853 128.759  1.00  0.00    -0.545 OA
ATOM      9  O   UNL     1     135.030 128.135 130.482  1.00  0.00    -0.545 OA
ENDBRANCH   1   7
BRANCH   6  10
ATOM     10  O   UNL     1     141.456 128.308 131.507  1.00  0.00    -0.497 OA
ATOM     11  C   UNL     1     142.624 128.062 130.731  1.00  0.00     0.278 C 
ENDBRANCH   6  10
TORSDOF 2
ENDMDL
MODEL 6
REMARK VINA RESULT:     0.415      1.156      5.017
REMARK INTER + INTRA:           0.402
REMARK INTER:                   0.461
REMARK INTRA:                  -0.060
REMARK UNBOUND:                -0.062
REMARK SMILES COc1ccc(C(=O)[O-])cc1
REMARK SMILES IDX 6 1 5 2 10 3 4 4 11 5 3 6 7 7 8 8 9 9 2 10 1 11
REMARK H PARENT
REMARK Flexibility Score: inf
ROOT
ATOM      1  C   UNL     1     136.181 127.988 130.091  1.00  0.00    -0.003 A 
ATOM      2  C   UNL     1     136.598 128.081 131.429  1.00  0.00     0.014 A 
ATOM      3  C   UNL     1     137.144 127.754 129.093  1.00  0.00     0.014 A 
ATOM      4  C   UNL     1     137.949 127.943 131.762  1.00  0.00     0.047 A 
ATOM      5  C   UNL     1     138.494 127.616 129.426  1.00  0.00     0.047 A 
ATOM      6  C   UNL     1     138.907 127.710 130.769  1.00  0.00     0.118 A 
ENDROOT
BRANCH   1   7
ATOM      7  C   UNL     1     134.751 128.135 129.741  1.00  0.00     0.071 C 
ATOM      8  O   UNL     1     133.854 127.746 130.537  1.00  0.00    -0.545 OA
ATOM      9  O   UNL     1     134.377 128.704 128.530  1.00  0.00    -0.545 OA
ENDBRANCH   1   7
BRANCH   6  10
ATOM     10  O   UNL     1     140.249 127.579 131.156  1.00  0.00    -0.497 OA
ATOM     11  C   UNL     1     141.330 128.285 130.555  1.00  0.00     0.278 C 
ENDBRANCH   6  10
TORSDOF 2
ENDMDL
