MODEL 1
REMARK VINA RESULT:    12.409      0.000      0.000
REMARK INTER + INTRA:          18.406
REMARK INTER:                  18.939
REMARK INTRA:                  -0.533
REMARK UNBOUND:                -0.533
REMARK SMILES CCCCCCCCCCC(=O)[O-]
REMARK SMILES IDX 7 1 8 2 9 3 10 4 11 5 12 6 13 7 6 8 5 9 4 10 3 11 2 12 1 13
REMARK H PARENT
REMARK Flexibility Score: inf
ROOT
ATOM      1  C   UNL     1      -3.107   7.159 -23.093  1.00  0.00     0.000 C 
ENDROOT
BRANCH   1   2
ATOM      2  C   UNL     1      -3.778   7.031 -21.714  1.00  0.00     0.000 C 
BRANCH   2   3
ATOM      3  C   UNL     1      -2.767   6.884 -20.564  1.00  0.00     0.006 C 
BRANCH   3   4
ATOM      4  C   UNL     1      -3.212   7.632 -19.301  1.00  0.00     0.053 C 
BRANCH   4   5
ATOM      5  C   UNL     1      -2.316   8.793 -19.000  1.00  0.00     0.041 C 
ATOM      6  O   UNL     1      -1.190   8.885 -19.555  1.00  0.00    -0.550 OA
ATOM      7  O   UNL     1      -2.740   9.794 -18.134  1.00  0.00    -0.550 OA
ENDBRANCH   4   5
ENDBRANCH   3   4
ENDBRANCH   2   3
ENDBRANCH   1   2
BRANCH   1   8
ATOM      8  C   UNL     1      -1.962   8.187 -23.172  1.00  0.00     0.000 C 
BRANCH   8   9
ATOM      9  C   UNL     1      -2.010   9.039 -24.452  1.00  0.00    -0.000 C 
BRANCH   9  10
ATOM     10  C   UNL     1      -0.628   9.578 -24.864  1.00  0.00    -0.000 C 
BRANCH  10  11
ATOM     11  C   UNL     1      -0.143   9.147 -26.264  1.00  0.00    -0.000 C 
BRANCH  11  12
ATOM     12  C   UNL     1       1.099   8.239 -26.271  1.00  0.00    -0.003 C 
ATOM     13  C   UNL     1       0.844   6.878 -25.622  1.00  0.00     0.004 C 
ENDBRANCH  11  12
ENDBRANCH  10  11
ENDBRANCH   9  10
ENDBRANCH   8   9
ENDBRANCH   1   8
TORSDOF 9
ENDMDL
MODEL 2
REMARK VINA RESULT:    12.732      3.874      4.678
REMARK INTER + INTRA:          18.898
REMARK INTER:                  18.462
REMARK INTRA:                   0.436
REMARK UNBOUND:                -0.533
REMARK SMILES CCCCCCCCCCC(=O)[O-]
REMARK SMILES IDX 7 1 8 2 9 3 10 4 11 5 12 6 13 7 6 8 5 9 4 10 3 11 2 12 1 13
REMARK H PARENT
REMARK Flexibility Score: inf
ROOT
ATOM      1  C   UNL     1      -3.291   9.462 -24.504  1.00  0.00     0.000 C 
ENDROOT
BRANCH   1   2
ATOM      2  C   UNL     1      -4.619   8.975 -25.111  1.00  0.00     0.000 C 
BRANCH   2   3
ATOM      3  C   UNL     1      -5.736  10.031 -25.040  1.00  0.00     0.006 C 
BRANCH   3   4
ATOM      4  C   UNL     1      -5.672  10.855 -23.748  1.00  0.00     0.053 C 
BRANCH   4   5
ATOM      5  C   UNL     1      -6.488  12.107 -23.849  1.00  0.00     0.041 C 
ATOM      6  O   UNL     1      -7.152  12.511 -22.858  1.00  0.00    -0.550 OA
ATOM      7  O   UNL     1      -6.485  12.848 -25.023  1.00  0.00    -0.550 OA
ENDBRANCH   4   5
ENDBRANCH   3   4
ENDBRANCH   2   3
ENDBRANCH   1   2
BRANCH   1   8
ATOM      8  C   UNL     1      -2.395   8.356 -23.916  1.00  0.00     0.000 C 
BRANCH   8   9
ATOM      9  C   UNL     1      -0.908   8.545 -24.259  1.00  0.00    -0.000 C 
BRANCH   9  10
ATOM     10  C   UNL     1      -0.683   9.500 -25.445  1.00  0.00    -0.000 C 
BRANCH  10  11
ATOM     11  C   UNL     1       0.476   9.119 -26.390  1.00  0.00    -0.000 C 
BRANCH  11  12
ATOM     12  C   UNL     1       0.684   7.608 -26.588  1.00  0.00    -0.003 C 
ATOM     13  C   UNL     1       0.999   6.875 -25.283  1.00  0.00     0.004 C 
ENDBRANCH  11  12
ENDBRANCH  10  11
ENDBRANCH   9  10
ENDBRANCH   8   9
ENDBRANCH   1   8
TORSDOF 9
ENDMDL
MODEL 3
REMARK VINA RESULT:    12.891     12.368     15.127
REMARK INTER + INTRA:          19.141
REMARK INTER:                  19.618
REMARK INTRA:                  -0.477
REMARK UNBOUND:                -0.533
REMARK SMILES CCCCCCCCCCC(=O)[O-]
REMARK SMILES IDX 7 1 8 2 9 3 10 4 11 5 12 6 13 7 6 8 5 9 4 10 3 11 2 12 1 13
REMARK H PARENT
REMARK Flexibility Score: inf
ROOT
ATOM      1  C   UNL     1       4.839  17.318 -13.908  1.00  0.00     0.000 C 
ENDROOT
BRANCH   1   2
ATOM      2  C   UNL     1       4.918  18.091 -15.237  1.00  0.00     0.000 C 
BRANCH   2   3
ATOM      3  C   UNL     1       4.976  17.169 -16.466  1.00  0.00     0.006 C 
BRANCH   3   4
ATOM      4  C   UNL     1       4.408  17.843 -17.722  1.00  0.00     0.053 C 
BRANCH   4   5
ATOM      5  C   UNL     1       3.881  16.838 -18.700  1.00  0.00     0.041 C 
ATOM      6  O   UNL     1       4.401  15.694 -18.774  1.00  0.00    -0.550 OA
ATOM      7  O   UNL     1       2.792  17.152 -19.503  1.00  0.00    -0.550 OA
ENDBRANCH   4   5
ENDBRANCH   3   4
ENDBRANCH   2   3
ENDBRANCH   1   2
BRANCH   1   8
ATOM      8  C   UNL     1       4.318  18.129 -12.707  1.00  0.00     0.000 C 
BRANCH   8   9
ATOM      9  C   UNL     1       4.411  19.649 -12.925  1.00  0.00    -0.000 C 
BRANCH   9  10
ATOM     10  C   UNL     1       3.528  20.449 -11.948  1.00  0.00    -0.000 C 
BRANCH  10  11
ATOM     11  C   UNL     1       2.140  20.848 -12.490  1.00  0.00    -0.000 C 
BRANCH  11  12
ATOM     12  C   UNL     1       0.948  20.340 -11.662  1.00  0.00    -0.003 C 
ATOM     13  C   UNL     1       0.896  18.815 -11.567  1.00  0.00     0.004 C 
ENDBRANCH  11  12
ENDBRANCH  10  11
ENDBRANCH   9  10
ENDBRANCH   8   9
ENDBRANCH   1   8
TORSDOF 9
ENDMDL
MODEL 4
REMARK VINA RESULT:    13.140      3.611      6.517
REMARK INTER + INTRA:          19.520
REMARK INTER:                  19.983
REMARK INTRA:                  -0.462
REMARK UNBOUND:                -0.533
REMARK SMILES CCCCCCCCCCC(=O)[O-]
REMARK SMILES IDX 7 1 8 2 9 3 10 4 11 5 12 6 13 7 6 8 5 9 4 10 3 11 2 12 1 13
REMARK H PARENT
REMARK Flexibility Score: inf
ROOT
ATOM      1  C   UNL     1      -3.003   8.642 -24.045  1.00  0.00     0.000 C 
ENDROOT
BRANCH   1   2
ATOM      2  C   UNL     1      -1.864   9.677 -24.048  1.00  0.00     0.000 C 
BRANCH   2   3
ATOM      3  C   UNL     1      -0.953   9.566 -25.282  1.00  0.00     0.006 C 
BRANCH   3   4
ATOM      4  C   UNL     1      -0.011   8.358 -25.200  1.00  0.00     0.053 C 
BRANCH   4   5
ATOM      5  C   UNL     1       0.747   8.159 -26.476  1.00  0.00     0.041 C 
ATOM      6  O   UNL     1       1.169   9.153 -27.124  1.00  0.00    -0.550 OA
ATOM      7  O   UNL     1       1.020   6.875 -26.931  1.00  0.00    -0.550 OA
ENDBRANCH   4   5
ENDBRANCH   3   4
ENDBRANCH   2   3
ENDBRANCH   1   2
BRANCH   1   8
ATOM      8  C   UNL     1      -2.787   7.432 -23.117  1.00  0.00     0.000 C 
BRANCH   8   9
ATOM      9  C   UNL     1      -1.565   7.593 -22.197  1.00  0.00    -0.000 C 
BRANCH   9  10
ATOM     10  C   UNL     1      -1.855   7.186 -20.740  1.00  0.00    -0.000 C 
BRANCH  10  11
ATOM     11  C   UNL     1      -3.335   7.271 -20.313  1.00  0.00    -0.000 C 
BRANCH  11  12
ATOM     12  C   UNL     1      -3.570   7.781 -18.881  1.00  0.00    -0.003 C 
ATOM     13  C   UNL     1      -2.721   9.005 -18.537  1.00  0.00     0.004 C 
ENDBRANCH  11  12
ENDBRANCH  10  11
ENDBRANCH   9  10
ENDBRANCH   8   9
ENDBRANCH   1   8
TORSDOF 9
ENDMDL
MODEL 5
REMARK VINA RESULT:    13.226     12.547     14.341
REMARK INTER + INTRA:          19.652
REMARK INTER:                  20.013
REMARK INTRA:                  -0.361
REMARK UNBOUND:                -0.533
REMARK SMILES CCCCCCCCCCC(=O)[O-]
REMARK SMILES IDX 7 1 8 2 9 3 10 4 11 5 12 6 13 7 6 8 5 9 4 10 3 11 2 12 1 13
REMARK H PARENT
REMARK Flexibility Score: inf
ROOT
ATOM      1  C   UNL     1       4.368  17.859 -12.996  1.00  0.00     0.000 C 
ENDROOT
BRANCH   1   2
ATOM      2  C   UNL     1       4.704  19.277 -12.502  1.00  0.00     0.000 C 
BRANCH   2   3
ATOM      3  C   UNL     1       3.609  20.305 -12.832  1.00  0.00     0.006 C 
BRANCH   3   4
ATOM      4  C   UNL     1       2.728  20.623 -11.617  1.00  0.00     0.053 C 
BRANCH   4   5
ATOM      5  C   UNL     1       1.281  20.352 -11.896  1.00  0.00     0.041 C 
ATOM      6  O   UNL     1       0.518  21.290 -12.248  1.00  0.00    -0.550 OA
ATOM      7  O   UNL     1       0.784  19.059 -11.803  1.00  0.00    -0.550 OA
ENDBRANCH   4   5
ENDBRANCH   3   4
ENDBRANCH   2   3
ENDBRANCH   1   2
BRANCH   1   8
ATOM      8  C   UNL     1       5.117  17.412 -14.265  1.00  0.00     0.000 C 
BRANCH   8   9
ATOM      9  C   UNL     1       4.648  18.152 -15.529  1.00  0.00    -0.000 C 
BRANCH   9  10
ATOM     10  C   UNL     1       5.065  17.440 -16.830  1.00  0.00    -0.000 C 
BRANCH  10  11
ATOM     11  C   UNL     1       4.232  17.803 -18.077  1.00  0.00    -0.000 C 
BRANCH  11  12
ATOM     12  C   UNL     1       3.582  16.609 -18.796  1.00  0.00    -0.003 C 
ATOM     13  C   UNL     1       4.465  15.360 -18.793  1.00  0.00     0.004 C 
ENDBRANCH  11  12
ENDBRANCH  10  11
ENDBRANCH   9  10
ENDBRANCH   8   9
ENDBRANCH   1   8
TORSDOF 9
ENDMDL
MODEL 6
REMARK VINA RESULT:    13.487      4.242      6.540
REMARK INTER + INTRA:          20.051
REMARK INTER:                  19.858
REMARK INTRA:                   0.193
REMARK UNBOUND:                -0.533
REMARK SMILES CCCCCCCCCCC(=O)[O-]
REMARK SMILES IDX 7 1 8 2 9 3 10 4 11 5 12 6 13 7 6 8 5 9 4 10 3 11 2 12 1 13
REMARK H PARENT
REMARK Flexibility Score: inf
ROOT
ATOM      1  C   UNL     1      -3.018   8.066 -23.870  1.00  0.00     0.000 C 
ENDROOT
BRANCH   1   2
ATOM      2  C   UNL     1      -1.521   8.143 -23.518  1.00  0.00     0.000 C 
BRANCH   2   3
ATOM      3  C   UNL     1      -0.815   9.353 -24.154  1.00  0.00     0.006 C 
BRANCH   3   4
ATOM      4  C   UNL     1      -0.841   9.298 -25.687  1.00  0.00     0.053 C 
BRANCH   4   5
ATOM      5  C   UNL     1       0.458   8.805 -26.246  1.00  0.00     0.041 C 
ATOM      6  O   UNL     1       0.879   7.657 -25.949  1.00  0.00    -0.550 OA
ATOM      7  O   UNL     1       1.184   9.599 -27.124  1.00  0.00    -0.550 OA
ENDBRANCH   4   5
ENDBRANCH   3   4
ENDBRANCH   2   3
ENDBRANCH   1   2
BRANCH   1   8
ATOM      8  C   UNL     1      -3.571   9.273 -24.650  1.00  0.00     0.000 C 
BRANCH   8   9
ATOM      9  C   UNL     1      -4.906   8.973 -25.352  1.00  0.00    -0.000 C 
BRANCH   9  10
ATOM     10  C   UNL     1      -6.002  10.002 -25.018  1.00  0.00    -0.000 C 
BRANCH  10  11
ATOM     11  C   UNL     1      -5.693  10.934 -23.828  1.00  0.00    -0.000 C 
BRANCH  11  12
ATOM     12  C   UNL     1      -6.402  12.298 -23.869  1.00  0.00    -0.003 C 
ATOM     13  C   UNL     1      -7.310  12.533 -22.661  1.00  0.00     0.004 C 
ENDBRANCH  11  12
ENDBRANCH  10  11
ENDBRANCH   9  10
ENDBRANCH   8   9
ENDBRANCH   1   8
TORSDOF 9
ENDMDL
MODEL 7
REMARK VINA RESULT:    13.771      7.655      9.259
REMARK INTER + INTRA:          20.485
REMARK INTER:                  20.869
REMARK INTRA:                  -0.385
REMARK UNBOUND:                -0.533
REMARK SMILES CCCCCCCCCCC(=O)[O-]
REMARK SMILES IDX 7 1 8 2 9 3 10 4 11 5 12 6 13 7 6 8 5 9 4 10 3 11 2 12 1 13
REMARK H PARENT
REMARK Flexibility Score: inf
ROOT
ATOM      1  C   UNL     1      -5.009  14.558 -26.513  1.00  0.00     0.000 C 
ENDROOT
BRANCH   1   2
ATOM      2  C   UNL     1      -5.354  16.012 -26.881  1.00  0.00     0.000 C 
BRANCH   2   3
ATOM      3  C   UNL     1      -4.713  17.040 -25.935  1.00  0.00     0.006 C 
BRANCH   3   4
ATOM      4  C   UNL     1      -5.647  18.221 -25.642  1.00  0.00     0.053 C 
BRANCH   4   5
ATOM      5  C   UNL     1      -5.781  18.472 -24.172  1.00  0.00     0.041 C 
ATOM      6  O   UNL     1      -6.653  19.272 -23.743  1.00  0.00    -0.550 OA
ATOM      7  O   UNL     1      -4.967  17.795 -23.273  1.00  0.00    -0.550 OA
ENDBRANCH   4   5
ENDBRANCH   3   4
ENDBRANCH   2   3
ENDBRANCH   1   2
BRANCH   1   8
ATOM      8  C   UNL     1      -5.497  14.100 -25.125  1.00  0.00     0.000 C 
BRANCH   8   9
ATOM      9  C   UNL     1      -6.464  12.905 -25.194  1.00  0.00    -0.000 C 
BRANCH   9  10
ATOM     10  C   UNL     1      -6.605  12.171 -23.847  1.00  0.00    -0.000 C 
BRANCH  10  11
ATOM     11  C   UNL     1      -5.724  10.915 -23.685  1.00  0.00    -0.000 C 
BRANCH  11  12
ATOM     12  C   UNL     1      -5.804   9.909 -24.846  1.00  0.00    -0.003 C 
ATOM     13  C   UNL     1      -4.525   9.088 -25.012  1.00  0.00     0.004 C 
ENDBRANCH  11  12
ENDBRANCH  10  11
ENDBRANCH   9  10
ENDBRANCH   8   9
ENDBRANCH   1   8
TORSDOF 9
ENDMDL
