MODEL 1
REMARK VINA RESULT:    -7.166      0.000      0.000
REMARK INTER + INTRA:         -12.732
REMARK INTER:                 -11.774
REMARK INTRA:                  -0.957
REMARK UNBOUND:                -0.957
REMARK SMILES C[C@@H]1O[C@@H](OC[C@@H]2O[C@H](Oc3c(-c4ccc(O)c(O)c4)oc4cc(O)cc(O)c4c3=O)[C@H](O)[C@H](O)[C@H]2O)[C@@H](O)[C@@H](O)[C@H]1O
REMARK SMILES IDX 7 1 36 2 34 3 32 4 9 5 8 6 6 7 5 8 4 9 1 10 2 11 42 12 3 13
REMARK SMILES IDX 40 14 38 15 43 16 41 18 39 20 37 22 35 24 10 26 11 27 12 28
REMARK SMILES IDX 30 29 21 30 29 31 31 32 22 33 27 34 23 35 26 36 24 37 13 38
REMARK SMILES IDX 20 39 14 40 18 41 15 42 16 43 19 44 17 46 28 48 25 50 33 52
REMARK H PARENT 43 17 41 19 39 21 37 23 35 25 19 45 17 47 28 49 25 51 33 53
REMARK Flexibility Score: inf
ROOT
ATOM      1  C   UNL     1      93.441 100.268  98.413  1.00  0.00     0.180 C 
ATOM      2  C   UNL     1      92.960 101.407  99.370  1.00  0.00     0.177 C 
ATOM      3  C   UNL     1      93.815 101.540 100.657  1.00  0.00     0.180 C 
ATOM      4  C   UNL     1      95.216 100.909 100.511  1.00  0.00     0.214 C 
ATOM      5  C   UNL     1      95.668 100.962  99.046  1.00  0.00     0.339 C 
ATOM      6  O   UNL     1      94.851 100.164  98.201  1.00  0.00    -0.332 OA
ENDROOT
BRANCH   1   7
ATOM      7  C   UNL     1      92.888  98.900  98.852  1.00  0.00     0.198 C 
BRANCH   7   8
ATOM      8  O   UNL     1      93.595  97.861  98.194  1.00  0.00    -0.347 OA
BRANCH   8   9
ATOM      9  C   UNL     1      92.875  97.310  97.096  1.00  0.00     0.281 C 
ATOM     10  C   UNL     1      94.553  94.043  96.935  1.00  0.00     0.041 C 
ATOM     11  C   UNL     1      94.428  95.564  96.830  1.00  0.00     0.150 C 
ATOM     12  C   UNL     1      94.904  96.054  95.444  1.00  0.00     0.174 C 
ATOM     13  O   UNL     1      93.069  95.906  97.039  1.00  0.00    -0.344 OA
ATOM     14  C   UNL     1      94.683  97.574  95.292  1.00  0.00     0.179 C 
ATOM     15  C   UNL     1      93.266  97.977  95.756  1.00  0.00     0.202 C 
BRANCH  12  16
ATOM     16  O   UNL     1      96.263  95.743  95.265  1.00  0.00    -0.388 OA
ATOM     17  H   UNL     1      96.758  96.198  95.996  1.00  0.00     0.211 HD
ENDBRANCH  12  16
BRANCH  14  18
ATOM     18  O   UNL     1      95.685  98.326  95.939  1.00  0.00    -0.387 OA
ATOM     19  H   UNL     1      95.787  99.191  95.464  1.00  0.00     0.211 HD
ENDBRANCH  14  18
BRANCH  15  20
ATOM     20  O   UNL     1      93.156  99.374  95.861  1.00  0.00    -0.385 OA
ATOM     21  H   UNL     1      93.982  99.758  95.459  1.00  0.00     0.211 HD
ENDBRANCH  15  20
ENDBRANCH   8   9
ENDBRANCH   7   8
ENDBRANCH   1   7
BRANCH   2  22
ATOM     22  O   UNL     1      92.875 102.645  98.701  1.00  0.00    -0.387 OA
ATOM     23  H   UNL     1      92.313 103.262  99.234  1.00  0.00     0.211 HD
ENDBRANCH   2  22
BRANCH   3  24
ATOM     24  O   UNL     1      93.132 100.960 101.739  1.00  0.00    -0.387 OA
ATOM     25  H   UNL     1      92.711 101.702 102.249  1.00  0.00     0.211 HD
ENDBRANCH   3  24
BRANCH   5  26
ATOM     26  O   UNL     1      97.009 100.483  98.960  1.00  0.00    -0.454 OA
BRANCH  26  27
ATOM     27  C   UNL     1      98.102 100.877  99.762  1.00  0.00     0.214 A 
ATOM     28  C   UNL     1      98.480 102.234  99.745  1.00  0.00     0.180 A 
ATOM     29  C   UNL     1      98.869  99.983 100.547  1.00  0.00     0.239 A 
ATOM     30  O   UNL     1      99.569 102.638 100.389  1.00  0.00    -0.452 OA
ATOM     31  C   UNL     1     100.005 100.459 101.238  1.00  0.00     0.111 A 
ATOM     32  O   UNL     1      98.549  98.768 100.625  1.00  0.00    -0.285 OA
ATOM     33  C   UNL     1     100.332 101.829 101.110  1.00  0.00     0.146 A 
ATOM     34  C   UNL     1     100.831  99.628 102.034  1.00  0.00     0.134 A 
ATOM     35  C   UNL     1     101.458 102.351 101.752  1.00  0.00     0.094 A 
ATOM     36  C   UNL     1     101.953 100.172 102.677  1.00  0.00     0.093 A 
ATOM     37  C   UNL     1     102.267 101.529 102.536  1.00  0.00     0.123 A 
BRANCH  28  38
ATOM     38  C   UNL     1      97.681 103.250  99.029  1.00  0.00     0.025 A 
ATOM     39  C   UNL     1      96.944 104.215  99.735  1.00  0.00     0.062 A 
ATOM     40  C   UNL     1      97.722 103.308  97.631  1.00  0.00     0.016 A 
ATOM     41  C   UNL     1      96.238 105.218  99.059  1.00  0.00     0.158 A 
ATOM     42  C   UNL     1      97.006 104.292  96.947  1.00  0.00     0.051 A 
ATOM     43  C   UNL     1      96.259 105.248  97.644  1.00  0.00     0.157 A 
BRANCH  41  44
ATOM     44  O   UNL     1      95.550 106.162  99.823  1.00  0.00    -0.504 OA
ATOM     45  H   UNL     1      95.265 106.012 100.780  1.00  0.00     0.293 HD
ENDBRANCH  41  44
BRANCH  43  46
ATOM     46  O   UNL     1      95.557 106.200  96.901  1.00  0.00    -0.504 OA
ATOM     47  H   UNL     1      95.967 106.748  96.156  1.00  0.00     0.293 HD
ENDBRANCH  43  46
ENDBRANCH  28  38
BRANCH  34  48
ATOM     48  O   UNL     1     100.548  98.271 102.191  1.00  0.00    -0.507 OA
ATOM     49  H   UNL     1     100.985  97.564 101.609  1.00  0.00     0.293 HD
ENDBRANCH  34  48
BRANCH  37  50
ATOM     50  O   UNL     1     103.381 102.069 103.176  1.00  0.00    -0.508 OA
ATOM     51  H   UNL     1     104.306 102.015 102.766  1.00  0.00     0.293 HD
ENDBRANCH  37  50
ENDBRANCH  26  27
ENDBRANCH   5  26
BRANCH   4  52
ATOM     52  O   UNL     1      95.214  99.580 100.968  1.00  0.00    -0.384 OA
ATOM     53  H   UNL     1      95.999  99.476 101.568  1.00  0.00     0.211 HD
ENDBRANCH   4  52
TORSDOF 16
ENDMDL
