MODEL 1
REMARK VINA RESULT:    -3.761      0.000      0.000
REMARK INTER + INTRA:          -5.268
REMARK INTER:                  -5.081
REMARK INTRA:                  -0.187
REMARK UNBOUND:                -0.187
REMARK SMILES [NH3+]CCCC[C@H]([NH3+])C(=O)[O-]
REMARK SMILES IDX 4 1 3 2 2 3 1 4 5 8 6 9 7 10 8 14 9 15 10 16
REMARK H PARENT 1 5 1 6 1 7 7 11 7 12 7 13
REMARK Flexibility Score: inf
ROOT
ATOM      1  C   UNL     1    -138.637  41.224  86.052  1.00  0.00     0.012 C 
ENDROOT
BRANCH   1   2
ATOM      2  C   UNL     1    -139.492  40.254  85.228  1.00  0.00     0.061 C 
BRANCH   2   3
ATOM      3  C   UNL     1    -140.804  40.914  84.785  1.00  0.00     0.258 C 
BRANCH   3   4
ATOM      4  N   UNL     1    -141.336  40.265  83.587  1.00  0.00    -0.358 N 
ATOM      5  H   UNL     1    -140.965  40.732  82.729  1.00  0.00     0.344 HD
ATOM      6  H   UNL     1    -142.381  40.308  83.590  1.00  0.00     0.344 HD
ATOM      7  H   UNL     1    -141.040  39.261  83.582  1.00  0.00     0.344 HD
ENDBRANCH   3   4
ENDBRANCH   2   3
ENDBRANCH   1   2
BRANCH   1   8
ATOM      8  C   UNL     1    -138.590  40.800  87.528  1.00  0.00     0.072 C 
BRANCH   8   9
ATOM      9  C   UNL     1    -139.172  41.874  88.475  1.00  0.00     0.227 C 
BRANCH   9  10
ATOM     10  N   UNL     1    -138.294  42.117  89.628  1.00  0.00    -0.350 N 
ATOM     11  H   UNL     1    -138.729  42.800  90.291  1.00  0.00     0.345 HD
ATOM     12  H   UNL     1    -137.375  42.498  89.302  1.00  0.00     0.345 HD
ATOM     13  H   UNL     1    -138.100  41.222  90.131  1.00  0.00     0.345 HD
ENDBRANCH   9  10
BRANCH   9  14
ATOM     14  C   UNL     1    -140.538  41.448  88.944  1.00  0.00     0.099 C 
ATOM     15  O   UNL     1    -141.573  41.875  88.366  1.00  0.00    -0.544 OA
ATOM     16  O   UNL     1    -140.664  40.595  90.032  1.00  0.00    -0.544 OA
ENDBRANCH   9  14
ENDBRANCH   8   9
ENDBRANCH   1   8
TORSDOF 7
ENDMDL
MODEL 2
REMARK VINA RESULT:    -3.565      2.194      2.617
REMARK INTER + INTRA:          -5.002
REMARK INTER:                  -4.531
REMARK INTRA:                  -0.471
REMARK UNBOUND:                -0.187
REMARK SMILES [NH3+]CCCC[C@H]([NH3+])C(=O)[O-]
REMARK SMILES IDX 4 1 3 2 2 3 1 4 5 8 6 9 7 10 8 14 9 15 10 16
REMARK H PARENT 1 5 1 6 1 7 7 11 7 12 7 13
REMARK Flexibility Score: inf
ROOT
ATOM      1  C   UNL     1    -138.334  40.178  88.613  1.00  0.00     0.012 C 
ENDROOT
BRANCH   1   2
ATOM      2  C   UNL     1    -137.273  40.422  87.533  1.00  0.00     0.061 C 
BRANCH   2   3
ATOM      3  C   UNL     1    -137.923  40.787  86.192  1.00  0.00     0.258 C 
BRANCH   3   4
ATOM      4  N   UNL     1    -139.166  40.044  85.995  1.00  0.00    -0.358 N 
ATOM      5  H   UNL     1    -139.347  39.421  86.815  1.00  0.00     0.344 HD
ATOM      6  H   UNL     1    -139.109  39.472  85.121  1.00  0.00     0.344 HD
ATOM      7  H   UNL     1    -139.959  40.722  85.904  1.00  0.00     0.344 HD
ENDBRANCH   3   4
ENDBRANCH   2   3
ENDBRANCH   1   2
BRANCH   1   8
ATOM      8  C   UNL     1    -138.797  41.503  89.239  1.00  0.00     0.072 C 
BRANCH   8   9
ATOM      9  C   UNL     1    -140.306  41.508  89.575  1.00  0.00     0.227 C 
BRANCH   9  10
ATOM     10  N   UNL     1    -140.824  40.146  89.773  1.00  0.00    -0.350 N 
ATOM     11  H   UNL     1    -140.220  39.444  89.286  1.00  0.00     0.345 HD
ATOM     12  H   UNL     1    -141.798  40.078  89.397  1.00  0.00     0.345 HD
ATOM     13  H   UNL     1    -140.866  39.920  90.792  1.00  0.00     0.345 HD
ENDBRANCH   9  10
BRANCH   9  14
ATOM     14  C   UNL     1    -141.067  42.199  88.475  1.00  0.00     0.099 C 
ATOM     15  O   UNL     1    -141.268  41.618  87.375  1.00  0.00    -0.544 OA
ATOM     16  O   UNL     1    -141.535  43.493  88.662  1.00  0.00    -0.544 OA
ENDBRANCH   9  14
ENDBRANCH   8   9
ENDBRANCH   1   8
TORSDOF 7
ENDMDL
MODEL 3
REMARK VINA RESULT:    -3.549      1.935      4.238
REMARK INTER + INTRA:          -4.980
REMARK INTER:                  -4.556
REMARK INTRA:                  -0.425
REMARK UNBOUND:                -0.187
REMARK SMILES [NH3+]CCCC[C@H]([NH3+])C(=O)[O-]
REMARK SMILES IDX 4 1 3 2 2 3 1 4 5 8 6 9 7 10 8 14 9 15 10 16
REMARK H PARENT 1 5 1 6 1 7 7 11 7 12 7 13
REMARK Flexibility Score: inf
ROOT
ATOM      1  C   UNL     1    -138.530  40.272  85.639  1.00  0.00     0.012 C 
ENDROOT
BRANCH   1   2
ATOM      2  C   UNL     1    -137.949  41.017  86.846  1.00  0.00     0.061 C 
BRANCH   2   3
ATOM      3  C   UNL     1    -138.243  40.268  88.153  1.00  0.00     0.258 C 
BRANCH   3   4
ATOM      4  N   UNL     1    -139.630  40.470  88.570  1.00  0.00    -0.358 N 
ATOM      5  H   UNL     1    -140.030  39.576  88.935  1.00  0.00     0.344 HD
ATOM      6  H   UNL     1    -140.202  40.811  87.763  1.00  0.00     0.344 HD
ATOM      7  H   UNL     1    -139.657  41.189  89.330  1.00  0.00     0.344 HD
ENDBRANCH   3   4
ENDBRANCH   2   3
ENDBRANCH   1   2
BRANCH   1   8
ATOM      8  C   UNL     1    -139.427  41.195  84.801  1.00  0.00     0.072 C 
BRANCH   8   9
ATOM      9  C   UNL     1    -140.807  40.569  84.494  1.00  0.00     0.227 C 
BRANCH   9  10
ATOM     10  N   UNL     1    -141.108  40.593  83.056  1.00  0.00    -0.350 N 
ATOM     11  H   UNL     1    -140.558  41.341  82.573  1.00  0.00     0.345 HD
ATOM     12  H   UNL     1    -142.129  40.772  82.909  1.00  0.00     0.345 HD
ATOM     13  H   UNL     1    -140.887  39.668  82.625  1.00  0.00     0.345 HD
ENDBRANCH   9  10
BRANCH   9  14
ATOM     14  C   UNL     1    -141.876  41.299  85.262  1.00  0.00     0.099 C 
ATOM     15  O   UNL     1    -142.978  41.576  84.716  1.00  0.00    -0.544 OA
ATOM     16  O   UNL     1    -141.645  41.691  86.574  1.00  0.00    -0.544 OA
ENDBRANCH   9  14
ENDBRANCH   8   9
ENDBRANCH   1   8
TORSDOF 7
ENDMDL
MODEL 4
REMARK VINA RESULT:    -3.548      2.078      4.244
REMARK INTER + INTRA:          -4.979
REMARK INTER:                  -4.475
REMARK INTRA:                  -0.504
REMARK UNBOUND:                -0.187
REMARK SMILES [NH3+]CCCC[C@H]([NH3+])C(=O)[O-]
REMARK SMILES IDX 4 1 3 2 2 3 1 4 5 8 6 9 7 10 8 14 9 15 10 16
REMARK H PARENT 1 5 1 6 1 7 7 11 7 12 7 13
REMARK Flexibility Score: inf
ROOT
ATOM      1  C   UNL     1    -137.225  40.736  87.804  1.00  0.00     0.012 C 
ENDROOT
BRANCH   1   2
ATOM      2  C   UNL     1    -138.158  39.984  88.760  1.00  0.00     0.061 C 
BRANCH   2   3
ATOM      3  C   UNL     1    -138.835  40.947  89.744  1.00  0.00     0.258 C 
BRANCH   3   4
ATOM      4  N   UNL     1    -138.270  42.291  89.630  1.00  0.00    -0.358 N 
ATOM      5  H   UNL     1    -137.783  42.401  88.712  1.00  0.00     0.344 HD
ATOM      6  H   UNL     1    -137.598  42.466  90.412  1.00  0.00     0.344 HD
ATOM      7  H   UNL     1    -139.045  42.993  89.688  1.00  0.00     0.344 HD
ENDBRANCH   3   4
ENDBRANCH   2   3
ENDBRANCH   1   2
BRANCH   1   8
ATOM      8  C   UNL     1    -137.669  40.556  86.344  1.00  0.00     0.072 C 
BRANCH   8   9
ATOM      9  C   UNL     1    -139.194  40.724  86.160  1.00  0.00     0.227 C 
BRANCH   9  10
ATOM     10  N   UNL     1    -139.708  39.877  85.075  1.00  0.00    -0.350 N 
ATOM     11  H   UNL     1    -139.248  38.938  85.086  1.00  0.00     0.345 HD
ATOM     12  H   UNL     1    -139.529  40.334  84.151  1.00  0.00     0.345 HD
ATOM     13  H   UNL     1    -140.742  39.757  85.169  1.00  0.00     0.345 HD
ENDBRANCH   9  10
BRANCH   9  14
ATOM     14  C   UNL     1    -139.515  42.169  85.887  1.00  0.00     0.099 C 
ATOM     15  O   UNL     1    -139.623  42.587  84.703  1.00  0.00    -0.544 OA
ATOM     16  O   UNL     1    -139.673  43.057  86.943  1.00  0.00    -0.544 OA
ENDBRANCH   9  14
ENDBRANCH   8   9
ENDBRANCH   1   8
TORSDOF 7
ENDMDL
MODEL 5
REMARK VINA RESULT:    -3.479      2.649      4.390
REMARK INTER + INTRA:          -4.886
REMARK INTER:                  -4.717
REMARK INTRA:                  -0.169
REMARK UNBOUND:                -0.187
REMARK SMILES [NH3+]CCCC[C@H]([NH3+])C(=O)[O-]
REMARK SMILES IDX 4 1 3 2 2 3 1 4 5 8 6 9 7 10 8 14 9 15 10 16
REMARK H PARENT 1 5 1 6 1 7 7 11 7 12 7 13
REMARK Flexibility Score: inf
ROOT
ATOM      1  C   UNL     1    -137.981  40.886  87.298  1.00  0.00     0.012 C 
ENDROOT
BRANCH   1   2
ATOM      2  C   UNL     1    -138.033  40.001  88.549  1.00  0.00     0.061 C 
BRANCH   2   3
ATOM      3  C   UNL     1    -138.667  40.749  89.729  1.00  0.00     0.258 C 
BRANCH   3   4
ATOM      4  N   UNL     1    -138.306  42.166  89.704  1.00  0.00    -0.358 N 
ATOM      5  H   UNL     1    -139.154  42.751  89.526  1.00  0.00     0.344 HD
ATOM      6  H   UNL     1    -137.592  42.342  88.960  1.00  0.00     0.344 HD
ATOM      7  H   UNL     1    -137.900  42.432  90.631  1.00  0.00     0.344 HD
ENDBRANCH   3   4
ENDBRANCH   2   3
ENDBRANCH   1   2
BRANCH   1   8
ATOM      8  C   UNL     1    -138.924  40.356  86.208  1.00  0.00     0.072 C 
BRANCH   8   9
ATOM      9  C   UNL     1    -140.154  41.267  85.989  1.00  0.00     0.227 C 
BRANCH   9  10
ATOM     10  N   UNL     1    -141.041  41.275  87.160  1.00  0.00    -0.350 N 
ATOM     11  H   UNL     1    -142.041  41.163  86.871  1.00  0.00     0.345 HD
ATOM     12  H   UNL     1    -140.936  42.177  87.681  1.00  0.00     0.345 HD
ATOM     13  H   UNL     1    -140.782  40.504  87.815  1.00  0.00     0.345 HD
ENDBRANCH   9  10
BRANCH   9  14
ATOM     14  C   UNL     1    -140.909  40.813  84.768  1.00  0.00     0.099 C 
ATOM     15  O   UNL     1    -140.298  40.291  83.797  1.00  0.00    -0.544 OA
ATOM     16  O   UNL     1    -142.285  40.986  84.699  1.00  0.00    -0.544 OA
ENDBRANCH   9  14
ENDBRANCH   8   9
ENDBRANCH   1   8
TORSDOF 7
ENDMDL
MODEL 6
REMARK VINA RESULT:    -3.407      3.203      5.360
REMARK INTER + INTRA:          -4.790
REMARK INTER:                  -4.696
REMARK INTRA:                  -0.093
REMARK UNBOUND:                -0.187
REMARK SMILES [NH3+]CCCC[C@H]([NH3+])C(=O)[O-]
REMARK SMILES IDX 4 1 3 2 2 3 1 4 5 8 6 9 7 10 8 14 9 15 10 16
REMARK H PARENT 1 5 1 6 1 7 7 11 7 12 7 13
REMARK Flexibility Score: inf
ROOT
ATOM      1  C   UNL     1    -139.470  40.966  86.440  1.00  0.00     0.012 C 
ENDROOT
BRANCH   1   2
ATOM      2  C   UNL     1    -138.263  40.394  87.193  1.00  0.00     0.061 C 
BRANCH   2   3
ATOM      3  C   UNL     1    -138.549  40.288  88.696  1.00  0.00     0.258 C 
BRANCH   3   4
ATOM      4  N   UNL     1    -137.352  39.875  89.428  1.00  0.00    -0.358 N 
ATOM      5  H   UNL     1    -136.708  40.690  89.553  1.00  0.00     0.344 HD
ATOM      6  H   UNL     1    -136.859  39.111  88.910  1.00  0.00     0.344 HD
ATOM      7  H   UNL     1    -137.633  39.518  90.370  1.00  0.00     0.344 HD
ENDBRANCH   3   4
ENDBRANCH   2   3
ENDBRANCH   1   2
BRANCH   1   8
ATOM      8  C   UNL     1    -139.576  40.364  85.031  1.00  0.00     0.072 C 
BRANCH   8   9
ATOM      9  C   UNL     1    -140.680  41.032  84.179  1.00  0.00     0.227 C 
BRANCH   9  10
ATOM     10  N   UNL     1    -141.622  40.042  83.636  1.00  0.00    -0.350 N 
ATOM     11  H   UNL     1    -142.531  40.070  84.154  1.00  0.00     0.345 HD
ATOM     12  H   UNL     1    -141.214  39.081  83.715  1.00  0.00     0.345 HD
ATOM     13  H   UNL     1    -141.795  40.226  82.622  1.00  0.00     0.345 HD
ENDBRANCH   9  10
BRANCH   9  14
ATOM     14  C   UNL     1    -140.051  41.818  83.061  1.00  0.00     0.099 C 
ATOM     15  O   UNL     1    -140.601  41.870  81.928  1.00  0.00    -0.544 OA
ATOM     16  O   UNL     1    -138.846  42.476  83.267  1.00  0.00    -0.544 OA
ENDBRANCH   9  14
ENDBRANCH   8   9
ENDBRANCH   1   8
TORSDOF 7
ENDMDL
MODEL 7
REMARK VINA RESULT:    -3.355      1.601      3.712
REMARK INTER + INTRA:          -4.719
REMARK INTER:                  -4.205
REMARK INTRA:                  -0.514
REMARK UNBOUND:                -0.187
REMARK SMILES [NH3+]CCCC[C@H]([NH3+])C(=O)[O-]
REMARK SMILES IDX 4 1 3 2 2 3 1 4 5 8 6 9 7 10 8 14 9 15 10 16
REMARK H PARENT 1 5 1 6 1 7 7 11 7 12 7 13
REMARK Flexibility Score: inf
ROOT
ATOM      1  C   UNL     1    -138.820  40.750  86.466  1.00  0.00     0.012 C 
ENDROOT
BRANCH   1   2
ATOM      2  C   UNL     1    -138.034  40.621  87.775  1.00  0.00     0.061 C 
BRANCH   2   3
ATOM      3  C   UNL     1    -137.672  42.001  88.341  1.00  0.00     0.258 C 
BRANCH   3   4
ATOM      4  N   UNL     1    -138.158  42.147  89.712  1.00  0.00    -0.358 N 
ATOM      5  H   UNL     1    -139.185  42.344  89.711  1.00  0.00     0.344 HD
ATOM      6  H   UNL     1    -137.649  42.924  90.193  1.00  0.00     0.344 HD
ATOM      7  H   UNL     1    -137.985  41.257  90.233  1.00  0.00     0.344 HD
ENDBRANCH   3   4
ENDBRANCH   2   3
ENDBRANCH   1   2
BRANCH   1   8
ATOM      8  C   UNL     1    -139.713  42.000  86.480  1.00  0.00     0.072 C 
BRANCH   8   9
ATOM      9  C   UNL     1    -141.178  41.683  86.861  1.00  0.00     0.227 C 
BRANCH   9  10
ATOM     10  N   UNL     1    -142.130  42.309  85.932  1.00  0.00    -0.350 N 
ATOM     11  H   UNL     1    -143.115  42.135  86.237  1.00  0.00     0.345 HD
ATOM     12  H   UNL     1    -141.996  41.921  84.970  1.00  0.00     0.345 HD
ATOM     13  H   UNL     1    -141.959  43.339  85.881  1.00  0.00     0.345 HD
ENDBRANCH   9  10
BRANCH   9  14
ATOM     14  C   UNL     1    -141.446  42.143  88.269  1.00  0.00     0.099 C 
ATOM     15  O   UNL     1    -141.140  41.411  89.249  1.00  0.00    -0.544 OA
ATOM     16  O   UNL     1    -142.052  43.371  88.494  1.00  0.00    -0.544 OA
ENDBRANCH   9  14
ENDBRANCH   8   9
ENDBRANCH   1   8
TORSDOF 7
ENDMDL
MODEL 8
REMARK VINA RESULT:    -3.236      1.866      2.202
REMARK INTER + INTRA:          -4.558
REMARK INTER:                  -4.380
REMARK INTRA:                  -0.178
REMARK UNBOUND:                -0.187
REMARK SMILES [NH3+]CCCC[C@H]([NH3+])C(=O)[O-]
REMARK SMILES IDX 4 1 3 2 2 3 1 4 5 8 6 9 7 10 8 14 9 15 10 16
REMARK H PARENT 1 5 1 6 1 7 7 11 7 12 7 13
REMARK Flexibility Score: inf
ROOT
ATOM      1  C   UNL     1    -138.479  40.860  85.653  1.00  0.00     0.012 C 
ENDROOT
BRANCH   1   2
ATOM      2  C   UNL     1    -139.543  40.016  84.943  1.00  0.00     0.061 C 
BRANCH   2   3
ATOM      3  C   UNL     1    -140.795  40.848  84.635  1.00  0.00     0.258 C 
BRANCH   3   4
ATOM      4  N   UNL     1    -141.565  40.250  83.546  1.00  0.00    -0.358 N 
ATOM      5  H   UNL     1    -141.052  39.431  83.149  1.00  0.00     0.344 HD
ATOM      6  H   UNL     1    -141.737  40.959  82.796  1.00  0.00     0.344 HD
ATOM      7  H   UNL     1    -142.487  39.924  83.919  1.00  0.00     0.344 HD
ENDBRANCH   3   4
ENDBRANCH   2   3
ENDBRANCH   1   2
BRANCH   1   8
ATOM      8  C   UNL     1    -138.267  40.379  87.097  1.00  0.00     0.072 C 
BRANCH   8   9
ATOM      9  C   UNL     1    -138.979  41.277  88.135  1.00  0.00     0.227 C 
BRANCH   9  10
ATOM     10  N   UNL     1    -140.399  40.926  88.275  1.00  0.00    -0.350 N 
ATOM     11  H   UNL     1    -140.938  41.207  87.423  1.00  0.00     0.345 HD
ATOM     12  H   UNL     1    -140.805  41.409  89.110  1.00  0.00     0.345 HD
ATOM     13  H   UNL     1    -140.504  39.898  88.427  1.00  0.00     0.345 HD
ENDBRANCH   9  10
BRANCH   9  14
ATOM     14  C   UNL     1    -138.838  42.722  87.736  1.00  0.00     0.099 C 
ATOM     15  O   UNL     1    -137.729  43.311  87.851  1.00  0.00    -0.544 OA
ATOM     16  O   UNL     1    -139.938  43.420  87.257  1.00  0.00    -0.544 OA
ENDBRANCH   9  14
ENDBRANCH   8   9
ENDBRANCH   1   8
TORSDOF 7
ENDMDL
