MODEL 1
REMARK VINA RESULT:    -5.220      0.000      0.000
REMARK INTER + INTRA:          -5.870
REMARK INTER:                  -5.830
REMARK INTRA:                  -0.040
REMARK UNBOUND:                -0.040
REMARK SMILES O=C([O-])c1ccc(O)c(O)c1
REMARK SMILES IDX 4 1 11 2 5 3 9 4 6 5 7 6 2 7 1 8 3 9 10 10 8 12
REMARK H PARENT 10 11 8 13
REMARK Flexibility Score: inf
ROOT
ATOM      1  C   UNL     1      21.049  -6.268  17.886  1.00  0.00     0.001 A 
ATOM      2  C   UNL     1      21.854  -7.305  17.382  1.00  0.00     0.060 A 
ATOM      3  C   UNL     1      19.700  -6.198  17.495  1.00  0.00     0.014 A 
ATOM      4  C   UNL     1      21.324  -8.257  16.503  1.00  0.00     0.158 A 
ATOM      5  C   UNL     1      19.169  -7.147  16.617  1.00  0.00     0.051 A 
ATOM      6  C   UNL     1      19.975  -8.178  16.117  1.00  0.00     0.157 A 
ENDROOT
BRANCH   1   7
ATOM      7  C   UNL     1      21.616  -5.267  18.816  1.00  0.00     0.072 C 
ATOM      8  O   UNL     1      22.353  -5.626  19.774  1.00  0.00    -0.545 OA
ATOM      9  O   UNL     1      21.344  -3.914  18.647  1.00  0.00    -0.545 OA
ENDBRANCH   1   7
BRANCH   4  10
ATOM     10  O   UNL     1      22.152  -9.271  16.023  1.00  0.00    -0.504 OA
ATOM     11  H   UNL     1      22.135  -9.567  15.054  1.00  0.00     0.293 HD
ENDBRANCH   4  10
BRANCH   6  12
ATOM     12  O   UNL     1      19.442  -9.123  15.241  1.00  0.00    -0.504 OA
ATOM     13  H   UNL     1      20.025  -9.616  14.574  1.00  0.00     0.293 HD
ENDBRANCH   6  12
TORSDOF 3
ENDMDL
MODEL 2
REMARK VINA RESULT:    -4.999      1.480      2.331
REMARK INTER + INTRA:          -5.623
REMARK INTER:                  -5.579
REMARK INTRA:                  -0.044
REMARK UNBOUND:                -0.040
REMARK SMILES O=C([O-])c1ccc(O)c(O)c1
REMARK SMILES IDX 4 1 11 2 5 3 9 4 6 5 7 6 2 7 1 8 3 9 10 10 8 12
REMARK H PARENT 10 11 8 13
REMARK Flexibility Score: inf
ROOT
ATOM      1  C   UNL     1      21.736  -5.685  18.340  1.00  0.00     0.001 A 
ATOM      2  C   UNL     1      21.342  -5.662  16.991  1.00  0.00     0.060 A 
ATOM      3  C   UNL     1      22.194  -6.892  18.897  1.00  0.00     0.014 A 
ATOM      4  C   UNL     1      21.402  -6.822  16.210  1.00  0.00     0.158 A 
ATOM      5  C   UNL     1      22.254  -8.052  18.120  1.00  0.00     0.051 A 
ATOM      6  C   UNL     1      21.860  -8.024  16.776  1.00  0.00     0.157 A 
ENDROOT
BRANCH   1   7
ATOM      7  C   UNL     1      21.671  -4.454  19.158  1.00  0.00     0.072 C 
ATOM      8  O   UNL     1      21.129  -3.410  18.705  1.00  0.00    -0.545 OA
ATOM      9  O   UNL     1      22.209  -4.431  20.440  1.00  0.00    -0.545 OA
ENDBRANCH   1   7
BRANCH   4  10
ATOM     10  O   UNL     1      21.002  -6.762  14.875  1.00  0.00    -0.504 OA
ATOM     11  H   UNL     1      21.161  -5.943  14.301  1.00  0.00     0.293 HD
ENDBRANCH   4  10
BRANCH   6  12
ATOM     12  O   UNL     1      21.921  -9.182  16.003  1.00  0.00    -0.504 OA
ATOM     13  H   UNL     1      21.538 -10.061  16.333  1.00  0.00     0.293 HD
ENDBRANCH   6  12
TORSDOF 3
ENDMDL
MODEL 3
REMARK VINA RESULT:    -4.998      1.915      2.253
REMARK INTER + INTRA:          -5.622
REMARK INTER:                  -5.581
REMARK INTRA:                  -0.042
REMARK UNBOUND:                -0.040
REMARK SMILES O=C([O-])c1ccc(O)c(O)c1
REMARK SMILES IDX 4 1 11 2 5 3 9 4 6 5 7 6 2 7 1 8 3 9 10 10 8 12
REMARK H PARENT 10 11 8 13
REMARK Flexibility Score: inf
ROOT
ATOM      1  C   UNL     1      21.972  -5.206  19.296  1.00  0.00     0.001 A 
ATOM      2  C   UNL     1      22.336  -6.562  19.218  1.00  0.00     0.060 A 
ATOM      3  C   UNL     1      21.397  -4.588  18.172  1.00  0.00     0.014 A 
ATOM      4  C   UNL     1      22.130  -7.289  18.041  1.00  0.00     0.158 A 
ATOM      5  C   UNL     1      21.191  -5.312  16.995  1.00  0.00     0.051 A 
ATOM      6  C   UNL     1      21.555  -6.662  16.922  1.00  0.00     0.157 A 
ENDROOT
BRANCH   1   7
ATOM      7  C   UNL     1      22.192  -4.444  20.545  1.00  0.00     0.072 C 
ATOM      8  O   UNL     1      22.122  -5.016  21.666  1.00  0.00    -0.545 OA
ATOM      9  O   UNL     1      22.476  -3.084  20.500  1.00  0.00    -0.545 OA
ENDBRANCH   1   7
BRANCH   4  10
ATOM     10  O   UNL     1      22.504  -8.632  18.000  1.00  0.00    -0.504 OA
ATOM     11  H   UNL     1      23.463  -8.920  17.848  1.00  0.00     0.293 HD
ENDBRANCH   4  10
BRANCH   6  12
ATOM     12  O   UNL     1      21.349  -7.383  15.746  1.00  0.00    -0.504 OA
ATOM     13  H   UNL     1      21.832  -7.145  14.887  1.00  0.00     0.293 HD
ENDBRANCH   6  12
TORSDOF 3
ENDMDL
MODEL 4
REMARK VINA RESULT:    -4.863     18.696     19.188
REMARK INTER + INTRA:          -5.471
REMARK INTER:                  -5.433
REMARK INTRA:                  -0.038
REMARK UNBOUND:                -0.040
REMARK SMILES O=C([O-])c1ccc(O)c(O)c1
REMARK SMILES IDX 4 1 11 2 5 3 9 4 6 5 7 6 2 7 1 8 3 9 10 10 8 12
REMARK H PARENT 10 11 8 13
REMARK Flexibility Score: inf
ROOT
ATOM      1  C   UNL     1      20.176   7.990  29.337  1.00  0.00     0.001 A 
ATOM      2  C   UNL     1      21.552   7.701  29.322  1.00  0.00     0.060 A 
ATOM      3  C   UNL     1      19.615   8.694  28.256  1.00  0.00     0.014 A 
ATOM      4  C   UNL     1      22.355   8.106  28.250  1.00  0.00     0.158 A 
ATOM      5  C   UNL     1      20.415   9.099  27.185  1.00  0.00     0.051 A 
ATOM      6  C   UNL     1      21.785   8.809  27.175  1.00  0.00     0.157 A 
ENDROOT
BRANCH   1   7
ATOM      7  C   UNL     1      19.334   7.558  30.473  1.00  0.00     0.072 C 
ATOM      8  O   UNL     1      18.326   6.825  30.282  1.00  0.00    -0.545 OA
ATOM      9  O   UNL     1      19.641   7.955  31.769  1.00  0.00    -0.545 OA
ENDBRANCH   1   7
BRANCH   4  10
ATOM     10  O   UNL     1      23.716   7.802  28.270  1.00  0.00    -0.504 OA
ATOM     11  H   UNL     1      24.429   8.521  28.284  1.00  0.00     0.293 HD
ENDBRANCH   4  10
BRANCH   6  12
ATOM     12  O   UNL     1      22.581   9.215  26.105  1.00  0.00    -0.504 OA
ATOM     13  H   UNL     1      22.419   8.872  25.164  1.00  0.00     0.293 HD
ENDBRANCH   6  12
TORSDOF 3
ENDMDL
MODEL 5
REMARK VINA RESULT:    -4.792      2.077      4.938
REMARK INTER + INTRA:          -5.392
REMARK INTER:                  -5.349
REMARK INTRA:                  -0.043
REMARK UNBOUND:                -0.040
REMARK SMILES O=C([O-])c1ccc(O)c(O)c1
REMARK SMILES IDX 4 1 11 2 5 3 9 4 6 5 7 6 2 7 1 8 3 9 10 10 8 12
REMARK H PARENT 10 11 8 13
REMARK Flexibility Score: inf
ROOT
ATOM      1  C   UNL     1      21.769  -6.012  18.486  1.00  0.00     0.001 A 
ATOM      2  C   UNL     1      22.143  -5.794  19.823  1.00  0.00     0.060 A 
ATOM      3  C   UNL     1      21.407  -4.911  17.690  1.00  0.00     0.014 A 
ATOM      4  C   UNL     1      22.157  -4.501  20.359  1.00  0.00     0.158 A 
ATOM      5  C   UNL     1      21.420  -3.619  18.222  1.00  0.00     0.051 A 
ATOM      6  C   UNL     1      21.793  -3.407  19.556  1.00  0.00     0.157 A 
ENDROOT
BRANCH   1   7
ATOM      7  C   UNL     1      21.758  -7.382  17.927  1.00  0.00     0.072 C 
ATOM      8  O   UNL     1      22.463  -8.291  18.442  1.00  0.00    -0.545 OA
ATOM      9  O   UNL     1      20.969  -7.686  16.823  1.00  0.00    -0.545 OA
ENDBRANCH   1   7
BRANCH   4  10
ATOM     10  O   UNL     1      22.533  -4.323  21.690  1.00  0.00    -0.504 OA
ATOM     11  H   UNL     1      23.161  -3.583  21.978  1.00  0.00     0.293 HD
ENDBRANCH   4  10
BRANCH   6  12
ATOM     12  O   UNL     1      21.805  -2.117  20.084  1.00  0.00    -0.504 OA
ATOM     13  H   UNL     1      22.672  -1.653  20.330  1.00  0.00     0.293 HD
ENDBRANCH   6  12
TORSDOF 3
ENDMDL
MODEL 6
REMARK VINA RESULT:    -4.767     18.494     19.560
REMARK INTER + INTRA:          -5.364
REMARK INTER:                  -5.320
REMARK INTRA:                  -0.044
REMARK UNBOUND:                -0.040
REMARK SMILES O=C([O-])c1ccc(O)c(O)c1
REMARK SMILES IDX 4 1 11 2 5 3 9 4 6 5 7 6 2 7 1 8 3 9 10 10 8 12
REMARK H PARENT 10 11 8 13
REMARK Flexibility Score: inf
ROOT
ATOM      1  C   UNL     1      20.509   8.377  29.716  1.00  0.00     0.001 A 
ATOM      2  C   UNL     1      19.827   8.378  28.487  1.00  0.00     0.060 A 
ATOM      3  C   UNL     1      21.882   8.679  29.736  1.00  0.00     0.014 A 
ATOM      4  C   UNL     1      20.502   8.675  27.297  1.00  0.00     0.158 A 
ATOM      5  C   UNL     1      22.558   8.976  28.550  1.00  0.00     0.051 A 
ATOM      6  C   UNL     1      21.875   8.974  27.327  1.00  0.00     0.157 A 
ENDROOT
BRANCH   1   7
ATOM      7  C   UNL     1      19.788   8.064  30.970  1.00  0.00     0.072 C 
ATOM      8  O   UNL     1      20.370   8.153  32.084  1.00  0.00    -0.545 OA
ATOM      9  O   UNL     1      18.456   7.665  30.936  1.00  0.00    -0.545 OA
ENDBRANCH   1   7
BRANCH   4  10
ATOM     10  O   UNL     1      19.794   8.665  26.096  1.00  0.00    -0.504 OA
ATOM     11  H   UNL     1      18.801   8.861  26.054  1.00  0.00     0.293 HD
ENDBRANCH   4  10
BRANCH   6  12
ATOM     12  O   UNL     1      22.552   9.270  26.145  1.00  0.00    -0.504 OA
ATOM     13  H   UNL     1      23.549   9.114  26.052  1.00  0.00     0.293 HD
ENDBRANCH   6  12
TORSDOF 3
ENDMDL
MODEL 7
REMARK VINA RESULT:    -4.756      1.747      4.942
REMARK INTER + INTRA:          -5.352
REMARK INTER:                  -5.316
REMARK INTRA:                  -0.036
REMARK UNBOUND:                -0.040
REMARK SMILES O=C([O-])c1ccc(O)c(O)c1
REMARK SMILES IDX 4 1 11 2 5 3 9 4 6 5 7 6 2 7 1 8 3 9 10 10 8 12
REMARK H PARENT 10 11 8 13
REMARK Flexibility Score: inf
ROOT
ATOM      1  C   UNL     1      21.807  -6.292  17.837  1.00  0.00     0.001 A 
ATOM      2  C   UNL     1      21.264  -4.998  17.757  1.00  0.00     0.060 A 
ATOM      3  C   UNL     1      22.437  -6.696  19.027  1.00  0.00     0.014 A 
ATOM      4  C   UNL     1      21.346  -4.121  18.845  1.00  0.00     0.158 A 
ATOM      5  C   UNL     1      22.520  -5.823  20.115  1.00  0.00     0.051 A 
ATOM      6  C   UNL     1      21.978  -4.534  20.030  1.00  0.00     0.157 A 
ENDROOT
BRANCH   1   7
ATOM      7  C   UNL     1      21.715  -7.214  16.683  1.00  0.00     0.072 C 
ATOM      8  O   UNL     1      22.474  -7.072  15.687  1.00  0.00    -0.545 OA
ATOM      9  O   UNL     1      20.787  -8.249  16.680  1.00  0.00    -0.545 OA
ENDBRANCH   1   7
BRANCH   4  10
ATOM     10  O   UNL     1      20.797  -2.845  18.729  1.00  0.00    -0.504 OA
ATOM     11  H   UNL     1      21.327  -2.008  18.940  1.00  0.00     0.293 HD
ENDBRANCH   4  10
BRANCH   6  12
ATOM     12  O   UNL     1      22.063  -3.664  21.117  1.00  0.00    -0.504 OA
ATOM     13  H   UNL     1      21.378  -3.681  21.864  1.00  0.00     0.293 HD
ENDBRANCH   6  12
TORSDOF 3
ENDMDL
MODEL 8
REMARK VINA RESULT:    -4.710      1.683      2.143
REMARK INTER + INTRA:          -5.300
REMARK INTER:                  -5.260
REMARK INTRA:                  -0.040
REMARK UNBOUND:                -0.040
REMARK SMILES O=C([O-])c1ccc(O)c(O)c1
REMARK SMILES IDX 4 1 11 2 5 3 9 4 6 5 7 6 2 7 1 8 3 9 10 10 8 12
REMARK H PARENT 10 11 8 13
REMARK Flexibility Score: inf
ROOT
ATOM      1  C   UNL     1      21.603  -5.320  17.138  1.00  0.00     0.001 A 
ATOM      2  C   UNL     1      21.953  -6.310  18.073  1.00  0.00     0.060 A 
ATOM      3  C   UNL     1      21.329  -5.700  15.812  1.00  0.00     0.014 A 
ATOM      4  C   UNL     1      22.030  -7.655  17.693  1.00  0.00     0.158 A 
ATOM      5  C   UNL     1      21.405  -7.042  15.431  1.00  0.00     0.051 A 
ATOM      6  C   UNL     1      21.755  -8.025  16.366  1.00  0.00     0.157 A 
ENDROOT
BRANCH   1   7
ATOM      7  C   UNL     1      21.523  -3.901  17.547  1.00  0.00     0.072 C 
ATOM      8  O   UNL     1      21.019  -3.580  18.657  1.00  0.00    -0.545 OA
ATOM      9  O   UNL     1      22.002  -2.899  16.711  1.00  0.00    -0.545 OA
ENDBRANCH   1   7
BRANCH   4  10
ATOM     10  O   UNL     1      22.381  -8.609  18.648  1.00  0.00    -0.504 OA
ATOM     11  H   UNL     1      23.346  -8.820  18.869  1.00  0.00     0.293 HD
ENDBRANCH   4  10
BRANCH   6  12
ATOM     12  O   UNL     1      21.830  -9.363  15.983  1.00  0.00    -0.504 OA
ATOM     13  H   UNL     1      21.047  -9.833  15.542  1.00  0.00     0.293 HD
ENDBRANCH   6  12
TORSDOF 3
ENDMDL
MODEL 9
REMARK VINA RESULT:    -4.664     18.430     19.723
REMARK INTER + INTRA:          -5.249
REMARK INTER:                  -5.205
REMARK INTRA:                  -0.044
REMARK UNBOUND:                -0.040
REMARK SMILES O=C([O-])c1ccc(O)c(O)c1
REMARK SMILES IDX 4 1 11 2 5 3 9 4 6 5 7 6 2 7 1 8 3 9 10 10 8 12
REMARK H PARENT 10 11 8 13
REMARK Flexibility Score: inf
ROOT
ATOM      1  C   UNL     1      21.545   9.017  29.698  1.00  0.00     0.001 A 
ATOM      2  C   UNL     1      22.304   9.147  28.521  1.00  0.00     0.060 A 
ATOM      3  C   UNL     1      20.171   8.739  29.596  1.00  0.00     0.014 A 
ATOM      4  C   UNL     1      21.704   9.003  27.265  1.00  0.00     0.158 A 
ATOM      5  C   UNL     1      19.569   8.595  28.344  1.00  0.00     0.051 A 
ATOM      6  C   UNL     1      20.329   8.727  27.174  1.00  0.00     0.157 A 
ENDROOT
BRANCH   1   7
ATOM      7  C   UNL     1      22.187   9.169  31.022  1.00  0.00     0.072 C 
ATOM      8  O   UNL     1      23.439   9.281  31.119  1.00  0.00    -0.545 OA
ATOM      9  O   UNL     1      21.419   9.189  32.180  1.00  0.00    -0.545 OA
ENDBRANCH   1   7
BRANCH   4  10
ATOM     10  O   UNL     1      22.488   9.140  26.120  1.00  0.00    -0.504 OA
ATOM     11  H   UNL     1      23.121   8.413  25.811  1.00  0.00     0.293 HD
ENDBRANCH   4  10
BRANCH   6  12
ATOM     12  O   UNL     1      19.726   8.583  25.925  1.00  0.00    -0.504 OA
ATOM     13  H   UNL     1      19.321   9.374  25.438  1.00  0.00     0.293 HD
ENDBRANCH   6  12
TORSDOF 3
ENDMDL
