MODEL 1
REMARK VINA RESULT:    -4.140      0.000      0.000
REMARK INTER + INTRA:          -6.472
REMARK INTER:                  -6.319
REMARK INTRA:                  -0.153
REMARK UNBOUND:                -0.153
REMARK SMILES CC1=CCC[C@@H](C)C(=O)C[C@H](C(C)C)C(=O)C1
REMARK SMILES IDX 8 1 9 2 6 3 7 4 5 5 4 6 3 7 2 8 1 9 10 11 11 12 15 13 16 14
REMARK SMILES IDX 17 15 12 17 13 18 14 19
REMARK H PARENT
REMARK Flexibility Score: 70.00
ROOT
ATOM      1  C   UNL     1      -7.915 -21.505 -18.430  1.00  0.00     0.136 C 
ATOM      2  O   UNL     1      -8.753 -22.058 -19.129  1.00  0.00    -0.299 OA
ENDROOT
BRANCH   1   3
ATOM      3  C   UNL     1      -7.219 -20.240 -18.966  1.00  0.00     0.053 C 
ATOM      4  C   UNL     1      -8.015 -19.716 -20.168  1.00  0.00     0.016 C 
BRANCH   3   5
ATOM      5  C   UNL     1      -5.695 -20.451 -19.352  1.00  0.00     0.015 C 
BRANCH   5   6
ATOM      6  C   UNL     1      -4.658 -20.224 -18.193  1.00  0.00     0.028 C 
BRANCH   6   7
ATOM      7  C   UNL     1      -3.569 -21.298 -17.994  1.00  0.00    -0.028 C 
ATOM      8  C   UNL     1      -3.585 -22.237 -17.009  1.00  0.00    -0.070 CG0
ATOM      9  C   UNL     1      -2.450 -23.213 -16.866  1.00  0.00     0.039 C 
ATOM     10  G   UNL     1      -4.876 -22.411 -16.292  1.00  0.00     0.000 G0
ENDBRANCH   6   7
ENDBRANCH   5   6
ENDBRANCH   3   5
ENDBRANCH   1   3
BRANCH   1  11
ATOM     11  C   UNL     1      -7.623 -22.088 -17.036  1.00  0.00     0.087 C 
BRANCH  11  12
ATOM     12  C   UNL     1      -7.043 -23.567 -17.023  1.00  0.00     0.066 C 
BRANCH  12  13
ATOM     13  C   UNL     1      -5.716 -23.644 -16.235  1.00  0.00     0.140 C 
ATOM     14  O   UNL     1      -5.430 -24.578 -15.500  1.00  0.00    -0.299 OA
BRANCH  13  15
ATOM     15  C   UNL     1      -4.867 -22.436 -16.294  1.00  0.00     0.106 CG0
ATOM     16  G   UNL     1      -3.583 -22.222 -17.014  1.00  0.00     0.000 G0
ENDBRANCH  13  15
ENDBRANCH  12  13
BRANCH  12  17
ATOM     17  C   UNL     1      -8.067 -24.641 -16.507  1.00  0.00    -0.006 C 
ATOM     18  C   UNL     1      -9.435 -24.063 -16.100  1.00  0.00     0.008 C 
ATOM     19  C   UNL     1      -8.307 -25.728 -17.575  1.00  0.00     0.008 C 
ENDBRANCH  12  17
ENDBRANCH  11  12
ENDBRANCH   1  11
TORSDOF 1
ENDMDL
MODEL 2
REMARK VINA RESULT:    -4.027      4.260      6.905
REMARK INTER + INTRA:          -6.298
REMARK INTER:                  -6.249
REMARK INTRA:                  -0.049
REMARK UNBOUND:                -0.153
REMARK SMILES CC1=CCC[C@@H](C)C(=O)C[C@H](C(C)C)C(=O)C1
REMARK SMILES IDX 8 1 9 2 6 3 7 4 5 5 4 6 3 7 2 8 1 9 10 11 11 12 15 13 16 14
REMARK SMILES IDX 17 15 12 17 13 18 14 19
REMARK H PARENT
REMARK Flexibility Score: 70.00
ROOT
ATOM      1  C   UNL     1      -7.776 -28.960 -19.461  1.00  0.00     0.136 C 
ATOM      2  O   UNL     1      -7.435 -28.943 -20.636  1.00  0.00    -0.299 OA
ENDROOT
BRANCH   1   3
ATOM      3  C   UNL     1      -9.079 -29.685 -19.076  1.00  0.00     0.053 C 
ATOM      4  C   UNL     1      -9.786 -30.133 -20.362  1.00  0.00     0.016 C 
BRANCH   3   5
ATOM      5  C   UNL     1     -10.056 -28.826 -18.170  1.00  0.00     0.015 C 
BRANCH   5   6
ATOM      6  C   UNL     1     -10.301 -27.346 -18.639  1.00  0.00     0.028 C 
BRANCH   6   7
ATOM      7  C   UNL     1     -10.351 -26.255 -17.550  1.00  0.00    -0.028 C 
ATOM      8  C   UNL     1      -9.313 -25.434 -17.235  1.00  0.00    -0.070 CG0
ATOM      9  C   UNL     1      -9.442 -24.433 -16.121  1.00  0.00     0.039 C 
ATOM     10  G   UNL     1      -8.190 -25.397 -18.208  1.00  0.00     0.000 G0
ENDBRANCH   6   7
ENDBRANCH   5   6
ENDBRANCH   3   5
ENDBRANCH   1   3
BRANCH   1  11
ATOM     11  C   UNL     1      -6.864 -28.280 -18.424  1.00  0.00     0.087 C 
BRANCH  11  12
ATOM     12  C   UNL     1      -6.222 -26.901 -18.880  1.00  0.00     0.066 C 
BRANCH  12  13
ATOM     13  C   UNL     1      -6.747 -25.726 -18.026  1.00  0.00     0.140 C 
ATOM     14  O   UNL     1      -6.083 -25.188 -17.151  1.00  0.00    -0.299 OA
BRANCH  13  15
ATOM     15  C   UNL     1      -8.172 -25.383 -18.218  1.00  0.00     0.106 CG0
ATOM     16  G   UNL     1      -9.292 -25.438 -17.241  1.00  0.00     0.000 G0
ENDBRANCH  13  15
ENDBRANCH  12  13
BRANCH  12  17
ATOM     17  C   UNL     1      -4.651 -26.917 -18.909  1.00  0.00    -0.006 C 
ATOM     18  C   UNL     1      -4.012 -27.883 -17.893  1.00  0.00     0.008 C 
ATOM     19  C   UNL     1      -4.132 -27.290 -20.313  1.00  0.00     0.008 C 
ENDBRANCH  12  17
ENDBRANCH  11  12
ENDBRANCH   1  11
TORSDOF 1
ENDMDL
MODEL 3
REMARK VINA RESULT:    -3.933      3.894      6.117
REMARK INTER + INTRA:          -6.155
REMARK INTER:                  -6.284
REMARK INTRA:                   0.129
REMARK UNBOUND:                -0.153
REMARK SMILES CC1=CCC[C@@H](C)C(=O)C[C@H](C(C)C)C(=O)C1
REMARK SMILES IDX 8 1 9 2 6 3 7 4 5 5 4 6 3 7 2 8 1 9 10 11 11 12 15 13 16 14
REMARK SMILES IDX 17 15 12 17 13 18 14 19
REMARK H PARENT
REMARK Flexibility Score: 70.00
ROOT
ATOM      1  C   UNL     1      -9.969 -27.589 -18.655  1.00  0.00     0.136 C 
ATOM      2  O   UNL     1     -10.824 -27.890 -17.834  1.00  0.00    -0.299 OA
ENDROOT
BRANCH   1   3
ATOM      3  C   UNL     1      -9.450 -28.673 -19.620  1.00  0.00     0.053 C 
ATOM      4  C   UNL     1     -10.656 -29.394 -20.237  1.00  0.00     0.016 C 
BRANCH   3   5
ATOM      5  C   UNL     1      -8.456 -29.713 -18.952  1.00  0.00     0.015 C 
BRANCH   5   6
ATOM      6  C   UNL     1      -7.126 -29.112 -18.370  1.00  0.00     0.028 C 
BRANCH   6   7
ATOM      7  C   UNL     1      -6.054 -28.652 -19.379  1.00  0.00    -0.028 C 
ATOM      8  C   UNL     1      -5.626 -27.367 -19.515  1.00  0.00    -0.070 CG0
ATOM      9  C   UNL     1      -4.611 -27.007 -20.564  1.00  0.00     0.039 C 
ATOM     10  G   UNL     1      -5.997 -26.435 -18.418  1.00  0.00     0.000 G0
ENDBRANCH   6   7
ENDBRANCH   5   6
ENDBRANCH   3   5
ENDBRANCH   1   3
BRANCH   1  11
ATOM     11  C   UNL     1      -9.478 -26.131 -18.702  1.00  0.00     0.087 C 
BRANCH  11  12
ATOM     12  C   UNL     1      -8.338 -25.762 -17.658  1.00  0.00     0.066 C 
BRANCH  12  13
ATOM     13  C   UNL     1      -7.024 -25.377 -18.374  1.00  0.00     0.140 C 
ATOM     14  O   UNL     1      -6.879 -24.327 -18.984  1.00  0.00    -0.299 OA
BRANCH  13  15
ATOM     15  C   UNL     1      -5.987 -26.429 -18.415  1.00  0.00     0.106 CG0
ATOM     16  G   UNL     1      -5.623 -27.349 -19.526  1.00  0.00     0.000 G0
ENDBRANCH  13  15
ENDBRANCH  12  13
BRANCH  12  17
ATOM     17  C   UNL     1      -8.762 -24.655 -16.627  1.00  0.00    -0.006 C 
ATOM     18  C   UNL     1      -9.245 -23.343 -17.274  1.00  0.00     0.008 C 
ATOM     19  C   UNL     1      -9.882 -25.170 -15.700  1.00  0.00     0.008 C 
ENDBRANCH  12  17
ENDBRANCH  11  12
ENDBRANCH   1  11
TORSDOF 1
ENDMDL
MODEL 4
REMARK VINA RESULT:    -3.909      2.830      5.000
REMARK INTER + INTRA:          -6.119
REMARK INTER:                  -6.094
REMARK INTRA:                  -0.025
REMARK UNBOUND:                -0.153
REMARK SMILES CC1=CCC[C@@H](C)C(=O)C[C@H](C(C)C)C(=O)C1
REMARK SMILES IDX 8 1 9 2 6 3 7 4 5 5 4 6 3 7 2 8 1 9 10 11 11 12 15 13 16 14
REMARK SMILES IDX 17 15 12 17 13 18 14 19
REMARK H PARENT
REMARK Flexibility Score: 70.00
ROOT
ATOM      1  C   UNL     1      -8.856 -25.847 -17.810  1.00  0.00     0.136 C 
ATOM      2  O   UNL     1      -9.684 -25.681 -16.925  1.00  0.00    -0.299 OA
ENDROOT
BRANCH   1   3
ATOM      3  C   UNL     1      -8.981 -27.081 -18.723  1.00  0.00     0.053 C 
ATOM      4  C   UNL     1     -10.388 -27.670 -18.558  1.00  0.00     0.016 C 
BRANCH   3   5
ATOM      5  C   UNL     1      -7.876 -28.190 -18.469  1.00  0.00     0.015 C 
BRANCH   5   6
ATOM      6  C   UNL     1      -6.480 -27.934 -19.145  1.00  0.00     0.028 C 
BRANCH   6   7
ATOM      7  C   UNL     1      -5.224 -28.105 -18.267  1.00  0.00    -0.028 C 
ATOM      8  C   UNL     1      -4.489 -27.076 -17.765  1.00  0.00    -0.070 CG0
ATOM      9  C   UNL     1      -3.248 -27.345 -16.959  1.00  0.00     0.039 C 
ATOM     10  G   UNL     1      -5.122 -25.732 -17.821  1.00  0.00     0.000 G0
ENDBRANCH   6   7
ENDBRANCH   5   6
ENDBRANCH   3   5
ENDBRANCH   1   3
BRANCH   1  11
ATOM     11  C   UNL     1      -7.748 -24.793 -17.983  1.00  0.00     0.087 C 
BRANCH  11  12
ATOM     12  C   UNL     1      -6.985 -24.379 -16.653  1.00  0.00     0.066 C 
BRANCH  12  13
ATOM     13  C   UNL     1      -5.505 -24.819 -16.693  1.00  0.00     0.140 C 
ATOM     14  O   UNL     1      -4.655 -24.371 -15.938  1.00  0.00    -0.299 OA
BRANCH  13  15
ATOM     15  C   UNL     1      -5.133 -25.708 -17.815  1.00  0.00     0.106 CG0
ATOM     16  G   UNL     1      -4.496 -27.051 -17.779  1.00  0.00     0.000 G0
ENDBRANCH  13  15
ENDBRANCH  12  13
BRANCH  12  17
ATOM     17  C   UNL     1      -7.108 -22.852 -16.304  1.00  0.00    -0.006 C 
ATOM     18  C   UNL     1      -6.840 -21.911 -17.493  1.00  0.00     0.008 C 
ATOM     19  C   UNL     1      -8.510 -22.529 -15.747  1.00  0.00     0.008 C 
ENDBRANCH  12  17
ENDBRANCH  11  12
ENDBRANCH   1  11
TORSDOF 1
ENDMDL
MODEL 5
REMARK VINA RESULT:    -3.825      4.261      6.845
REMARK INTER + INTRA:          -5.990
REMARK INTER:                  -6.034
REMARK INTRA:                   0.044
REMARK UNBOUND:                -0.153
REMARK SMILES CC1=CCC[C@@H](C)C(=O)C[C@H](C(C)C)C(=O)C1
REMARK SMILES IDX 8 1 9 2 6 3 7 4 5 5 4 6 3 7 2 8 1 9 10 11 11 12 15 13 16 14
REMARK SMILES IDX 17 15 12 17 13 18 14 19
REMARK H PARENT
REMARK Flexibility Score: 70.00
ROOT
ATOM      1  C   UNL     1      -7.112 -24.805 -17.886  1.00  0.00     0.136 C 
ATOM      2  O   UNL     1      -6.313 -24.142 -17.241  1.00  0.00    -0.299 OA
ENDROOT
BRANCH   1   3
ATOM      3  C   UNL     1      -8.619 -24.584 -17.656  1.00  0.00     0.053 C 
ATOM      4  C   UNL     1      -8.920 -24.784 -16.164  1.00  0.00     0.016 C 
BRANCH   3   5
ATOM      5  C   UNL     1      -9.554 -25.506 -18.545  1.00  0.00     0.015 C 
BRANCH   5   6
ATOM      6  C   UNL     1     -10.010 -26.858 -17.883  1.00  0.00     0.028 C 
BRANCH   6   7
ATOM      7  C   UNL     1     -10.387 -28.017 -18.827  1.00  0.00    -0.028 C 
ATOM      8  C   UNL     1      -9.498 -28.904 -19.351  1.00  0.00    -0.070 CG0
ATOM      9  C   UNL     1      -9.957 -29.973 -20.304  1.00  0.00     0.039 C 
ATOM     10  G   UNL     1      -8.150 -28.926 -18.725  1.00  0.00     0.000 G0
ENDBRANCH   6   7
ENDBRANCH   5   6
ENDBRANCH   3   5
ENDBRANCH   1   3
BRANCH   1  11
ATOM     11  C   UNL     1      -6.568 -25.806 -18.920  1.00  0.00     0.087 C 
BRANCH  11  12
ATOM     12  C   UNL     1      -6.244 -27.257 -18.360  1.00  0.00     0.066 C 
BRANCH  12  13
ATOM     13  C   UNL     1      -6.869 -28.356 -19.249  1.00  0.00     0.140 C 
ATOM     14  O   UNL     1      -6.441 -28.641 -20.358  1.00  0.00    -0.299 OA
BRANCH  13  15
ATOM     15  C   UNL     1      -8.128 -28.945 -18.745  1.00  0.00     0.106 CG0
ATOM     16  G   UNL     1      -9.491 -28.901 -19.337  1.00  0.00     0.000 G0
ENDBRANCH  13  15
ENDBRANCH  12  13
BRANCH  12  17
ATOM     17  C   UNL     1      -4.711 -27.519 -18.138  1.00  0.00    -0.006 C 
ATOM     18  C   UNL     1      -3.921 -26.283 -17.669  1.00  0.00     0.008 C 
ATOM     19  C   UNL     1      -4.491 -28.644 -17.106  1.00  0.00     0.008 C 
ENDBRANCH  12  17
ENDBRANCH  11  12
ENDBRANCH   1  11
TORSDOF 1
ENDMDL
MODEL 6
REMARK VINA RESULT:    -3.814      1.963      5.297
REMARK INTER + INTRA:          -5.974
REMARK INTER:                  -5.896
REMARK INTRA:                  -0.078
REMARK UNBOUND:                -0.153
REMARK SMILES CC1=CCC[C@@H](C)C(=O)C[C@H](C(C)C)C(=O)C1
REMARK SMILES IDX 8 1 9 2 6 3 7 4 5 5 4 6 3 7 2 8 1 9 10 11 11 12 15 13 16 14
REMARK SMILES IDX 17 15 12 17 13 18 14 19
REMARK H PARENT
REMARK Flexibility Score: 70.00
ROOT
ATOM      1  C   UNL     1      -4.500 -24.520 -16.459  1.00  0.00     0.136 C 
ATOM      2  O   UNL     1      -5.007 -24.781 -15.377  1.00  0.00    -0.299 OA
ENDROOT
BRANCH   1   3
ATOM      3  C   UNL     1      -4.161 -25.676 -17.419  1.00  0.00     0.053 C 
ATOM      4  C   UNL     1      -3.263 -25.133 -18.539  1.00  0.00     0.016 C 
BRANCH   3   5
ATOM      5  C   UNL     1      -5.430 -26.410 -18.024  1.00  0.00     0.015 C 
BRANCH   5   6
ATOM      6  C   UNL     1      -6.625 -25.478 -18.442  1.00  0.00     0.028 C 
BRANCH   6   7
ATOM      7  C   UNL     1      -7.907 -25.543 -17.587  1.00  0.00    -0.028 C 
ATOM      8  C   UNL     1      -8.416 -24.497 -16.881  1.00  0.00    -0.070 CG0
ATOM      9  C   UNL     1      -9.646 -24.672 -16.035  1.00  0.00     0.039 C 
ATOM     10  G   UNL     1      -7.866 -23.155 -17.212  1.00  0.00     0.000 G0
ENDBRANCH   6   7
ENDBRANCH   5   6
ENDBRANCH   3   5
ENDBRANCH   1   3
BRANCH   1  11
ATOM     11  C   UNL     1      -4.256 -23.043 -16.816  1.00  0.00     0.087 C 
BRANCH  11  12
ATOM     12  C   UNL     1      -5.487 -22.291 -17.481  1.00  0.00     0.066 C 
BRANCH  12  13
ATOM     13  C   UNL     1      -6.754 -22.400 -16.604  1.00  0.00     0.140 C 
ATOM     14  O   UNL     1      -6.797 -22.019 -15.444  1.00  0.00    -0.299 OA
BRANCH  13  15
ATOM     15  C   UNL     1      -7.883 -23.145 -17.202  1.00  0.00     0.106 CG0
ATOM     16  G   UNL     1      -8.397 -24.500 -16.870  1.00  0.00     0.000 G0
ENDBRANCH  13  15
ENDBRANCH  12  13
BRANCH  12  17
ATOM     17  C   UNL     1      -5.185 -20.793 -17.849  1.00  0.00    -0.006 C 
ATOM     18  C   UNL     1      -3.685 -20.452 -17.923  1.00  0.00     0.008 C 
ATOM     19  C   UNL     1      -5.826 -20.422 -19.202  1.00  0.00     0.008 C 
ENDBRANCH  12  17
ENDBRANCH  11  12
ENDBRANCH   1  11
TORSDOF 1
ENDMDL
MODEL 7
REMARK VINA RESULT:    -3.721      2.006      2.521
REMARK INTER + INTRA:          -5.831
REMARK INTER:                  -5.814
REMARK INTRA:                  -0.017
REMARK UNBOUND:                -0.153
REMARK SMILES CC1=CCC[C@@H](C)C(=O)C[C@H](C(C)C)C(=O)C1
REMARK SMILES IDX 8 1 9 2 6 3 7 4 5 5 4 6 3 7 2 8 1 9 10 11 11 12 15 13 16 14
REMARK SMILES IDX 17 15 12 17 13 18 14 19
REMARK H PARENT
REMARK Flexibility Score: 70.00
ROOT
ATOM      1  C   UNL     1      -6.861 -22.275 -18.853  1.00  0.00     0.136 C 
ATOM      2  O   UNL     1      -6.234 -22.688 -19.819  1.00  0.00    -0.299 OA
ENDROOT
BRANCH   1   3
ATOM      3  C   UNL     1      -6.265 -21.129 -18.013  1.00  0.00     0.053 C 
ATOM      4  C   UNL     1      -6.339 -19.834 -18.833  1.00  0.00     0.016 C 
BRANCH   3   5
ATOM      5  C   UNL     1      -4.782 -21.394 -17.516  1.00  0.00     0.015 C 
BRANCH   5   6
ATOM      6  C   UNL     1      -4.611 -22.541 -16.455  1.00  0.00     0.028 C 
BRANCH   6   7
ATOM      7  C   UNL     1      -3.874 -23.819 -16.904  1.00  0.00    -0.028 C 
ATOM      8  C   UNL     1      -4.441 -25.054 -16.965  1.00  0.00    -0.070 CG0
ATOM      9  C   UNL     1      -3.625 -26.251 -17.369  1.00  0.00     0.039 C 
ATOM     10  G   UNL     1      -5.926 -25.096 -16.889  1.00  0.00     0.000 G0
ENDBRANCH   6   7
ENDBRANCH   5   6
ENDBRANCH   3   5
ENDBRANCH   1   3
BRANCH   1  11
ATOM     11  C   UNL     1      -8.233 -22.903 -18.548  1.00  0.00     0.087 C 
BRANCH  11  12
ATOM     12  C   UNL     1      -8.194 -24.246 -17.701  1.00  0.00     0.066 C 
BRANCH  12  13
ATOM     13  C   UNL     1      -6.913 -25.060 -17.993  1.00  0.00     0.140 C 
ATOM     14  O   UNL     1      -6.763 -25.726 -19.007  1.00  0.00    -0.299 OA
BRANCH  13  15
ATOM     15  C   UNL     1      -5.927 -25.117 -16.893  1.00  0.00     0.106 CG0
ATOM     16  G   UNL     1      -4.443 -25.060 -16.956  1.00  0.00     0.000 G0
ENDBRANCH  13  15
ENDBRANCH  12  13
BRANCH  12  17
ATOM     17  C   UNL     1      -8.376 -24.023 -16.156  1.00  0.00    -0.006 C 
ATOM     18  C   UNL     1      -8.524 -22.546 -15.746  1.00  0.00     0.008 C 
ATOM     19  C   UNL     1      -9.610 -24.788 -15.634  1.00  0.00     0.008 C 
ENDBRANCH  12  17
ENDBRANCH  11  12
ENDBRANCH   1  11
TORSDOF 1
ENDMDL
MODEL 8
REMARK VINA RESULT:    -3.696      2.584      4.282
REMARK INTER + INTRA:          -5.794
REMARK INTER:                  -5.786
REMARK INTRA:                  -0.008
REMARK UNBOUND:                -0.153
REMARK SMILES CC1=CCC[C@@H](C)C(=O)C[C@H](C(C)C)C(=O)C1
REMARK SMILES IDX 8 1 9 2 6 3 7 4 5 5 4 6 3 7 2 8 1 9 10 11 11 12 15 13 16 14
REMARK SMILES IDX 17 15 12 17 13 18 14 19
REMARK H PARENT
REMARK Flexibility Score: 70.00
ROOT
ATOM      1  C   UNL     1      -7.489 -26.699 -18.459  1.00  0.00     0.136 C 
ATOM      2  O   UNL     1      -8.551 -27.254 -18.211  1.00  0.00    -0.299 OA
ENDROOT
BRANCH   1   3
ATOM      3  C   UNL     1      -6.327 -27.537 -19.027  1.00  0.00     0.053 C 
ATOM      4  C   UNL     1      -6.057 -28.707 -18.072  1.00  0.00     0.016 C 
BRANCH   3   5
ATOM      5  C   UNL     1      -5.000 -26.711 -19.291  1.00  0.00     0.015 C 
BRANCH   5   6
ATOM      6  C   UNL     1      -3.913 -26.781 -18.157  1.00  0.00     0.028 C 
BRANCH   6   7
ATOM      7  C   UNL     1      -3.178 -25.474 -17.797  1.00  0.00    -0.028 C 
ATOM      8  C   UNL     1      -3.723 -24.457 -17.075  1.00  0.00    -0.070 CG0
ATOM      9  C   UNL     1      -2.942 -23.198 -16.817  1.00  0.00     0.039 C 
ATOM     10  G   UNL     1      -4.979 -24.774 -16.345  1.00  0.00     0.000 G0
ENDBRANCH   6   7
ENDBRANCH   5   6
ENDBRANCH   3   5
ENDBRANCH   1   3
BRANCH   1  11
ATOM     11  C   UNL     1      -7.381 -25.183 -18.220  1.00  0.00     0.087 C 
BRANCH  11  12
ATOM     12  C   UNL     1      -7.512 -24.721 -16.706  1.00  0.00     0.066 C 
BRANCH  12  13
ATOM     13  C   UNL     1      -6.235 -23.997 -16.225  1.00  0.00     0.140 C 
ATOM     14  O   UNL     1      -6.217 -22.818 -15.902  1.00  0.00    -0.299 OA
BRANCH  13  15
ATOM     15  C   UNL     1      -4.982 -24.775 -16.329  1.00  0.00     0.106 CG0
ATOM     16  G   UNL     1      -3.735 -24.457 -17.073  1.00  0.00     0.000 G0
ENDBRANCH  13  15
ENDBRANCH  12  13
BRANCH  12  17
ATOM     17  C   UNL     1      -8.791 -23.852 -16.421  1.00  0.00    -0.006 C 
ATOM     18  C   UNL     1      -9.350 -23.128 -17.660  1.00  0.00     0.008 C 
ATOM     19  C   UNL     1      -9.920 -24.719 -15.825  1.00  0.00     0.008 C 
ENDBRANCH  12  17
ENDBRANCH  11  12
ENDBRANCH   1  11
TORSDOF 1
ENDMDL
MODEL 9
REMARK VINA RESULT:    -3.692      2.720      5.035
REMARK INTER + INTRA:          -5.788
REMARK INTER:                  -5.929
REMARK INTRA:                   0.141
REMARK UNBOUND:                -0.153
REMARK SMILES CC1=CCC[C@@H](C)C(=O)C[C@H](C(C)C)C(=O)C1
REMARK SMILES IDX 8 1 9 2 6 3 7 4 5 5 4 6 3 7 2 8 1 9 10 11 11 12 15 13 16 14
REMARK SMILES IDX 17 15 12 17 13 18 14 19
REMARK H PARENT
REMARK Flexibility Score: 70.00
ROOT
ATOM      1  C   UNL     1      -5.565 -24.249 -17.103  1.00  0.00     0.136 C 
ATOM      2  O   UNL     1      -5.506 -24.764 -15.995  1.00  0.00    -0.299 OA
ENDROOT
BRANCH   1   3
ATOM      3  C   UNL     1      -5.296 -22.738 -17.237  1.00  0.00     0.053 C 
ATOM      4  C   UNL     1      -4.000 -22.405 -16.487  1.00  0.00     0.016 C 
BRANCH   3   5
ATOM      5  C   UNL     1      -6.487 -21.821 -16.731  1.00  0.00     0.015 C 
BRANCH   5   6
ATOM      6  C   UNL     1      -7.923 -22.231 -17.222  1.00  0.00     0.028 C 
BRANCH   6   7
ATOM      7  C   UNL     1      -8.766 -23.119 -16.284  1.00  0.00    -0.028 C 
ATOM      8  C   UNL     1      -9.230 -24.357 -16.606  1.00  0.00    -0.070 CG0
ATOM      9  C   UNL     1     -10.088 -25.127 -15.641  1.00  0.00     0.039 C 
ATOM     10  G   UNL     1      -8.621 -24.991 -17.805  1.00  0.00     0.000 G0
ENDBRANCH   6   7
ENDBRANCH   5   6
ENDBRANCH   3   5
ENDBRANCH   1   3
BRANCH   1  11
ATOM     11  C   UNL     1      -5.873 -25.149 -18.313  1.00  0.00     0.087 C 
BRANCH  11  12
ATOM     12  C   UNL     1      -6.588 -26.527 -17.974  1.00  0.00     0.066 C 
BRANCH  12  13
ATOM     13  C   UNL     1      -8.126 -26.382 -17.990  1.00  0.00     0.140 C 
ATOM     14  O   UNL     1      -8.880 -27.307 -18.251  1.00  0.00    -0.299 OA
BRANCH  13  15
ATOM     15  C   UNL     1      -8.640 -25.005 -17.824  1.00  0.00     0.106 CG0
ATOM     16  G   UNL     1      -9.235 -24.362 -16.623  1.00  0.00     0.000 G0
ENDBRANCH  13  15
ENDBRANCH  12  13
BRANCH  12  17
ATOM     17  C   UNL     1      -6.126 -27.718 -18.889  1.00  0.00    -0.006 C 
ATOM     18  C   UNL     1      -5.034 -27.343 -19.908  1.00  0.00     0.008 C 
ATOM     19  C   UNL     1      -5.600 -28.891 -18.037  1.00  0.00     0.008 C 
ENDBRANCH  12  17
ENDBRANCH  11  12
ENDBRANCH   1  11
TORSDOF 1
ENDMDL
