MODEL 1
REMARK VINA RESULT:    -3.356      0.000      0.000
REMARK INTER + INTRA:          -3.983
REMARK INTER:                  -3.945
REMARK INTRA:                  -0.039
REMARK UNBOUND:                -0.039
REMARK SMILES CCCCC(=O)[O-]
REMARK SMILES IDX 4 1 5 2 6 3 7 4 3 5 2 6 1 7
REMARK H PARENT
REMARK Flexibility Score: inf
ROOT
ATOM      1  C   UNL     1      26.346  21.724  61.372  1.00  0.00     0.053 C 
ENDROOT
BRANCH   1   2
ATOM      2  C   UNL     1      27.385  21.234  60.409  1.00  0.00     0.041 C 
ATOM      3  O   UNL     1      28.281  22.013  59.989  1.00  0.00    -0.550 OA
ATOM      4  O   UNL     1      27.381  19.907  59.997  1.00  0.00    -0.550 OA
ENDBRANCH   1   2
BRANCH   1   5
ATOM      5  C   UNL     1      26.620  21.277  62.819  1.00  0.00     0.006 C 
BRANCH   5   6
ATOM      6  C   UNL     1      25.474  20.464  63.446  1.00  0.00    -0.003 C 
ATOM      7  C   UNL     1      25.944  19.163  64.094  1.00  0.00     0.004 C 
ENDBRANCH   5   6
ENDBRANCH   1   5
TORSDOF 3
ENDMDL
MODEL 2
REMARK VINA RESULT:    -3.267      1.027      1.790
REMARK INTER + INTRA:          -3.879
REMARK INTER:                  -3.781
REMARK INTRA:                  -0.098
REMARK UNBOUND:                -0.039
REMARK SMILES CCCCC(=O)[O-]
REMARK SMILES IDX 4 1 5 2 6 3 7 4 3 5 2 6 1 7
REMARK H PARENT
REMARK Flexibility Score: inf
ROOT
ATOM      1  C   UNL     1      26.587  21.964  62.398  1.00  0.00     0.053 C 
ENDROOT
BRANCH   1   2
ATOM      2  C   UNL     1      26.845  21.611  60.966  1.00  0.00     0.041 C 
ATOM      3  O   UNL     1      26.028  20.894  60.329  1.00  0.00    -0.550 OA
ATOM      4  O   UNL     1      27.976  22.098  60.322  1.00  0.00    -0.550 OA
ENDBRANCH   1   2
BRANCH   1   5
ATOM      5  C   UNL     1      26.625  20.738  63.328  1.00  0.00     0.006 C 
BRANCH   5   6
ATOM      6  C   UNL     1      25.234  20.248  63.767  1.00  0.00    -0.003 C 
ATOM      7  C   UNL     1      24.110  21.212  63.392  1.00  0.00     0.004 C 
ENDBRANCH   5   6
ENDBRANCH   1   5
TORSDOF 3
ENDMDL
MODEL 3
REMARK VINA RESULT:    -3.010      2.669      3.878
REMARK INTER + INTRA:          -3.577
REMARK INTER:                  -3.504
REMARK INTRA:                  -0.073
REMARK UNBOUND:                -0.039
REMARK SMILES CCCCC(=O)[O-]
REMARK SMILES IDX 4 1 5 2 6 3 7 4 3 5 2 6 1 7
REMARK H PARENT
REMARK Flexibility Score: inf
ROOT
ATOM      1  C   UNL     1      26.622  21.480  63.492  1.00  0.00     0.053 C 
ENDROOT
BRANCH   1   2
ATOM      2  C   UNL     1      25.430  20.586  63.647  1.00  0.00     0.041 C 
ATOM      3  O   UNL     1      24.275  21.077  63.753  1.00  0.00    -0.550 OA
ATOM      4  O   UNL     1      25.591  19.205  63.644  1.00  0.00    -0.550 OA
ENDBRANCH   1   2
BRANCH   1   5
ATOM      5  C   UNL     1      26.704  22.125  62.097  1.00  0.00     0.006 C 
BRANCH   5   6
ATOM      6  C   UNL     1      26.916  21.114  60.957  1.00  0.00    -0.003 C 
ATOM      7  C   UNL     1      27.769  21.664  59.815  1.00  0.00     0.004 C 
ENDBRANCH   5   6
ENDBRANCH   1   5
TORSDOF 3
ENDMDL
MODEL 4
REMARK VINA RESULT:    -2.939      2.403      2.798
REMARK INTER + INTRA:          -3.493
REMARK INTER:                  -3.409
REMARK INTRA:                  -0.084
REMARK UNBOUND:                -0.039
REMARK SMILES CCCCC(=O)[O-]
REMARK SMILES IDX 4 1 5 2 6 3 7 4 3 5 2 6 1 7
REMARK H PARENT
REMARK Flexibility Score: inf
ROOT
ATOM      1  C   UNL     1      24.383  21.340  62.925  1.00  0.00     0.053 C 
ENDROOT
BRANCH   1   2
ATOM      2  C   UNL     1      24.164  21.364  61.444  1.00  0.00     0.041 C 
ATOM      3  O   UNL     1      25.139  21.257  60.653  1.00  0.00    -0.550 OA
ATOM      4  O   UNL     1      22.876  21.477  60.933  1.00  0.00    -0.550 OA
ENDBRANCH   1   2
BRANCH   1   5
ATOM      5  C   UNL     1      25.851  21.594  63.312  1.00  0.00     0.006 C 
BRANCH   5   6
ATOM      6  C   UNL     1      26.626  20.318  63.685  1.00  0.00    -0.003 C 
ATOM      7  C   UNL     1      25.717  19.158  64.085  1.00  0.00     0.004 C 
ENDBRANCH   5   6
ENDBRANCH   1   5
TORSDOF 3
ENDMDL
MODEL 5
REMARK VINA RESULT:    -2.733      2.435      3.514
REMARK INTER + INTRA:          -3.251
REMARK INTER:                  -3.235
REMARK INTRA:                  -0.016
REMARK UNBOUND:                -0.039
REMARK SMILES CCCCC(=O)[O-]
REMARK SMILES IDX 4 1 5 2 6 3 7 4 3 5 2 6 1 7
REMARK H PARENT
REMARK Flexibility Score: inf
ROOT
ATOM      1  C   UNL     1      26.451  20.975  58.455  1.00  0.00     0.053 C 
ENDROOT
BRANCH   1   2
ATOM      2  C   UNL     1      26.642  19.850  57.485  1.00  0.00     0.041 C 
ATOM      3  O   UNL     1      26.268  18.685  57.780  1.00  0.00    -0.550 OA
ATOM      4  O   UNL     1      27.209  20.095  56.240  1.00  0.00    -0.550 OA
ENDBRANCH   1   2
BRANCH   1   5
ATOM      5  C   UNL     1      27.451  20.928  59.625  1.00  0.00     0.006 C 
BRANCH   5   6
ATOM      6  C   UNL     1      27.130  21.919  60.758  1.00  0.00    -0.003 C 
ATOM      7  C   UNL     1      26.612  21.239  62.023  1.00  0.00     0.004 C 
ENDBRANCH   5   6
ENDBRANCH   1   5
TORSDOF 3
ENDMDL
MODEL 6
REMARK VINA RESULT:    -2.635      5.114      6.382
REMARK INTER + INTRA:          -3.136
REMARK INTER:                  -3.007
REMARK INTRA:                  -0.129
REMARK UNBOUND:                -0.039
REMARK SMILES CCCCC(=O)[O-]
REMARK SMILES IDX 4 1 5 2 6 3 7 4 3 5 2 6 1 7
REMARK H PARENT
REMARK Flexibility Score: inf
ROOT
ATOM      1  C   UNL     1      24.821  20.168  56.993  1.00  0.00     0.053 C 
ENDROOT
BRANCH   1   2
ATOM      2  C   UNL     1      26.226  19.664  57.124  1.00  0.00     0.041 C 
ATOM      3  O   UNL     1      26.561  18.962  58.115  1.00  0.00    -0.550 OA
ATOM      4  O   UNL     1      27.161  19.946  56.135  1.00  0.00    -0.550 OA
ENDBRANCH   1   2
BRANCH   1   5
ATOM      5  C   UNL     1      23.791  19.030  56.875  1.00  0.00     0.006 C 
BRANCH   5   6
ATOM      6  C   UNL     1      24.031  18.096  55.676  1.00  0.00    -0.003 C 
ATOM      7  C   UNL     1      23.961  18.813  54.330  1.00  0.00     0.004 C 
ENDBRANCH   5   6
ENDBRANCH   1   5
TORSDOF 3
ENDMDL
MODEL 7
REMARK VINA RESULT:    -2.558      5.239      6.540
REMARK INTER + INTRA:          -3.046
REMARK INTER:                  -2.973
REMARK INTRA:                  -0.073
REMARK UNBOUND:                -0.039
REMARK SMILES CCCCC(=O)[O-]
REMARK SMILES IDX 4 1 5 2 6 3 7 4 3 5 2 6 1 7
REMARK H PARENT
REMARK Flexibility Score: inf
ROOT
ATOM      1  C   UNL     1      24.901  19.953  56.691  1.00  0.00     0.053 C 
ENDROOT
BRANCH   1   2
ATOM      2  C   UNL     1      26.316  19.679  57.097  1.00  0.00     0.041 C 
ATOM      3  O   UNL     1      26.566  19.126  58.201  1.00  0.00    -0.550 OA
ATOM      4  O   UNL     1      27.361  20.007  56.242  1.00  0.00    -0.550 OA
ENDBRANCH   1   2
BRANCH   1   5
ATOM      5  C   UNL     1      24.727  20.037  55.164  1.00  0.00     0.006 C 
BRANCH   5   6
ATOM      6  C   UNL     1      24.245  18.725  54.520  1.00  0.00    -0.003 C 
ATOM      7  C   UNL     1      23.571  17.780  55.512  1.00  0.00     0.004 C 
ENDBRANCH   5   6
ENDBRANCH   1   5
TORSDOF 3
ENDMDL
MODEL 8
REMARK VINA RESULT:    -2.548      4.380      6.120
REMARK INTER + INTRA:          -3.033
REMARK INTER:                  -2.935
REMARK INTRA:                  -0.098
REMARK UNBOUND:                -0.039
REMARK SMILES CCCCC(=O)[O-]
REMARK SMILES IDX 4 1 5 2 6 3 7 4 3 5 2 6 1 7
REMARK H PARENT
REMARK Flexibility Score: inf
ROOT
ATOM      1  C   UNL     1      26.558  20.981  56.983  1.00  0.00     0.053 C 
ENDROOT
BRANCH   1   2
ATOM      2  C   UNL     1      26.646  19.940  58.056  1.00  0.00     0.041 C 
ATOM      3  O   UNL     1      26.313  18.749  57.818  1.00  0.00    -0.550 OA
ATOM      4  O   UNL     1      27.125  20.279  59.316  1.00  0.00    -0.550 OA
ENDBRANCH   1   2
BRANCH   1   5
ATOM      5  C   UNL     1      26.468  20.372  55.571  1.00  0.00     0.006 C 
BRANCH   5   6
ATOM      6  C   UNL     1      25.048  20.382  54.979  1.00  0.00    -0.003 C 
ATOM      7  C   UNL     1      24.481  18.983  54.752  1.00  0.00     0.004 C 
ENDBRANCH   5   6
ENDBRANCH   1   5
TORSDOF 3
ENDMDL
MODEL 9
REMARK VINA RESULT:    -2.480      2.966      4.905
REMARK INTER + INTRA:          -2.953
REMARK INTER:                  -2.932
REMARK INTRA:                  -0.022
REMARK UNBOUND:                -0.039
REMARK SMILES CCCCC(=O)[O-]
REMARK SMILES IDX 4 1 5 2 6 3 7 4 3 5 2 6 1 7
REMARK H PARENT
REMARK Flexibility Score: inf
ROOT
ATOM      1  C   UNL     1      26.754  21.212  58.416  1.00  0.00     0.053 C 
ENDROOT
BRANCH   1   2
ATOM      2  C   UNL     1      27.539  21.170  59.691  1.00  0.00     0.041 C 
ATOM      3  O   UNL     1      28.583  21.863  59.819  1.00  0.00    -0.550 OA
ATOM      4  O   UNL     1      27.102  20.387  60.752  1.00  0.00    -0.550 OA
ENDBRANCH   1   2
BRANCH   1   5
ATOM      5  C   UNL     1      26.566  19.819  57.789  1.00  0.00     0.006 C 
BRANCH   5   6
ATOM      6  C   UNL     1      26.059  19.855  56.336  1.00  0.00    -0.003 C 
ATOM      7  C   UNL     1      27.007  20.585  55.386  1.00  0.00     0.004 C 
ENDBRANCH   5   6
ENDBRANCH   1   5
TORSDOF 3
ENDMDL
