MODEL 1
REMARK VINA RESULT:    -1.632      0.000      0.000
REMARK INTER + INTRA:          -2.213
REMARK INTER:                  -2.062
REMARK INTRA:                  -0.151
REMARK UNBOUND:                -0.151
REMARK SMILES CCCCCCO
REMARK SMILES IDX 4 1 3 2 2 3 1 4 5 5 6 6 7 7
REMARK H PARENT 7 8
REMARK Flexibility Score: inf
ROOT
ATOM      1  C   UNL     1     125.710 108.118 135.305  1.00  0.00     0.002 C 
ENDROOT
BRANCH   1   2
ATOM      2  C   UNL     1     126.741 107.818 134.210  1.00  0.00    -0.000 C 
BRANCH   2   3
ATOM      3  C   UNL     1     127.125 109.094 133.451  1.00  0.00    -0.003 C 
ATOM      4  C   UNL     1     126.749 110.342 134.243  1.00  0.00     0.004 C 
ENDBRANCH   2   3
ENDBRANCH   1   2
BRANCH   1   5
ATOM      5  C   UNL     1     126.002 107.303 136.572  1.00  0.00     0.028 C 
BRANCH   5   6
ATOM      6  C   UNL     1     125.838 108.141 137.844  1.00  0.00     0.156 C 
BRANCH   6   7
ATOM      7  O   UNL     1     126.069 109.499 137.577  1.00  0.00    -0.396 OA
ATOM      8  H   UNL     1     125.961 109.985 138.436  1.00  0.00     0.210 HD
ENDBRANCH   6   7
ENDBRANCH   5   6
ENDBRANCH   1   5
TORSDOF 5
ENDMDL
MODEL 2
REMARK VINA RESULT:    -1.629      2.166      2.835
REMARK INTER + INTRA:          -2.209
REMARK INTER:                  -2.076
REMARK INTRA:                  -0.132
REMARK UNBOUND:                -0.151
REMARK SMILES CCCCCCO
REMARK SMILES IDX 4 1 3 2 2 3 1 4 5 5 6 6 7 7
REMARK H PARENT 7 8
REMARK Flexibility Score: inf
ROOT
ATOM      1  C   UNL     1     125.811 110.056 135.638  1.00  0.00     0.002 C 
ENDROOT
BRANCH   1   2
ATOM      2  C   UNL     1     126.740 110.715 134.612  1.00  0.00    -0.000 C 
BRANCH   2   3
ATOM      3  C   UNL     1     127.125 109.729 133.503  1.00  0.00    -0.003 C 
ATOM      4  C   UNL     1     126.760 108.299 133.886  1.00  0.00     0.004 C 
ENDBRANCH   2   3
ENDBRANCH   1   2
BRANCH   1   5
ATOM      5  C   UNL     1     126.061 110.613 137.045  1.00  0.00     0.028 C 
BRANCH   5   6
ATOM      6  C   UNL     1     126.870 111.914 137.011  1.00  0.00     0.156 C 
BRANCH   6   7
ATOM      7  O   UNL     1     126.158 112.956 137.622  1.00  0.00    -0.396 OA
ATOM      8  H   UNL     1     126.357 112.911 138.594  1.00  0.00     0.210 HD
ENDBRANCH   6   7
ENDBRANCH   5   6
ENDBRANCH   1   5
TORSDOF 5
ENDMDL
MODEL 3
REMARK VINA RESULT:    -1.596      2.075      2.877
REMARK INTER + INTRA:          -2.167
REMARK INTER:                  -2.122
REMARK INTRA:                  -0.045
REMARK UNBOUND:                -0.151
REMARK SMILES CCCCCCO
REMARK SMILES IDX 4 1 3 2 2 3 1 4 5 5 6 6 7 7
REMARK H PARENT 7 8
REMARK Flexibility Score: inf
ROOT
ATOM      1  C   UNL     1     126.389 110.037 134.913  1.00  0.00     0.002 C 
ENDROOT
BRANCH   1   2
ATOM      2  C   UNL     1     127.121 109.574 133.647  1.00  0.00    -0.000 C 
BRANCH   2   3
ATOM      3  C   UNL     1     127.054 108.050 133.498  1.00  0.00    -0.003 C 
ATOM      4  C   UNL     1     127.124 107.635 132.032  1.00  0.00     0.004 C 
ENDBRANCH   2   3
ENDBRANCH   1   2
BRANCH   1   5
ATOM      5  C   UNL     1     126.706 111.505 135.225  1.00  0.00     0.028 C 
BRANCH   5   6
ATOM      6  C   UNL     1     126.794 111.764 136.733  1.00  0.00     0.156 C 
BRANCH   6   7
ATOM      7  O   UNL     1     126.379 110.636 137.455  1.00  0.00    -0.396 OA
ATOM      8  H   UNL     1     125.913 110.037 136.814  1.00  0.00     0.210 HD
ENDBRANCH   6   7
ENDBRANCH   5   6
ENDBRANCH   1   5
TORSDOF 5
ENDMDL
MODEL 4
REMARK VINA RESULT:    -1.508      1.462      2.085
REMARK INTER + INTRA:          -2.056
REMARK INTER:                  -1.987
REMARK INTRA:                  -0.068
REMARK UNBOUND:                -0.151
REMARK SMILES CCCCCCO
REMARK SMILES IDX 4 1 3 2 2 3 1 4 5 5 6 6 7 7
REMARK H PARENT 7 8
REMARK Flexibility Score: inf
ROOT
ATOM      1  C   UNL     1     126.032 109.565 136.008  1.00  0.00     0.002 C 
ENDROOT
BRANCH   1   2
ATOM      2  C   UNL     1     126.004 110.482 134.779  1.00  0.00    -0.000 C 
BRANCH   2   3
ATOM      3  C   UNL     1     127.116 110.112 133.791  1.00  0.00    -0.003 C 
ATOM      4  C   UNL     1     127.125 108.614 133.506  1.00  0.00     0.004 C 
ENDBRANCH   2   3
ENDBRANCH   1   2
BRANCH   1   5
ATOM      5  C   UNL     1     126.045 110.385 137.304  1.00  0.00     0.028 C 
BRANCH   5   6
ATOM      6  C   UNL     1     126.395 109.525 138.523  1.00  0.00     0.156 C 
BRANCH   6   7
ATOM      7  O   UNL     1     126.270 108.161 138.221  1.00  0.00    -0.396 OA
ATOM      8  H   UNL     1     125.635 108.091 137.460  1.00  0.00     0.210 HD
ENDBRANCH   6   7
ENDBRANCH   5   6
ENDBRANCH   1   5
TORSDOF 5
ENDMDL
MODEL 5
REMARK VINA RESULT:    -1.508      2.579      3.708
REMARK INTER + INTRA:          -2.055
REMARK INTER:                  -1.991
REMARK INTRA:                  -0.064
REMARK UNBOUND:                -0.151
REMARK SMILES CCCCCCO
REMARK SMILES IDX 4 1 3 2 2 3 1 4 5 5 6 6 7 7
REMARK H PARENT 7 8
REMARK Flexibility Score: inf
ROOT
ATOM      1  C   UNL     1     127.063 112.024 135.043  1.00  0.00     0.002 C 
ENDROOT
BRANCH   1   2
ATOM      2  C   UNL     1     126.584 110.585 134.815  1.00  0.00    -0.000 C 
BRANCH   2   3
ATOM      3  C   UNL     1     127.125 110.028 133.493  1.00  0.00    -0.003 C 
ATOM      4  C   UNL     1     127.041 108.506 133.460  1.00  0.00     0.004 C 
ENDBRANCH   2   3
ENDBRANCH   1   2
BRANCH   1   5
ATOM      5  C   UNL     1     127.122 112.352 136.541  1.00  0.00     0.028 C 
BRANCH   5   6
ATOM      6  C   UNL     1     126.032 113.346 136.954  1.00  0.00     0.156 C 
BRANCH   6   7
ATOM      7  O   UNL     1     124.896 112.669 137.424  1.00  0.00    -0.396 OA
ATOM      8  H   UNL     1     124.182 113.349 137.541  1.00  0.00     0.210 HD
ENDBRANCH   6   7
ENDBRANCH   5   6
ENDBRANCH   1   5
TORSDOF 5
ENDMDL
MODEL 6
REMARK VINA RESULT:    -1.491      2.529      4.100
REMARK INTER + INTRA:          -2.035
REMARK INTER:                  -1.961
REMARK INTRA:                  -0.074
REMARK UNBOUND:                -0.151
REMARK SMILES CCCCCCO
REMARK SMILES IDX 4 1 3 2 2 3 1 4 5 5 6 6 7 7
REMARK H PARENT 7 8
REMARK Flexibility Score: inf
ROOT
ATOM      1  C   UNL     1     126.742 110.313 134.348  1.00  0.00     0.002 C 
ENDROOT
BRANCH   1   2
ATOM      2  C   UNL     1     127.097 109.142 133.423  1.00  0.00    -0.000 C 
BRANCH   2   3
ATOM      3  C   UNL     1     126.654 107.806 134.031  1.00  0.00    -0.003 C 
ATOM      4  C   UNL     1     126.015 108.009 135.401  1.00  0.00     0.004 C 
ENDBRANCH   2   3
ENDBRANCH   1   2
BRANCH   1   5
ATOM      5  C   UNL     1     127.033 111.657 133.669  1.00  0.00     0.028 C 
BRANCH   5   6
ATOM      6  C   UNL     1     126.310 112.817 134.359  1.00  0.00     0.156 C 
BRANCH   6   7
ATOM      7  O   UNL     1     126.131 113.889 133.471  1.00  0.00    -0.396 OA
ATOM      8  H   UNL     1     125.667 114.608 133.975  1.00  0.00     0.210 HD
ENDBRANCH   6   7
ENDBRANCH   5   6
ENDBRANCH   1   5
TORSDOF 5
ENDMDL
MODEL 7
REMARK VINA RESULT:    -1.481      2.405      3.750
REMARK INTER + INTRA:          -2.022
REMARK INTER:                  -1.931
REMARK INTRA:                  -0.090
REMARK UNBOUND:                -0.151
REMARK SMILES CCCCCCO
REMARK SMILES IDX 4 1 3 2 2 3 1 4 5 5 6 6 7 7
REMARK H PARENT 7 8
REMARK Flexibility Score: inf
ROOT
ATOM      1  C   UNL     1     126.703 110.723 134.361  1.00  0.00     0.002 C 
ENDROOT
BRANCH   1   2
ATOM      2  C   UNL     1     126.190 110.468 135.784  1.00  0.00    -0.000 C 
BRANCH   2   3
ATOM      3  C   UNL     1     126.701 111.540 136.754  1.00  0.00    -0.003 C 
ATOM      4  C   UNL     1     126.770 111.006 138.181  1.00  0.00     0.004 C 
ENDBRANCH   2   3
ENDBRANCH   1   2
BRANCH   1   5
ATOM      5  C   UNL     1     127.125 109.412 133.686  1.00  0.00     0.028 C 
BRANCH   5   6
ATOM      6  C   UNL     1     126.478 108.192 134.348  1.00  0.00     0.156 C 
BRANCH   6   7
ATOM      7  O   UNL     1     125.498 107.636 133.513  1.00  0.00    -0.396 OA
ATOM      8  H   UNL     1     125.973 107.089 132.834  1.00  0.00     0.210 HD
ENDBRANCH   6   7
ENDBRANCH   5   6
ENDBRANCH   1   5
TORSDOF 5
ENDMDL
MODEL 8
REMARK VINA RESULT:    -1.417      2.563      4.165
REMARK INTER + INTRA:          -1.940
REMARK INTER:                  -1.828
REMARK INTRA:                  -0.113
REMARK UNBOUND:                -0.151
REMARK SMILES CCCCCCO
REMARK SMILES IDX 4 1 3 2 2 3 1 4 5 5 6 6 7 7
REMARK H PARENT 7 8
REMARK Flexibility Score: inf
ROOT
ATOM      1  C   UNL     1     126.735 109.896 134.201  1.00  0.00     0.002 C 
ENDROOT
BRANCH   1   2
ATOM      2  C   UNL     1     125.757 109.619 135.349  1.00  0.00    -0.000 C 
BRANCH   2   3
ATOM      3  C   UNL     1     125.939 108.200 135.898  1.00  0.00    -0.003 C 
ATOM      4  C   UNL     1     125.999 108.200 137.421  1.00  0.00     0.004 C 
ENDBRANCH   2   3
ENDBRANCH   1   2
BRANCH   1   5
ATOM      5  C   UNL     1     127.125 108.595 133.486  1.00  0.00     0.028 C 
BRANCH   5   6
ATOM      6  C   UNL     1     126.626 108.564 132.038  1.00  0.00     0.156 C 
BRANCH   6   7
ATOM      7  O   UNL     1     127.096 109.679 131.328  1.00  0.00    -0.396 OA
ATOM      8  H   UNL     1     128.057 109.783 131.555  1.00  0.00     0.210 HD
ENDBRANCH   6   7
ENDBRANCH   5   6
ENDBRANCH   1   5
TORSDOF 5
ENDMDL
MODEL 9
REMARK VINA RESULT:    -1.370      3.060      4.812
REMARK INTER + INTRA:          -1.881
REMARK INTER:                  -1.723
REMARK INTRA:                  -0.158
REMARK UNBOUND:                -0.151
REMARK SMILES CCCCCCO
REMARK SMILES IDX 4 1 3 2 2 3 1 4 5 5 6 6 7 7
REMARK H PARENT 7 8
REMARK Flexibility Score: inf
ROOT
ATOM      1  C   UNL     1     127.000 110.536 132.980  1.00  0.00     0.002 C 
ENDROOT
BRANCH   1   2
ATOM      2  C   UNL     1     126.779 109.523 134.110  1.00  0.00    -0.000 C 
BRANCH   2   3
ATOM      3  C   UNL     1     127.057 108.094 133.630  1.00  0.00    -0.003 C 
ATOM      4  C   UNL     1     126.432 107.065 134.567  1.00  0.00     0.004 C 
ENDBRANCH   2   3
ENDBRANCH   1   2
BRANCH   1   5
ATOM      5  C   UNL     1     127.125 109.829 131.625  1.00  0.00     0.028 C 
BRANCH   5   6
ATOM      6  C   UNL     1     126.099 110.344 130.611  1.00  0.00     0.156 C 
BRANCH   6   7
ATOM      7  O   UNL     1     124.795 110.019 131.016  1.00  0.00    -0.396 OA
ATOM      8  H   UNL     1     124.430 109.393 130.337  1.00  0.00     0.210 HD
ENDBRANCH   6   7
ENDBRANCH   5   6
ENDBRANCH   1   5
TORSDOF 5
ENDMDL
