MODEL 1
REMARK VINA RESULT:    -7.118      0.000      0.000
REMARK INTER + INTRA:          -8.863
REMARK INTER:                  -8.575
REMARK INTRA:                  -0.289
REMARK UNBOUND:                -0.289
REMARK SMILES O=c1c(O)c(-c2ccc(O)c(O)c2)oc2cc(O)cc(O)c12
REMARK SMILES IDX 5 1 3 2 2 3 1 4 22 5 20 6 19 7 17 8 16 9 15 10 14 11 6 12
REMARK SMILES IDX 7 13 8 14 9 15 13 16 11 17 10 18 12 20 4 22 21 24 18 26
REMARK H PARENT 10 19 12 21 4 23 21 25 18 27
REMARK Flexibility Score: inf
ROOT
ATOM      1  C   UNL     1     -12.013  -6.797  17.976  1.00  0.00     0.180 A 
ATOM      2  C   UNL     1     -13.148  -6.978  18.785  1.00  0.00     0.208 A 
ATOM      3  C   UNL     1     -13.863  -8.184  18.695  1.00  0.00     0.238 A 
ATOM      4  O   UNL     1     -14.909  -8.319  19.381  1.00  0.00    -0.285 OA
ATOM      5  C   UNL     1     -13.424  -9.199  17.811  1.00  0.00     0.111 A 
ATOM      6  C   UNL     1     -14.048 -10.475  17.669  1.00  0.00     0.134 A 
ATOM      7  C   UNL     1     -13.607 -11.352  16.670  1.00  0.00     0.093 A 
ATOM      8  C   UNL     1     -12.522 -11.025  15.851  1.00  0.00     0.123 A 
ATOM      9  C   UNL     1     -11.869  -9.806  16.023  1.00  0.00     0.094 A 
ATOM     10  C   UNL     1     -12.309  -8.896  16.987  1.00  0.00     0.146 A 
ATOM     11  O   UNL     1     -11.665  -7.742  17.109  1.00  0.00    -0.452 OA
ENDROOT
BRANCH   1  12
ATOM     12  C   UNL     1     -11.195  -5.565  18.032  1.00  0.00     0.025 A 
ATOM     13  C   UNL     1     -10.016  -5.552  18.795  1.00  0.00     0.016 A 
ATOM     14  C   UNL     1      -9.239  -4.394  18.881  1.00  0.00     0.051 A 
ATOM     15  C   UNL     1      -9.638  -3.227  18.216  1.00  0.00     0.157 A 
ATOM     16  C   UNL     1     -11.601  -4.384  17.384  1.00  0.00     0.062 A 
ATOM     17  C   UNL     1     -10.822  -3.221  17.470  1.00  0.00     0.158 A 
BRANCH  15  18
ATOM     18  O   UNL     1      -8.865  -2.070  18.296  1.00  0.00    -0.504 OA
ATOM     19  H   UNL     1      -8.360  -1.713  17.493  1.00  0.00     0.293 HD
ENDBRANCH  15  18
BRANCH  17  20
ATOM     20  O   UNL     1     -11.223  -2.055  16.821  1.00  0.00    -0.504 OA
ATOM     21  H   UNL     1     -11.296  -2.007  15.811  1.00  0.00     0.293 HD
ENDBRANCH  17  20
ENDBRANCH   1  12
BRANCH   2  22
ATOM     22  O   UNL     1     -13.577  -5.955  19.634  1.00  0.00    -0.502 OA
ATOM     23  H   UNL     1     -14.265  -6.104  20.363  1.00  0.00     0.293 HD
ENDBRANCH   2  22
BRANCH   6  24
ATOM     24  O   UNL     1     -15.076 -10.937  18.494  1.00  0.00    -0.507 OA
ATOM     25  H   UNL     1     -15.942 -11.337  18.166  1.00  0.00     0.293 HD
ENDBRANCH   6  24
BRANCH   8  26
ATOM     26  O   UNL     1     -12.080 -11.910  14.871  1.00  0.00    -0.508 OA
ATOM     27  H   UNL     1     -11.383 -11.638  14.187  1.00  0.00     0.293 HD
ENDBRANCH   8  26
TORSDOF 6
ENDMDL
MODEL 2
REMARK VINA RESULT:    -6.999      3.531      6.977
REMARK INTER + INTRA:          -8.719
REMARK INTER:                  -8.482
REMARK INTRA:                  -0.238
REMARK UNBOUND:                -0.289
REMARK SMILES O=c1c(O)c(-c2ccc(O)c(O)c2)oc2cc(O)cc(O)c12
REMARK SMILES IDX 5 1 3 2 2 3 1 4 22 5 20 6 19 7 17 8 16 9 15 10 14 11 6 12
REMARK SMILES IDX 7 13 8 14 9 15 13 16 11 17 10 18 12 20 4 22 21 24 18 26
REMARK H PARENT 10 19 12 21 4 23 21 25 18 27
REMARK Flexibility Score: inf
ROOT
ATOM      1  C   UNL     1     -14.106  -6.009  17.564  1.00  0.00     0.180 A 
ATOM      2  C   UNL     1     -13.221  -5.090  18.154  1.00  0.00     0.208 A 
ATOM      3  C   UNL     1     -13.694  -3.813  18.498  1.00  0.00     0.238 A 
ATOM      4  O   UNL     1     -12.884  -2.977  18.976  1.00  0.00    -0.285 OA
ATOM      5  C   UNL     1     -15.050  -3.478  18.264  1.00  0.00     0.111 A 
ATOM      6  C   UNL     1     -15.647  -2.228  18.610  1.00  0.00     0.134 A 
ATOM      7  C   UNL     1     -16.962  -1.958  18.213  1.00  0.00     0.093 A 
ATOM      8  C   UNL     1     -17.723  -2.917  17.539  1.00  0.00     0.123 A 
ATOM      9  C   UNL     1     -17.168  -4.162  17.250  1.00  0.00     0.094 A 
ATOM     10  C   UNL     1     -15.846  -4.447  17.601  1.00  0.00     0.146 A 
ATOM     11  O   UNL     1     -15.354  -5.642  17.296  1.00  0.00    -0.452 OA
ENDROOT
BRANCH   1  12
ATOM     12  C   UNL     1     -13.686  -7.380  17.196  1.00  0.00     0.025 A 
ATOM     13  C   UNL     1     -14.090  -8.464  17.994  1.00  0.00     0.016 A 
ATOM     14  C   UNL     1     -13.688  -9.764  17.679  1.00  0.00     0.051 A 
ATOM     15  C   UNL     1     -12.866  -9.999  16.570  1.00  0.00     0.157 A 
ATOM     16  C   UNL     1     -12.844  -7.620  16.095  1.00  0.00     0.062 A 
ATOM     17  C   UNL     1     -12.440  -8.926  15.780  1.00  0.00     0.158 A 
BRANCH  15  18
ATOM     18  O   UNL     1     -12.465 -11.295  16.250  1.00  0.00    -0.504 OA
ATOM     19  H   UNL     1     -11.565 -11.481  15.822  1.00  0.00     0.293 HD
ENDBRANCH  15  18
BRANCH  17  20
ATOM     20  O   UNL     1     -11.610  -9.161  14.684  1.00  0.00    -0.504 OA
ATOM     21  H   UNL     1     -10.861  -8.524  14.440  1.00  0.00     0.293 HD
ENDBRANCH  17  20
ENDBRANCH   1  12
BRANCH   2  22
ATOM     22  O   UNL     1     -11.881  -5.434  18.355  1.00  0.00    -0.502 OA
ATOM     23  H   UNL     1     -11.410  -6.137  17.798  1.00  0.00     0.293 HD
ENDBRANCH   2  22
BRANCH   6  24
ATOM     24  O   UNL     1     -15.006  -1.239  19.361  1.00  0.00    -0.507 OA
ATOM     25  H   UNL     1     -15.473  -0.470  19.818  1.00  0.00     0.293 HD
ENDBRANCH   6  24
BRANCH   8  26
ATOM     26  O   UNL     1     -19.036  -2.646  17.162  1.00  0.00    -0.508 OA
ATOM     27  H   UNL     1     -19.382  -1.696  17.092  1.00  0.00     0.293 HD
ENDBRANCH   8  26
TORSDOF 6
ENDMDL
MODEL 3
REMARK VINA RESULT:    -6.910      1.548      6.954
REMARK INTER + INTRA:          -8.612
REMARK INTER:                  -8.321
REMARK INTRA:                  -0.291
REMARK UNBOUND:                -0.289
REMARK SMILES O=c1c(O)c(-c2ccc(O)c(O)c2)oc2cc(O)cc(O)c12
REMARK SMILES IDX 5 1 3 2 2 3 1 4 22 5 20 6 19 7 17 8 16 9 15 10 14 11 6 12
REMARK SMILES IDX 7 13 8 14 9 15 13 16 11 17 10 18 12 20 4 22 21 24 18 26
REMARK H PARENT 10 19 12 21 4 23 21 25 18 27
REMARK Flexibility Score: inf
ROOT
ATOM      1  C   UNL     1     -11.601  -7.129  17.746  1.00  0.00     0.180 A 
ATOM      2  C   UNL     1     -12.201  -5.912  17.379  1.00  0.00     0.208 A 
ATOM      3  C   UNL     1     -11.571  -4.708  17.735  1.00  0.00     0.238 A 
ATOM      4  O   UNL     1     -12.140  -3.622  17.452  1.00  0.00    -0.285 OA
ATOM      5  C   UNL     1     -10.341  -4.737  18.436  1.00  0.00     0.111 A 
ATOM      6  C   UNL     1      -9.595  -3.579  18.811  1.00  0.00     0.134 A 
ATOM      7  C   UNL     1      -8.459  -3.721  19.617  1.00  0.00     0.093 A 
ATOM      8  C   UNL     1      -8.005  -4.985  20.007  1.00  0.00     0.123 A 
ATOM      9  C   UNL     1      -8.693  -6.124  19.595  1.00  0.00     0.094 A 
ATOM     10  C   UNL     1      -9.851  -6.012  18.822  1.00  0.00     0.146 A 
ATOM     11  O   UNL     1     -10.482  -7.123  18.460  1.00  0.00    -0.452 OA
ENDROOT
BRANCH   1  12
ATOM     12  C   UNL     1     -12.192  -8.438  17.385  1.00  0.00     0.025 A 
ATOM     13  C   UNL     1     -11.716  -9.124  16.255  1.00  0.00     0.016 A 
ATOM     14  C   UNL     1     -12.274 -10.350  15.883  1.00  0.00     0.051 A 
ATOM     15  C   UNL     1     -13.325 -10.901  16.628  1.00  0.00     0.157 A 
ATOM     16  C   UNL     1     -13.261  -8.987  18.117  1.00  0.00     0.062 A 
ATOM     17  C   UNL     1     -13.821 -10.217  17.743  1.00  0.00     0.158 A 
BRANCH  15  18
ATOM     18  O   UNL     1     -13.882 -12.125  16.262  1.00  0.00    -0.504 OA
ATOM     19  H   UNL     1     -13.648 -12.572  15.384  1.00  0.00     0.293 HD
ENDBRANCH  15  18
BRANCH  17  20
ATOM     20  O   UNL     1     -14.876 -10.762  18.474  1.00  0.00    -0.504 OA
ATOM     21  H   UNL     1     -15.237 -10.306  19.304  1.00  0.00     0.293 HD
ENDBRANCH  17  20
ENDBRANCH   1  12
BRANCH   2  22
ATOM     22  O   UNL     1     -13.426  -5.907  16.707  1.00  0.00    -0.502 OA
ATOM     23  H   UNL     1     -14.240  -5.421  17.063  1.00  0.00     0.293 HD
ENDBRANCH   2  22
BRANCH   6  24
ATOM     24  O   UNL     1      -9.909  -2.282  18.399  1.00  0.00    -0.507 OA
ATOM     25  H   UNL     1     -10.605  -2.051  17.706  1.00  0.00     0.293 HD
ENDBRANCH   6  24
BRANCH   8  26
ATOM     26  O   UNL     1      -6.864  -5.118  20.795  1.00  0.00    -0.508 OA
ATOM     27  H   UNL     1      -6.183  -5.847  20.622  1.00  0.00     0.293 HD
ENDBRANCH   8  26
TORSDOF 6
ENDMDL
MODEL 4
REMARK VINA RESULT:    -6.704      3.924      4.781
REMARK INTER + INTRA:          -8.364
REMARK INTER:                  -8.043
REMARK INTRA:                  -0.321
REMARK UNBOUND:                -0.289
REMARK SMILES O=c1c(O)c(-c2ccc(O)c(O)c2)oc2cc(O)cc(O)c12
REMARK SMILES IDX 5 1 3 2 2 3 1 4 22 5 20 6 19 7 17 8 16 9 15 10 14 11 6 12
REMARK SMILES IDX 7 13 8 14 9 15 13 16 11 17 10 18 12 20 4 22 21 24 18 26
REMARK H PARENT 10 19 12 21 4 23 21 25 18 27
REMARK Flexibility Score: inf
ROOT
ATOM      1  C   UNL     1     -15.716  -5.459  18.526  1.00  0.00     0.180 A 
ATOM      2  C   UNL     1     -16.262  -6.544  19.233  1.00  0.00     0.208 A 
ATOM      3  C   UNL     1     -15.767  -7.835  18.987  1.00  0.00     0.238 A 
ATOM      4  O   UNL     1     -16.297  -8.809  19.583  1.00  0.00    -0.285 OA
ATOM      5  C   UNL     1     -14.722  -8.022  18.050  1.00  0.00     0.111 A 
ATOM      6  C   UNL     1     -14.116  -9.280  17.753  1.00  0.00     0.134 A 
ATOM      7  C   UNL     1     -13.182  -9.368  16.714  1.00  0.00     0.093 A 
ATOM      8  C   UNL     1     -12.781  -8.231  16.007  1.00  0.00     0.123 A 
ATOM      9  C   UNL     1     -13.322  -6.989  16.331  1.00  0.00     0.094 A 
ATOM     10  C   UNL     1     -14.285  -6.876  17.337  1.00  0.00     0.146 A 
ATOM     11  O   UNL     1     -14.783  -5.675  17.607  1.00  0.00    -0.452 OA
ENDROOT
BRANCH   1  12
ATOM     12  C   UNL     1     -16.168  -4.067  18.749  1.00  0.00     0.025 A 
ATOM     13  C   UNL     1     -15.524  -3.277  19.716  1.00  0.00     0.016 A 
ATOM     14  C   UNL     1     -15.948  -1.968  19.958  1.00  0.00     0.051 A 
ATOM     15  C   UNL     1     -17.031  -1.434  19.248  1.00  0.00     0.157 A 
ATOM     16  C   UNL     1     -17.269  -3.533  18.053  1.00  0.00     0.062 A 
ATOM     17  C   UNL     1     -17.695  -2.219  18.298  1.00  0.00     0.158 A 
BRANCH  15  18
ATOM     18  O   UNL     1     -17.455  -0.128  19.484  1.00  0.00    -0.504 OA
ATOM     19  H   UNL     1     -16.898   0.670  19.202  1.00  0.00     0.293 HD
ENDBRANCH  15  18
BRANCH  17  20
ATOM     20  O   UNL     1     -18.781  -1.690  17.602  1.00  0.00    -0.504 OA
ATOM     21  H   UNL     1     -19.508  -2.284  17.223  1.00  0.00     0.293 HD
ENDBRANCH  17  20
ENDBRANCH   1  12
BRANCH   2  22
ATOM     22  O   UNL     1     -17.308  -6.340  20.137  1.00  0.00    -0.502 OA
ATOM     23  H   UNL     1     -18.279  -6.302  19.846  1.00  0.00     0.293 HD
ENDBRANCH   2  22
BRANCH   6  24
ATOM     24  O   UNL     1     -14.376 -10.458  18.459  1.00  0.00    -0.507 OA
ATOM     25  H   UNL     1     -15.206 -11.021  18.352  1.00  0.00     0.293 HD
ENDBRANCH   6  24
BRANCH   8  26
ATOM     26  O   UNL     1     -11.838  -8.324  14.986  1.00  0.00    -0.508 OA
ATOM     27  H   UNL     1     -11.987  -8.918  14.179  1.00  0.00     0.293 HD
ENDBRANCH   8  26
TORSDOF 6
ENDMDL
MODEL 5
REMARK VINA RESULT:    -6.693      3.378      6.027
REMARK INTER + INTRA:          -8.351
REMARK INTER:                  -8.016
REMARK INTRA:                  -0.335
REMARK UNBOUND:                -0.289
REMARK SMILES O=c1c(O)c(-c2ccc(O)c(O)c2)oc2cc(O)cc(O)c12
REMARK SMILES IDX 5 1 3 2 2 3 1 4 22 5 20 6 19 7 17 8 16 9 15 10 14 11 6 12
REMARK SMILES IDX 7 13 8 14 9 15 13 16 11 17 10 18 12 20 4 22 21 24 18 26
REMARK H PARENT 10 19 12 21 4 23 21 25 18 27
REMARK Flexibility Score: inf
ROOT
ATOM      1  C   UNL     1     -14.219  -5.481  18.401  1.00  0.00     0.180 A 
ATOM      2  C   UNL     1     -14.122  -6.878  18.283  1.00  0.00     0.208 A 
ATOM      3  C   UNL     1     -12.869  -7.490  18.453  1.00  0.00     0.238 A 
ATOM      4  O   UNL     1     -12.778  -8.735  18.292  1.00  0.00    -0.285 OA
ATOM      5  C   UNL     1     -11.734  -6.699  18.755  1.00  0.00     0.111 A 
ATOM      6  C   UNL     1     -10.424  -7.217  18.988  1.00  0.00     0.134 A 
ATOM      7  C   UNL     1      -9.351  -6.333  19.149  1.00  0.00     0.093 A 
ATOM      8  C   UNL     1      -9.550  -4.949  19.151  1.00  0.00     0.123 A 
ATOM      9  C   UNL     1     -10.835  -4.436  18.985  1.00  0.00     0.094 A 
ATOM     10  C   UNL     1     -11.920  -5.292  18.786  1.00  0.00     0.146 A 
ATOM     11  O   UNL     1     -13.125  -4.761  18.620  1.00  0.00    -0.452 OA
ENDROOT
BRANCH   1  12
ATOM     12  C   UNL     1     -15.509  -4.767  18.261  1.00  0.00     0.025 A 
ATOM     13  C   UNL     1     -15.881  -4.252  17.008  1.00  0.00     0.016 A 
ATOM     14  C   UNL     1     -17.083  -3.557  16.856  1.00  0.00     0.051 A 
ATOM     15  C   UNL     1     -17.924  -3.353  17.958  1.00  0.00     0.157 A 
ATOM     16  C   UNL     1     -16.347  -4.542  19.368  1.00  0.00     0.062 A 
ATOM     17  C   UNL     1     -17.554  -3.842  19.216  1.00  0.00     0.158 A 
BRANCH  15  18
ATOM     18  O   UNL     1     -19.125  -2.662  17.811  1.00  0.00    -0.504 OA
ATOM     19  H   UNL     1     -19.144  -1.667  17.620  1.00  0.00     0.293 HD
ENDBRANCH  15  18
BRANCH  17  20
ATOM     20  O   UNL     1     -18.386  -3.627  20.313  1.00  0.00    -0.504 OA
ATOM     21  H   UNL     1     -18.041  -3.199  21.164  1.00  0.00     0.293 HD
ENDBRANCH  17  20
ENDBRANCH   1  12
BRANCH   2  22
ATOM     22  O   UNL     1     -15.250  -7.637  17.963  1.00  0.00    -0.502 OA
ATOM     23  H   UNL     1     -15.367  -8.085  17.061  1.00  0.00     0.293 HD
ENDBRANCH   2  22
BRANCH   6  24
ATOM     24  O   UNL     1     -10.132  -8.579  19.096  1.00  0.00    -0.507 OA
ATOM     25  H   UNL     1      -9.222  -8.987  18.940  1.00  0.00     0.293 HD
ENDBRANCH   6  24
BRANCH   8  26
ATOM     26  O   UNL     1      -8.479  -4.077  19.329  1.00  0.00    -0.508 OA
ATOM     27  H   UNL     1      -8.617  -3.126  19.647  1.00  0.00     0.293 HD
ENDBRANCH   8  26
TORSDOF 6
ENDMDL
MODEL 6
REMARK VINA RESULT:    -6.633      3.605      6.697
REMARK INTER + INTRA:          -8.279
REMARK INTER:                  -7.970
REMARK INTRA:                  -0.310
REMARK UNBOUND:                -0.289
REMARK SMILES O=c1c(O)c(-c2ccc(O)c(O)c2)oc2cc(O)cc(O)c12
REMARK SMILES IDX 5 1 3 2 2 3 1 4 22 5 20 6 19 7 17 8 16 9 15 10 14 11 6 12
REMARK SMILES IDX 7 13 8 14 9 15 13 16 11 17 10 18 12 20 4 22 21 24 18 26
REMARK H PARENT 10 19 12 21 4 23 21 25 18 27
REMARK Flexibility Score: inf
ROOT
ATOM      1  C   UNL     1     -14.802  -6.252  17.828  1.00  0.00     0.180 A 
ATOM      2  C   UNL     1     -16.001  -6.712  18.399  1.00  0.00     0.208 A 
ATOM      3  C   UNL     1     -16.998  -5.780  18.731  1.00  0.00     0.238 A 
ATOM      4  O   UNL     1     -18.047  -6.191  19.292  1.00  0.00    -0.285 OA
ATOM      5  C   UNL     1     -16.791  -4.404  18.471  1.00  0.00     0.111 A 
ATOM      6  C   UNL     1     -17.749  -3.377  18.728  1.00  0.00     0.134 A 
ATOM      7  C   UNL     1     -17.387  -2.036  18.554  1.00  0.00     0.093 A 
ATOM      8  C   UNL     1     -16.123  -1.688  18.069  1.00  0.00     0.123 A 
ATOM      9  C   UNL     1     -15.202  -2.686  17.758  1.00  0.00     0.094 A 
ATOM     10  C   UNL     1     -15.522  -4.031  17.956  1.00  0.00     0.146 A 
ATOM     11  O   UNL     1     -14.611  -4.949  17.658  1.00  0.00    -0.452 OA
ENDROOT
BRANCH   1  12
ATOM     12  C   UNL     1     -13.715  -7.176  17.430  1.00  0.00     0.025 A 
ATOM     13  C   UNL     1     -13.657  -7.646  16.107  1.00  0.00     0.016 A 
ATOM     14  C   UNL     1     -12.653  -8.535  15.714  1.00  0.00     0.051 A 
ATOM     15  C   UNL     1     -11.701  -8.978  16.641  1.00  0.00     0.157 A 
ATOM     16  C   UNL     1     -12.769  -7.641  18.362  1.00  0.00     0.062 A 
ATOM     17  C   UNL     1     -11.762  -8.534  17.967  1.00  0.00     0.158 A 
BRANCH  15  18
ATOM     18  O   UNL     1     -10.697  -9.863  16.253  1.00  0.00    -0.504 OA
ATOM     19  H   UNL     1     -10.393 -10.617  16.858  1.00  0.00     0.293 HD
ENDBRANCH  15  18
BRANCH  17  20
ATOM     20  O   UNL     1     -10.821  -8.987  18.891  1.00  0.00    -0.504 OA
ATOM     21  H   UNL     1     -10.302  -9.845  18.743  1.00  0.00     0.293 HD
ENDBRANCH  17  20
ENDBRANCH   1  12
BRANCH   2  22
ATOM     22  O   UNL     1     -16.176  -8.072  18.668  1.00  0.00    -0.502 OA
ATOM     23  H   UNL     1     -15.736  -8.798  18.113  1.00  0.00     0.293 HD
ENDBRANCH   2  22
BRANCH   6  24
ATOM     24  O   UNL     1     -19.066  -3.622  19.126  1.00  0.00    -0.507 OA
ATOM     25  H   UNL     1     -19.806  -2.936  19.118  1.00  0.00     0.293 HD
ENDBRANCH   6  24
BRANCH   8  26
ATOM     26  O   UNL     1     -15.777  -0.351  17.884  1.00  0.00    -0.508 OA
ATOM     27  H   UNL     1     -16.480   0.376  17.830  1.00  0.00     0.293 HD
ENDBRANCH   8  26
TORSDOF 6
ENDMDL
MODEL 7
REMARK VINA RESULT:    -6.449      4.825      8.011
REMARK INTER + INTRA:          -8.057
REMARK INTER:                  -7.817
REMARK INTRA:                  -0.240
REMARK UNBOUND:                -0.289
REMARK SMILES O=c1c(O)c(-c2ccc(O)c(O)c2)oc2cc(O)cc(O)c12
REMARK SMILES IDX 5 1 3 2 2 3 1 4 22 5 20 6 19 7 17 8 16 9 15 10 14 11 6 12
REMARK SMILES IDX 7 13 8 14 9 15 13 16 11 17 10 18 12 20 4 22 21 24 18 26
REMARK H PARENT 10 19 12 21 4 23 21 25 18 27
REMARK Flexibility Score: inf
ROOT
ATOM      1  C   UNL     1     -16.066  -6.602  20.724  1.00  0.00     0.180 A 
ATOM      2  C   UNL     1     -15.346  -6.971  19.576  1.00  0.00     0.208 A 
ATOM      3  C   UNL     1     -15.480  -6.198  18.410  1.00  0.00     0.238 A 
ATOM      4  O   UNL     1     -14.875  -6.564  17.369  1.00  0.00    -0.285 OA
ATOM      5  C   UNL     1     -16.319  -5.057  18.415  1.00  0.00     0.111 A 
ATOM      6  C   UNL     1     -16.498  -4.178  17.303  1.00  0.00     0.134 A 
ATOM      7  C   UNL     1     -17.452  -3.157  17.377  1.00  0.00     0.093 A 
ATOM      8  C   UNL     1     -18.188  -2.942  18.546  1.00  0.00     0.123 A 
ATOM      9  C   UNL     1     -17.977  -3.756  19.657  1.00  0.00     0.094 A 
ATOM     10  C   UNL     1     -17.058  -4.806  19.600  1.00  0.00     0.146 A 
ATOM     11  O   UNL     1     -16.896  -5.566  20.677  1.00  0.00    -0.452 OA
ENDROOT
BRANCH   1  12
ATOM     12  C   UNL     1     -15.957  -7.352  21.996  1.00  0.00     0.025 A 
ATOM     13  C   UNL     1     -16.585  -8.603  22.117  1.00  0.00     0.016 A 
ATOM     14  C   UNL     1     -16.514  -9.319  23.315  1.00  0.00     0.051 A 
ATOM     15  C   UNL     1     -15.826  -8.788  24.413  1.00  0.00     0.157 A 
ATOM     16  C   UNL     1     -15.286  -6.815  23.110  1.00  0.00     0.062 A 
ATOM     17  C   UNL     1     -15.215  -7.533  24.312  1.00  0.00     0.158 A 
BRANCH  15  18
ATOM     18  O   UNL     1     -15.750  -9.500  25.609  1.00  0.00    -0.504 OA
ATOM     19  H   UNL     1     -16.199  -9.166  26.454  1.00  0.00     0.293 HD
ENDBRANCH  15  18
BRANCH  17  20
ATOM     20  O   UNL     1     -14.543  -7.001  25.412  1.00  0.00    -0.504 OA
ATOM     21  H   UNL     1     -15.043  -6.581  26.187  1.00  0.00     0.293 HD
ENDBRANCH  17  20
ENDBRANCH   1  12
BRANCH   2  22
ATOM     22  O   UNL     1     -14.541  -8.113  19.587  1.00  0.00    -0.502 OA
ATOM     23  H   UNL     1     -14.913  -9.039  19.760  1.00  0.00     0.293 HD
ENDBRANCH   2  22
BRANCH   6  24
ATOM     24  O   UNL     1     -15.750  -4.249  16.125  1.00  0.00    -0.507 OA
ATOM     25  H   UNL     1     -15.853  -4.964  15.420  1.00  0.00     0.293 HD
ENDBRANCH   6  24
BRANCH   8  26
ATOM     26  O   UNL     1     -19.124  -1.912  18.617  1.00  0.00    -0.508 OA
ATOM     27  H   UNL     1     -19.708  -1.782  19.434  1.00  0.00     0.293 HD
ENDBRANCH   8  26
TORSDOF 6
ENDMDL
MODEL 8
REMARK VINA RESULT:    -6.415      2.796      4.238
REMARK INTER + INTRA:          -8.016
REMARK INTER:                  -7.695
REMARK INTRA:                  -0.321
REMARK UNBOUND:                -0.289
REMARK SMILES O=c1c(O)c(-c2ccc(O)c(O)c2)oc2cc(O)cc(O)c12
REMARK SMILES IDX 5 1 3 2 2 3 1 4 22 5 20 6 19 7 17 8 16 9 15 10 14 11 6 12
REMARK SMILES IDX 7 13 8 14 9 15 13 16 11 17 10 18 12 20 4 22 21 24 18 26
REMARK H PARENT 10 19 12 21 4 23 21 25 18 27
REMARK Flexibility Score: inf
ROOT
ATOM      1  C   UNL     1     -10.438  -4.402  18.387  1.00  0.00     0.180 A 
ATOM      2  C   UNL     1     -11.367  -3.684  19.159  1.00  0.00     0.208 A 
ATOM      3  C   UNL     1     -12.729  -4.014  19.067  1.00  0.00     0.238 A 
ATOM      4  O   UNL     1     -13.562  -3.332  19.719  1.00  0.00    -0.285 OA
ATOM      5  C   UNL     1     -13.142  -5.071  18.219  1.00  0.00     0.111 A 
ATOM      6  C   UNL     1     -14.490  -5.518  18.080  1.00  0.00     0.134 A 
ATOM      7  C   UNL     1     -14.801  -6.482  17.114  1.00  0.00     0.093 A 
ATOM      8  C   UNL     1     -13.802  -7.064  16.328  1.00  0.00     0.123 A 
ATOM      9  C   UNL     1     -12.475  -6.677  16.499  1.00  0.00     0.094 A 
ATOM     10  C   UNL     1     -12.139  -5.690  17.429  1.00  0.00     0.146 A 
ATOM     11  O   UNL     1     -10.863  -5.343  17.552  1.00  0.00    -0.452 OA
ENDROOT
BRANCH   1  12
ATOM     12  C   UNL     1      -8.984  -4.128  18.449  1.00  0.00     0.025 A 
ATOM     13  C   UNL     1      -8.384  -3.353  17.443  1.00  0.00     0.016 A 
ATOM     14  C   UNL     1      -7.010  -3.100  17.469  1.00  0.00     0.051 A 
ATOM     15  C   UNL     1      -6.214  -3.629  18.493  1.00  0.00     0.157 A 
ATOM     16  C   UNL     1      -8.177  -4.675  19.464  1.00  0.00     0.062 A 
ATOM     17  C   UNL     1      -6.798  -4.421  19.489  1.00  0.00     0.158 A 
BRANCH  15  18
ATOM     18  O   UNL     1      -4.844  -3.377  18.524  1.00  0.00    -0.504 OA
ATOM     19  H   UNL     1      -4.240  -3.635  17.752  1.00  0.00     0.293 HD
ENDBRANCH  15  18
BRANCH  17  20
ATOM     20  O   UNL     1      -6.002  -4.958  20.499  1.00  0.00    -0.504 OA
ATOM     21  H   UNL     1      -5.878  -4.483  21.386  1.00  0.00     0.293 HD
ENDBRANCH  17  20
ENDBRANCH   1  12
BRANCH   2  22
ATOM     22  O   UNL     1     -10.940  -2.631  19.972  1.00  0.00    -0.502 OA
ATOM     23  H   UNL     1     -11.552  -2.176  20.640  1.00  0.00     0.293 HD
ENDBRANCH   2  22
BRANCH   6  24
ATOM     24  O   UNL     1     -15.547  -5.070  18.877  1.00  0.00    -0.507 OA
ATOM     25  H   UNL     1     -15.442  -4.504  19.706  1.00  0.00     0.293 HD
ENDBRANCH   6  24
BRANCH   8  26
ATOM     26  O   UNL     1     -14.119  -8.036  15.381  1.00  0.00    -0.508 OA
ATOM     27  H   UNL     1     -14.204  -7.809  14.398  1.00  0.00     0.293 HD
ENDBRANCH   8  26
TORSDOF 6
ENDMDL
MODEL 9
REMARK VINA RESULT:    -6.300      3.241      5.031
REMARK INTER + INTRA:          -7.878
REMARK INTER:                  -7.549
REMARK INTRA:                  -0.329
REMARK UNBOUND:                -0.289
REMARK SMILES O=c1c(O)c(-c2ccc(O)c(O)c2)oc2cc(O)cc(O)c12
REMARK SMILES IDX 5 1 3 2 2 3 1 4 22 5 20 6 19 7 17 8 16 9 15 10 14 11 6 12
REMARK SMILES IDX 7 13 8 14 9 15 13 16 11 17 10 18 12 20 4 22 21 24 18 26
REMARK H PARENT 10 19 12 21 4 23 21 25 18 27
REMARK Flexibility Score: inf
ROOT
ATOM      1  C   UNL     1     -12.939  -4.455  18.275  1.00  0.00     0.180 A 
ATOM      2  C   UNL     1     -13.303  -5.794  18.500  1.00  0.00     0.208 A 
ATOM      3  C   UNL     1     -14.661  -6.149  18.439  1.00  0.00     0.238 A 
ATOM      4  O   UNL     1     -14.987  -7.337  18.695  1.00  0.00    -0.285 OA
ATOM      5  C   UNL     1     -15.634  -5.164  18.138  1.00  0.00     0.111 A 
ATOM      6  C   UNL     1     -17.033  -5.420  18.011  1.00  0.00     0.134 A 
ATOM      7  C   UNL     1     -17.917  -4.349  17.840  1.00  0.00     0.093 A 
ATOM      8  C   UNL     1     -17.447  -3.037  17.726  1.00  0.00     0.123 A 
ATOM      9  C   UNL     1     -16.079  -2.785  17.789  1.00  0.00     0.094 A 
ATOM     10  C   UNL     1     -15.175  -3.830  17.995  1.00  0.00     0.146 A 
ATOM     11  O   UNL     1     -13.880  -3.543  18.060  1.00  0.00    -0.452 OA
ENDROOT
BRANCH   1  12
ATOM     12  C   UNL     1     -11.527  -4.010  18.297  1.00  0.00     0.025 A 
ATOM     13  C   UNL     1     -10.965  -3.552  19.500  1.00  0.00     0.016 A 
ATOM     14  C   UNL     1      -9.641  -3.106  19.540  1.00  0.00     0.051 A 
ATOM     15  C   UNL     1      -8.864  -3.100  18.375  1.00  0.00     0.157 A 
ATOM     16  C   UNL     1     -10.748  -3.982  17.126  1.00  0.00     0.062 A 
ATOM     17  C   UNL     1      -9.419  -3.534  17.166  1.00  0.00     0.158 A 
BRANCH  15  18
ATOM     18  O   UNL     1      -7.543  -2.659  18.411  1.00  0.00    -0.504 OA
ATOM     19  H   UNL     1      -7.177  -2.145  19.204  1.00  0.00     0.293 HD
ENDBRANCH  15  18
BRANCH  17  20
ATOM     20  O   UNL     1      -8.648  -3.514  16.005  1.00  0.00    -0.504 OA
ATOM     21  H   UNL     1      -8.803  -2.827  15.276  1.00  0.00     0.293 HD
ENDBRANCH  17  20
ENDBRANCH   1  12
BRANCH   2  22
ATOM     22  O   UNL     1     -12.330  -6.744  18.818  1.00  0.00    -0.502 OA
ATOM     23  H   UNL     1     -12.451  -7.732  18.627  1.00  0.00     0.293 HD
ENDBRANCH   2  22
BRANCH   6  24
ATOM     24  O   UNL     1     -17.596  -6.699  18.018  1.00  0.00    -0.507 OA
ATOM     25  H   UNL     1     -18.255  -7.041  17.336  1.00  0.00     0.293 HD
ENDBRANCH   6  24
BRANCH   8  26
ATOM     26  O   UNL     1     -18.334  -1.978  17.540  1.00  0.00    -0.508 OA
ATOM     27  H   UNL     1     -18.519  -1.598  16.620  1.00  0.00     0.293 HD
ENDBRANCH   8  26
TORSDOF 6
ENDMDL
