MODEL 1
REMARK VINA RESULT:     0.823      0.000      0.000
REMARK INTER + INTRA:           0.662
REMARK INTER:                   0.991
REMARK INTRA:                  -0.329
REMARK UNBOUND:                -0.329
REMARK SMILES O=c1c(O)c(-c2ccc(O)c(O)c2)oc2cc(O)cc(O)c12
REMARK SMILES IDX 5 1 3 2 2 3 1 4 22 5 20 6 19 7 17 8 16 9 15 10 14 11 6 12
REMARK SMILES IDX 7 13 8 14 9 15 13 16 11 17 10 18 12 20 4 22 21 24 18 26
REMARK H PARENT 10 19 12 21 4 23 21 25 18 27
REMARK Flexibility Score: inf
ROOT
ATOM      1  C   UNL     1     136.748 136.623 137.270  1.00  0.00     0.180 A 
ATOM      2  C   UNL     1     137.378 135.463 137.752  1.00  0.00     0.208 A 
ATOM      3  C   UNL     1     137.814 135.429 139.086  1.00  0.00     0.238 A 
ATOM      4  O   UNL     1     138.426 134.408 139.495  1.00  0.00    -0.285 OA
ATOM      5  C   UNL     1     137.602 136.549 139.925  1.00  0.00     0.111 A 
ATOM      6  C   UNL     1     137.967 136.609 141.304  1.00  0.00     0.134 A 
ATOM      7  C   UNL     1     137.827 137.814 142.003  1.00  0.00     0.093 A 
ATOM      8  C   UNL     1     137.276 138.940 141.394  1.00  0.00     0.123 A 
ATOM      9  C   UNL     1     136.860 138.876 140.064  1.00  0.00     0.094 A 
ATOM     10  C   UNL     1     137.020 137.698 139.329  1.00  0.00     0.146 A 
ATOM     11  O   UNL     1     136.621 137.681 138.063  1.00  0.00    -0.452 OA
ENDROOT
BRANCH   1  12
ATOM     12  C   UNL     1     136.237 136.725 135.883  1.00  0.00     0.025 A 
ATOM     13  C   UNL     1     134.963 136.249 135.537  1.00  0.00     0.016 A 
ATOM     14  C   UNL     1     134.495 136.377 134.228  1.00  0.00     0.051 A 
ATOM     15  C   UNL     1     135.278 136.992 133.245  1.00  0.00     0.157 A 
ATOM     16  C   UNL     1     137.017 137.361 134.905  1.00  0.00     0.062 A 
ATOM     17  C   UNL     1     136.555 137.495 133.589  1.00  0.00     0.158 A 
BRANCH  15  18
ATOM     18  O   UNL     1     134.752 137.084 131.954  1.00  0.00    -0.504 OA
ATOM     19  H   UNL     1     134.007 137.713 131.692  1.00  0.00     0.293 HD
ENDBRANCH  15  18
BRANCH  17  20
ATOM     20  O   UNL     1     137.390 138.128 132.666  1.00  0.00    -0.504 OA
ATOM     21  H   UNL     1     137.675 137.718 131.789  1.00  0.00     0.293 HD
ENDBRANCH  17  20
ENDBRANCH   1  12
BRANCH   2  22
ATOM     22  O   UNL     1     137.597 134.377 136.900  1.00  0.00    -0.502 OA
ATOM     23  H   UNL     1     136.914 134.075 136.216  1.00  0.00     0.293 HD
ENDBRANCH   2  22
BRANCH   6  24
ATOM     24  O   UNL     1     138.443 135.516 142.033  1.00  0.00    -0.507 OA
ATOM     25  H   UNL     1     139.070 134.813 141.672  1.00  0.00     0.293 HD
ENDBRANCH   6  24
BRANCH   8  26
ATOM     26  O   UNL     1     137.137 140.119 142.124  1.00  0.00    -0.508 OA
ATOM     27  H   UNL     1     137.803 140.878 142.039  1.00  0.00     0.293 HD
ENDBRANCH   8  26
TORSDOF 6
ENDMDL
MODEL 2
REMARK VINA RESULT:     0.842      2.171      3.088
REMARK INTER + INTRA:           0.686
REMARK INTER:                   1.019
REMARK INTRA:                  -0.333
REMARK UNBOUND:                -0.329
REMARK SMILES O=c1c(O)c(-c2ccc(O)c(O)c2)oc2cc(O)cc(O)c12
REMARK SMILES IDX 5 1 3 2 2 3 1 4 22 5 20 6 19 7 17 8 16 9 15 10 14 11 6 12
REMARK SMILES IDX 7 13 8 14 9 15 13 16 11 17 10 18 12 20 4 22 21 24 18 26
REMARK H PARENT 10 19 12 21 4 23 21 25 18 27
REMARK Flexibility Score: inf
ROOT
ATOM      1  C   UNL     1     136.733 136.889 137.287  1.00  0.00     0.180 A 
ATOM      2  C   UNL     1     135.422 136.969 137.786  1.00  0.00     0.208 A 
ATOM      3  C   UNL     1     135.182 136.629 139.127  1.00  0.00     0.238 A 
ATOM      4  O   UNL     1     133.998 136.649 139.553  1.00  0.00    -0.285 OA
ATOM      5  C   UNL     1     136.257 136.229 139.955  1.00  0.00     0.111 A 
ATOM      6  C   UNL     1     136.136 135.900 141.339  1.00  0.00     0.134 A 
ATOM      7  C   UNL     1     137.244 135.392 142.029  1.00  0.00     0.093 A 
ATOM      8  C   UNL     1     138.483 135.262 141.403  1.00  0.00     0.123 A 
ATOM      9  C   UNL     1     138.629 135.637 140.067  1.00  0.00     0.094 A 
ATOM     10  C   UNL     1     137.532 136.113 139.343  1.00  0.00     0.146 A 
ATOM     11  O   UNL     1     137.710 136.448 138.070  1.00  0.00    -0.452 OA
ENDROOT
BRANCH   1  12
ATOM     12  C   UNL     1     137.069 137.256 135.891  1.00  0.00     0.025 A 
ATOM     13  C   UNL     1     137.380 138.578 135.538  1.00  0.00     0.016 A 
ATOM     14  C   UNL     1     137.716 138.895 134.220  1.00  0.00     0.051 A 
ATOM     15  C   UNL     1     137.762 137.902 133.236  1.00  0.00     0.157 A 
ATOM     16  C   UNL     1     137.134 136.254 134.910  1.00  0.00     0.062 A 
ATOM     17  C   UNL     1     137.470 136.562 133.586  1.00  0.00     0.158 A 
BRANCH  15  18
ATOM     18  O   UNL     1     138.100 138.287 131.936  1.00  0.00    -0.504 OA
ATOM     19  H   UNL     1     138.698 137.749 131.326  1.00  0.00     0.293 HD
ENDBRANCH  15  18
BRANCH  17  20
ATOM     20  O   UNL     1     137.503 135.517 132.661  1.00  0.00    -0.504 OA
ATOM     21  H   UNL     1     137.666 134.551 132.906  1.00  0.00     0.293 HD
ENDBRANCH  17  20
ENDBRANCH   1  12
BRANCH   2  22
ATOM     22  O   UNL     1     134.371 137.345 136.945  1.00  0.00    -0.502 OA
ATOM     23  H   UNL     1     134.167 136.861 136.079  1.00  0.00     0.293 HD
ENDBRANCH   2  22
BRANCH   6  24
ATOM     24  O   UNL     1     134.967 136.078 142.083  1.00  0.00    -0.507 OA
ATOM     25  H   UNL     1     134.616 136.970 142.398  1.00  0.00     0.293 HD
ENDBRANCH   6  24
BRANCH   8  26
ATOM     26  O   UNL     1     139.569 134.768 142.124  1.00  0.00    -0.508 OA
ATOM     27  H   UNL     1     139.446 134.105 142.879  1.00  0.00     0.293 HD
ENDBRANCH   8  26
TORSDOF 6
ENDMDL
MODEL 3
REMARK VINA RESULT:     0.898      2.192      3.026
REMARK INTER + INTRA:           0.754
REMARK INTER:                   1.069
REMARK INTRA:                  -0.315
REMARK UNBOUND:                -0.329
REMARK SMILES O=c1c(O)c(-c2ccc(O)c(O)c2)oc2cc(O)cc(O)c12
REMARK SMILES IDX 5 1 3 2 2 3 1 4 22 5 20 6 19 7 17 8 16 9 15 10 14 11 6 12
REMARK SMILES IDX 7 13 8 14 9 15 13 16 11 17 10 18 12 20 4 22 21 24 18 26
REMARK H PARENT 10 19 12 21 4 23 21 25 18 27
REMARK Flexibility Score: inf
ROOT
ATOM      1  C   UNL     1     136.959 136.833 137.298  1.00  0.00     0.180 A 
ATOM      2  C   UNL     1     137.713 137.904 137.808  1.00  0.00     0.208 A 
ATOM      3  C   UNL     1     137.550 138.271 139.153  1.00  0.00     0.238 A 
ATOM      4  O   UNL     1     138.187 139.265 139.589  1.00  0.00    -0.285 OA
ATOM      5  C   UNL     1     136.649 137.554 139.975  1.00  0.00     0.111 A 
ATOM      6  C   UNL     1     136.434 137.813 141.362  1.00  0.00     0.134 A 
ATOM      7  C   UNL     1     135.423 137.126 142.046  1.00  0.00     0.093 A 
ATOM      8  C   UNL     1     134.664 136.144 141.411  1.00  0.00     0.123 A 
ATOM      9  C   UNL     1     134.905 135.839 140.070  1.00  0.00     0.094 A 
ATOM     10  C   UNL     1     135.883 136.534 139.352  1.00  0.00     0.146 A 
ATOM     11  O   UNL     1     136.074 136.221 138.076  1.00  0.00    -0.452 OA
ENDROOT
BRANCH   1  12
ATOM     12  C   UNL     1     137.094 136.371 135.897  1.00  0.00     0.025 A 
ATOM     13  C   UNL     1     138.142 135.524 135.505  1.00  0.00     0.016 A 
ATOM     14  C   UNL     1     138.235 135.083 134.184  1.00  0.00     0.051 A 
ATOM     15  C   UNL     1     137.282 135.465 133.234  1.00  0.00     0.157 A 
ATOM     16  C   UNL     1     136.125 136.740 134.951  1.00  0.00     0.062 A 
ATOM     17  C   UNL     1     136.210 136.302 133.623  1.00  0.00     0.158 A 
BRANCH  15  18
ATOM     18  O   UNL     1     137.436 134.993 131.928  1.00  0.00    -0.504 OA
ATOM     19  H   UNL     1     136.707 134.528 131.407  1.00  0.00     0.293 HD
ENDBRANCH  15  18
BRANCH  17  20
ATOM     20  O   UNL     1     135.216 136.718 132.735  1.00  0.00    -0.504 OA
ATOM     21  H   UNL     1     134.590 137.491 132.909  1.00  0.00     0.293 HD
ENDBRANCH  17  20
ENDBRANCH   1  12
BRANCH   2  22
ATOM     22  O   UNL     1     138.581 138.613 136.973  1.00  0.00    -0.502 OA
ATOM     23  H   UNL     1     138.251 139.267 136.274  1.00  0.00     0.293 HD
ENDBRANCH   2  22
BRANCH   6  24
ATOM     24  O   UNL     1     137.198 138.709 142.116  1.00  0.00    -0.507 OA
ATOM     25  H   UNL     1     136.925 139.085 143.011  1.00  0.00     0.293 HD
ENDBRANCH   6  24
BRANCH   8  26
ATOM     26  O   UNL     1     133.676 135.469 142.125  1.00  0.00    -0.508 OA
ATOM     27  H   UNL     1     133.785 135.256 143.109  1.00  0.00     0.293 HD
ENDBRANCH   8  26
TORSDOF 6
ENDMDL
