MODEL 1
REMARK VINA RESULT:    -7.942      0.000      0.000
REMARK INTER + INTRA:         -10.184
REMARK INTER:                  -9.799
REMARK INTRA:                  -0.385
REMARK UNBOUND:                -0.385
REMARK SMILES Oc1cc(O)c2cc(O)c(-c3cc(O)c(O)c(O)c3)[o+]c2c1
REMARK SMILES IDX 10 1 20 2 21 3 22 4 2 5 3 6 4 7 6 8 7 9 8 10 11 11 12 12
REMARK SMILES IDX 13 13 19 14 15 15 17 16 14 17 16 19 18 21 9 23 1 25 5 27
REMARK H PARENT 14 18 16 20 18 22 9 24 1 26 5 28
REMARK Flexibility Score: inf
ROOT
ATOM      1  C   UNL     1     -24.649 -20.148 -13.498  1.00  0.00     0.402 A 
ATOM      2  O   UNL     1     -24.620 -20.313 -12.178  1.00  0.00    -0.202 OA
ATOM      3  C   UNL     1     -24.450 -21.493 -11.594  1.00  0.00     0.368 A 
ATOM      4  C   UNL     1     -24.431 -21.566 -10.199  1.00  0.00     0.162 A 
ATOM      5  C   UNL     1     -24.251 -22.795  -9.558  1.00  0.00     0.128 A 
ATOM      6  C   UNL     1     -24.089 -23.957 -10.315  1.00  0.00     0.093 A 
ATOM      7  C   UNL     1     -24.104 -23.912 -11.715  1.00  0.00     0.136 A 
ATOM      8  C   UNL     1     -24.289 -22.667 -12.370  1.00  0.00     0.125 A 
ATOM      9  C   UNL     1     -24.331 -22.528 -13.767  1.00  0.00     0.078 A 
ATOM     10  C   UNL     1     -24.522 -21.268 -14.341  1.00  0.00     0.223 A 
ENDROOT
BRANCH   1  11
ATOM     11  C   UNL     1     -24.834 -18.779 -14.030  1.00  0.00     0.091 A 
ATOM     12  C   UNL     1     -23.738 -17.959 -14.338  1.00  0.00     0.068 A 
ATOM     13  C   UNL     1     -23.935 -16.659 -14.819  1.00  0.00     0.162 A 
ATOM     14  C   UNL     1     -26.132 -18.265 -14.176  1.00  0.00     0.068 A 
ATOM     15  C   UNL     1     -25.233 -16.155 -14.987  1.00  0.00     0.200 A 
ATOM     16  C   UNL     1     -26.343 -16.969 -14.657  1.00  0.00     0.162 A 
BRANCH  13  17
ATOM     17  O   UNL     1     -22.841 -15.853 -15.130  1.00  0.00    -0.504 OA
ATOM     18  H   UNL     1     -22.959 -14.920 -15.509  1.00  0.00     0.293 HD
ENDBRANCH  13  17
BRANCH  15  19
ATOM     19  O   UNL     1     -25.374 -14.854 -15.477  1.00  0.00    -0.502 OA
ATOM     20  H   UNL     1     -24.611 -14.298 -15.833  1.00  0.00     0.293 HD
ENDBRANCH  15  19
BRANCH  16  21
ATOM     21  O   UNL     1     -27.664 -16.531 -14.787  1.00  0.00    -0.504 OA
ATOM     22  H   UNL     1     -28.304 -16.869 -15.490  1.00  0.00     0.293 HD
ENDBRANCH  16  21
ENDBRANCH   1  11
BRANCH  10  23
ATOM     23  O   UNL     1     -24.613 -21.137 -15.727  1.00  0.00    -0.500 OA
ATOM     24  H   UNL     1     -23.860 -20.739 -16.276  1.00  0.00     0.294 HD
ENDBRANCH  10  23
BRANCH   5  25
ATOM     25  O   UNL     1     -24.231 -22.874  -8.167  1.00  0.00    -0.507 OA
ATOM     26  H   UNL     1     -25.084 -22.833  -7.621  1.00  0.00     0.293 HD
ENDBRANCH   5  25
BRANCH   7  27
ATOM     27  O   UNL     1     -23.932 -25.119 -12.399  1.00  0.00    -0.507 OA
ATOM     28  H   UNL     1     -23.042 -25.571 -12.543  1.00  0.00     0.293 HD
ENDBRANCH   7  27
TORSDOF 7
ENDMDL
MODEL 2
REMARK VINA RESULT:    -7.939      0.141      1.801
REMARK INTER + INTRA:         -10.180
REMARK INTER:                  -9.802
REMARK INTRA:                  -0.378
REMARK UNBOUND:                -0.385
REMARK SMILES Oc1cc(O)c2cc(O)c(-c3cc(O)c(O)c(O)c3)[o+]c2c1
REMARK SMILES IDX 10 1 20 2 21 3 22 4 2 5 3 6 4 7 6 8 7 9 8 10 11 11 12 12
REMARK SMILES IDX 13 13 19 14 15 15 17 16 14 17 16 19 18 21 9 23 1 25 5 27
REMARK H PARENT 14 18 16 20 18 22 9 24 1 26 5 28
REMARK Flexibility Score: inf
ROOT
ATOM      1  C   UNL     1     -24.666 -20.066 -13.447  1.00  0.00     0.402 A 
ATOM      2  O   UNL     1     -24.633 -20.275 -12.133  1.00  0.00    -0.202 OA
ATOM      3  C   UNL     1     -24.454 -21.473 -11.589  1.00  0.00     0.368 A 
ATOM      4  C   UNL     1     -24.432 -21.592 -10.197  1.00  0.00     0.162 A 
ATOM      5  C   UNL     1     -24.242 -22.841  -9.599  1.00  0.00     0.128 A 
ATOM      6  C   UNL     1     -24.072 -23.975 -10.395  1.00  0.00     0.093 A 
ATOM      7  C   UNL     1     -24.089 -23.883 -11.793  1.00  0.00     0.136 A 
ATOM      8  C   UNL     1     -24.284 -22.618 -12.405  1.00  0.00     0.125 A 
ATOM      9  C   UNL     1     -24.330 -22.432 -13.797  1.00  0.00     0.078 A 
ATOM     10  C   UNL     1     -24.531 -21.155 -14.327  1.00  0.00     0.223 A 
ENDROOT
BRANCH   1  11
ATOM     11  C   UNL     1     -24.862 -18.680 -13.932  1.00  0.00     0.091 A 
ATOM     12  C   UNL     1     -26.142 -18.180 -14.218  1.00  0.00     0.068 A 
ATOM     13  C   UNL     1     -26.304 -16.874 -14.696  1.00  0.00     0.162 A 
ATOM     14  C   UNL     1     -23.744 -17.866 -14.166  1.00  0.00     0.068 A 
ATOM     15  C   UNL     1     -25.186 -16.054 -14.908  1.00  0.00     0.200 A 
ATOM     16  C   UNL     1     -23.891 -16.559 -14.643  1.00  0.00     0.162 A 
BRANCH  13  17
ATOM     17  O   UNL     1     -27.579 -16.381 -14.972  1.00  0.00    -0.504 OA
ATOM     18  H   UNL     1     -27.787 -15.390 -14.922  1.00  0.00     0.293 HD
ENDBRANCH  13  17
BRANCH  15  19
ATOM     19  O   UNL     1     -25.404 -14.756 -15.379  1.00  0.00    -0.502 OA
ATOM     20  H   UNL     1     -25.609 -14.531 -16.342  1.00  0.00     0.293 HD
ENDBRANCH  15  19
BRANCH  16  21
ATOM     21  O   UNL     1     -22.732 -15.804 -14.840  1.00  0.00    -0.504 OA
ATOM     22  H   UNL     1     -21.827 -16.052 -14.468  1.00  0.00     0.293 HD
ENDBRANCH  16  21
ENDBRANCH   1  11
BRANCH  10  23
ATOM     23  O   UNL     1     -24.625 -20.977 -15.708  1.00  0.00    -0.500 OA
ATOM     24  H   UNL     1     -24.405 -21.723 -16.357  1.00  0.00     0.294 HD
ENDBRANCH  10  23
BRANCH   5  25
ATOM     25  O   UNL     1     -24.219 -22.967  -8.211  1.00  0.00    -0.507 OA
ATOM     26  H   UNL     1     -24.680 -22.293  -7.611  1.00  0.00     0.293 HD
ENDBRANCH   5  25
BRANCH   7  27
ATOM     27  O   UNL     1     -23.909 -25.064 -12.518  1.00  0.00    -0.507 OA
ATOM     28  H   UNL     1     -23.548 -25.106 -13.459  1.00  0.00     0.293 HD
ENDBRANCH   7  27
TORSDOF 7
ENDMDL
MODEL 3
REMARK VINA RESULT:    -7.653      2.163      7.459
REMARK INTER + INTRA:          -9.827
REMARK INTER:                  -9.443
REMARK INTRA:                  -0.384
REMARK UNBOUND:                -0.385
REMARK SMILES Oc1cc(O)c2cc(O)c(-c3cc(O)c(O)c(O)c3)[o+]c2c1
REMARK SMILES IDX 10 1 20 2 21 3 22 4 2 5 3 6 4 7 6 8 7 9 8 10 11 11 12 12
REMARK SMILES IDX 13 13 19 14 15 15 17 16 14 17 16 19 18 21 9 23 1 25 5 27
REMARK H PARENT 14 18 16 20 18 22 9 24 1 26 5 28
REMARK Flexibility Score: inf
ROOT
ATOM      1  C   UNL     1     -24.500 -17.539 -13.949  1.00  0.00     0.402 A 
ATOM      2  O   UNL     1     -23.302 -17.006 -13.722  1.00  0.00    -0.202 OA
ATOM      3  C   UNL     1     -22.943 -15.805 -14.163  1.00  0.00     0.368 A 
ATOM      4  C   UNL     1     -21.663 -15.328 -13.871  1.00  0.00     0.162 A 
ATOM      5  C   UNL     1     -21.261 -14.067 -14.320  1.00  0.00     0.128 A 
ATOM      6  C   UNL     1     -22.143 -13.279 -15.063  1.00  0.00     0.093 A 
ATOM      7  C   UNL     1     -23.432 -13.733 -15.368  1.00  0.00     0.136 A 
ATOM      8  C   UNL     1     -23.844 -15.014 -14.917  1.00  0.00     0.125 A 
ATOM      9  C   UNL     1     -25.111 -15.557 -15.187  1.00  0.00     0.078 A 
ATOM     10  C   UNL     1     -25.444 -16.829 -14.712  1.00  0.00     0.223 A 
ENDROOT
BRANCH   1  11
ATOM     11  C   UNL     1     -24.784 -18.883 -13.395  1.00  0.00     0.091 A 
ATOM     12  C   UNL     1     -25.385 -19.044 -12.137  1.00  0.00     0.068 A 
ATOM     13  C   UNL     1     -25.626 -20.324 -11.623  1.00  0.00     0.162 A 
ATOM     14  C   UNL     1     -24.395 -20.023 -14.115  1.00  0.00     0.068 A 
ATOM     15  C   UNL     1     -25.256 -21.462 -12.354  1.00  0.00     0.200 A 
ATOM     16  C   UNL     1     -24.630 -21.307 -13.613  1.00  0.00     0.162 A 
BRANCH  13  17
ATOM     17  O   UNL     1     -26.229 -20.476 -10.375  1.00  0.00    -0.504 OA
ATOM     18  H   UNL     1     -25.729 -20.876  -9.589  1.00  0.00     0.293 HD
ENDBRANCH  13  17
BRANCH  15  19
ATOM     19  O   UNL     1     -25.526 -22.715 -11.798  1.00  0.00    -0.502 OA
ATOM     20  H   UNL     1     -25.564 -23.574 -12.329  1.00  0.00     0.293 HD
ENDBRANCH  15  19
BRANCH  16  21
ATOM     21  O   UNL     1     -24.225 -22.394 -14.393  1.00  0.00    -0.504 OA
ATOM     22  H   UNL     1     -24.254 -23.354 -14.084  1.00  0.00     0.293 HD
ENDBRANCH  16  21
ENDBRANCH   1  11
BRANCH  10  23
ATOM     23  O   UNL     1     -26.684 -17.389 -15.022  1.00  0.00    -0.500 OA
ATOM     24  H   UNL     1     -26.844 -17.881 -15.893  1.00  0.00     0.294 HD
ENDBRANCH  10  23
BRANCH   5  25
ATOM     25  O   UNL     1     -19.985 -13.585 -14.033  1.00  0.00    -0.507 OA
ATOM     26  H   UNL     1     -19.848 -12.705 -13.549  1.00  0.00     0.293 HD
ENDBRANCH   5  25
BRANCH   7  27
ATOM     27  O   UNL     1     -24.254 -12.883 -16.113  1.00  0.00    -0.507 OA
ATOM     28  H   UNL     1     -25.075 -12.422 -15.750  1.00  0.00     0.293 HD
ENDBRANCH   7  27
TORSDOF 7
ENDMDL
MODEL 4
REMARK VINA RESULT:    -7.605      2.229      7.391
REMARK INTER + INTRA:          -9.768
REMARK INTER:                  -9.391
REMARK INTRA:                  -0.377
REMARK UNBOUND:                -0.385
REMARK SMILES Oc1cc(O)c2cc(O)c(-c3cc(O)c(O)c(O)c3)[o+]c2c1
REMARK SMILES IDX 10 1 20 2 21 3 22 4 2 5 3 6 4 7 6 8 7 9 8 10 11 11 12 12
REMARK SMILES IDX 13 13 19 14 15 15 17 16 14 17 16 19 18 21 9 23 1 25 5 27
REMARK H PARENT 14 18 16 20 18 22 9 24 1 26 5 28
REMARK Flexibility Score: inf
ROOT
ATOM      1  C   UNL     1     -24.551 -17.449 -13.836  1.00  0.00     0.402 A 
ATOM      2  O   UNL     1     -23.348 -16.925 -13.620  1.00  0.00    -0.202 OA
ATOM      3  C   UNL     1     -22.969 -15.746 -14.099  1.00  0.00     0.368 A 
ATOM      4  C   UNL     1     -21.684 -15.277 -13.816  1.00  0.00     0.162 A 
ATOM      5  C   UNL     1     -21.260 -14.038 -14.306  1.00  0.00     0.128 A 
ATOM      6  C   UNL     1     -22.125 -13.265 -15.081  1.00  0.00     0.093 A 
ATOM      7  C   UNL     1     -23.419 -13.711 -15.380  1.00  0.00     0.136 A 
ATOM      8  C   UNL     1     -23.853 -14.969 -14.888  1.00  0.00     0.125 A 
ATOM      9  C   UNL     1     -25.126 -15.503 -15.147  1.00  0.00     0.078 A 
ATOM     10  C   UNL     1     -25.480 -16.752 -14.631  1.00  0.00     0.223 A 
ENDROOT
BRANCH   1  11
ATOM     11  C   UNL     1     -24.859 -18.768 -13.238  1.00  0.00     0.091 A 
ATOM     12  C   UNL     1     -24.657 -19.960 -13.951  1.00  0.00     0.068 A 
ATOM     13  C   UNL     1     -24.976 -21.196 -13.375  1.00  0.00     0.162 A 
ATOM     14  C   UNL     1     -25.418 -18.829 -11.952  1.00  0.00     0.068 A 
ATOM     15  C   UNL     1     -25.513 -21.256 -12.081  1.00  0.00     0.200 A 
ATOM     16  C   UNL     1     -25.740 -20.057 -11.365  1.00  0.00     0.162 A 
BRANCH  13  17
ATOM     17  O   UNL     1     -24.766 -22.376 -14.087  1.00  0.00    -0.504 OA
ATOM     18  H   UNL     1     -24.527 -22.366 -15.073  1.00  0.00     0.293 HD
ENDBRANCH  13  17
BRANCH  15  19
ATOM     19  O   UNL     1     -25.806 -22.516 -11.550  1.00  0.00    -0.502 OA
ATOM     20  H   UNL     1     -26.095 -23.309 -12.103  1.00  0.00     0.293 HD
ENDBRANCH  15  19
BRANCH  16  21
ATOM     21  O   UNL     1     -26.282 -20.039 -10.076  1.00  0.00    -0.504 OA
ATOM     22  H   UNL     1     -27.031 -20.642  -9.770  1.00  0.00     0.293 HD
ENDBRANCH  16  21
ENDBRANCH   1  11
BRANCH  10  23
ATOM     23  O   UNL     1     -26.726 -17.305 -14.929  1.00  0.00    -0.500 OA
ATOM     24  H   UNL     1     -27.244 -17.851 -14.250  1.00  0.00     0.294 HD
ENDBRANCH  10  23
BRANCH   5  25
ATOM     25  O   UNL     1     -19.980 -13.565 -14.026  1.00  0.00    -0.507 OA
ATOM     26  H   UNL     1     -19.607 -12.742 -14.486  1.00  0.00     0.293 HD
ENDBRANCH   5  25
BRANCH   7  27
ATOM     27  O   UNL     1     -24.224 -12.876 -16.160  1.00  0.00    -0.507 OA
ATOM     28  H   UNL     1     -24.024 -12.623 -17.117  1.00  0.00     0.293 HD
ENDBRANCH   7  27
TORSDOF 7
ENDMDL
MODEL 5
REMARK VINA RESULT:    -7.207      1.173      2.591
REMARK INTER + INTRA:          -9.276
REMARK INTER:                  -9.009
REMARK INTRA:                  -0.268
REMARK UNBOUND:                -0.385
REMARK SMILES Oc1cc(O)c2cc(O)c(-c3cc(O)c(O)c(O)c3)[o+]c2c1
REMARK SMILES IDX 10 1 20 2 21 3 22 4 2 5 3 6 4 7 6 8 7 9 8 10 11 11 12 12
REMARK SMILES IDX 13 13 19 14 15 15 17 16 14 17 16 19 18 21 9 23 1 25 5 27
REMARK H PARENT 14 18 16 20 18 22 9 24 1 26 5 28
REMARK Flexibility Score: inf
ROOT
ATOM      1  C   UNL     1     -24.942 -19.659 -13.155  1.00  0.00     0.402 A 
ATOM      2  O   UNL     1     -24.466 -20.722 -13.798  1.00  0.00    -0.202 OA
ATOM      3  C   UNL     1     -24.397 -21.932 -13.257  1.00  0.00     0.368 A 
ATOM      4  C   UNL     1     -23.883 -22.989 -14.013  1.00  0.00     0.162 A 
ATOM      5  C   UNL     1     -23.802 -24.273 -13.468  1.00  0.00     0.128 A 
ATOM      6  C   UNL     1     -24.237 -24.503 -12.162  1.00  0.00     0.093 A 
ATOM      7  C   UNL     1     -24.756 -23.462 -11.382  1.00  0.00     0.136 A 
ATOM      8  C   UNL     1     -24.838 -22.156 -11.929  1.00  0.00     0.125 A 
ATOM      9  C   UNL     1     -25.332 -21.050 -11.218  1.00  0.00     0.078 A 
ATOM     10  C   UNL     1     -25.377 -19.791 -11.823  1.00  0.00     0.223 A 
ENDROOT
BRANCH   1  11
ATOM     11  C   UNL     1     -24.977 -18.363 -13.871  1.00  0.00     0.091 A 
ATOM     12  C   UNL     1     -23.799 -17.666 -14.178  1.00  0.00     0.068 A 
ATOM     13  C   UNL     1     -23.855 -16.431 -14.837  1.00  0.00     0.162 A 
ATOM     14  C   UNL     1     -26.215 -17.790 -14.200  1.00  0.00     0.068 A 
ATOM     15  C   UNL     1     -25.093 -15.870 -15.185  1.00  0.00     0.200 A 
ATOM     16  C   UNL     1     -26.285 -16.558 -14.858  1.00  0.00     0.162 A 
BRANCH  13  17
ATOM     17  O   UNL     1     -22.681 -15.746 -15.145  1.00  0.00    -0.504 OA
ATOM     18  H   UNL     1     -22.565 -14.763 -14.924  1.00  0.00     0.293 HD
ENDBRANCH  13  17
BRANCH  15  19
ATOM     19  O   UNL     1     -25.093 -14.640 -15.848  1.00  0.00    -0.502 OA
ATOM     20  H   UNL     1     -24.904 -14.528 -16.833  1.00  0.00     0.293 HD
ENDBRANCH  15  19
BRANCH  16  21
ATOM     21  O   UNL     1     -27.554 -16.057 -15.165  1.00  0.00    -0.504 OA
ATOM     22  H   UNL     1     -28.322 -16.027 -14.511  1.00  0.00     0.293 HD
ENDBRANCH  16  21
ENDBRANCH   1  11
BRANCH  10  23
ATOM     23  O   UNL     1     -25.821 -18.683 -11.101  1.00  0.00    -0.500 OA
ATOM     24  H   UNL     1     -25.239 -17.864 -10.969  1.00  0.00     0.294 HD
ENDBRANCH  10  23
BRANCH   5  25
ATOM     25  O   UNL     1     -23.291 -25.331 -14.218  1.00  0.00    -0.507 OA
ATOM     26  H   UNL     1     -22.298 -25.535 -14.239  1.00  0.00     0.293 HD
ENDBRANCH   5  25
BRANCH   7  27
ATOM     27  O   UNL     1     -25.172 -23.776 -10.085  1.00  0.00    -0.507 OA
ATOM     28  H   UNL     1     -24.644 -23.567  -9.251  1.00  0.00     0.293 HD
ENDBRANCH   7  27
TORSDOF 7
ENDMDL
MODEL 6
REMARK VINA RESULT:    -7.146      1.199      3.167
REMARK INTER + INTRA:          -9.201
REMARK INTER:                  -8.888
REMARK INTRA:                  -0.314
REMARK UNBOUND:                -0.385
REMARK SMILES Oc1cc(O)c2cc(O)c(-c3cc(O)c(O)c(O)c3)[o+]c2c1
REMARK SMILES IDX 10 1 20 2 21 3 22 4 2 5 3 6 4 7 6 8 7 9 8 10 11 11 12 12
REMARK SMILES IDX 13 13 19 14 15 15 17 16 14 17 16 19 18 21 9 23 1 25 5 27
REMARK H PARENT 14 18 16 20 18 22 9 24 1 26 5 28
REMARK Flexibility Score: inf
ROOT
ATOM      1  C   UNL     1     -24.973 -19.719 -13.139  1.00  0.00     0.402 A 
ATOM      2  O   UNL     1     -24.500 -20.765 -13.813  1.00  0.00    -0.202 OA
ATOM      3  C   UNL     1     -24.421 -21.987 -13.301  1.00  0.00     0.368 A 
ATOM      4  C   UNL     1     -23.913 -23.024 -14.088  1.00  0.00     0.162 A 
ATOM      5  C   UNL     1     -23.821 -24.321 -13.575  1.00  0.00     0.128 A 
ATOM      6  C   UNL     1     -24.242 -24.583 -12.270  1.00  0.00     0.093 A 
ATOM      7  C   UNL     1     -24.756 -23.563 -11.459  1.00  0.00     0.136 A 
ATOM      8  C   UNL     1     -24.848 -22.244 -11.974  1.00  0.00     0.125 A 
ATOM      9  C   UNL     1     -25.337 -21.157 -11.232  1.00  0.00     0.078 A 
ATOM     10  C   UNL     1     -25.393 -19.884 -11.806  1.00  0.00     0.223 A 
ENDROOT
BRANCH   1  11
ATOM     11  C   UNL     1     -25.020 -18.407 -13.824  1.00  0.00     0.091 A 
ATOM     12  C   UNL     1     -26.238 -17.829 -14.213  1.00  0.00     0.068 A 
ATOM     13  C   UNL     1     -26.259 -16.597 -14.879  1.00  0.00     0.162 A 
ATOM     14  C   UNL     1     -23.821 -17.752 -14.142  1.00  0.00     0.068 A 
ATOM     15  C   UNL     1     -25.060 -15.932 -15.176  1.00  0.00     0.200 A 
ATOM     16  C   UNL     1     -23.828 -16.520 -14.806  1.00  0.00     0.162 A 
BRANCH  13  17
ATOM     17  O   UNL     1     -27.473 -16.025 -15.257  1.00  0.00    -0.504 OA
ATOM     18  H   UNL     1     -27.513 -15.132 -15.736  1.00  0.00     0.293 HD
ENDBRANCH  13  17
BRANCH  15  19
ATOM     19  O   UNL     1     -25.138 -14.702 -15.836  1.00  0.00    -0.502 OA
ATOM     20  H   UNL     1     -25.940 -14.091 -15.800  1.00  0.00     0.293 HD
ENDBRANCH  15  19
BRANCH  16  21
ATOM     21  O   UNL     1     -22.594 -15.922 -15.078  1.00  0.00    -0.504 OA
ATOM     22  H   UNL     1     -22.025 -16.141 -15.882  1.00  0.00     0.293 HD
ENDBRANCH  16  21
ENDBRANCH   1  11
BRANCH  10  23
ATOM     23  O   UNL     1     -25.833 -18.795 -11.053  1.00  0.00    -0.500 OA
ATOM     24  H   UNL     1     -26.712 -18.815 -10.550  1.00  0.00     0.294 HD
ENDBRANCH  10  23
BRANCH   5  25
ATOM     25  O   UNL     1     -23.315 -25.358 -14.355  1.00  0.00    -0.507 OA
ATOM     26  H   UNL     1     -23.920 -26.075 -14.740  1.00  0.00     0.293 HD
ENDBRANCH   5  25
BRANCH   7  27
ATOM     27  O   UNL     1     -25.156 -23.908 -10.166  1.00  0.00    -0.507 OA
ATOM     28  H   UNL     1     -25.631 -24.766  -9.927  1.00  0.00     0.293 HD
ENDBRANCH   7  27
TORSDOF 7
ENDMDL
MODEL 7
REMARK VINA RESULT:    -6.891      2.248      2.727
REMARK INTER + INTRA:          -8.887
REMARK INTER:                  -8.713
REMARK INTRA:                  -0.173
REMARK UNBOUND:                -0.385
REMARK SMILES Oc1cc(O)c2cc(O)c(-c3cc(O)c(O)c(O)c3)[o+]c2c1
REMARK SMILES IDX 10 1 20 2 21 3 22 4 2 5 3 6 4 7 6 8 7 9 8 10 11 11 12 12
REMARK SMILES IDX 13 13 19 14 15 15 17 16 14 17 16 19 18 21 9 23 1 25 5 27
REMARK H PARENT 14 18 16 20 18 22 9 24 1 26 5 28
REMARK Flexibility Score: inf
ROOT
ATOM      1  C   UNL     1     -24.686 -18.275 -13.211  1.00  0.00     0.402 A 
ATOM      2  O   UNL     1     -25.516 -18.472 -12.190  1.00  0.00    -0.202 OA
ATOM      3  C   UNL     1     -25.871 -19.678 -11.762  1.00  0.00     0.368 A 
ATOM      4  C   UNL     1     -26.747 -19.785 -10.678  1.00  0.00     0.162 A 
ATOM      5  C   UNL     1     -27.134 -21.042 -10.205  1.00  0.00     0.128 A 
ATOM      6  C   UNL     1     -26.643 -22.197 -10.817  1.00  0.00     0.093 A 
ATOM      7  C   UNL     1     -25.763 -22.118 -11.904  1.00  0.00     0.136 A 
ATOM      8  C   UNL     1     -25.369 -20.845 -12.390  1.00  0.00     0.125 A 
ATOM      9  C   UNL     1     -24.503 -20.668 -13.481  1.00  0.00     0.078 A 
ATOM     10  C   UNL     1     -24.163 -19.381 -13.906  1.00  0.00     0.223 A 
ENDROOT
BRANCH   1  11
ATOM     11  C   UNL     1     -24.359 -16.881 -13.589  1.00  0.00     0.091 A 
ATOM     12  C   UNL     1     -23.742 -16.004 -12.683  1.00  0.00     0.068 A 
ATOM     13  C   UNL     1     -23.461 -14.682 -13.053  1.00  0.00     0.162 A 
ATOM     14  C   UNL     1     -24.722 -16.406 -14.858  1.00  0.00     0.068 A 
ATOM     15  C   UNL     1     -23.804 -14.216 -14.330  1.00  0.00     0.200 A 
ATOM     16  C   UNL     1     -24.446 -15.089 -15.240  1.00  0.00     0.162 A 
BRANCH  13  17
ATOM     17  O   UNL     1     -22.841 -13.819 -12.150  1.00  0.00    -0.504 OA
ATOM     18  H   UNL     1     -21.911 -14.004 -11.791  1.00  0.00     0.293 HD
ENDBRANCH  13  17
BRANCH  15  19
ATOM     19  O   UNL     1     -23.494 -12.892 -14.650  1.00  0.00    -0.502 OA
ATOM     20  H   UNL     1     -22.637 -12.604 -15.102  1.00  0.00     0.293 HD
ENDBRANCH  15  19
BRANCH  16  21
ATOM     21  O   UNL     1     -24.827 -14.692 -16.525  1.00  0.00    -0.504 OA
ATOM     22  H   UNL     1     -24.446 -15.083 -17.374  1.00  0.00     0.293 HD
ENDBRANCH  16  21
ENDBRANCH   1  11
BRANCH  10  23
ATOM     23  O   UNL     1     -23.343 -19.206 -15.021  1.00  0.00    -0.500 OA
ATOM     24  H   UNL     1     -23.689 -18.791 -15.878  1.00  0.00     0.294 HD
ENDBRANCH  10  23
BRANCH   5  25
ATOM     25  O   UNL     1     -28.007 -21.155  -9.125  1.00  0.00    -0.507 OA
ATOM     26  H   UNL     1     -27.702 -21.530  -8.234  1.00  0.00     0.293 HD
ENDBRANCH   5  25
BRANCH   7  27
ATOM     27  O   UNL     1     -25.315 -23.321 -12.458  1.00  0.00    -0.507 OA
ATOM     28  H   UNL     1     -24.998 -24.113 -11.919  1.00  0.00     0.293 HD
ENDBRANCH   7  27
TORSDOF 7
ENDMDL
MODEL 8
REMARK VINA RESULT:    -6.803      2.203      2.773
REMARK INTER + INTRA:          -8.778
REMARK INTER:                  -8.584
REMARK INTRA:                  -0.194
REMARK UNBOUND:                -0.385
REMARK SMILES Oc1cc(O)c2cc(O)c(-c3cc(O)c(O)c(O)c3)[o+]c2c1
REMARK SMILES IDX 10 1 20 2 21 3 22 4 2 5 3 6 4 7 6 8 7 9 8 10 11 11 12 12
REMARK SMILES IDX 13 13 19 14 15 15 17 16 14 17 16 19 18 21 9 23 1 25 5 27
REMARK H PARENT 14 18 16 20 18 22 9 24 1 26 5 28
REMARK Flexibility Score: inf
ROOT
ATOM      1  C   UNL     1     -24.800 -18.501 -13.171  1.00  0.00     0.402 A 
ATOM      2  O   UNL     1     -25.647 -18.854 -12.208  1.00  0.00    -0.202 OA
ATOM      3  C   UNL     1     -25.904 -20.118 -11.890  1.00  0.00     0.368 A 
ATOM      4  C   UNL     1     -26.807 -20.391 -10.860  1.00  0.00     0.162 A 
ATOM      5  C   UNL     1     -27.094 -21.711 -10.503  1.00  0.00     0.128 A 
ATOM      6  C   UNL     1     -26.473 -22.764 -11.178  1.00  0.00     0.093 A 
ATOM      7  C   UNL     1     -25.563 -22.518 -12.215  1.00  0.00     0.136 A 
ATOM      8  C   UNL     1     -25.271 -21.180 -12.582  1.00  0.00     0.125 A 
ATOM      9  C   UNL     1     -24.383 -20.838 -13.616  1.00  0.00     0.078 A 
ATOM     10  C   UNL     1     -24.149 -19.495 -13.924  1.00  0.00     0.223 A 
ENDROOT
BRANCH   1  11
ATOM     11  C   UNL     1     -24.589 -17.057 -13.424  1.00  0.00     0.091 A 
ATOM     12  C   UNL     1     -24.920 -16.475 -14.657  1.00  0.00     0.068 A 
ATOM     13  C   UNL     1     -24.692 -15.111 -14.884  1.00  0.00     0.162 A 
ATOM     14  C   UNL     1     -23.993 -16.262 -12.433  1.00  0.00     0.068 A 
ATOM     15  C   UNL     1     -24.118 -14.314 -13.883  1.00  0.00     0.200 A 
ATOM     16  C   UNL     1     -23.761 -14.899 -12.646  1.00  0.00     0.162 A 
BRANCH  13  17
ATOM     17  O   UNL     1     -25.030 -14.538 -16.109  1.00  0.00    -0.504 OA
ATOM     18  H   UNL     1     -24.323 -14.174 -16.738  1.00  0.00     0.293 HD
ENDBRANCH  13  17
BRANCH  15  19
ATOM     19  O   UNL     1     -23.919 -12.958 -14.159  1.00  0.00    -0.502 OA
ATOM     20  H   UNL     1     -24.458 -12.433 -14.832  1.00  0.00     0.293 HD
ENDBRANCH  15  19
BRANCH  16  21
ATOM     21  O   UNL     1     -23.176 -14.170 -11.607  1.00  0.00    -0.504 OA
ATOM     22  H   UNL     1     -22.305 -14.418 -11.163  1.00  0.00     0.293 HD
ENDBRANCH  16  21
ENDBRANCH   1  11
BRANCH  10  23
ATOM     23  O   UNL     1     -23.305 -19.157 -14.983  1.00  0.00    -0.500 OA
ATOM     24  H   UNL     1     -22.343 -19.471 -15.018  1.00  0.00     0.294 HD
ENDBRANCH  10  23
BRANCH   5  25
ATOM     25  O   UNL     1     -27.994 -21.990  -9.477  1.00  0.00    -0.507 OA
ATOM     26  H   UNL     1     -28.248 -21.288  -8.790  1.00  0.00     0.293 HD
ENDBRANCH   5  25
BRANCH   7  27
ATOM     27  O   UNL     1     -24.983 -23.627 -12.838  1.00  0.00    -0.507 OA
ATOM     28  H   UNL     1     -25.468 -24.490 -13.032  1.00  0.00     0.293 HD
ENDBRANCH   7  27
TORSDOF 7
ENDMDL
MODEL 9
REMARK VINA RESULT:    -6.775      2.707      6.937
REMARK INTER + INTRA:          -8.744
REMARK INTER:                  -8.443
REMARK INTRA:                  -0.301
REMARK UNBOUND:                -0.385
REMARK SMILES Oc1cc(O)c2cc(O)c(-c3cc(O)c(O)c(O)c3)[o+]c2c1
REMARK SMILES IDX 10 1 20 2 21 3 22 4 2 5 3 6 4 7 6 8 7 9 8 10 11 11 12 12
REMARK SMILES IDX 13 13 19 14 15 15 17 16 14 17 16 19 18 21 9 23 1 25 5 27
REMARK H PARENT 14 18 16 20 18 22 9 24 1 26 5 28
REMARK Flexibility Score: inf
ROOT
ATOM      1  C   UNL     1     -24.796 -18.375 -12.935  1.00  0.00     0.402 A 
ATOM      2  O   UNL     1     -24.572 -17.265 -12.236  1.00  0.00    -0.202 OA
ATOM      3  C   UNL     1     -23.864 -16.242 -12.700  1.00  0.00     0.368 A 
ATOM      4  C   UNL     1     -23.685 -15.116 -11.892  1.00  0.00     0.162 A 
ATOM      5  C   UNL     1     -22.946 -14.024 -12.357  1.00  0.00     0.128 A 
ATOM      6  C   UNL     1     -22.385 -14.057 -13.634  1.00  0.00     0.093 A 
ATOM      7  C   UNL     1     -22.549 -15.173 -14.465  1.00  0.00     0.136 A 
ATOM      8  C   UNL     1     -23.296 -16.285 -13.997  1.00  0.00     0.125 A 
ATOM      9  C   UNL     1     -23.502 -17.451 -14.753  1.00  0.00     0.078 A 
ATOM     10  C   UNL     1     -24.246 -18.509 -14.223  1.00  0.00     0.223 A 
ENDROOT
BRANCH   1  11
ATOM     11  C   UNL     1     -25.612 -19.443 -12.312  1.00  0.00     0.091 A 
ATOM     12  C   UNL     1     -26.998 -19.302 -12.145  1.00  0.00     0.068 A 
ATOM     13  C   UNL     1     -27.747 -20.315 -11.534  1.00  0.00     0.162 A 
ATOM     14  C   UNL     1     -24.980 -20.597 -11.824  1.00  0.00     0.068 A 
ATOM     15  C   UNL     1     -27.117 -21.478 -11.068  1.00  0.00     0.200 A 
ATOM     16  C   UNL     1     -25.717 -21.617 -11.212  1.00  0.00     0.162 A 
BRANCH  13  17
ATOM     17  O   UNL     1     -29.125 -20.171 -11.378  1.00  0.00    -0.504 OA
ATOM     18  H   UNL     1     -29.617 -20.585 -10.594  1.00  0.00     0.293 HD
ENDBRANCH  13  17
BRANCH  15  19
ATOM     19  O   UNL     1     -27.912 -22.461 -10.472  1.00  0.00    -0.502 OA
ATOM     20  H   UNL     1     -27.962 -22.621  -9.477  1.00  0.00     0.293 HD
ENDBRANCH  15  19
BRANCH  16  21
ATOM     21  O   UNL     1     -25.020 -22.742 -10.763  1.00  0.00    -0.504 OA
ATOM     22  H   UNL     1     -24.018 -22.777 -10.648  1.00  0.00     0.293 HD
ENDBRANCH  16  21
ENDBRANCH   1  11
BRANCH  10  23
ATOM     23  O   UNL     1     -24.409 -19.685 -14.954  1.00  0.00    -0.500 OA
ATOM     24  H   UNL     1     -24.077 -20.578 -14.609  1.00  0.00     0.294 HD
ENDBRANCH  10  23
BRANCH   5  25
ATOM     25  O   UNL     1     -22.764 -12.898 -11.556  1.00  0.00    -0.507 OA
ATOM     26  H   UNL     1     -23.457 -12.160 -11.514  1.00  0.00     0.293 HD
ENDBRANCH   5  25
BRANCH   7  27
ATOM     27  O   UNL     1     -21.958 -15.126 -15.731  1.00  0.00    -0.507 OA
ATOM     28  H   UNL     1     -22.472 -15.084 -16.598  1.00  0.00     0.293 HD
ENDBRANCH   7  27
TORSDOF 7
ENDMDL
