MODEL 1
REMARK VINA RESULT:    14.474      0.000      0.000
REMARK INTER + INTRA:          15.541
REMARK INTER:                  15.743
REMARK INTRA:                  -0.203
REMARK UNBOUND:                -0.203
REMARK SMILES CC1=C2C[C@H](C(C)(C)O)CC[C@@]2(C)CCC1
REMARK SMILES IDX 6 1 7 2 8 3 5 4 1 5 2 6 3 7 16 8 4 9 12 10 15 11 11 12 14 13
REMARK SMILES IDX 13 14 10 15 9 16
REMARK H PARENT 9 17
REMARK Flexibility Score: inf
ROOT
ATOM      1  C   UNL     1      33.073 -25.165   5.993  1.00  0.00     0.062 C 
ATOM      2  C   UNL     1      32.996 -26.704   5.880  1.00  0.00     0.042 C 
ATOM      3  C   UNL     1      32.031 -24.736   7.056  1.00  0.00     0.042 C 
ENDROOT
BRANCH   1   4
ATOM      4  C   UNL     1      34.535 -24.718   6.388  1.00  0.00     0.024 C 
ATOM      5  C   UNL     1      37.458 -23.986   3.376  1.00  0.00     0.039 C 
ATOM      6  C   UNL     1      37.636 -23.434   4.772  1.00  0.00    -0.074 C 
ATOM      7  C   UNL     1      36.605 -23.404   5.677  1.00  0.00    -0.065 C 
ATOM      8  C   UNL     1      39.052 -23.044   5.154  1.00  0.00     0.031 C 
ATOM      9  C   UNL     1      35.190 -23.836   5.294  1.00  0.00     0.038 C 
ATOM     10  C   UNL     1      36.764 -22.750   7.058  1.00  0.00    -0.011 C 
ATOM     11  C   UNL     1      39.124 -22.103   6.348  1.00  0.00     0.005 C 
ATOM     12  C   UNL     1      36.045 -23.619   8.124  1.00  0.00     0.011 C 
ATOM     13  C   UNL     1      38.255 -22.638   7.478  1.00  0.00     0.011 C 
ATOM     14  C   UNL     1      36.139 -21.330   7.025  1.00  0.00     0.016 C 
ATOM     15  C   UNL     1      34.603 -23.991   7.754  1.00  0.00     0.008 C 
ENDBRANCH   1   4
BRANCH   1  16
ATOM     16  O   UNL     1      32.709 -24.634   4.739  1.00  0.00    -0.390 OA
ATOM     17  H   UNL     1      33.500 -24.672   4.142  1.00  0.00     0.211 HD
ENDBRANCH   1  16
TORSDOF 2
ENDMDL
MODEL 2
REMARK VINA RESULT:    14.679      0.764      1.092
REMARK INTER + INTRA:          15.764
REMARK INTER:                  15.988
REMARK INTRA:                  -0.224
REMARK UNBOUND:                -0.203
REMARK SMILES CC1=C2C[C@H](C(C)(C)O)CC[C@@]2(C)CCC1
REMARK SMILES IDX 6 1 7 2 8 3 5 4 1 5 2 6 3 7 16 8 4 9 12 10 15 11 11 12 14 13
REMARK SMILES IDX 13 14 10 15 9 16
REMARK H PARENT 9 17
REMARK Flexibility Score: inf
ROOT
ATOM      1  C   UNL     1      33.104 -25.212   6.230  1.00  0.00     0.062 C 
ATOM      2  C   UNL     1      32.561 -24.532   4.953  1.00  0.00     0.042 C 
ATOM      3  C   UNL     1      33.004 -26.742   6.007  1.00  0.00     0.042 C 
ENDROOT
BRANCH   1   4
ATOM      4  C   UNL     1      34.591 -24.753   6.503  1.00  0.00     0.024 C 
ATOM      5  C   UNL     1      37.219 -23.904   3.259  1.00  0.00     0.039 C 
ATOM      6  C   UNL     1      37.516 -23.384   4.648  1.00  0.00    -0.074 C 
ATOM      7  C   UNL     1      36.571 -23.392   5.643  1.00  0.00    -0.065 C 
ATOM      8  C   UNL     1      38.956 -22.983   4.910  1.00  0.00     0.031 C 
ATOM      9  C   UNL     1      35.132 -23.835   5.378  1.00  0.00     0.038 C 
ATOM     10  C   UNL     1      36.847 -22.770   7.020  1.00  0.00    -0.011 C 
ATOM     11  C   UNL     1      39.124 -22.071   6.118  1.00  0.00     0.005 C 
ATOM     12  C   UNL     1      36.238 -23.676   8.124  1.00  0.00     0.011 C 
ATOM     13  C   UNL     1      38.368 -22.647   7.307  1.00  0.00     0.011 C 
ATOM     14  C   UNL     1      36.204 -21.359   7.081  1.00  0.00     0.016 C 
ATOM     15  C   UNL     1      34.773 -24.061   7.876  1.00  0.00     0.008 C 
ENDBRANCH   1   4
BRANCH   1  16
ATOM     16  O   UNL     1      32.261 -24.837   7.295  1.00  0.00    -0.390 OA
ATOM     17  H   UNL     1      31.816 -25.651   7.643  1.00  0.00     0.211 HD
ENDBRANCH   1  16
TORSDOF 2
ENDMDL
