MODEL 1
REMARK VINA RESULT:    -4.566      0.000      0.000
REMARK INTER + INTRA:          -6.348
REMARK INTER:                  -6.034
REMARK INTRA:                  -0.313
REMARK UNBOUND:                -0.313
REMARK SMILES CCCCC=CC=CCO
REMARK SMILES IDX 5 1 6 2 4 3 3 4 2 5 1 6 7 7 8 8 9 9 10 10
REMARK H PARENT 10 11
REMARK Flexibility Score: inf
ROOT
ATOM      1  C   UNL     1     -19.449   0.577  51.260  1.00  0.00    -0.027 C 
ATOM      2  C   UNL     1     -20.065   0.844  52.416  1.00  0.00    -0.005 C 
ENDROOT
BRANCH   1   3
ATOM      3  C   UNL     1     -17.988   0.858  51.064  1.00  0.00     0.027 C 
BRANCH   3   4
ATOM      4  C   UNL     1     -17.277  -0.337  50.412  1.00  0.00     0.004 C 
BRANCH   4   5
ATOM      5  C   UNL     1     -17.750  -1.685  50.979  1.00  0.00    -0.003 C 
ATOM      6  C   UNL     1     -16.601  -2.660  51.228  1.00  0.00     0.004 C 
ENDBRANCH   4   5
ENDBRANCH   3   4
ENDBRANCH   1   3
BRANCH   2   7
ATOM      7  C   UNL     1     -21.502   0.577  52.588  1.00  0.00    -0.002 C 
ATOM      8  C   UNL     1     -22.173  -0.168  51.706  1.00  0.00     0.001 C 
BRANCH   8   9
ATOM      9  C   UNL     1     -23.640  -0.436  51.866  1.00  0.00     0.183 C 
BRANCH   9  10
ATOM     10  O   UNL     1     -24.138   0.233  52.994  1.00  0.00    -0.392 OA
ATOM     11  H   UNL     1     -25.128   0.206  52.930  1.00  0.00     0.210 HD
ENDBRANCH   9  10
ENDBRANCH   8   9
ENDBRANCH   2   7
TORSDOF 6
ENDMDL
MODEL 2
REMARK VINA RESULT:    -4.510      3.805      4.663
REMARK INTER + INTRA:          -6.274
REMARK INTER:                  -5.968
REMARK INTRA:                  -0.306
REMARK UNBOUND:                -0.313
REMARK SMILES CCCCC=CC=CCO
REMARK SMILES IDX 5 1 6 2 4 3 3 4 2 5 1 6 7 7 8 8 9 9 10 10
REMARK H PARENT 10 11
REMARK Flexibility Score: inf
ROOT
ATOM      1  C   UNL     1     -21.967  -1.361  49.363  1.00  0.00    -0.027 C 
ATOM      2  C   UNL     1     -23.182  -0.930  49.716  1.00  0.00    -0.005 C 
ENDROOT
BRANCH   1   3
ATOM      3  C   UNL     1     -20.988  -0.466  48.659  1.00  0.00     0.027 C 
BRANCH   3   4
ATOM      4  C   UNL     1     -21.067  -0.648  47.136  1.00  0.00     0.004 C 
BRANCH   4   5
ATOM      5  C   UNL     1     -21.263  -2.117  46.728  1.00  0.00    -0.003 C 
ATOM      6  C   UNL     1     -22.591  -2.362  46.013  1.00  0.00     0.004 C 
ENDBRANCH   4   5
ENDBRANCH   3   4
ENDBRANCH   1   3
BRANCH   2   7
ATOM      7  C   UNL     1     -24.136  -1.823  50.392  1.00  0.00    -0.002 C 
ATOM      8  C   UNL     1     -24.371  -1.714  51.701  1.00  0.00     0.001 C 
BRANCH   8   9
ATOM      9  C   UNL     1     -25.333  -2.627  52.402  1.00  0.00     0.183 C 
BRANCH   9  10
ATOM     10  O   UNL     1     -24.640  -3.652  53.062  1.00  0.00    -0.392 OA
ATOM     11  H   UNL     1     -24.861  -4.498  52.592  1.00  0.00     0.210 HD
ENDBRANCH   9  10
ENDBRANCH   8   9
ENDBRANCH   2   7
TORSDOF 6
ENDMDL
MODEL 3
REMARK VINA RESULT:    -4.400     12.716     15.314
REMARK INTER + INTRA:          -6.128
REMARK INTER:                  -5.835
REMARK INTRA:                  -0.292
REMARK UNBOUND:                -0.313
REMARK SMILES CCCCC=CC=CCO
REMARK SMILES IDX 5 1 6 2 4 3 3 4 2 5 1 6 7 7 8 8 9 9 10 10
REMARK H PARENT 10 11
REMARK Flexibility Score: inf
ROOT
ATOM      1  C   UNL     1     -15.675 -13.617  51.934  1.00  0.00    -0.027 C 
ATOM      2  C   UNL     1     -14.847 -14.617  51.618  1.00  0.00    -0.005 C 
ENDROOT
BRANCH   1   3
ATOM      3  C   UNL     1     -15.308 -12.183  51.686  1.00  0.00     0.027 C 
BRANCH   3   4
ATOM      4  C   UNL     1     -16.498 -11.251  51.962  1.00  0.00     0.004 C 
BRANCH   4   5
ATOM      5  C   UNL     1     -17.851 -11.956  51.784  1.00  0.00    -0.003 C 
ATOM      6  C   UNL     1     -18.983 -11.268  52.547  1.00  0.00     0.004 C 
ENDBRANCH   4   5
ENDBRANCH   3   4
ENDBRANCH   1   3
BRANCH   2   7
ATOM      7  C   UNL     1     -15.215 -16.017  51.881  1.00  0.00    -0.002 C 
ATOM      8  C   UNL     1     -16.414 -16.491  51.530  1.00  0.00     0.001 C 
BRANCH   8   9
ATOM      9  C   UNL     1     -16.802 -17.913  51.804  1.00  0.00     0.183 C 
BRANCH   9  10
ATOM     10  O   UNL     1     -16.247 -18.345  53.017  1.00  0.00    -0.392 OA
ATOM     11  H   UNL     1     -16.998 -18.443  53.659  1.00  0.00     0.210 HD
ENDBRANCH   9  10
ENDBRANCH   8   9
ENDBRANCH   2   7
TORSDOF 6
ENDMDL
MODEL 4
REMARK VINA RESULT:    -4.379      4.069      4.699
REMARK INTER + INTRA:          -6.101
REMARK INTER:                  -5.841
REMARK INTRA:                  -0.260
REMARK UNBOUND:                -0.313
REMARK SMILES CCCCC=CC=CCO
REMARK SMILES IDX 5 1 6 2 4 3 3 4 2 5 1 6 7 7 8 8 9 9 10 10
REMARK H PARENT 10 11
REMARK Flexibility Score: inf
ROOT
ATOM      1  C   UNL     1     -22.937  -1.793  48.606  1.00  0.00    -0.027 C 
ATOM      2  C   UNL     1     -23.150  -0.804  49.479  1.00  0.00    -0.005 C 
ENDROOT
BRANCH   1   3
ATOM      3  C   UNL     1     -22.269  -1.546  47.284  1.00  0.00     0.027 C 
BRANCH   3   4
ATOM      4  C   UNL     1     -21.590  -0.168  47.256  1.00  0.00     0.004 C 
BRANCH   4   5
ATOM      5  C   UNL     1     -20.058  -0.268  47.179  1.00  0.00    -0.003 C 
ATOM      6  C   UNL     1     -19.418   0.943  46.502  1.00  0.00     0.004 C 
ENDBRANCH   4   5
ENDBRANCH   3   4
ENDBRANCH   1   3
BRANCH   2   7
ATOM      7  C   UNL     1     -23.820  -1.059  50.763  1.00  0.00    -0.002 C 
ATOM      8  C   UNL     1     -24.416  -2.230  51.008  1.00  0.00     0.001 C 
BRANCH   8   9
ATOM      9  C   UNL     1     -25.111  -2.495  52.309  1.00  0.00     0.183 C 
BRANCH   9  10
ATOM     10  O   UNL     1     -24.594  -3.651  52.912  1.00  0.00    -0.392 OA
ATOM     11  H   UNL     1     -23.627  -3.684  52.689  1.00  0.00     0.210 HD
ENDBRANCH   9  10
ENDBRANCH   8   9
ENDBRANCH   2   7
TORSDOF 6
ENDMDL
MODEL 5
REMARK VINA RESULT:    -4.343     13.091     15.729
REMARK INTER + INTRA:          -6.053
REMARK INTER:                  -5.743
REMARK INTRA:                  -0.310
REMARK UNBOUND:                -0.313
REMARK SMILES CCCCC=CC=CCO
REMARK SMILES IDX 5 1 6 2 4 3 3 4 2 5 1 6 7 7 8 8 9 9 10 10
REMARK H PARENT 10 11
REMARK Flexibility Score: inf
ROOT
ATOM      1  C   UNL     1     -16.371 -15.738  51.251  1.00  0.00    -0.027 C 
ATOM      2  C   UNL     1     -15.223 -15.197  51.670  1.00  0.00    -0.005 C 
ENDROOT
BRANCH   1   3
ATOM      3  C   UNL     1     -16.556 -17.226  51.171  1.00  0.00     0.027 C 
BRANCH   3   4
ATOM      4  C   UNL     1     -17.035 -17.650  49.774  1.00  0.00     0.004 C 
BRANCH   4   5
ATOM      5  C   UNL     1     -17.761 -16.517  49.032  1.00  0.00    -0.003 C 
ATOM      6  C   UNL     1     -17.968 -16.818  47.548  1.00  0.00     0.004 C 
ENDBRANCH   4   5
ENDBRANCH   3   4
ENDBRANCH   1   3
BRANCH   2   7
ATOM      7  C   UNL     1     -15.051 -13.737  51.728  1.00  0.00    -0.002 C 
ATOM      8  C   UNL     1     -16.103 -12.926  51.873  1.00  0.00     0.001 C 
BRANCH   8   9
ATOM      9  C   UNL     1     -15.940 -11.436  51.922  1.00  0.00     0.183 C 
BRANCH   9  10
ATOM     10  O   UNL     1     -14.580 -11.095  51.948  1.00  0.00    -0.392 OA
ATOM     11  H   UNL     1     -14.128 -11.758  52.533  1.00  0.00     0.210 HD
ENDBRANCH   9  10
ENDBRANCH   8   9
ENDBRANCH   2   7
TORSDOF 6
ENDMDL
MODEL 6
REMARK VINA RESULT:    -4.329     16.379     17.698
REMARK INTER + INTRA:          -6.034
REMARK INTER:                  -5.645
REMARK INTRA:                  -0.390
REMARK UNBOUND:                -0.313
REMARK SMILES CCCCC=CC=CCO
REMARK SMILES IDX 5 1 6 2 4 3 3 4 2 5 1 6 7 7 8 8 9 9 10 10
REMARK H PARENT 10 11
REMARK Flexibility Score: inf
ROOT
ATOM      1  C   UNL     1     -17.734 -16.601  48.542  1.00  0.00    -0.027 C 
ATOM      2  C   UNL     1     -17.336 -17.550  49.395  1.00  0.00    -0.005 C 
ENDROOT
BRANCH   1   3
ATOM      3  C   UNL     1     -18.299 -16.942  47.194  1.00  0.00     0.027 C 
BRANCH   3   4
ATOM      4  C   UNL     1     -18.916 -18.349  47.191  1.00  0.00     0.004 C 
BRANCH   4   5
ATOM      5  C   UNL     1     -20.452 -18.317  47.197  1.00  0.00    -0.003 C 
ATOM      6  C   UNL     1     -21.041 -18.421  48.604  1.00  0.00     0.004 C 
ENDBRANCH   4   5
ENDBRANCH   3   4
ENDBRANCH   1   3
BRANCH   2   7
ATOM      7  C   UNL     1     -16.770 -17.200  50.707  1.00  0.00    -0.002 C 
ATOM      8  C   UNL     1     -15.968 -16.141  50.850  1.00  0.00     0.001 C 
BRANCH   8   9
ATOM      9  C   UNL     1     -15.377 -15.783  52.180  1.00  0.00     0.183 C 
BRANCH   9  10
ATOM     10  O   UNL     1     -16.116 -14.754  52.782  1.00  0.00    -0.392 OA
ATOM     11  H   UNL     1     -17.071 -15.021  52.736  1.00  0.00     0.210 HD
ENDBRANCH   9  10
ENDBRANCH   8   9
ENDBRANCH   2   7
TORSDOF 6
ENDMDL
MODEL 7
REMARK VINA RESULT:    -4.308      8.786     10.296
REMARK INTER + INTRA:          -6.006
REMARK INTER:                  -5.790
REMARK INTRA:                  -0.216
REMARK UNBOUND:                -0.313
REMARK SMILES CCCCC=CC=CCO
REMARK SMILES IDX 5 1 6 2 4 3 3 4 2 5 1 6 7 7 8 8 9 9 10 10
REMARK H PARENT 10 11
REMARK Flexibility Score: inf
ROOT
ATOM      1  C   UNL     1     -14.754  -5.928  45.729  1.00  0.00    -0.027 C 
ATOM      2  C   UNL     1     -13.630  -5.209  45.783  1.00  0.00    -0.005 C 
ENDROOT
BRANCH   1   3
ATOM      3  C   UNL     1     -14.755  -7.408  45.981  1.00  0.00     0.027 C 
BRANCH   3   4
ATOM      4  C   UNL     1     -16.186  -7.945  46.131  1.00  0.00     0.004 C 
BRANCH   4   5
ATOM      5  C   UNL     1     -16.271  -9.135  47.099  1.00  0.00    -0.003 C 
ATOM      6  C   UNL     1     -14.899  -9.619  47.565  1.00  0.00     0.004 C 
ENDBRANCH   4   5
ENDBRANCH   3   4
ENDBRANCH   1   3
BRANCH   2   7
ATOM      7  C   UNL     1     -13.643  -3.761  45.519  1.00  0.00    -0.002 C 
ATOM      8  C   UNL     1     -14.650  -2.994  45.945  1.00  0.00     0.001 C 
BRANCH   8   9
ATOM      9  C   UNL     1     -14.678  -1.520  45.670  1.00  0.00     0.183 C 
BRANCH   9  10
ATOM     10  O   UNL     1     -14.181  -1.253  44.387  1.00  0.00    -0.392 OA
ATOM     11  H   UNL     1     -14.056  -0.270  44.325  1.00  0.00     0.210 HD
ENDBRANCH   9  10
ENDBRANCH   8   9
ENDBRANCH   2   7
TORSDOF 6
ENDMDL
MODEL 8
REMARK VINA RESULT:    -4.307     16.272     16.920
REMARK INTER + INTRA:          -6.005
REMARK INTER:                  -5.783
REMARK INTRA:                  -0.222
REMARK UNBOUND:                -0.313
REMARK SMILES CCCCC=CC=CCO
REMARK SMILES IDX 5 1 6 2 4 3 3 4 2 5 1 6 7 7 8 8 9 9 10 10
REMARK H PARENT 10 11
REMARK Flexibility Score: inf
ROOT
ATOM      1  C   UNL     1     -24.609 -16.089  48.568  1.00  0.00    -0.027 C 
ATOM      2  C   UNL     1     -25.478 -16.506  47.644  1.00  0.00    -0.005 C 
ENDROOT
BRANCH   1   3
ATOM      3  C   UNL     1     -24.223 -16.955  49.733  1.00  0.00     0.027 C 
BRANCH   3   4
ATOM      4  C   UNL     1     -23.665 -16.111  50.889  1.00  0.00     0.004 C 
BRANCH   4   5
ATOM      5  C   UNL     1     -22.187 -16.415  51.180  1.00  0.00    -0.003 C 
ATOM      6  C   UNL     1     -21.730 -17.749  50.592  1.00  0.00     0.004 C 
ENDBRANCH   4   5
ENDBRANCH   3   4
ENDBRANCH   1   3
BRANCH   2   7
ATOM      7  C   UNL     1     -25.858 -15.640  46.516  1.00  0.00    -0.002 C 
ATOM      8  C   UNL     1     -26.380 -14.429  46.725  1.00  0.00     0.001 C 
BRANCH   8   9
ATOM      9  C   UNL     1     -26.781 -13.543  45.583  1.00  0.00     0.183 C 
BRANCH   9  10
ATOM     10  O   UNL     1     -25.985 -13.806  44.459  1.00  0.00    -0.392 OA
ATOM     11  H   UNL     1     -25.415 -13.005  44.316  1.00  0.00     0.210 HD
ENDBRANCH   9  10
ENDBRANCH   8   9
ENDBRANCH   2   7
TORSDOF 6
ENDMDL
MODEL 9
REMARK VINA RESULT:    -4.297      6.263      8.020
REMARK INTER + INTRA:          -5.991
REMARK INTER:                  -5.697
REMARK INTRA:                  -0.295
REMARK UNBOUND:                -0.313
REMARK SMILES CCCCC=CC=CCO
REMARK SMILES IDX 5 1 6 2 4 3 3 4 2 5 1 6 7 7 8 8 9 9 10 10
REMARK H PARENT 10 11
REMARK Flexibility Score: inf
ROOT
ATOM      1  C   UNL     1     -18.749   0.015  46.657  1.00  0.00    -0.027 C 
ATOM      2  C   UNL     1     -18.192   0.318  45.481  1.00  0.00    -0.005 C 
ENDROOT
BRANCH   1   3
ATOM      3  C   UNL     1     -20.097   0.546  47.049  1.00  0.00     0.027 C 
BRANCH   3   4
ATOM      4  C   UNL     1     -21.015  -0.583  47.543  1.00  0.00     0.004 C 
BRANCH   4   5
ATOM      5  C   UNL     1     -21.037  -1.785  46.586  1.00  0.00    -0.003 C 
ATOM      6  C   UNL     1     -22.454  -2.249  46.250  1.00  0.00     0.004 C 
ENDBRANCH   4   5
ENDBRANCH   3   4
ENDBRANCH   1   3
BRANCH   2   7
ATOM      7  C   UNL     1     -16.862  -0.197  45.117  1.00  0.00    -0.002 C 
ATOM      8  C   UNL     1     -16.116  -0.861  46.004  1.00  0.00     0.001 C 
BRANCH   8   9
ATOM      9  C   UNL     1     -14.755  -1.380  45.647  1.00  0.00     0.183 C 
BRANCH   9  10
ATOM     10  O   UNL     1     -14.450  -1.071  44.314  1.00  0.00    -0.392 OA
ATOM     11  H   UNL     1     -15.147  -0.439  43.997  1.00  0.00     0.210 HD
ENDBRANCH   9  10
ENDBRANCH   8   9
ENDBRANCH   2   7
TORSDOF 6
ENDMDL
