MODEL 1
REMARK VINA RESULT:     2.346      0.000      0.000
REMARK INTER + INTRA:           2.346
REMARK INTER:                   2.346
REMARK INTRA:                   0.000
REMARK UNBOUND:                 0.000
REMARK SMILES CC1(C)O[C@]2(C)CC[C@H]1CC2
REMARK SMILES IDX 1 1 2 2 9 3 10 4 11 5 5 6 4 7 7 8 8 9 6 10 3 11
REMARK H PARENT
REMARK Flexibility Score: inf
ROOT
ATOM      1  C   UNL     1      18.350  10.024  13.145  1.00  0.00     0.042 C 
ATOM      2  C   UNL     1      19.263   9.445  12.043  1.00  0.00     0.066 C 
ATOM      3  C   UNL     1      20.710   9.166  12.606  1.00  0.00     0.021 C 
ATOM      4  C   UNL     1      20.607   8.088  13.712  1.00  0.00     0.009 C 
ATOM      5  C   UNL     1      19.823   6.871  13.163  1.00  0.00     0.035 C 
ATOM      6  C   UNL     1      19.483   7.096  11.662  1.00  0.00     0.066 C 
ATOM      7  O   UNL     1      18.649   8.249  11.538  1.00  0.00    -0.369 OA
ATOM      8  C   UNL     1      20.804   7.334  10.875  1.00  0.00     0.035 C 
ATOM      9  C   UNL     1      21.564   8.540  11.478  1.00  0.00     0.009 C 
ATOM     10  C   UNL     1      18.736   5.884  11.096  1.00  0.00     0.042 C 
ATOM     11  C   UNL     1      19.313  10.478  10.898  1.00  0.00     0.042 C 
ENDROOT
TORSDOF 0
ENDMDL
MODEL 2
REMARK VINA RESULT:     2.359      0.932      3.314
REMARK INTER + INTRA:           2.359
REMARK INTER:                   2.359
REMARK INTRA:                   0.000
REMARK UNBOUND:                 0.000
REMARK SMILES CC1(C)O[C@]2(C)CC[C@H]1CC2
REMARK SMILES IDX 1 1 2 2 9 3 10 4 11 5 5 6 4 7 7 8 8 9 6 10 3 11
REMARK H PARENT
REMARK Flexibility Score: inf
ROOT
ATOM      1  C   UNL     1      18.858   5.933  10.875  1.00  0.00     0.042 C 
ATOM      2  C   UNL     1      19.228   6.751  12.132  1.00  0.00     0.066 C 
ATOM      3  C   UNL     1      20.760   7.129  12.121  1.00  0.00     0.021 C 
ATOM      4  C   UNL     1      21.031   8.040  10.899  1.00  0.00     0.009 C 
ATOM      5  C   UNL     1      20.020   9.213  10.907  1.00  0.00     0.035 C 
ATOM      6  C   UNL     1      19.134   9.138  12.182  1.00  0.00     0.066 C 
ATOM      7  O   UNL     1      18.392   7.917  12.166  1.00  0.00    -0.369 OA
ATOM      8  C   UNL     1      20.052   9.160  13.438  1.00  0.00     0.035 C 
ATOM      9  C   UNL     1      21.061   7.989  13.371  1.00  0.00     0.009 C 
ATOM     10  C   UNL     1      18.151  10.313  12.219  1.00  0.00     0.042 C 
ATOM     11  C   UNL     1      18.890   5.882  13.361  1.00  0.00     0.042 C 
ENDROOT
TORSDOF 0
ENDMDL
MODEL 3
REMARK VINA RESULT:     4.601      1.514      3.333
REMARK INTER + INTRA:           4.601
REMARK INTER:                   4.601
REMARK INTRA:                   0.000
REMARK UNBOUND:                 0.000
REMARK SMILES CC1(C)O[C@]2(C)CC[C@H]1CC2
REMARK SMILES IDX 1 1 2 2 9 3 10 4 11 5 5 6 4 7 7 8 8 9 6 10 3 11
REMARK H PARENT
REMARK Flexibility Score: inf
ROOT
ATOM      1  C   UNL     1      20.780   6.584  12.044  1.00  0.00     0.042 C 
ATOM      2  C   UNL     1      20.598   8.109  11.873  1.00  0.00     0.066 C 
ATOM      3  C   UNL     1      19.339   8.424  10.977  1.00  0.00     0.021 C 
ATOM      4  C   UNL     1      18.076   7.903  11.705  1.00  0.00     0.009 C 
ATOM      5  C   UNL     1      18.061   8.454  13.152  1.00  0.00     0.035 C 
ATOM      6  C   UNL     1      19.264   9.416  13.363  1.00  0.00     0.066 C 
ATOM      7  O   UNL     1      20.482   8.692  13.180  1.00  0.00    -0.369 OA
ATOM      8  C   UNL     1      19.187  10.559  12.310  1.00  0.00     0.035 C 
ATOM      9  C   UNL     1      19.176   9.960  10.884  1.00  0.00     0.009 C 
ATOM     10  C   UNL     1      19.242   9.995  14.781  1.00  0.00     0.042 C 
ATOM     11  C   UNL     1      21.885   8.653  11.217  1.00  0.00     0.042 C 
ENDROOT
TORSDOF 0
ENDMDL
MODEL 4
REMARK VINA RESULT:     4.779      1.274      3.023
REMARK INTER + INTRA:           4.779
REMARK INTER:                   4.779
REMARK INTRA:                   0.000
REMARK UNBOUND:                 0.000
REMARK SMILES CC1(C)O[C@]2(C)CC[C@H]1CC2
REMARK SMILES IDX 1 1 2 2 9 3 10 4 11 5 5 6 4 7 7 8 8 9 6 10 3 11
REMARK H PARENT
REMARK Flexibility Score: inf
ROOT
ATOM      1  C   UNL     1      18.715   9.733  13.918  1.00  0.00     0.042 C 
ATOM      2  C   UNL     1      19.233   8.535  13.092  1.00  0.00     0.066 C 
ATOM      3  C   UNL     1      18.511   8.468  11.691  1.00  0.00     0.021 C 
ATOM      4  C   UNL     1      18.866   9.747  10.895  1.00  0.00     0.009 C 
ATOM      5  C   UNL     1      20.404   9.925  10.881  1.00  0.00     0.035 C 
ATOM      6  C   UNL     1      21.082   8.718  11.589  1.00  0.00     0.066 C 
ATOM      7  O   UNL     1      20.656   8.674  12.952  1.00  0.00    -0.369 OA
ATOM      8  C   UNL     1      20.647   7.405  10.875  1.00  0.00     0.035 C 
ATOM      9  C   UNL     1      19.104   7.286  10.889  1.00  0.00     0.009 C 
ATOM     10  C   UNL     1      22.606   8.865  11.553  1.00  0.00     0.042 C 
ATOM     11  C   UNL     1      18.954   7.257  13.911  1.00  0.00     0.042 C 
ENDROOT
TORSDOF 0
ENDMDL
