MODEL 1
REMARK VINA RESULT:    -4.105      0.000      0.000
REMARK INTER + INTRA:          -6.920
REMARK INTER:                  -6.504
REMARK INTRA:                  -0.415
REMARK UNBOUND:                -0.415
REMARK SMILES CCCCCCCCCCCC(=O)[O-]
REMARK SMILES IDX 7 1 8 2 9 3 10 4 11 5 12 6 13 7 14 8 6 9 5 10 4 11 3 12 2 13
REMARK SMILES IDX 1 14
REMARK H PARENT
REMARK Flexibility Score: inf
ROOT
ATOM      1  C   UNL     1      43.362  12.408 -36.018  1.00  0.00     0.000 C 
ENDROOT
BRANCH   1   2
ATOM      2  C   UNL     1      44.513  12.141 -35.034  1.00  0.00     0.000 C 
BRANCH   2   3
ATOM      3  C   UNL     1      44.187  12.596 -33.604  1.00  0.00     0.000 C 
BRANCH   3   4
ATOM      4  C   UNL     1      45.431  13.170 -32.913  1.00  0.00     0.006 C 
BRANCH   4   5
ATOM      5  C   UNL     1      46.118  12.143 -32.004  1.00  0.00     0.053 C 
BRANCH   5   6
ATOM      6  C   UNL     1      46.063  12.553 -30.564  1.00  0.00     0.041 C 
ATOM      7  O   UNL     1      45.307  13.490 -30.199  1.00  0.00    -0.550 OA
ATOM      8  O   UNL     1      46.825  11.875 -29.619  1.00  0.00    -0.550 OA
ENDBRANCH   5   6
ENDBRANCH   4   5
ENDBRANCH   3   4
ENDBRANCH   2   3
ENDBRANCH   1   2
BRANCH   1   9
ATOM      9  C   UNL     1      42.009  11.886 -35.499  1.00  0.00     0.000 C 
BRANCH   9  10
ATOM     10  C   UNL     1      40.819  12.402 -36.325  1.00  0.00    -0.000 C 
BRANCH  10  11
ATOM     11  C   UNL     1      40.281  13.746 -35.808  1.00  0.00    -0.000 C 
BRANCH  11  12
ATOM     12  C   UNL     1      38.770  13.708 -35.526  1.00  0.00    -0.000 C 
BRANCH  12  13
ATOM     13  C   UNL     1      37.925  13.887 -36.795  1.00  0.00    -0.003 C 
ATOM     14  C   UNL     1      37.274  12.572 -37.213  1.00  0.00     0.004 C 
ENDBRANCH  12  13
ENDBRANCH  11  12
ENDBRANCH  10  11
ENDBRANCH   9  10
ENDBRANCH   1   9
TORSDOF 10
ENDMDL
MODEL 2
REMARK VINA RESULT:    -4.061      4.102      7.786
REMARK INTER + INTRA:          -6.850
REMARK INTER:                  -6.453
REMARK INTRA:                  -0.397
REMARK UNBOUND:                -0.415
REMARK SMILES CCCCCCCCCCCC(=O)[O-]
REMARK SMILES IDX 7 1 8 2 9 3 10 4 11 5 12 6 13 7 14 8 6 9 5 10 4 11 3 12 2 13
REMARK SMILES IDX 1 14
REMARK H PARENT
REMARK Flexibility Score: inf
ROOT
ATOM      1  C   UNL     1      42.615  12.400 -36.450  1.00  0.00     0.000 C 
ENDROOT
BRANCH   1   2
ATOM      2  C   UNL     1      41.251  12.590 -35.767  1.00  0.00     0.000 C 
BRANCH   2   3
ATOM      3  C   UNL     1      40.481  13.801 -36.314  1.00  0.00     0.000 C 
BRANCH   3   4
ATOM      4  C   UNL     1      39.416  14.272 -35.314  1.00  0.00     0.006 C 
BRANCH   4   5
ATOM      5  C   UNL     1      38.039  14.445 -35.968  1.00  0.00     0.053 C 
BRANCH   5   6
ATOM      6  C   UNL     1      37.391  13.125 -36.256  1.00  0.00     0.041 C 
ATOM      7  O   UNL     1      37.284  12.716 -37.442  1.00  0.00    -0.550 OA
ATOM      8  O   UNL     1      36.936  12.331 -35.210  1.00  0.00    -0.550 OA
ENDBRANCH   5   6
ENDBRANCH   4   5
ENDBRANCH   3   4
ENDBRANCH   2   3
ENDBRANCH   1   2
BRANCH   1   9
ATOM      9  C   UNL     1      43.704  11.920 -35.472  1.00  0.00     0.000 C 
BRANCH   9  10
ATOM     10  C   UNL     1      43.627  12.623 -34.107  1.00  0.00    -0.000 C 
BRANCH  10  11
ATOM     11  C   UNL     1      44.986  12.670 -33.390  1.00  0.00    -0.000 C 
BRANCH  11  12
ATOM     12  C   UNL     1      44.888  12.256 -31.912  1.00  0.00    -0.000 C 
BRANCH  12  13
ATOM     13  C   UNL     1      45.830  13.062 -31.006  1.00  0.00    -0.003 C 
ATOM     14  C   UNL     1      46.245  12.249 -29.784  1.00  0.00     0.004 C 
ENDBRANCH  12  13
ENDBRANCH  11  12
ENDBRANCH  10  11
ENDBRANCH   9  10
ENDBRANCH   1   9
TORSDOF 10
ENDMDL
MODEL 3
REMARK VINA RESULT:    -3.901     19.808     22.170
REMARK INTER + INTRA:          -6.598
REMARK INTER:                  -5.599
REMARK INTRA:                  -0.998
REMARK UNBOUND:                -0.415
REMARK SMILES CCCCCCCCCCCC(=O)[O-]
REMARK SMILES IDX 7 1 8 2 9 3 10 4 11 5 12 6 13 7 14 8 6 9 5 10 4 11 3 12 2 13
REMARK SMILES IDX 1 14
REMARK H PARENT
REMARK Flexibility Score: inf
ROOT
ATOM      1  C   UNL     1      55.720  31.550 -32.263  1.00  0.00     0.000 C 
ENDROOT
BRANCH   1   2
ATOM      2  C   UNL     1      55.379  31.826 -33.737  1.00  0.00     0.000 C 
BRANCH   2   3
ATOM      3  C   UNL     1      56.357  31.146 -34.707  1.00  0.00     0.000 C 
BRANCH   3   4
ATOM      4  C   UNL     1      55.817  31.178 -36.143  1.00  0.00     0.006 C 
BRANCH   4   5
ATOM      5  C   UNL     1      55.689  29.774 -36.748  1.00  0.00     0.053 C 
BRANCH   5   6
ATOM      6  C   UNL     1      54.948  29.796 -38.050  1.00  0.00     0.041 C 
ATOM      7  O   UNL     1      54.212  28.829 -38.378  1.00  0.00    -0.550 OA
ATOM      8  O   UNL     1      55.045  30.902 -38.886  1.00  0.00    -0.550 OA
ENDBRANCH   5   6
ENDBRANCH   4   5
ENDBRANCH   3   4
ENDBRANCH   2   3
ENDBRANCH   1   2
BRANCH   1   9
ATOM      9  C   UNL     1      55.607  30.057 -31.900  1.00  0.00     0.000 C 
BRANCH   9  10
ATOM     10  C   UNL     1      56.972  29.415 -31.604  1.00  0.00    -0.000 C 
BRANCH  10  11
ATOM     11  C   UNL     1      57.097  27.999 -32.191  1.00  0.00    -0.000 C 
BRANCH  11  12
ATOM     12  C   UNL     1      56.021  27.701 -33.249  1.00  0.00    -0.000 C 
BRANCH  12  13
ATOM     13  C   UNL     1      56.594  27.024 -34.502  1.00  0.00    -0.003 C 
ATOM     14  C   UNL     1      55.487  26.382 -35.334  1.00  0.00     0.004 C 
ENDBRANCH  12  13
ENDBRANCH  11  12
ENDBRANCH  10  11
ENDBRANCH   9  10
ENDBRANCH   1   9
TORSDOF 10
ENDMDL
MODEL 4
REMARK VINA RESULT:    -3.785     20.552     22.385
REMARK INTER + INTRA:          -6.413
REMARK INTER:                  -5.269
REMARK INTRA:                  -1.144
REMARK UNBOUND:                -0.415
REMARK SMILES CCCCCCCCCCCC(=O)[O-]
REMARK SMILES IDX 7 1 8 2 9 3 10 4 11 5 12 6 13 7 14 8 6 9 5 10 4 11 3 12 2 13
REMARK SMILES IDX 1 14
REMARK H PARENT
REMARK Flexibility Score: inf
ROOT
ATOM      1  C   UNL     1      55.667  27.579 -33.889  1.00  0.00     0.000 C 
ENDROOT
BRANCH   1   2
ATOM      2  C   UNL     1      55.992  27.570 -35.392  1.00  0.00     0.000 C 
BRANCH   2   3
ATOM      3  C   UNL     1      56.534  28.919 -35.887  1.00  0.00     0.000 C 
BRANCH   3   4
ATOM      4  C   UNL     1      55.666  29.476 -37.023  1.00  0.00     0.006 C 
BRANCH   4   5
ATOM      5  C   UNL     1      55.242  30.930 -36.772  1.00  0.00     0.053 C 
BRANCH   5   6
ATOM      6  C   UNL     1      54.338  31.439 -37.852  1.00  0.00     0.041 C 
ATOM      7  O   UNL     1      53.125  31.672 -37.608  1.00  0.00    -0.550 OA
ATOM      8  O   UNL     1      54.844  31.687 -39.122  1.00  0.00    -0.550 OA
ENDBRANCH   5   6
ENDBRANCH   4   5
ENDBRANCH   3   4
ENDBRANCH   2   3
ENDBRANCH   1   2
BRANCH   1   9
ATOM      9  C   UNL     1      56.869  28.008 -33.027  1.00  0.00     0.000 C 
BRANCH   9  10
ATOM     10  C   UNL     1      56.456  28.455 -31.615  1.00  0.00    -0.000 C 
BRANCH  10  11
ATOM     11  C   UNL     1      56.570  29.977 -31.421  1.00  0.00    -0.000 C 
BRANCH  11  12
ATOM     12  C   UNL     1      55.241  30.706 -31.681  1.00  0.00    -0.000 C 
BRANCH  12  13
ATOM     13  C   UNL     1      55.219  31.436 -33.031  1.00  0.00    -0.003 C 
ATOM     14  C   UNL     1      56.621  31.881 -33.438  1.00  0.00     0.004 C 
ENDBRANCH  12  13
ENDBRANCH  11  12
ENDBRANCH  10  11
ENDBRANCH   9  10
ENDBRANCH   1   9
TORSDOF 10
ENDMDL
MODEL 5
REMARK VINA RESULT:    -3.749     20.316     22.227
REMARK INTER + INTRA:          -6.356
REMARK INTER:                  -5.651
REMARK INTRA:                  -0.705
REMARK UNBOUND:                -0.415
REMARK SMILES CCCCCCCCCCCC(=O)[O-]
REMARK SMILES IDX 7 1 8 2 9 3 10 4 11 5 12 6 13 7 14 8 6 9 5 10 4 11 3 12 2 13
REMARK SMILES IDX 1 14
REMARK H PARENT
REMARK Flexibility Score: inf
ROOT
ATOM      1  C   UNL     1      56.009  26.920 -34.517  1.00  0.00     0.000 C 
ENDROOT
BRANCH   1   2
ATOM      2  C   UNL     1      55.695  27.786 -35.748  1.00  0.00     0.000 C 
BRANCH   2   3
ATOM      3  C   UNL     1      56.690  28.942 -35.927  1.00  0.00     0.000 C 
BRANCH   3   4
ATOM      4  C   UNL     1      55.981  30.204 -36.437  1.00  0.00     0.006 C 
BRANCH   4   5
ATOM      5  C   UNL     1      54.893  29.883 -37.470  1.00  0.00     0.053 C 
BRANCH   5   6
ATOM      6  C   UNL     1      54.293  31.128 -38.050  1.00  0.00     0.041 C 
ATOM      7  O   UNL     1      54.893  31.756 -38.961  1.00  0.00    -0.550 OA
ATOM      8  O   UNL     1      53.055  31.575 -37.605  1.00  0.00    -0.550 OA
ENDBRANCH   5   6
ENDBRANCH   4   5
ENDBRANCH   3   4
ENDBRANCH   2   3
ENDBRANCH   1   2
BRANCH   1   9
ATOM      9  C   UNL     1      56.976  27.613 -33.539  1.00  0.00     0.000 C 
BRANCH   9  10
ATOM     10  C   UNL     1      56.279  28.089 -32.254  1.00  0.00    -0.000 C 
BRANCH  10  11
ATOM     11  C   UNL     1      55.733  29.521 -32.375  1.00  0.00    -0.000 C 
BRANCH  11  12
ATOM     12  C   UNL     1      55.987  30.358 -31.110  1.00  0.00    -0.000 C 
BRANCH  12  13
ATOM     13  C   UNL     1      56.032  29.504 -29.834  1.00  0.00    -0.003 C 
ATOM     14  C   UNL     1      56.478  30.334 -28.634  1.00  0.00     0.004 C 
ENDBRANCH  12  13
ENDBRANCH  11  12
ENDBRANCH  10  11
ENDBRANCH   9  10
ENDBRANCH   1   9
TORSDOF 10
ENDMDL
MODEL 6
REMARK VINA RESULT:    -3.587     19.840     21.364
REMARK INTER + INTRA:          -6.100
REMARK INTER:                  -5.259
REMARK INTRA:                  -0.840
REMARK UNBOUND:                -0.415
REMARK SMILES CCCCCCCCCCCC(=O)[O-]
REMARK SMILES IDX 7 1 8 2 9 3 10 4 11 5 12 6 13 7 14 8 6 9 5 10 4 11 3 12 2 13
REMARK SMILES IDX 1 14
REMARK H PARENT
REMARK Flexibility Score: inf
ROOT
ATOM      1  C   UNL     1      55.646  26.887 -35.033  1.00  0.00     0.000 C 
ENDROOT
BRANCH   1   2
ATOM      2  C   UNL     1      57.080  27.218 -34.590  1.00  0.00     0.000 C 
BRANCH   2   3
ATOM      3  C   UNL     1      57.125  28.263 -33.465  1.00  0.00     0.000 C 
BRANCH   3   4
ATOM      4  C   UNL     1      56.021  28.005 -32.431  1.00  0.00     0.006 C 
BRANCH   4   5
ATOM      5  C   UNL     1      56.523  28.170 -30.990  1.00  0.00     0.053 C 
BRANCH   5   6
ATOM      6  C   UNL     1      56.065  29.463 -30.388  1.00  0.00     0.041 C 
ATOM      7  O   UNL     1      55.401  30.283 -31.074  1.00  0.00    -0.550 OA
ATOM      8  O   UNL     1      56.343  29.746 -29.056  1.00  0.00    -0.550 OA
ENDBRANCH   5   6
ENDBRANCH   4   5
ENDBRANCH   3   4
ENDBRANCH   2   3
ENDBRANCH   1   2
BRANCH   1   9
ATOM      9  C   UNL     1      55.260  27.582 -36.352  1.00  0.00     0.000 C 
BRANCH   9  10
ATOM     10  C   UNL     1      56.038  28.888 -36.584  1.00  0.00    -0.000 C 
BRANCH  10  11
ATOM     11  C   UNL     1      55.246  29.905 -37.423  1.00  0.00    -0.000 C 
BRANCH  11  12
ATOM     12  C   UNL     1      55.152  31.282 -36.745  1.00  0.00    -0.000 C 
BRANCH  12  13
ATOM     13  C   UNL     1      56.220  31.483 -35.660  1.00  0.00    -0.003 C 
ATOM     14  C   UNL     1      55.579  31.772 -34.305  1.00  0.00     0.004 C 
ENDBRANCH  12  13
ENDBRANCH  11  12
ENDBRANCH  10  11
ENDBRANCH   9  10
ENDBRANCH   1   9
TORSDOF 10
ENDMDL
MODEL 7
REMARK VINA RESULT:    -3.569     20.793     22.353
REMARK INTER + INTRA:          -6.070
REMARK INTER:                  -5.078
REMARK INTRA:                  -0.992
REMARK UNBOUND:                -0.415
REMARK SMILES CCCCCCCCCCCC(=O)[O-]
REMARK SMILES IDX 7 1 8 2 9 3 10 4 11 5 12 6 13 7 14 8 6 9 5 10 4 11 3 12 2 13
REMARK SMILES IDX 1 14
REMARK H PARENT
REMARK Flexibility Score: inf
ROOT
ATOM      1  C   UNL     1      57.073  28.099 -32.621  1.00  0.00     0.000 C 
ENDROOT
BRANCH   1   2
ATOM      2  C   UNL     1      56.213  28.671 -33.759  1.00  0.00     0.000 C 
BRANCH   2   3
ATOM      3  C   UNL     1      56.996  29.633 -34.665  1.00  0.00     0.000 C 
BRANCH   3   4
ATOM      4  C   UNL     1      56.963  29.161 -36.125  1.00  0.00     0.006 C 
BRANCH   4   5
ATOM      5  C   UNL     1      55.617  28.528 -36.502  1.00  0.00     0.053 C 
BRANCH   5   6
ATOM      6  C   UNL     1      54.946  29.272 -37.616  1.00  0.00     0.041 C 
ATOM      7  O   UNL     1      54.430  28.645 -38.577  1.00  0.00    -0.550 OA
ATOM      8  O   UNL     1      54.864  30.659 -37.574  1.00  0.00    -0.550 OA
ENDBRANCH   5   6
ENDBRANCH   4   5
ENDBRANCH   3   4
ENDBRANCH   2   3
ENDBRANCH   1   2
BRANCH   1   9
ATOM      9  C   UNL     1      56.298  27.981 -31.295  1.00  0.00     0.000 C 
BRANCH   9  10
ATOM     10  C   UNL     1      57.004  28.694 -30.131  1.00  0.00    -0.000 C 
BRANCH  10  11
ATOM     11  C   UNL     1      56.358  30.048 -29.789  1.00  0.00    -0.000 C 
BRANCH  11  12
ATOM     12  C   UNL     1      56.892  31.194 -30.664  1.00  0.00    -0.000 C 
BRANCH  12  13
ATOM     13  C   UNL     1      55.779  32.125 -31.166  1.00  0.00    -0.003 C 
ATOM     14  C   UNL     1      54.702  31.342 -31.911  1.00  0.00     0.004 C 
ENDBRANCH  12  13
ENDBRANCH  11  12
ENDBRANCH  10  11
ENDBRANCH   9  10
ENDBRANCH   1   9
TORSDOF 10
ENDMDL
MODEL 8
REMARK VINA RESULT:    -3.408     19.608     21.497
REMARK INTER + INTRA:          -5.816
REMARK INTER:                  -5.094
REMARK INTRA:                  -0.722
REMARK UNBOUND:                -0.415
REMARK SMILES CCCCCCCCCCCC(=O)[O-]
REMARK SMILES IDX 7 1 8 2 9 3 10 4 11 5 12 6 13 7 14 8 6 9 5 10 4 11 3 12 2 13
REMARK SMILES IDX 1 14
REMARK H PARENT
REMARK Flexibility Score: inf
ROOT
ATOM      1  C   UNL     1      56.977  31.482 -34.037  1.00  0.00     0.000 C 
ENDROOT
BRANCH   1   2
ATOM      2  C   UNL     1      56.200  30.414 -33.250  1.00  0.00     0.000 C 
BRANCH   2   3
ATOM      3  C   UNL     1      57.125  29.453 -32.486  1.00  0.00     0.000 C 
BRANCH   3   4
ATOM      4  C   UNL     1      57.092  28.050 -33.107  1.00  0.00     0.006 C 
BRANCH   4   5
ATOM      5  C   UNL     1      56.153  27.971 -34.318  1.00  0.00     0.053 C 
BRANCH   5   6
ATOM      6  C   UNL     1      56.194  26.620 -34.964  1.00  0.00     0.041 C 
ATOM      7  O   UNL     1      57.125  25.816 -34.697  1.00  0.00    -0.550 OA
ATOM      8  O   UNL     1      55.182  26.236 -35.837  1.00  0.00    -0.550 OA
ENDBRANCH   5   6
ENDBRANCH   4   5
ENDBRANCH   3   4
ENDBRANCH   2   3
ENDBRANCH   1   2
BRANCH   1   9
ATOM      9  C   UNL     1      56.175  32.037 -35.229  1.00  0.00     0.000 C 
BRANCH   9  10
ATOM     10  C   UNL     1      55.652  30.930 -36.158  1.00  0.00    -0.000 C 
BRANCH  10  11
ATOM     11  C   UNL     1      54.844  31.487 -37.343  1.00  0.00    -0.000 C 
BRANCH  11  12
ATOM     12  C   UNL     1      54.957  30.608 -38.599  1.00  0.00    -0.000 C 
BRANCH  12  13
ATOM     13  C   UNL     1      55.300  29.147 -38.272  1.00  0.00    -0.003 C 
ATOM     14  C   UNL     1      54.289  28.192 -38.899  1.00  0.00     0.004 C 
ENDBRANCH  12  13
ENDBRANCH  11  12
ENDBRANCH  10  11
ENDBRANCH   9  10
ENDBRANCH   1   9
TORSDOF 10
ENDMDL
MODEL 9
REMARK VINA RESULT:    -2.663     19.801     21.171
REMARK INTER + INTRA:          -4.635
REMARK INTER:                  -4.137
REMARK INTRA:                  -0.497
REMARK UNBOUND:                -0.415
REMARK SMILES CCCCCCCCCCCC(=O)[O-]
REMARK SMILES IDX 7 1 8 2 9 3 10 4 11 5 12 6 13 7 14 8 6 9 5 10 4 11 3 12 2 13
REMARK SMILES IDX 1 14
REMARK H PARENT
REMARK Flexibility Score: inf
ROOT
ATOM      1  C   UNL     1      55.789  27.170 -34.114  1.00  0.00     0.000 C 
ENDROOT
BRANCH   1   2
ATOM      2  C   UNL     1      56.451  28.161 -33.143  1.00  0.00     0.000 C 
BRANCH   2   3
ATOM      3  C   UNL     1      55.954  27.993 -31.699  1.00  0.00     0.000 C 
BRANCH   3   4
ATOM      4  C   UNL     1      57.002  28.494 -30.696  1.00  0.00     0.006 C 
BRANCH   4   5
ATOM      5  C   UNL     1      56.363  29.150 -29.465  1.00  0.00     0.053 C 
BRANCH   5   6
ATOM      6  C   UNL     1      56.332  30.643 -29.584  1.00  0.00     0.041 C 
ATOM      7  O   UNL     1      56.691  31.365 -28.618  1.00  0.00    -0.550 OA
ATOM      8  O   UNL     1      55.939  31.237 -30.778  1.00  0.00    -0.550 OA
ENDBRANCH   5   6
ENDBRANCH   4   5
ENDBRANCH   3   4
ENDBRANCH   2   3
ENDBRANCH   1   2
BRANCH   1   9
ATOM      9  C   UNL     1      55.782  27.682 -35.567  1.00  0.00     0.000 C 
BRANCH   9  10
ATOM     10  C   UNL     1      56.177  29.163 -35.675  1.00  0.00    -0.000 C 
BRANCH  10  11
ATOM     11  C   UNL     1      56.127  29.683 -37.122  1.00  0.00    -0.000 C 
BRANCH  11  12
ATOM     12  C   UNL     1      54.715  29.607 -37.727  1.00  0.00    -0.000 C 
BRANCH  12  13
ATOM     13  C   UNL     1      54.702  28.973 -39.125  1.00  0.00    -0.003 C 
ATOM     14  C   UNL     1      53.937  27.653 -39.122  1.00  0.00     0.004 C 
ENDBRANCH  12  13
ENDBRANCH  11  12
ENDBRANCH  10  11
ENDBRANCH   9  10
ENDBRANCH   1   9
TORSDOF 10
ENDMDL
