MODEL 1
REMARK VINA RESULT:    -3.967      0.000      0.000
REMARK INTER + INTRA:          -5.662
REMARK INTER:                  -6.055
REMARK INTRA:                   0.392
REMARK UNBOUND:                 0.392
REMARK SMILES CC1=CCC[C@H](C)C(=O)C[C@H](C(C)C)C(=O)C1
REMARK SMILES IDX 8 1 9 2 6 3 7 4 5 5 4 6 3 7 2 8 1 9 10 11 11 12 15 13 16 14
REMARK SMILES IDX 17 15 12 17 13 18 14 19
REMARK H PARENT
REMARK Flexibility Score: 70.00
ROOT
ATOM      1  C   UNL     1      13.173  45.744  17.011  1.00  0.00     0.136 C 
ATOM      2  O   UNL     1      13.187  44.659  16.447  1.00  0.00    -0.299 OA
ENDROOT
BRANCH   1   3
ATOM      3  C   UNL     1      14.044  46.882  16.502  1.00  0.00     0.053 C 
ATOM      4  C   UNL     1      13.303  48.229  16.499  1.00  0.00     0.016 C 
BRANCH   3   5
ATOM      5  C   UNL     1      15.372  46.974  17.282  1.00  0.00     0.015 C 
BRANCH   5   6
ATOM      6  C   UNL     1      15.226  46.751  18.805  1.00  0.00     0.028 C 
BRANCH   6   7
ATOM      7  C   UNL     1      15.915  45.475  19.229  1.00  0.00    -0.028 C 
ATOM      8  C   UNL     1      15.331  44.448  19.893  1.00  0.00    -0.070 CG0
ATOM      9  C   UNL     1      16.160  43.215  20.151  1.00  0.00     0.039 C 
ATOM     10  G   UNL     1      13.903  44.492  20.419  1.00  0.00     0.000 G0
ENDBRANCH   6   7
ENDBRANCH   5   6
ENDBRANCH   3   5
ENDBRANCH   1   3
BRANCH   1  11
ATOM     11  C   UNL     1      12.260  45.935  18.202  1.00  0.00     0.087 C 
BRANCH  11  12
ATOM     12  C   UNL     1      11.729  44.603  18.804  1.00  0.00     0.066 C 
BRANCH  12  13
ATOM     13  C   UNL     1      12.852  43.842  19.504  1.00  0.00     0.140 C 
ATOM     14  O   UNL     1      12.933  42.635  19.324  1.00  0.00    -0.299 OA
BRANCH  13  15
ATOM     15  C   UNL     1      13.892  44.485  20.402  1.00  0.00     0.106 CG0
ATOM     16  G   UNL     1      15.326  44.438  19.896  1.00  0.00     0.000 G0
ENDBRANCH  13  15
ENDBRANCH  12  13
BRANCH  12  17
ATOM     17  C   UNL     1      10.547  44.850  19.795  1.00  0.00    -0.006 C 
ATOM     18  C   UNL     1       9.529  43.697  19.753  1.00  0.00     0.008 C 
ATOM     19  C   UNL     1       9.812  46.171  19.505  1.00  0.00     0.008 C 
ENDBRANCH  12  17
ENDBRANCH  11  12
ENDBRANCH   1  11
TORSDOF 1
ENDMDL
MODEL 2
REMARK VINA RESULT:    -3.964      3.366      5.753
REMARK INTER + INTRA:          -5.657
REMARK INTER:                  -5.123
REMARK INTRA:                  -0.534
REMARK UNBOUND:                 0.392
REMARK SMILES CC1=CCC[C@H](C)C(=O)C[C@H](C(C)C)C(=O)C1
REMARK SMILES IDX 8 1 9 2 6 3 7 4 5 5 4 6 3 7 2 8 1 9 10 11 11 12 15 13 16 14
REMARK SMILES IDX 17 15 12 17 13 18 14 19
REMARK H PARENT
REMARK Flexibility Score: 70.00
ROOT
ATOM      1  C   UNL     1      17.547  42.654  19.532  1.00  0.00     0.136 C 
ATOM      2  O   UNL     1      17.762  41.738  18.750  1.00  0.00    -0.299 OA
ENDROOT
BRANCH   1   3
ATOM      3  C   UNL     1      17.707  42.436  21.028  1.00  0.00     0.053 C 
ATOM      4  C   UNL     1      16.930  41.206  21.526  1.00  0.00     0.016 C 
BRANCH   3   5
ATOM      5  C   UNL     1      19.194  42.362  21.437  1.00  0.00     0.015 C 
BRANCH   5   6
ATOM      6  C   UNL     1      19.684  43.582  22.251  1.00  0.00     0.028 C 
BRANCH   6   7
ATOM      7  C   UNL     1      20.242  44.647  21.338  1.00  0.00    -0.028 C 
ATOM      8  C   UNL     1      19.629  45.815  21.025  1.00  0.00    -0.070 CG0
ATOM      9  C   UNL     1      20.384  46.797  20.165  1.00  0.00     0.039 C 
ATOM     10  G   UNL     1      18.214  46.165  21.463  1.00  0.00     0.000 G0
ENDBRANCH   6   7
ENDBRANCH   5   6
ENDBRANCH   3   5
ENDBRANCH   1   3
BRANCH   1  11
ATOM     11  C   UNL     1      17.144  44.004  18.980  1.00  0.00     0.087 C 
BRANCH  11  12
ATOM     12  C   UNL     1      16.343  44.877  19.986  1.00  0.00     0.066 C 
BRANCH  12  13
ATOM     13  C   UNL     1      17.133  46.128  20.364  1.00  0.00     0.140 C 
ATOM     14  O   UNL     1      16.900  47.164  19.757  1.00  0.00    -0.299 OA
BRANCH  13  15
ATOM     15  C   UNL     1      18.184  46.179  21.456  1.00  0.00     0.106 CG0
ATOM     16  G   UNL     1      19.602  45.827  21.030  1.00  0.00     0.000 G0
ENDBRANCH  13  15
ENDBRANCH  12  13
BRANCH  12  17
ATOM     17  C   UNL     1      14.944  45.277  19.416  1.00  0.00    -0.006 C 
ATOM     18  C   UNL     1      13.889  45.373  20.532  1.00  0.00     0.008 C 
ATOM     19  C   UNL     1      14.448  44.285  18.349  1.00  0.00     0.008 C 
ENDBRANCH  12  17
ENDBRANCH  11  12
ENDBRANCH   1  11
TORSDOF 1
ENDMDL
MODEL 3
REMARK VINA RESULT:    -3.918      1.376      4.004
REMARK INTER + INTRA:          -5.587
REMARK INTER:                  -5.320
REMARK INTRA:                  -0.267
REMARK UNBOUND:                 0.392
REMARK SMILES CC1=CCC[C@H](C)C(=O)C[C@H](C(C)C)C(=O)C1
REMARK SMILES IDX 8 1 9 2 6 3 7 4 5 5 4 6 3 7 2 8 1 9 10 11 11 12 15 13 16 14
REMARK SMILES IDX 17 15 12 17 13 18 14 19
REMARK H PARENT
REMARK Flexibility Score: 70.00
ROOT
ATOM      1  C   UNL     1      13.407  45.558  17.019  1.00  0.00     0.136 C 
ATOM      2  O   UNL     1      12.831  45.074  16.054  1.00  0.00    -0.299 OA
ENDROOT
BRANCH   1   3
ATOM      3  C   UNL     1      12.993  46.920  17.552  1.00  0.00     0.053 C 
ATOM      4  C   UNL     1      13.518  48.073  16.680  1.00  0.00     0.016 C 
BRANCH   3   5
ATOM      5  C   UNL     1      11.465  47.015  17.747  1.00  0.00     0.015 C 
BRANCH   5   6
ATOM      6  C   UNL     1      11.012  46.938  19.224  1.00  0.00     0.028 C 
BRANCH   6   7
ATOM      7  C   UNL     1      10.314  45.629  19.503  1.00  0.00    -0.028 C 
ATOM      8  C   UNL     1      10.829  44.598  20.215  1.00  0.00    -0.070 CG0
ATOM      9  C   UNL     1       9.943  43.403  20.465  1.00  0.00     0.039 C 
ATOM     10  G   UNL     1      12.258  44.570  20.739  1.00  0.00     0.000 G0
ENDBRANCH   6   7
ENDBRANCH   5   6
ENDBRANCH   3   5
ENDBRANCH   1   3
BRANCH   1  11
ATOM     11  C   UNL     1      14.515  44.767  17.677  1.00  0.00     0.087 C 
BRANCH  11  12
ATOM     12  C   UNL     1      14.487  44.823  19.231  1.00  0.00     0.066 C 
BRANCH  12  13
ATOM     13  C   UNL     1      13.313  44.015  19.778  1.00  0.00     0.140 C 
ATOM     14  O   UNL     1      13.208  42.844  19.439  1.00  0.00    -0.299 OA
BRANCH  13  15
ATOM     15  C   UNL     1      12.268  44.561  20.733  1.00  0.00     0.106 CG0
ATOM     16  G   UNL     1      10.841  44.594  20.206  1.00  0.00     0.000 G0
ENDBRANCH  13  15
ENDBRANCH  12  13
BRANCH  12  17
ATOM     17  C   UNL     1      15.827  44.312  19.850  1.00  0.00    -0.006 C 
ATOM     18  C   UNL     1      16.614  45.459  20.510  1.00  0.00     0.008 C 
ATOM     19  C   UNL     1      16.728  43.631  18.804  1.00  0.00     0.008 C 
ENDBRANCH  12  17
ENDBRANCH  11  12
ENDBRANCH   1  11
TORSDOF 1
ENDMDL
MODEL 4
REMARK VINA RESULT:    -3.826      3.693      6.574
REMARK INTER + INTRA:          -5.447
REMARK INTER:                  -5.063
REMARK INTRA:                  -0.384
REMARK UNBOUND:                 0.392
REMARK SMILES CC1=CCC[C@H](C)C(=O)C[C@H](C(C)C)C(=O)C1
REMARK SMILES IDX 8 1 9 2 6 3 7 4 5 5 4 6 3 7 2 8 1 9 10 11 11 12 15 13 16 14
REMARK SMILES IDX 17 15 12 17 13 18 14 19
REMARK H PARENT
REMARK Flexibility Score: 70.00
ROOT
ATOM      1  C   UNL     1      19.646  41.987  20.870  1.00  0.00     0.136 C 
ATOM      2  O   UNL     1      20.794  41.567  20.859  1.00  0.00    -0.299 OA
ENDROOT
BRANCH   1   3
ATOM      3  C   UNL     1      19.204  42.979  21.934  1.00  0.00     0.053 C 
ATOM      4  C   UNL     1      19.516  42.486  23.357  1.00  0.00     0.016 C 
BRANCH   3   5
ATOM      5  C   UNL     1      19.796  44.383  21.685  1.00  0.00     0.015 C 
BRANCH   5   6
ATOM      6  C   UNL     1      19.424  44.988  20.311  1.00  0.00     0.028 C 
BRANCH   6   7
ATOM      7  C   UNL     1      18.041  45.593  20.347  1.00  0.00    -0.028 C 
ATOM      8  C   UNL     1      16.922  45.031  19.828  1.00  0.00    -0.070 CG0
ATOM      9  C   UNL     1      15.612  45.746  20.042  1.00  0.00     0.039 C 
ATOM     10  G   UNL     1      16.928  43.745  19.015  1.00  0.00     0.000 G0
ENDBRANCH   6   7
ENDBRANCH   5   6
ENDBRANCH   3   5
ENDBRANCH   1   3
BRANCH   1  11
ATOM     11  C   UNL     1      18.688  41.519  19.797  1.00  0.00     0.087 C 
BRANCH  11  12
ATOM     12  C   UNL     1      17.215  41.398  20.281  1.00  0.00     0.066 C 
BRANCH  12  13
ATOM     13  C   UNL     1      16.354  42.501  19.672  1.00  0.00     0.140 C 
ATOM     14  O   UNL     1      15.138  42.397  19.751  1.00  0.00    -0.299 OA
BRANCH  13  15
ATOM     15  C   UNL     1      16.906  43.735  18.983  1.00  0.00     0.106 CG0
ATOM     16  G   UNL     1      16.931  45.007  19.819  1.00  0.00     0.000 G0
ENDBRANCH  13  15
ENDBRANCH  12  13
BRANCH  12  17
ATOM     17  C   UNL     1      16.612  39.996  19.944  1.00  0.00    -0.006 C 
ATOM     18  C   UNL     1      16.348  39.177  21.220  1.00  0.00     0.008 C 
ATOM     19  C   UNL     1      17.524  39.181  19.010  1.00  0.00     0.008 C 
ENDBRANCH  12  17
ENDBRANCH  11  12
ENDBRANCH   1  11
TORSDOF 1
ENDMDL
MODEL 5
REMARK VINA RESULT:    -3.764      3.689      5.399
REMARK INTER + INTRA:          -5.351
REMARK INTER:                  -5.693
REMARK INTRA:                   0.342
REMARK UNBOUND:                 0.392
REMARK SMILES CC1=CCC[C@H](C)C(=O)C[C@H](C(C)C)C(=O)C1
REMARK SMILES IDX 8 1 9 2 6 3 7 4 5 5 4 6 3 7 2 8 1 9 10 11 11 12 15 13 16 14
REMARK SMILES IDX 17 15 12 17 13 18 14 19
REMARK H PARENT
REMARK Flexibility Score: 70.00
ROOT
ATOM      1  C   UNL     1      17.575  47.287  20.992  1.00  0.00     0.136 C 
ATOM      2  O   UNL     1      17.373  48.095  21.888  1.00  0.00    -0.299 OA
ENDROOT
BRANCH   1   3
ATOM      3  C   UNL     1      18.828  47.391  20.138  1.00  0.00     0.053 C 
ATOM      4  C   UNL     1      19.266  48.848  19.915  1.00  0.00     0.016 C 
BRANCH   3   5
ATOM      5  C   UNL     1      19.981  46.541  20.714  1.00  0.00     0.015 C 
BRANCH   5   6
ATOM      6  C   UNL     1      20.301  45.271  19.891  1.00  0.00     0.028 C 
BRANCH   6   7
ATOM      7  C   UNL     1      20.506  44.082  20.799  1.00  0.00    -0.028 C 
ATOM      8  C   UNL     1      19.520  43.337  21.355  1.00  0.00    -0.070 CG0
ATOM      9  C   UNL     1      19.923  42.129  22.163  1.00  0.00     0.039 C 
ATOM     10  G   UNL     1      18.042  43.677  21.237  1.00  0.00     0.000 G0
ENDBRANCH   6   7
ENDBRANCH   5   6
ENDBRANCH   3   5
ENDBRANCH   1   3
BRANCH   1  11
ATOM     11  C   UNL     1      16.569  46.180  20.768  1.00  0.00     0.087 C 
BRANCH  11  12
ATOM     12  C   UNL     1      16.851  45.323  19.501  1.00  0.00     0.066 C 
BRANCH  12  13
ATOM     13  C   UNL     1      17.490  43.990  19.883  1.00  0.00     0.140 C 
ATOM     14  O   UNL     1      17.591  43.129  19.020  1.00  0.00    -0.299 OA
BRANCH  13  15
ATOM     15  C   UNL     1      18.026  43.662  21.264  1.00  0.00     0.106 CG0
ATOM     16  G   UNL     1      19.514  43.355  21.342  1.00  0.00     0.000 G0
ENDBRANCH  13  15
ENDBRANCH  12  13
BRANCH  12  17
ATOM     17  C   UNL     1      15.551  45.079  18.670  1.00  0.00    -0.006 C 
ATOM     18  C   UNL     1      15.073  46.371  17.984  1.00  0.00     0.008 C 
ATOM     19  C   UNL     1      14.406  44.522  19.534  1.00  0.00     0.008 C 
ENDBRANCH  12  17
ENDBRANCH  11  12
ENDBRANCH   1  11
TORSDOF 1
ENDMDL
MODEL 6
REMARK VINA RESULT:    -3.710      3.275      5.979
REMARK INTER + INTRA:          -5.270
REMARK INTER:                  -5.112
REMARK INTRA:                  -0.158
REMARK UNBOUND:                 0.392
REMARK SMILES CC1=CCC[C@H](C)C(=O)C[C@H](C(C)C)C(=O)C1
REMARK SMILES IDX 8 1 9 2 6 3 7 4 5 5 4 6 3 7 2 8 1 9 10 11 11 12 15 13 16 14
REMARK SMILES IDX 17 15 12 17 13 18 14 19
REMARK H PARENT
REMARK Flexibility Score: 70.00
ROOT
ATOM      1  C   UNL     1      16.080  41.628  19.921  1.00  0.00     0.136 C 
ATOM      2  O   UNL     1      14.927  41.238  19.799  1.00  0.00    -0.299 OA
ENDROOT
BRANCH   1   3
ATOM      3  C   UNL     1      17.120  40.744  20.590  1.00  0.00     0.053 C 
ATOM      4  C   UNL     1      16.485  39.575  21.360  1.00  0.00     0.016 C 
BRANCH   3   5
ATOM      5  C   UNL     1      18.176  40.244  19.581  1.00  0.00     0.015 C 
BRANCH   5   6
ATOM      6  C   UNL     1      19.412  41.163  19.454  1.00  0.00     0.028 C 
BRANCH   6   7
ATOM      7  C   UNL     1      19.785  41.749  20.795  1.00  0.00    -0.028 C 
ATOM      8  C   UNL     1      19.579  43.033  21.177  1.00  0.00    -0.070 CG0
ATOM      9  C   UNL     1      19.937  43.411  22.593  1.00  0.00     0.039 C 
ATOM     10  G   UNL     1      19.045  44.112  20.247  1.00  0.00     0.000 G0
ENDBRANCH   6   7
ENDBRANCH   5   6
ENDBRANCH   3   5
ENDBRANCH   1   3
BRANCH   1  11
ATOM     11  C   UNL     1      16.450  42.991  19.376  1.00  0.00     0.087 C 
BRANCH  11  12
ATOM     12  C   UNL     1      16.362  44.131  20.430  1.00  0.00     0.066 C 
BRANCH  12  13
ATOM     13  C   UNL     1      17.734  44.761  20.659  1.00  0.00     0.140 C 
ATOM     14  O   UNL     1      17.786  45.849  21.215  1.00  0.00    -0.299 OA
BRANCH  13  15
ATOM     15  C   UNL     1      19.048  44.119  20.255  1.00  0.00     0.106 CG0
ATOM     16  G   UNL     1      19.566  43.028  21.180  1.00  0.00     0.000 G0
ENDBRANCH  13  15
ENDBRANCH  12  13
BRANCH  12  17
ATOM     17  C   UNL     1      15.330  45.226  20.009  1.00  0.00    -0.006 C 
ATOM     18  C   UNL     1      14.208  45.370  21.051  1.00  0.00     0.008 C 
ATOM     19  C   UNL     1      14.699  44.932  18.637  1.00  0.00     0.008 C 
ENDBRANCH  12  17
ENDBRANCH  11  12
ENDBRANCH   1  11
TORSDOF 1
ENDMDL
MODEL 7
REMARK VINA RESULT:    -3.677      3.556      6.038
REMARK INTER + INTRA:          -5.218
REMARK INTER:                  -4.727
REMARK INTRA:                  -0.491
REMARK UNBOUND:                 0.392
REMARK SMILES CC1=CCC[C@H](C)C(=O)C[C@H](C(C)C)C(=O)C1
REMARK SMILES IDX 8 1 9 2 6 3 7 4 5 5 4 6 3 7 2 8 1 9 10 11 11 12 15 13 16 14
REMARK SMILES IDX 17 15 12 17 13 18 14 19
REMARK H PARENT
REMARK Flexibility Score: 70.00
ROOT
ATOM      1  C   UNL     1      16.055  46.178  19.387  1.00  0.00     0.136 C 
ATOM      2  O   UNL     1      15.292  46.561  18.510  1.00  0.00    -0.299 OA
ENDROOT
BRANCH   1   3
ATOM      3  C   UNL     1      15.527  45.362  20.556  1.00  0.00     0.053 C 
ATOM      4  C   UNL     1      14.252  45.970  21.165  1.00  0.00     0.016 C 
BRANCH   3   5
ATOM      5  C   UNL     1      15.313  43.884  20.169  1.00  0.00     0.015 C 
BRANCH   5   6
ATOM      6  C   UNL     1      16.575  43.189  19.608  1.00  0.00     0.028 C 
BRANCH   6   7
ATOM      7  C   UNL     1      17.470  42.718  20.729  1.00  0.00    -0.028 C 
ATOM      8  C   UNL     1      18.685  43.235  21.038  1.00  0.00    -0.070 CG0
ATOM      9  C   UNL     1      19.393  42.690  22.253  1.00  0.00     0.039 C 
ATOM     10  G   UNL     1      19.380  44.302  20.205  1.00  0.00     0.000 G0
ENDBRANCH   6   7
ENDBRANCH   5   6
ENDBRANCH   3   5
ENDBRANCH   1   3
BRANCH   1  11
ATOM     11  C   UNL     1      17.526  46.512  19.271  1.00  0.00     0.087 C 
BRANCH  11  12
ATOM     12  C   UNL     1      18.240  46.678  20.643  1.00  0.00     0.066 C 
BRANCH  12  13
ATOM     13  C   UNL     1      19.406  45.700  20.765  1.00  0.00     0.140 C 
ATOM     14  O   UNL     1      20.405  46.063  21.371  1.00  0.00    -0.299 OA
BRANCH  13  15
ATOM     15  C   UNL     1      19.408  44.294  20.195  1.00  0.00     0.106 CG0
ATOM     16  G   UNL     1      18.705  43.238  21.035  1.00  0.00     0.000 G0
ENDBRANCH  13  15
ENDBRANCH  12  13
BRANCH  12  17
ATOM     17  C   UNL     1      18.740  48.142  20.858  1.00  0.00    -0.006 C 
ATOM     18  C   UNL     1      17.750  48.953  21.714  1.00  0.00     0.008 C 
ATOM     19  C   UNL     1      18.965  48.881  19.527  1.00  0.00     0.008 C 
ENDBRANCH  12  17
ENDBRANCH  11  12
ENDBRANCH   1  11
TORSDOF 1
ENDMDL
MODEL 8
REMARK VINA RESULT:    -3.418      5.606      8.048
REMARK INTER + INTRA:          -4.823
REMARK INTER:                  -4.435
REMARK INTRA:                  -0.388
REMARK UNBOUND:                 0.392
REMARK SMILES CC1=CCC[C@H](C)C(=O)C[C@H](C(C)C)C(=O)C1
REMARK SMILES IDX 8 1 9 2 6 3 7 4 5 5 4 6 3 7 2 8 1 9 10 11 11 12 15 13 16 14
REMARK SMILES IDX 17 15 12 17 13 18 14 19
REMARK H PARENT
REMARK Flexibility Score: 70.00
ROOT
ATOM      1  C   UNL     1      19.575  42.539  23.047  1.00  0.00     0.136 C 
ATOM      2  O   UNL     1      19.736  42.906  24.203  1.00  0.00    -0.299 OA
ENDROOT
BRANCH   1   3
ATOM      3  C   UNL     1      20.453  41.444  22.463  1.00  0.00     0.053 C 
ATOM      4  C   UNL     1      21.951  41.757  22.607  1.00  0.00     0.016 C 
BRANCH   3   5
ATOM      5  C   UNL     1      20.109  40.062  23.057  1.00  0.00     0.015 C 
BRANCH   5   6
ATOM      6  C   UNL     1      18.680  39.571  22.727  1.00  0.00     0.028 C 
BRANCH   6   7
ATOM      7  C   UNL     1      18.593  39.097  21.296  1.00  0.00    -0.028 C 
ATOM      8  C   UNL     1      18.032  39.785  20.272  1.00  0.00    -0.070 CG0
ATOM      9  C   UNL     1      18.121  39.185  18.891  1.00  0.00     0.039 C 
ATOM     10  G   UNL     1      17.291  41.102  20.450  1.00  0.00     0.000 G0
ENDBRANCH   6   7
ENDBRANCH   5   6
ENDBRANCH   3   5
ENDBRANCH   1   3
BRANCH   1  11
ATOM     11  C   UNL     1      18.478  43.180  22.226  1.00  0.00     0.087 C 
BRANCH  11  12
ATOM     12  C   UNL     1      18.819  43.304  20.714  1.00  0.00     0.066 C 
BRANCH  12  13
ATOM     13  C   UNL     1      17.967  42.344  19.888  1.00  0.00     0.140 C 
ATOM     14  O   UNL     1      17.827  42.574  18.694  1.00  0.00    -0.299 OA
BRANCH  13  15
ATOM     15  C   UNL     1      17.288  41.107  20.444  1.00  0.00     0.106 CG0
ATOM     16  G   UNL     1      18.044  39.798  20.267  1.00  0.00     0.000 G0
ENDBRANCH  13  15
ENDBRANCH  12  13
BRANCH  12  17
ATOM     17  C   UNL     1      18.632  44.768  20.200  1.00  0.00    -0.006 C 
ATOM     18  C   UNL     1      19.987  45.447  19.937  1.00  0.00     0.008 C 
ATOM     19  C   UNL     1      17.828  45.631  21.187  1.00  0.00     0.008 C 
ENDBRANCH  12  17
ENDBRANCH  11  12
ENDBRANCH   1  11
TORSDOF 1
ENDMDL
MODEL 9
REMARK VINA RESULT:    -3.367      4.111      7.049
REMARK INTER + INTRA:          -4.747
REMARK INTER:                  -4.491
REMARK INTRA:                  -0.256
REMARK UNBOUND:                 0.392
REMARK SMILES CC1=CCC[C@H](C)C(=O)C[C@H](C(C)C)C(=O)C1
REMARK SMILES IDX 8 1 9 2 6 3 7 4 5 5 4 6 3 7 2 8 1 9 10 11 11 12 15 13 16 14
REMARK SMILES IDX 17 15 12 17 13 18 14 19
REMARK H PARENT
REMARK Flexibility Score: 70.00
ROOT
ATOM      1  C   UNL     1      16.025  40.584  20.272  1.00  0.00     0.136 C 
ATOM      2  O   UNL     1      14.972  40.594  19.651  1.00  0.00    -0.299 OA
ENDROOT
BRANCH   1   3
ATOM      3  C   UNL     1      16.270  39.538  21.347  1.00  0.00     0.053 C 
ATOM      4  C   UNL     1      15.586  38.199  21.027  1.00  0.00     0.016 C 
BRANCH   3   5
ATOM      5  C   UNL     1      17.777  39.346  21.622  1.00  0.00     0.015 C 
BRANCH   5   6
ATOM      6  C   UNL     1      18.250  39.925  22.975  1.00  0.00     0.028 C 
BRANCH   6   7
ATOM      7  C   UNL     1      19.659  40.457  22.868  1.00  0.00    -0.028 C 
ATOM      8  C   UNL     1      20.004  41.766  22.808  1.00  0.00    -0.070 CG0
ATOM      9  C   UNL     1      21.473  42.106  22.795  1.00  0.00     0.039 C 
ATOM     10  G   UNL     1      18.991  42.898  22.717  1.00  0.00     0.000 G0
ENDBRANCH   6   7
ENDBRANCH   5   6
ENDBRANCH   3   5
ENDBRANCH   1   3
BRANCH   1  11
ATOM     11  C   UNL     1      17.080  41.616  19.934  1.00  0.00     0.087 C 
BRANCH  11  12
ATOM     12  C   UNL     1      17.047  42.869  20.854  1.00  0.00     0.066 C 
BRANCH  12  13
ATOM     13  C   UNL     1      18.453  43.222  21.334  1.00  0.00     0.140 C 
ATOM     14  O   UNL     1      19.197  43.811  20.563  1.00  0.00    -0.299 OA
BRANCH  13  15
ATOM     15  C   UNL     1      18.989  42.905  22.717  1.00  0.00     0.106 CG0
ATOM     16  G   UNL     1      19.998  41.768  22.792  1.00  0.00     0.000 G0
ENDBRANCH  13  15
ENDBRANCH  12  13
BRANCH  12  17
ATOM     17  C   UNL     1      16.401  44.095  20.132  1.00  0.00    -0.006 C 
ATOM     18  C   UNL     1      14.932  44.281  20.549  1.00  0.00     0.008 C 
ATOM     19  C   UNL     1      16.470  43.970  18.600  1.00  0.00     0.008 C 
ENDBRANCH  12  17
ENDBRANCH  11  12
ENDBRANCH   1  11
TORSDOF 1
ENDMDL
