MODEL 1
REMARK VINA RESULT:    -4.380      0.000      0.000
REMARK INTER + INTRA:          -6.196
REMARK INTER:                  -5.916
REMARK INTRA:                  -0.280
REMARK UNBOUND:                -0.280
REMARK SMILES CCCCCCCC(=O)[O-]
REMARK SMILES IDX 5 1 6 2 7 3 8 4 9 5 10 6 4 7 3 8 2 9 1 10
REMARK H PARENT
REMARK Flexibility Score: inf
ROOT
ATOM      1  C   UNL     1     -13.960  44.612  23.206  1.00  0.00     0.000 C 
ENDROOT
BRANCH   1   2
ATOM      2  C   UNL     1     -13.202  45.628  24.073  1.00  0.00     0.006 C 
BRANCH   2   3
ATOM      3  C   UNL     1     -13.947  45.894  25.385  1.00  0.00     0.053 C 
BRANCH   3   4
ATOM      4  C   UNL     1     -14.228  47.354  25.541  1.00  0.00     0.041 C 
ATOM      5  O   UNL     1     -15.075  47.749  26.386  1.00  0.00    -0.550 OA
ATOM      6  O   UNL     1     -13.591  48.277  24.721  1.00  0.00    -0.550 OA
ENDBRANCH   3   4
ENDBRANCH   2   3
ENDBRANCH   1   2
BRANCH   1   7
ATOM      7  C   UNL     1     -13.155  44.168  21.975  1.00  0.00     0.000 C 
BRANCH   7   8
ATOM      8  C   UNL     1     -12.092  45.201  21.559  1.00  0.00    -0.000 C 
BRANCH   8   9
ATOM      9  C   UNL     1     -10.760  44.546  21.164  1.00  0.00    -0.003 C 
ATOM     10  C   UNL     1     -10.860  43.024  21.055  1.00  0.00     0.004 C 
ENDBRANCH   8   9
ENDBRANCH   7   8
ENDBRANCH   1   7
TORSDOF 6
ENDMDL
MODEL 2
REMARK VINA RESULT:    -4.334      1.054      1.584
REMARK INTER + INTRA:          -6.135
REMARK INTER:                  -5.740
REMARK INTRA:                  -0.394
REMARK UNBOUND:                -0.280
REMARK SMILES CCCCCCCC(=O)[O-]
REMARK SMILES IDX 5 1 6 2 7 3 8 4 9 5 10 6 4 7 3 8 2 9 1 10
REMARK H PARENT
REMARK Flexibility Score: inf
ROOT
ATOM      1  C   UNL     1     -14.363  43.530  22.460  1.00  0.00     0.000 C 
ENDROOT
BRANCH   1   2
ATOM      2  C   UNL     1     -14.488  44.427  23.700  1.00  0.00     0.006 C 
BRANCH   2   3
ATOM      3  C   UNL     1     -13.412  45.517  23.700  1.00  0.00     0.053 C 
BRANCH   3   4
ATOM      4  C   UNL     1     -13.603  46.442  24.860  1.00  0.00     0.041 C 
ATOM      5  O   UNL     1     -14.144  46.027  25.919  1.00  0.00    -0.550 OA
ATOM      6  O   UNL     1     -13.228  47.776  24.755  1.00  0.00    -0.550 OA
ENDBRANCH   3   4
ENDBRANCH   2   3
ENDBRANCH   1   2
BRANCH   1   7
ATOM      7  C   UNL     1     -13.427  44.121  21.394  1.00  0.00     0.000 C 
BRANCH   7   8
ATOM      8  C   UNL     1     -12.456  43.076  20.814  1.00  0.00    -0.000 C 
BRANCH   8   9
ATOM      9  C   UNL     1     -10.986  43.424  21.088  1.00  0.00    -0.003 C 
ATOM     10  C   UNL     1     -10.743  44.930  21.184  1.00  0.00     0.004 C 
ENDBRANCH   8   9
ENDBRANCH   7   8
ENDBRANCH   1   7
TORSDOF 6
ENDMDL
MODEL 3
REMARK VINA RESULT:    -4.200      3.094      5.174
REMARK INTER + INTRA:          -5.952
REMARK INTER:                  -5.636
REMARK INTRA:                  -0.317
REMARK UNBOUND:                -0.280
REMARK SMILES CCCCCCCC(=O)[O-]
REMARK SMILES IDX 5 1 6 2 7 3 8 4 9 5 10 6 4 7 3 8 2 9 1 10
REMARK H PARENT
REMARK Flexibility Score: inf
ROOT
ATOM      1  C   UNL     1     -14.481  43.516  22.287  1.00  0.00     0.000 C 
ENDROOT
BRANCH   1   2
ATOM      2  C   UNL     1     -13.551  44.029  21.178  1.00  0.00     0.006 C 
BRANCH   2   3
ATOM      3  C   UNL     1     -12.456  43.006  20.863  1.00  0.00     0.053 C 
BRANCH   3   4
ATOM      4  C   UNL     1     -11.102  43.609  21.063  1.00  0.00     0.041 C 
ATOM      5  O   UNL     1     -10.123  42.880  21.376  1.00  0.00    -0.550 OA
ATOM      6  O   UNL     1     -10.929  44.983  20.953  1.00  0.00    -0.550 OA
ENDBRANCH   3   4
ENDBRANCH   2   3
ENDBRANCH   1   2
BRANCH   1   7
ATOM      7  C   UNL     1     -14.400  44.362  23.567  1.00  0.00     0.000 C 
BRANCH   7   8
ATOM      8  C   UNL     1     -13.299  45.436  23.498  1.00  0.00    -0.000 C 
BRANCH   8   9
ATOM      9  C   UNL     1     -13.253  46.312  24.759  1.00  0.00    -0.003 C 
ATOM     10  C   UNL     1     -14.248  45.861  25.828  1.00  0.00     0.004 C 
ENDBRANCH   8   9
ENDBRANCH   7   8
ENDBRANCH   1   7
TORSDOF 6
ENDMDL
MODEL 4
REMARK VINA RESULT:    -4.130      1.427      1.962
REMARK INTER + INTRA:          -5.859
REMARK INTER:                  -5.587
REMARK INTRA:                  -0.272
REMARK UNBOUND:                -0.280
REMARK SMILES CCCCCCCC(=O)[O-]
REMARK SMILES IDX 5 1 6 2 7 3 8 4 9 5 10 6 4 7 3 8 2 9 1 10
REMARK H PARENT
REMARK Flexibility Score: inf
ROOT
ATOM      1  C   UNL     1     -12.761  45.491  23.257  1.00  0.00     0.000 C 
ENDROOT
BRANCH   1   2
ATOM      2  C   UNL     1     -13.456  45.970  24.539  1.00  0.00     0.006 C 
BRANCH   2   3
ATOM      3  C   UNL     1     -14.715  45.146  24.822  1.00  0.00     0.053 C 
BRANCH   3   4
ATOM      4  C   UNL     1     -15.261  45.470  26.176  1.00  0.00     0.041 C 
ATOM      5  O   UNL     1     -15.151  46.635  26.641  1.00  0.00    -0.550 OA
ATOM      6  O   UNL     1     -15.847  44.473  26.947  1.00  0.00    -0.550 OA
ENDBRANCH   3   4
ENDBRANCH   2   3
ENDBRANCH   1   2
BRANCH   1   7
ATOM      7  C   UNL     1     -13.608  44.481  22.466  1.00  0.00     0.000 C 
BRANCH   7   8
ATOM      8  C   UNL     1     -12.950  44.071  21.136  1.00  0.00    -0.000 C 
BRANCH   8   9
ATOM      9  C   UNL     1     -11.492  44.542  21.031  1.00  0.00    -0.003 C 
ATOM     10  C   UNL     1     -10.492  43.388  21.109  1.00  0.00     0.004 C 
ENDBRANCH   8   9
ENDBRANCH   7   8
ENDBRANCH   1   7
TORSDOF 6
ENDMDL
MODEL 5
REMARK VINA RESULT:    -4.012      3.141      5.585
REMARK INTER + INTRA:          -5.699
REMARK INTER:                  -5.442
REMARK INTRA:                  -0.256
REMARK UNBOUND:                -0.280
REMARK SMILES CCCCCCCC(=O)[O-]
REMARK SMILES IDX 5 1 6 2 7 3 8 4 9 5 10 6 4 7 3 8 2 9 1 10
REMARK H PARENT
REMARK Flexibility Score: inf
ROOT
ATOM      1  C   UNL     1     -14.493  44.392  23.735  1.00  0.00     0.000 C 
ENDROOT
BRANCH   1   2
ATOM      2  C   UNL     1     -13.758  44.131  22.412  1.00  0.00     0.006 C 
BRANCH   2   3
ATOM      3  C   UNL     1     -12.568  45.080  22.249  1.00  0.00     0.053 C 
BRANCH   3   4
ATOM      4  C   UNL     1     -11.498  44.442  21.422  1.00  0.00     0.041 C 
ATOM      5  O   UNL     1     -10.528  45.127  21.002  1.00  0.00    -0.550 OA
ATOM      6  O   UNL     1     -11.596  43.101  21.072  1.00  0.00    -0.550 OA
ENDBRANCH   3   4
ENDBRANCH   2   3
ENDBRANCH   1   2
BRANCH   1   7
ATOM      7  C   UNL     1     -13.837  45.504  24.568  1.00  0.00     0.000 C 
BRANCH   7   8
ATOM      8  C   UNL     1     -14.630  45.834  25.845  1.00  0.00    -0.000 C 
BRANCH   8   9
ATOM      9  C   UNL     1     -15.673  44.758  26.183  1.00  0.00    -0.003 C 
ATOM     10  C   UNL     1     -16.457  45.076  27.457  1.00  0.00     0.004 C 
ENDBRANCH   8   9
ENDBRANCH   7   8
ENDBRANCH   1   7
TORSDOF 6
ENDMDL
MODEL 6
REMARK VINA RESULT:    -3.969     18.846     20.363
REMARK INTER + INTRA:          -5.640
REMARK INTER:                  -5.264
REMARK INTRA:                  -0.377
REMARK UNBOUND:                -0.280
REMARK SMILES CCCCCCCC(=O)[O-]
REMARK SMILES IDX 5 1 6 2 7 3 8 4 9 5 10 6 4 7 3 8 2 9 1 10
REMARK H PARENT
REMARK Flexibility Score: inf
ROOT
ATOM      1  C   UNL     1     -23.306  62.305  30.771  1.00  0.00     0.000 C 
ENDROOT
BRANCH   1   2
ATOM      2  C   UNL     1     -24.768  62.534  30.360  1.00  0.00     0.006 C 
BRANCH   2   3
ATOM      3  C   UNL     1     -25.729  61.984  31.417  1.00  0.00     0.053 C 
BRANCH   3   4
ATOM      4  C   UNL     1     -26.105  60.572  31.099  1.00  0.00     0.041 C 
ATOM      5  O   UNL     1     -26.624  59.840  31.983  1.00  0.00    -0.550 OA
ATOM      6  O   UNL     1     -25.838  60.047  29.840  1.00  0.00    -0.550 OA
ENDBRANCH   3   4
ENDBRANCH   2   3
ENDBRANCH   1   2
BRANCH   1   7
ATOM      7  C   UNL     1     -22.589  61.290  29.868  1.00  0.00     0.000 C 
BRANCH   7   8
ATOM      8  C   UNL     1     -22.894  61.508  28.375  1.00  0.00    -0.000 C 
BRANCH   8   9
ATOM      9  C   UNL     1     -21.631  61.811  27.555  1.00  0.00    -0.003 C 
ATOM     10  C   UNL     1     -20.350  61.703  28.383  1.00  0.00     0.004 C 
ENDBRANCH   8   9
ENDBRANCH   7   8
ENDBRANCH   1   7
TORSDOF 6
ENDMDL
MODEL 7
REMARK VINA RESULT:    -3.966     19.473     21.130
REMARK INTER + INTRA:          -5.636
REMARK INTER:                  -5.115
REMARK INTRA:                  -0.522
REMARK UNBOUND:                -0.280
REMARK SMILES CCCCCCCC(=O)[O-]
REMARK SMILES IDX 5 1 6 2 7 3 8 4 9 5 10 6 4 7 3 8 2 9 1 10
REMARK H PARENT
REMARK Flexibility Score: inf
ROOT
ATOM      1  C   UNL     1     -24.409  63.116  30.291  1.00  0.00     0.000 C 
ENDROOT
BRANCH   1   2
ATOM      2  C   UNL     1     -25.646  62.717  31.110  1.00  0.00     0.006 C 
BRANCH   2   3
ATOM      3  C   UNL     1     -25.365  61.471  31.955  1.00  0.00     0.053 C 
BRANCH   3   4
ATOM      4  C   UNL     1     -26.587  60.613  32.046  1.00  0.00     0.041 C 
ATOM      5  O   UNL     1     -26.503  59.370  31.869  1.00  0.00    -0.550 OA
ATOM      6  O   UNL     1     -27.828  61.194  32.279  1.00  0.00    -0.550 OA
ENDBRANCH   3   4
ENDBRANCH   2   3
ENDBRANCH   1   2
BRANCH   1   7
ATOM      7  C   UNL     1     -23.251  62.118  30.442  1.00  0.00     0.000 C 
BRANCH   7   8
ATOM      8  C   UNL     1     -22.732  61.605  29.087  1.00  0.00    -0.000 C 
BRANCH   8   9
ATOM      9  C   UNL     1     -23.864  61.113  28.172  1.00  0.00    -0.003 C 
ATOM     10  C   UNL     1     -24.515  59.826  28.679  1.00  0.00     0.004 C 
ENDBRANCH   8   9
ENDBRANCH   7   8
ENDBRANCH   1   7
TORSDOF 6
ENDMDL
MODEL 8
REMARK VINA RESULT:    -3.931     18.615     20.615
REMARK INTER + INTRA:          -5.589
REMARK INTER:                  -5.168
REMARK INTRA:                  -0.421
REMARK UNBOUND:                -0.280
REMARK SMILES CCCCCCCC(=O)[O-]
REMARK SMILES IDX 5 1 6 2 7 3 8 4 9 5 10 6 4 7 3 8 2 9 1 10
REMARK H PARENT
REMARK Flexibility Score: inf
ROOT
ATOM      1  C   UNL     1     -24.656  63.094  30.130  1.00  0.00     0.000 C 
ENDROOT
BRANCH   1   2
ATOM      2  C   UNL     1     -23.551  62.108  29.723  1.00  0.00     0.006 C 
BRANCH   2   3
ATOM      3  C   UNL     1     -23.654  61.752  28.237  1.00  0.00     0.053 C 
BRANCH   3   4
ATOM      4  C   UNL     1     -22.352  61.213  27.736  1.00  0.00     0.041 C 
ATOM      5  O   UNL     1     -21.422  61.998  27.413  1.00  0.00    -0.550 OA
ATOM      6  O   UNL     1     -22.181  59.842  27.579  1.00  0.00    -0.550 OA
ENDBRANCH   3   4
ENDBRANCH   2   3
ENDBRANCH   1   2
BRANCH   1   7
ATOM      7  C   UNL     1     -25.592  62.523  31.207  1.00  0.00     0.000 C 
BRANCH   7   8
ATOM      8  C   UNL     1     -25.075  61.200  31.799  1.00  0.00    -0.000 C 
BRANCH   8   9
ATOM      9  C   UNL     1     -26.070  60.045  31.614  1.00  0.00    -0.003 C 
ATOM     10  C   UNL     1     -25.718  59.146  30.428  1.00  0.00     0.004 C 
ENDBRANCH   8   9
ENDBRANCH   7   8
ENDBRANCH   1   7
TORSDOF 6
ENDMDL
MODEL 9
REMARK VINA RESULT:    -3.894     20.325     22.011
REMARK INTER + INTRA:          -5.539
REMARK INTER:                  -5.173
REMARK INTRA:                  -0.366
REMARK UNBOUND:                -0.280
REMARK SMILES CCCCCCCC(=O)[O-]
REMARK SMILES IDX 5 1 6 2 7 3 8 4 9 5 10 6 4 7 3 8 2 9 1 10
REMARK H PARENT
REMARK Flexibility Score: inf
ROOT
ATOM      1  C   UNL     1     -25.720  62.786  31.169  1.00  0.00     0.000 C 
ENDROOT
BRANCH   1   2
ATOM      2  C   UNL     1     -25.871  61.290  31.484  1.00  0.00     0.006 C 
BRANCH   2   3
ATOM      3  C   UNL     1     -27.164  61.021  32.259  1.00  0.00     0.053 C 
BRANCH   3   4
ATOM      4  C   UNL     1     -27.072  61.581  33.643  1.00  0.00     0.041 C 
ATOM      5  O   UNL     1     -26.323  61.038  34.498  1.00  0.00    -0.550 OA
ATOM      6  O   UNL     1     -27.850  62.674  34.004  1.00  0.00    -0.550 OA
ENDBRANCH   3   4
ENDBRANCH   2   3
ENDBRANCH   1   2
BRANCH   1   7
ATOM      7  C   UNL     1     -24.487  63.087  30.303  1.00  0.00     0.000 C 
BRANCH   7   8
ATOM      8  C   UNL     1     -23.309  62.142  30.602  1.00  0.00    -0.000 C 
BRANCH   8   9
ATOM      9  C   UNL     1     -22.587  61.682  29.327  1.00  0.00    -0.003 C 
ATOM     10  C   UNL     1     -23.538  61.500  28.144  1.00  0.00     0.004 C 
ENDBRANCH   8   9
ENDBRANCH   7   8
ENDBRANCH   1   7
TORSDOF 6
ENDMDL
