MODEL 1
REMARK VINA RESULT:    -4.472      0.000      0.000
REMARK INTER + INTRA:          -5.222
REMARK INTER:                  -5.125
REMARK INTRA:                  -0.097
REMARK UNBOUND:                -0.097
REMARK SMILES COc1cc(C(=O)[O-])ccc1O
REMARK SMILES IDX 5 1 9 2 4 3 10 4 3 5 11 6 6 7 7 8 8 9 2 10 1 11 12 12
REMARK H PARENT 12 13
REMARK Flexibility Score: inf
ROOT
ATOM      1  C   UNL     1      16.911 -44.830  32.273  1.00  0.00     0.001 A 
ATOM      2  C   UNL     1      18.102 -45.229  32.899  1.00  0.00     0.014 A 
ATOM      3  C   UNL     1      16.975 -44.205  31.014  1.00  0.00     0.060 A 
ATOM      4  C   UNL     1      19.334 -45.007  32.281  1.00  0.00     0.051 A 
ATOM      5  C   UNL     1      18.217 -43.980  30.385  1.00  0.00     0.161 A 
ATOM      6  C   UNL     1      19.399 -44.387  31.030  1.00  0.00     0.157 A 
ENDROOT
BRANCH   1   7
ATOM      7  C   UNL     1      15.607 -45.067  32.933  1.00  0.00     0.072 C 
ATOM      8  O   UNL     1      15.258 -46.231  33.263  1.00  0.00    -0.545 OA
ATOM      9  O   UNL     1      14.750 -44.005  33.200  1.00  0.00    -0.545 OA
ENDBRANCH   1   7
BRANCH   5  10
ATOM     10  O   UNL     1      18.313 -43.358  29.130  1.00  0.00    -0.493 OA
ATOM     11  C   UNL     1      18.318 -41.948  28.924  1.00  0.00     0.278 C 
ENDBRANCH   5  10
BRANCH   6  12
ATOM     12  O   UNL     1      20.647 -44.183  30.444  1.00  0.00    -0.504 OA
ATOM     13  H   UNL     1      20.839 -43.391  29.842  1.00  0.00     0.293 HD
ENDBRANCH   6  12
TORSDOF 3
ENDMDL
MODEL 2
REMARK VINA RESULT:    -4.360      2.377      3.145
REMARK INTER + INTRA:          -5.094
REMARK INTER:                  -5.011
REMARK INTRA:                  -0.083
REMARK UNBOUND:                -0.097
REMARK SMILES COc1cc(C(=O)[O-])ccc1O
REMARK SMILES IDX 5 1 9 2 4 3 10 4 3 5 11 6 6 7 7 8 8 9 2 10 1 11 12 12
REMARK H PARENT 12 13
REMARK Flexibility Score: inf
ROOT
ATOM      1  C   UNL     1      16.658 -44.007  31.671  1.00  0.00     0.001 A 
ATOM      2  C   UNL     1      17.984 -44.125  31.225  1.00  0.00     0.014 A 
ATOM      3  C   UNL     1      15.620 -44.534  30.881  1.00  0.00     0.060 A 
ATOM      4  C   UNL     1      18.268 -44.756  30.013  1.00  0.00     0.051 A 
ATOM      5  C   UNL     1      15.902 -45.173  29.656  1.00  0.00     0.161 A 
ATOM      6  C   UNL     1      17.238 -45.281  29.227  1.00  0.00     0.157 A 
ENDROOT
BRANCH   1   7
ATOM      7  C   UNL     1      16.362 -43.336  32.957  1.00  0.00     0.072 C 
ATOM      8  O   UNL     1      15.226 -43.444  33.490  1.00  0.00    -0.545 OA
ATOM      9  O   UNL     1      17.336 -42.576  33.595  1.00  0.00    -0.545 OA
ENDBRANCH   1   7
BRANCH   5  10
ATOM     10  O   UNL     1      14.888 -45.708  28.845  1.00  0.00    -0.493 OA
ATOM     11  C   UNL     1      13.559 -45.200  28.772  1.00  0.00     0.278 C 
ENDBRANCH   5  10
BRANCH   6  12
ATOM     12  O   UNL     1      17.561 -45.905  28.023  1.00  0.00    -0.504 OA
ATOM     13  H   UNL     1      18.504 -45.914  27.655  1.00  0.00     0.293 HD
ENDBRANCH   6  12
TORSDOF 3
ENDMDL
MODEL 3
REMARK VINA RESULT:    -4.352      1.508      2.591
REMARK INTER + INTRA:          -5.085
REMARK INTER:                  -5.005
REMARK INTRA:                  -0.080
REMARK UNBOUND:                -0.097
REMARK SMILES COc1cc(C(=O)[O-])ccc1O
REMARK SMILES IDX 5 1 9 2 4 3 10 4 3 5 11 6 6 7 7 8 8 9 2 10 1 11 12 12
REMARK H PARENT 12 13
REMARK Flexibility Score: inf
ROOT
ATOM      1  C   UNL     1      15.781 -44.968  31.475  1.00  0.00     0.001 A 
ATOM      2  C   UNL     1      15.098 -45.197  30.271  1.00  0.00     0.014 A 
ATOM      3  C   UNL     1      17.173 -44.759  31.444  1.00  0.00     0.060 A 
ATOM      4  C   UNL     1      15.790 -45.220  29.059  1.00  0.00     0.051 A 
ATOM      5  C   UNL     1      17.876 -44.780  30.222  1.00  0.00     0.161 A 
ATOM      6  C   UNL     1      17.172 -45.012  29.027  1.00  0.00     0.157 A 
ENDROOT
BRANCH   1   7
ATOM      7  C   UNL     1      15.043 -44.946  32.758  1.00  0.00     0.072 C 
ATOM      8  O   UNL     1      15.017 -45.964  33.500  1.00  0.00    -0.545 OA
ATOM      9  O   UNL     1      14.368 -43.800  33.163  1.00  0.00    -0.545 OA
ENDBRANCH   1   7
BRANCH   5  10
ATOM     10  O   UNL     1      19.264 -44.576  30.159  1.00  0.00    -0.493 OA
ATOM     11  C   UNL     1      19.967 -43.571  30.883  1.00  0.00     0.278 C 
ENDBRANCH   5  10
BRANCH   6  12
ATOM     12  O   UNL     1      17.829 -45.042  27.797  1.00  0.00    -0.504 OA
ATOM     13  H   UNL     1      18.626 -45.642  27.624  1.00  0.00     0.293 HD
ENDBRANCH   6  12
TORSDOF 3
ENDMDL
MODEL 4
REMARK VINA RESULT:    -4.298      1.801      4.490
REMARK INTER + INTRA:          -5.023
REMARK INTER:                  -4.923
REMARK INTRA:                  -0.100
REMARK UNBOUND:                -0.097
REMARK SMILES COc1cc(C(=O)[O-])ccc1O
REMARK SMILES IDX 5 1 9 2 4 3 10 4 3 5 11 6 6 7 7 8 8 9 2 10 1 11 12 12
REMARK H PARENT 12 13
REMARK Flexibility Score: inf
ROOT
ATOM      1  C   UNL     1      18.114 -43.460  31.791  1.00  0.00     0.001 A 
ATOM      2  C   UNL     1      17.744 -42.622  32.855  1.00  0.00     0.014 A 
ATOM      3  C   UNL     1      17.174 -44.375  31.283  1.00  0.00     0.060 A 
ATOM      4  C   UNL     1      16.462 -42.697  33.401  1.00  0.00     0.051 A 
ATOM      5  C   UNL     1      15.878 -44.454  31.830  1.00  0.00     0.161 A 
ATOM      6  C   UNL     1      15.528 -43.606  32.896  1.00  0.00     0.157 A 
ENDROOT
BRANCH   1   7
ATOM      7  C   UNL     1      19.476 -43.377  31.217  1.00  0.00     0.072 C 
ATOM      8  O   UNL     1      20.081 -44.418  30.849  1.00  0.00    -0.545 OA
ATOM      9  O   UNL     1      20.106 -42.146  31.075  1.00  0.00    -0.545 OA
ENDBRANCH   1   7
BRANCH   5  10
ATOM     10  O   UNL     1      14.919 -45.358  31.344  1.00  0.00    -0.493 OA
ATOM     11  C   UNL     1      14.163 -45.171  30.150  1.00  0.00     0.278 C 
ENDBRANCH   5  10
BRANCH   6  12
ATOM     12  O   UNL     1      14.256 -43.652  33.466  1.00  0.00    -0.504 OA
ATOM     13  H   UNL     1      14.114 -43.663  34.469  1.00  0.00     0.293 HD
ENDBRANCH   6  12
TORSDOF 3
ENDMDL
MODEL 5
REMARK VINA RESULT:    -4.296      2.424      3.668
REMARK INTER + INTRA:          -5.021
REMARK INTER:                  -4.933
REMARK INTRA:                  -0.088
REMARK UNBOUND:                -0.097
REMARK SMILES COc1cc(C(=O)[O-])ccc1O
REMARK SMILES IDX 5 1 9 2 4 3 10 4 3 5 11 6 6 7 7 8 8 9 2 10 1 11 12 12
REMARK H PARENT 12 13
REMARK Flexibility Score: inf
ROOT
ATOM      1  C   UNL     1      14.478 -44.254  30.788  1.00  0.00     0.001 A 
ATOM      2  C   UNL     1      14.377 -44.761  29.483  1.00  0.00     0.014 A 
ATOM      3  C   UNL     1      15.717 -44.317  31.452  1.00  0.00     0.060 A 
ATOM      4  C   UNL     1      15.489 -45.322  28.854  1.00  0.00     0.051 A 
ATOM      5  C   UNL     1      16.844 -44.882  30.821  1.00  0.00     0.161 A 
ATOM      6  C   UNL     1      16.720 -45.385  29.513  1.00  0.00     0.157 A 
ENDROOT
BRANCH   1   7
ATOM      7  C   UNL     1      13.295 -43.661  31.450  1.00  0.00     0.072 C 
ATOM      8  O   UNL     1      13.422 -42.987  32.507  1.00  0.00    -0.545 OA
ATOM      9  O   UNL     1      12.024 -43.839  30.914  1.00  0.00    -0.545 OA
ENDBRANCH   1   7
BRANCH   5  10
ATOM     10  O   UNL     1      18.093 -44.960  31.459  1.00  0.00    -0.493 OA
ATOM     11  C   UNL     1      18.293 -45.426  32.790  1.00  0.00     0.278 C 
ENDBRANCH   5  10
BRANCH   6  12
ATOM     12  O   UNL     1      17.810 -45.952  28.852  1.00  0.00    -0.504 OA
ATOM     13  H   UNL     1      17.998 -46.947  28.875  1.00  0.00     0.293 HD
ENDBRANCH   6  12
TORSDOF 3
ENDMDL
MODEL 6
REMARK VINA RESULT:    -4.293      3.145      3.600
REMARK INTER + INTRA:          -5.017
REMARK INTER:                  -4.918
REMARK INTRA:                  -0.098
REMARK UNBOUND:                -0.097
REMARK SMILES COc1cc(C(=O)[O-])ccc1O
REMARK SMILES IDX 5 1 9 2 4 3 10 4 3 5 11 6 6 7 7 8 8 9 2 10 1 11 12 12
REMARK H PARENT 12 13
REMARK Flexibility Score: inf
ROOT
ATOM      1  C   UNL     1      14.410 -44.905  29.740  1.00  0.00     0.001 A 
ATOM      2  C   UNL     1      15.144 -44.753  30.927  1.00  0.00     0.014 A 
ATOM      3  C   UNL     1      15.099 -45.148  28.537  1.00  0.00     0.060 A 
ATOM      4  C   UNL     1      16.537 -44.839  30.913  1.00  0.00     0.051 A 
ATOM      5  C   UNL     1      16.505 -45.237  28.517  1.00  0.00     0.161 A 
ATOM      6  C   UNL     1      17.221 -45.080  29.718  1.00  0.00     0.157 A 
ENDROOT
BRANCH   1   7
ATOM      7  C   UNL     1      12.934 -44.811  29.760  1.00  0.00     0.072 C 
ATOM      8  O   UNL     1      12.350 -44.056  30.583  1.00  0.00    -0.545 OA
ATOM      9  O   UNL     1      12.168 -45.556  28.870  1.00  0.00    -0.545 OA
ENDBRANCH   1   7
BRANCH   5  10
ATOM     10  O   UNL     1      17.219 -45.477  27.332  1.00  0.00    -0.493 OA
ATOM     11  C   UNL     1      17.338 -44.549  26.257  1.00  0.00     0.278 C 
ENDBRANCH   5  10
BRANCH   6  12
ATOM     12  O   UNL     1      18.613 -45.161  29.744  1.00  0.00    -0.504 OA
ATOM     13  H   UNL     1      19.189 -44.808  28.988  1.00  0.00     0.293 HD
ENDBRANCH   6  12
TORSDOF 3
ENDMDL
MODEL 7
REMARK VINA RESULT:    -4.257      3.416      6.529
REMARK INTER + INTRA:          -4.975
REMARK INTER:                  -4.879
REMARK INTRA:                  -0.096
REMARK UNBOUND:                -0.097
REMARK SMILES COc1cc(C(=O)[O-])ccc1O
REMARK SMILES IDX 5 1 9 2 4 3 10 4 3 5 11 6 6 7 7 8 8 9 2 10 1 11 12 12
REMARK H PARENT 12 13
REMARK Flexibility Score: inf
ROOT
ATOM      1  C   UNL     1      17.949 -42.317  26.070  1.00  0.00     0.001 A 
ATOM      2  C   UNL     1      18.011 -43.506  25.327  1.00  0.00     0.014 A 
ATOM      3  C   UNL     1      17.509 -42.367  27.406  1.00  0.00     0.060 A 
ATOM      4  C   UNL     1      17.641 -44.721  25.905  1.00  0.00     0.051 A 
ATOM      5  C   UNL     1      17.134 -43.592  27.995  1.00  0.00     0.161 A 
ATOM      6  C   UNL     1      17.205 -44.772  27.232  1.00  0.00     0.157 A 
ENDROOT
BRANCH   1   7
ATOM      7  C   UNL     1      18.341 -41.031  25.452  1.00  0.00     0.072 C 
ATOM      8  O   UNL     1      18.659 -40.045  26.169  1.00  0.00    -0.545 OA
ATOM      9  O   UNL     1      18.365 -40.893  24.068  1.00  0.00    -0.545 OA
ENDBRANCH   1   7
BRANCH   5  10
ATOM     10  O   UNL     1      16.691 -43.673  29.325  1.00  0.00    -0.493 OA
ATOM     11  C   UNL     1      17.483 -43.346  30.463  1.00  0.00     0.278 C 
ENDBRANCH   5  10
BRANCH   6  12
ATOM     12  O   UNL     1      16.844 -46.004  27.776  1.00  0.00    -0.504 OA
ATOM     13  H   UNL     1      15.904 -46.197  28.102  1.00  0.00     0.293 HD
ENDBRANCH   6  12
TORSDOF 3
ENDMDL
MODEL 8
REMARK VINA RESULT:    -4.228      3.107      3.916
REMARK INTER + INTRA:          -4.943
REMARK INTER:                  -4.868
REMARK INTRA:                  -0.075
REMARK UNBOUND:                -0.097
REMARK SMILES COc1cc(C(=O)[O-])ccc1O
REMARK SMILES IDX 5 1 9 2 4 3 10 4 3 5 11 6 6 7 7 8 8 9 2 10 1 11 12 12
REMARK H PARENT 12 13
REMARK Flexibility Score: inf
ROOT
ATOM      1  C   UNL     1      15.273 -44.463  30.468  1.00  0.00     0.001 A 
ATOM      2  C   UNL     1      14.943 -45.061  31.695  1.00  0.00     0.014 A 
ATOM      3  C   UNL     1      15.853 -43.180  30.467  1.00  0.00     0.060 A 
ATOM      4  C   UNL     1      15.186 -44.392  32.895  1.00  0.00     0.051 A 
ATOM      5  C   UNL     1      16.100 -42.501  31.677  1.00  0.00     0.161 A 
ATOM      6  C   UNL     1      15.762 -43.119  32.895  1.00  0.00     0.157 A 
ENDROOT
BRANCH   1   7
ATOM      7  C   UNL     1      15.013 -45.175  29.198  1.00  0.00     0.072 C 
ATOM      8  O   UNL     1      15.957 -45.443  28.407  1.00  0.00    -0.545 OA
ATOM      9  O   UNL     1      13.721 -45.561  28.859  1.00  0.00    -0.545 OA
ENDBRANCH   1   7
BRANCH   5  10
ATOM     10  O   UNL     1      16.677 -41.221  31.707  1.00  0.00    -0.493 OA
ATOM     11  C   UNL     1      17.178 -40.532  30.565  1.00  0.00     0.278 C 
ENDBRANCH   5  10
BRANCH   6  12
ATOM     12  O   UNL     1      15.990 -42.482  34.114  1.00  0.00    -0.504 OA
ATOM     13  H   UNL     1      16.615 -42.863  34.814  1.00  0.00     0.293 HD
ENDBRANCH   6  12
TORSDOF 3
ENDMDL
MODEL 9
REMARK VINA RESULT:    -4.216      1.443      2.917
REMARK INTER + INTRA:          -4.929
REMARK INTER:                  -4.829
REMARK INTRA:                  -0.100
REMARK UNBOUND:                -0.097
REMARK SMILES COc1cc(C(=O)[O-])ccc1O
REMARK SMILES IDX 5 1 9 2 4 3 10 4 3 5 11 6 6 7 7 8 8 9 2 10 1 11 12 12
REMARK H PARENT 12 13
REMARK Flexibility Score: inf
ROOT
ATOM      1  C   UNL     1      16.457 -44.607  31.622  1.00  0.00     0.001 A 
ATOM      2  C   UNL     1      16.876 -44.331  30.311  1.00  0.00     0.014 A 
ATOM      3  C   UNL     1      17.424 -44.897  32.602  1.00  0.00     0.060 A 
ATOM      4  C   UNL     1      18.233 -44.346  29.985  1.00  0.00     0.051 A 
ATOM      5  C   UNL     1      18.796 -44.913  32.278  1.00  0.00     0.161 A 
ATOM      6  C   UNL     1      19.194 -44.634  30.958  1.00  0.00     0.157 A 
ENDROOT
BRANCH   1   7
ATOM      7  C   UNL     1      15.017 -44.591  31.962  1.00  0.00     0.072 C 
ATOM      8  O   UNL     1      14.166 -45.084  31.174  1.00  0.00    -0.545 OA
ATOM      9  O   UNL     1      14.582 -44.032  33.159  1.00  0.00    -0.545 OA
ENDBRANCH   1   7
BRANCH   5  10
ATOM     10  O   UNL     1      19.783 -45.200  33.234  1.00  0.00    -0.493 OA
ATOM     11  C   UNL     1      20.179 -46.513  33.619  1.00  0.00     0.278 C 
ENDBRANCH   5  10
BRANCH   6  12
ATOM     12  O   UNL     1      20.540 -44.638  30.594  1.00  0.00    -0.504 OA
ATOM     13  H   UNL     1      21.107 -43.799  30.609  1.00  0.00     0.293 HD
ENDBRANCH   6  12
TORSDOF 3
ENDMDL
