MODEL 1
REMARK VINA RESULT:    -4.448      0.000      0.000
REMARK INTER + INTRA:          -5.676
REMARK INTER:                  -6.268
REMARK INTRA:                   0.593
REMARK UNBOUND:                 0.593
REMARK SMILES CC1=CCC(=C(C)C)C(=O)CC(C)=CCC1
REMARK SMILES IDX 12 1 14 2 13 3 15 4 16 5 2 6 1 7 3 8 11 10 9 11 10 12 5 13
REMARK SMILES IDX 6 14 7 15 8 16 4 17
REMARK H PARENT
REMARK Flexibility Score: 60.00
ROOT
ATOM      1  C   UNL     1     -15.149  14.710 -30.651  1.00  0.00    -0.070 C 
ATOM      2  C   UNL     1     -16.206  14.688 -29.806  1.00  0.00    -0.027 C 
ATOM      3  C   UNL     1     -14.326  15.969 -30.727  1.00  0.00     0.039 C 
ENDROOT
BRANCH   2   4
ATOM      4  C   UNL     1     -17.173  13.537 -29.648  1.00  0.00     0.032 C 
BRANCH   4   5
ATOM      5  C   UNL     1     -17.041  12.871 -28.270  1.00  0.00     0.034 C 
BRANCH   5   6
ATOM      6  C   UNL     1     -16.261  11.565 -28.298  1.00  0.00    -0.077 C 
ATOM      7  C   UNL     1     -17.021  10.266 -28.408  1.00  0.00     0.039 C 
ATOM      8  C   UNL     1     -14.913  11.501 -28.210  1.00  0.00    -0.023 CG0
ATOM      9  G   UNL     1     -13.981  12.689 -28.163  1.00  0.00     0.000 G0
ENDBRANCH   5   6
ENDBRANCH   4   5
ENDBRANCH   2   4
BRANCH   1  10
ATOM     10  C   UNL     1     -14.760  13.526 -31.516  1.00  0.00     0.111 C 
BRANCH  10  11
ATOM     11  C   UNL     1     -13.905  12.555 -30.753  1.00  0.00     0.163 C 
ATOM     12  O   UNL     1     -13.755  11.383 -31.193  1.00  0.00    -0.294 OA
BRANCH  11  13
ATOM     13  C   UNL     1     -13.250  12.940 -29.476  1.00  0.00    -0.002 C 
ATOM     14  C   UNL     1     -12.022  13.525 -29.484  1.00  0.00    -0.069 C 
ATOM     15  C   UNL     1     -11.252  13.712 -30.773  1.00  0.00     0.039 C 
ATOM     16  C   UNL     1     -11.362  13.973 -28.199  1.00  0.00     0.039 C 
BRANCH  13  17
ATOM     17  C   UNL     1     -13.972  12.672 -28.160  1.00  0.00     0.066 CG0
ATOM     18  G   UNL     1     -14.911  11.489 -28.212  1.00  0.00     0.000 G0
ENDBRANCH  13  17
ENDBRANCH  11  13
ENDBRANCH  10  11
ENDBRANCH   1  10
TORSDOF 0
ENDMDL
MODEL 2
REMARK VINA RESULT:    -4.405      1.603      4.152
REMARK INTER + INTRA:          -5.614
REMARK INTER:                  -6.137
REMARK INTRA:                   0.523
REMARK UNBOUND:                 0.593
REMARK SMILES CC1=CCC(=C(C)C)C(=O)CC(C)=CCC1
REMARK SMILES IDX 12 1 14 2 13 3 15 4 16 5 2 6 1 7 3 8 11 10 9 11 10 12 5 13
REMARK SMILES IDX 6 14 7 15 8 16 4 17
REMARK H PARENT
REMARK Flexibility Score: 60.00
ROOT
ATOM      1  C   UNL     1     -14.139  14.991 -31.003  1.00  0.00    -0.070 C 
ATOM      2  C   UNL     1     -12.954  14.348 -31.127  1.00  0.00    -0.027 C 
ATOM      3  C   UNL     1     -14.118  16.459 -30.666  1.00  0.00     0.039 C 
ENDROOT
BRANCH   2   4
ATOM      4  C   UNL     1     -12.789  12.870 -31.400  1.00  0.00     0.032 C 
BRANCH   4   5
ATOM      5  C   UNL     1     -12.154  12.141 -30.207  1.00  0.00     0.034 C 
BRANCH   5   6
ATOM      6  C   UNL     1     -12.710  12.581 -28.861  1.00  0.00    -0.077 C 
ATOM      7  C   UNL     1     -11.823  13.374 -27.933  1.00  0.00     0.039 C 
ATOM      8  C   UNL     1     -13.958  12.281 -28.437  1.00  0.00    -0.023 CG0
ATOM      9  G   UNL     1     -15.009  11.558 -29.247  1.00  0.00     0.000 G0
ENDBRANCH   5   6
ENDBRANCH   4   5
ENDBRANCH   2   4
BRANCH   1  10
ATOM     10  C   UNL     1     -15.477  14.300 -31.192  1.00  0.00     0.111 C 
BRANCH  10  11
ATOM     11  C   UNL     1     -16.047  13.856 -29.875  1.00  0.00     0.163 C 
ATOM     12  O   UNL     1     -16.350  14.720 -29.008  1.00  0.00    -0.294 OA
BRANCH  11  13
ATOM     13  C   UNL     1     -16.239  12.416 -29.563  1.00  0.00    -0.002 C 
ATOM     14  C   UNL     1     -17.486  11.873 -29.565  1.00  0.00    -0.069 C 
ATOM     15  C   UNL     1     -18.713  12.731 -29.789  1.00  0.00     0.039 C 
ATOM     16  C   UNL     1     -17.697  10.400 -29.302  1.00  0.00     0.039 C 
BRANCH  13  17
ATOM     17  C   UNL     1     -15.020  11.557 -29.240  1.00  0.00     0.066 CG0
ATOM     18  G   UNL     1     -13.963  12.279 -28.438  1.00  0.00     0.000 G0
ENDBRANCH  13  17
ENDBRANCH  11  13
ENDBRANCH  10  11
ENDBRANCH   1  10
TORSDOF 0
ENDMDL
MODEL 3
REMARK VINA RESULT:    -4.291      1.818      3.123
REMARK INTER + INTRA:          -5.454
REMARK INTER:                  -6.259
REMARK INTRA:                   0.805
REMARK UNBOUND:                 0.593
REMARK SMILES CC1=CCC(=C(C)C)C(=O)CC(C)=CCC1
REMARK SMILES IDX 12 1 14 2 13 3 15 4 16 5 2 6 1 7 3 8 11 10 9 11 10 12 5 13
REMARK SMILES IDX 6 14 7 15 8 16 4 17
REMARK H PARENT
REMARK Flexibility Score: 60.00
ROOT
ATOM      1  C   UNL     1     -13.967  11.961 -30.174  1.00  0.00    -0.070 C 
ATOM      2  C   UNL     1     -14.513  11.595 -28.990  1.00  0.00    -0.027 C 
ATOM      3  C   UNL     1     -12.553  12.480 -30.173  1.00  0.00     0.039 C 
ENDROOT
BRANCH   2   4
ATOM      4  C   UNL     1     -15.932  11.113 -28.796  1.00  0.00     0.032 C 
BRANCH   4   5
ATOM      5  C   UNL     1     -16.855  12.242 -28.316  1.00  0.00     0.034 C 
BRANCH   5   6
ATOM      6  C   UNL     1     -17.705  12.845 -29.424  1.00  0.00    -0.077 C 
ATOM      7  C   UNL     1     -19.065  12.252 -29.701  1.00  0.00     0.039 C 
ATOM      8  C   UNL     1     -17.300  13.879 -30.195  1.00  0.00    -0.023 CG0
ATOM      9  G   UNL     1     -16.008  14.644 -30.026  1.00  0.00     0.000 G0
ENDBRANCH   5   6
ENDBRANCH   4   5
ENDBRANCH   2   4
BRANCH   1  10
ATOM     10  C   UNL     1     -14.714  11.866 -31.491  1.00  0.00     0.111 C 
BRANCH  10  11
ATOM     11  C   UNL     1     -15.102  13.228 -31.992  1.00  0.00     0.163 C 
ATOM     12  O   UNL     1     -15.516  13.357 -33.176  1.00  0.00    -0.294 OA
BRANCH  11  13
ATOM     13  C   UNL     1     -14.984  14.431 -31.129  1.00  0.00    -0.002 C 
ATOM     14  C   UNL     1     -13.974  15.321 -31.326  1.00  0.00    -0.069 C 
ATOM     15  C   UNL     1     -12.896  15.067 -32.356  1.00  0.00     0.039 C 
ATOM     16  C   UNL     1     -13.868  16.578 -30.492  1.00  0.00     0.039 C 
BRANCH  13  17
ATOM     17  C   UNL     1     -16.009  14.654 -30.021  1.00  0.00     0.066 CG0
ATOM     18  G   UNL     1     -17.282  13.860 -30.202  1.00  0.00     0.000 G0
ENDBRANCH  13  17
ENDBRANCH  11  13
ENDBRANCH  10  11
ENDBRANCH   1  10
TORSDOF 0
ENDMDL
MODEL 4
REMARK VINA RESULT:    -4.150      1.948      4.018
REMARK INTER + INTRA:          -5.255
REMARK INTER:                  -5.647
REMARK INTRA:                   0.392
REMARK UNBOUND:                 0.593
REMARK SMILES CC1=CCC(=C(C)C)C(=O)CC(C)=CCC1
REMARK SMILES IDX 12 1 14 2 13 3 15 4 16 5 2 6 1 7 3 8 11 10 9 11 10 12 5 13
REMARK SMILES IDX 6 14 7 15 8 16 4 17
REMARK H PARENT
REMARK Flexibility Score: 60.00
ROOT
ATOM      1  C   UNL     1     -18.008  12.561 -29.906  1.00  0.00    -0.070 C 
ATOM      2  C   UNL     1     -17.793  13.201 -31.080  1.00  0.00    -0.027 C 
ATOM      3  C   UNL     1     -19.315  11.835 -29.723  1.00  0.00     0.039 C 
ENDROOT
BRANCH   2   4
ATOM      4  C   UNL     1     -16.571  14.027 -31.412  1.00  0.00     0.032 C 
BRANCH   4   5
ATOM      5  C   UNL     1     -15.396  13.146 -31.859  1.00  0.00     0.034 C 
BRANCH   5   6
ATOM      6  C   UNL     1     -14.120  13.387 -31.067  1.00  0.00    -0.077 C 
ATOM      7  C   UNL     1     -13.424  14.720 -31.196  1.00  0.00     0.039 C 
ATOM      8  C   UNL     1     -13.558  12.458 -30.261  1.00  0.00    -0.023 CG0
ATOM      9  G   UNL     1     -14.140  11.099 -29.953  1.00  0.00     0.000 G0
ENDBRANCH   5   6
ENDBRANCH   4   5
ENDBRANCH   2   4
BRANCH   1  10
ATOM     10  C   UNL     1     -16.993  12.542 -28.779  1.00  0.00     0.111 C 
BRANCH  10  11
ATOM     11  C   UNL     1     -16.366  11.184 -28.638  1.00  0.00     0.163 C 
ATOM     12  O   UNL     1     -17.105  10.173 -28.495  1.00  0.00    -0.294 OA
BRANCH  11  13
ATOM     13  C   UNL     1     -14.890  11.011 -28.638  1.00  0.00    -0.002 C 
ATOM     14  C   UNL     1     -14.226  10.785 -27.473  1.00  0.00    -0.069 C 
ATOM     15  C   UNL     1     -14.949  10.798 -26.144  1.00  0.00     0.039 C 
ATOM     16  C   UNL     1     -12.732  10.554 -27.458  1.00  0.00     0.039 C 
BRANCH  13  17
ATOM     17  C   UNL     1     -14.133  11.090 -29.959  1.00  0.00     0.066 CG0
ATOM     18  G   UNL     1     -13.560  12.458 -30.250  1.00  0.00     0.000 G0
ENDBRANCH  13  17
ENDBRANCH  11  13
ENDBRANCH  10  11
ENDBRANCH   1  10
TORSDOF 0
ENDMDL
MODEL 5
REMARK VINA RESULT:    -4.134      1.369      3.915
REMARK INTER + INTRA:          -5.233
REMARK INTER:                  -5.811
REMARK INTRA:                   0.579
REMARK UNBOUND:                 0.593
REMARK SMILES CC1=CCC(=C(C)C)C(=O)CC(C)=CCC1
REMARK SMILES IDX 12 1 14 2 13 3 15 4 16 5 2 6 1 7 3 8 11 10 9 11 10 12 5 13
REMARK SMILES IDX 6 14 7 15 8 16 4 17
REMARK H PARENT
REMARK Flexibility Score: 60.00
ROOT
ATOM      1  C   UNL     1     -11.919  13.809 -31.286  1.00  0.00    -0.070 C 
ATOM      2  C   UNL     1     -11.202  13.924 -30.142  1.00  0.00    -0.027 C 
ATOM      3  C   UNL     1     -11.190  13.414 -32.543  1.00  0.00     0.039 C 
ENDROOT
BRANCH   2   4
ATOM      4  C   UNL     1     -11.756  14.368 -28.808  1.00  0.00     0.032 C 
BRANCH   4   5
ATOM      5  C   UNL     1     -11.642  13.262 -27.749  1.00  0.00     0.034 C 
BRANCH   5   6
ATOM      6  C   UNL     1     -11.958  11.873 -28.285  1.00  0.00    -0.077 C 
ATOM      7  C   UNL     1     -10.831  10.885 -28.456  1.00  0.00     0.039 C 
ATOM      8  C   UNL     1     -13.202  11.478 -28.639  1.00  0.00    -0.023 CG0
ATOM      9  G   UNL     1     -14.461  12.297 -28.478  1.00  0.00     0.000 G0
ENDBRANCH   5   6
ENDBRANCH   4   5
ENDBRANCH   2   4
BRANCH   1  10
ATOM     10  C   UNL     1     -13.414  14.058 -31.351  1.00  0.00     0.111 C 
BRANCH  10  11
ATOM     11  C   UNL     1     -14.185  12.817 -31.002  1.00  0.00     0.163 C 
ATOM     12  O   UNL     1     -14.105  11.807 -31.753  1.00  0.00    -0.294 OA
BRANCH  11  13
ATOM     13  C   UNL     1     -15.059  12.763 -29.802  1.00  0.00    -0.002 C 
ATOM     14  C   UNL     1     -16.362  13.145 -29.885  1.00  0.00    -0.069 C 
ATOM     15  C   UNL     1     -16.930  13.721 -31.164  1.00  0.00     0.039 C 
ATOM     16  C   UNL     1     -17.282  13.048 -28.689  1.00  0.00     0.039 C 
BRANCH  13  17
ATOM     17  C   UNL     1     -14.477  12.275 -28.479  1.00  0.00     0.066 CG0
ATOM     18  G   UNL     1     -13.195  11.491 -28.632  1.00  0.00     0.000 G0
ENDBRANCH  13  17
ENDBRANCH  11  13
ENDBRANCH  10  11
ENDBRANCH   1  10
TORSDOF 0
ENDMDL
MODEL 6
REMARK VINA RESULT:    -4.129      1.500      2.038
REMARK INTER + INTRA:          -5.226
REMARK INTER:                  -5.531
REMARK INTRA:                   0.305
REMARK UNBOUND:                 0.593
REMARK SMILES CC1=CCC(=C(C)C)C(=O)CC(C)=CCC1
REMARK SMILES IDX 12 1 14 2 13 3 15 4 16 5 2 6 1 7 3 8 11 10 9 11 10 12 5 13
REMARK SMILES IDX 6 14 7 15 8 16 4 17
REMARK H PARENT
REMARK Flexibility Score: 60.00
ROOT
ATOM      1  C   UNL     1     -16.772  13.283 -30.689  1.00  0.00    -0.070 C 
ATOM      2  C   UNL     1     -17.798  12.500 -30.280  1.00  0.00    -0.027 C 
ATOM      3  C   UNL     1     -16.850  13.895 -32.063  1.00  0.00     0.039 C 
ENDROOT
BRANCH   2   4
ATOM      4  C   UNL     1     -17.858  11.759 -28.964  1.00  0.00     0.032 C 
BRANCH   4   5
ATOM      5  C   UNL     1     -17.076  10.439 -29.020  1.00  0.00     0.034 C 
BRANCH   5   6
ATOM      6  C   UNL     1     -16.187  10.208 -27.808  1.00  0.00    -0.077 C 
ATOM      7  C   UNL     1     -16.834   9.914 -26.476  1.00  0.00     0.039 C 
ATOM      8  C   UNL     1     -14.836  10.270 -27.852  1.00  0.00    -0.023 CG0
ATOM      9  G   UNL     1     -14.010  10.483 -29.098  1.00  0.00     0.000 G0
ENDBRANCH   5   6
ENDBRANCH   4   5
ENDBRANCH   2   4
BRANCH   1  10
ATOM     10  C   UNL     1     -15.557  13.569 -29.826  1.00  0.00     0.111 C 
BRANCH  10  11
ATOM     11  C   UNL     1     -14.367  12.775 -30.286  1.00  0.00     0.163 C 
ATOM     12  O   UNL     1     -14.039  12.801 -31.503  1.00  0.00    -0.294 OA
BRANCH  11  13
ATOM     13  C   UNL     1     -13.583  11.941 -29.340  1.00  0.00    -0.002 C 
ATOM     14  C   UNL     1     -12.510  12.467 -28.689  1.00  0.00    -0.069 C 
ATOM     15  C   UNL     1     -12.030  13.873 -28.978  1.00  0.00     0.039 C 
ATOM     16  C   UNL     1     -11.731  11.651 -27.682  1.00  0.00     0.039 C 
BRANCH  13  17
ATOM     17  C   UNL     1     -13.996  10.491 -29.109  1.00  0.00     0.066 CG0
ATOM     18  G   UNL     1     -14.815  10.285 -27.856  1.00  0.00     0.000 G0
ENDBRANCH  13  17
ENDBRANCH  11  13
ENDBRANCH  10  11
ENDBRANCH   1  10
TORSDOF 0
ENDMDL
MODEL 7
REMARK VINA RESULT:    -4.056      1.866      4.686
REMARK INTER + INTRA:          -5.123
REMARK INTER:                  -5.524
REMARK INTRA:                   0.401
REMARK UNBOUND:                 0.593
REMARK SMILES CC1=CCC(=C(C)C)C(=O)CC(C)=CCC1
REMARK SMILES IDX 12 1 14 2 13 3 15 4 16 5 2 6 1 7 3 8 11 10 9 11 10 12 5 13
REMARK SMILES IDX 6 14 7 15 8 16 4 17
REMARK H PARENT
REMARK Flexibility Score: 60.00
ROOT
ATOM      1  C   UNL     1     -12.359  12.870 -28.138  1.00  0.00    -0.070 C 
ATOM      2  C   UNL     1     -11.937  13.679 -29.138  1.00  0.00    -0.027 C 
ATOM      3  C   UNL     1     -11.843  13.131 -26.748  1.00  0.00     0.039 C 
ENDROOT
BRANCH   2   4
ATOM      4  C   UNL     1     -12.303  13.526 -30.597  1.00  0.00     0.032 C 
BRANCH   4   5
ATOM      5  C   UNL     1     -13.514  14.392 -30.971  1.00  0.00     0.034 C 
BRANCH   5   6
ATOM      6  C   UNL     1     -14.651  13.605 -31.606  1.00  0.00    -0.077 C 
ATOM      7  C   UNL     1     -14.554  13.235 -33.065  1.00  0.00     0.039 C 
ATOM      8  C   UNL     1     -15.764  13.232 -30.934  1.00  0.00    -0.023 CG0
ATOM      9  G   UNL     1     -16.011  13.450 -29.459  1.00  0.00     0.000 G0
ENDBRANCH   5   6
ENDBRANCH   4   5
ENDBRANCH   2   4
BRANCH   1  10
ATOM     10  C   UNL     1     -13.326  11.721 -28.359  1.00  0.00     0.111 C 
BRANCH  10  11
ATOM     11  C   UNL     1     -14.667  12.017 -27.750  1.00  0.00     0.163 C 
ATOM     12  O   UNL     1     -14.772  12.101 -26.496  1.00  0.00    -0.294 OA
BRANCH  11  13
ATOM     13  C   UNL     1     -15.877  12.190 -28.594  1.00  0.00    -0.002 C 
ATOM     14  C   UNL     1     -16.847  11.236 -28.607  1.00  0.00    -0.069 C 
ATOM     15  C   UNL     1     -16.679   9.939 -27.844  1.00  0.00     0.039 C 
ATOM     16  C   UNL     1     -18.109  11.417 -29.418  1.00  0.00     0.039 C 
BRANCH  13  17
ATOM     17  C   UNL     1     -16.017  13.449 -29.444  1.00  0.00     0.066 CG0
ATOM     18  G   UNL     1     -15.751  13.222 -30.914  1.00  0.00     0.000 G0
ENDBRANCH  13  17
ENDBRANCH  11  13
ENDBRANCH  10  11
ENDBRANCH   1  10
TORSDOF 0
ENDMDL
MODEL 8
REMARK VINA RESULT:    -3.869      1.560      2.960
REMARK INTER + INTRA:          -4.859
REMARK INTER:                  -5.495
REMARK INTRA:                   0.635
REMARK UNBOUND:                 0.593
REMARK SMILES CC1=CCC(=C(C)C)C(=O)CC(C)=CCC1
REMARK SMILES IDX 12 1 14 2 13 3 15 4 16 5 2 6 1 7 3 8 11 10 9 11 10 12 5 13
REMARK SMILES IDX 6 14 7 15 8 16 4 17
REMARK H PARENT
REMARK Flexibility Score: 60.00
ROOT
ATOM      1  C   UNL     1     -13.633  14.006 -30.784  1.00  0.00    -0.070 C 
ATOM      2  C   UNL     1     -14.791  14.438 -31.337  1.00  0.00    -0.027 C 
ATOM      3  C   UNL     1     -12.350  14.267 -31.529  1.00  0.00     0.039 C 
ENDROOT
BRANCH   2   4
ATOM      4  C   UNL     1     -16.170  14.210 -30.761  1.00  0.00     0.032 C 
BRANCH   4   5
ATOM      5  C   UNL     1     -16.638  12.763 -30.968  1.00  0.00     0.034 C 
BRANCH   5   6
ATOM      6  C   UNL     1     -17.466  12.221 -29.812  1.00  0.00    -0.077 C 
ATOM      7  C   UNL     1     -18.775  12.892 -29.477  1.00  0.00     0.039 C 
ATOM      8  C   UNL     1     -17.082  11.173 -29.048  1.00  0.00    -0.023 CG0
ATOM      9  G   UNL     1     -15.845  10.334 -29.271  1.00  0.00     0.000 G0
ENDBRANCH   5   6
ENDBRANCH   4   5
ENDBRANCH   2   4
BRANCH   1  10
ATOM     10  C   UNL     1     -13.575  13.278 -29.454  1.00  0.00     0.111 C 
BRANCH  10  11
ATOM     11  C   UNL     1     -13.723  11.795 -29.642  1.00  0.00     0.163 C 
ATOM     12  O   UNL     1     -13.139  11.232 -30.607  1.00  0.00    -0.294 OA
BRANCH  11  13
ATOM     13  C   UNL     1     -14.564  10.981 -28.726  1.00  0.00    -0.002 C 
ATOM     14  C   UNL     1     -14.197  10.811 -27.427  1.00  0.00    -0.069 C 
ATOM     15  C   UNL     1     -12.887  11.359 -26.905  1.00  0.00     0.039 C 
ATOM     16  C   UNL     1     -15.066  10.030 -26.467  1.00  0.00     0.039 C 
BRANCH  13  17
ATOM     17  C   UNL     1     -15.840  10.341 -29.262  1.00  0.00     0.066 CG0
ATOM     18  G   UNL     1     -17.076  11.184 -29.053  1.00  0.00     0.000 G0
ENDBRANCH  13  17
ENDBRANCH  11  13
ENDBRANCH  10  11
ENDBRANCH   1  10
TORSDOF 0
ENDMDL
MODEL 9
REMARK VINA RESULT:    -3.804      1.704      3.142
REMARK INTER + INTRA:          -4.768
REMARK INTER:                  -5.410
REMARK INTRA:                   0.642
REMARK UNBOUND:                 0.593
REMARK SMILES CC1=CCC(=C(C)C)C(=O)CC(C)=CCC1
REMARK SMILES IDX 12 1 14 2 13 3 15 4 16 5 2 6 1 7 3 8 11 10 9 11 10 12 5 13
REMARK SMILES IDX 6 14 7 15 8 16 4 17
REMARK H PARENT
REMARK Flexibility Score: 60.00
ROOT
ATOM      1  C   UNL     1     -17.849  12.505 -29.469  1.00  0.00    -0.070 C 
ATOM      2  C   UNL     1     -17.743  11.408 -28.683  1.00  0.00    -0.027 C 
ATOM      3  C   UNL     1     -19.025  12.596 -30.406  1.00  0.00     0.039 C 
ENDROOT
BRANCH   2   4
ATOM      4  C   UNL     1     -16.602  11.123 -27.733  1.00  0.00     0.032 C 
BRANCH   4   5
ATOM      5  C   UNL     1     -15.624  10.092 -28.315  1.00  0.00     0.034 C 
BRANCH   5   6
ATOM      6  C   UNL     1     -14.178  10.564 -28.323  1.00  0.00    -0.077 C 
ATOM      7  C   UNL     1     -13.291  10.211 -27.154  1.00  0.00     0.039 C 
ATOM      8  C   UNL     1     -13.642  11.305 -29.320  1.00  0.00    -0.023 CG0
ATOM      9  G   UNL     1     -14.348  11.696 -30.597  1.00  0.00     0.000 G0
ENDBRANCH   5   6
ENDBRANCH   4   5
ENDBRANCH   2   4
BRANCH   1  10
ATOM     10  C   UNL     1     -16.842  13.640 -29.442  1.00  0.00     0.111 C 
BRANCH  10  11
ATOM     11  C   UNL     1     -16.026  13.669 -30.703  1.00  0.00     0.163 C 
ATOM     12  O   UNL     1     -16.551  14.088 -31.770  1.00  0.00    -0.294 OA
BRANCH  11  13
ATOM     13  C   UNL     1     -14.619  13.193 -30.723  1.00  0.00    -0.002 C 
ATOM     14  C   UNL     1     -13.596  14.080 -30.847  1.00  0.00    -0.069 C 
ATOM     15  C   UNL     1     -13.859  15.555 -31.060  1.00  0.00     0.039 C 
ATOM     16  C   UNL     1     -12.156  13.620 -30.816  1.00  0.00     0.039 C 
BRANCH  13  17
ATOM     17  C   UNL     1     -14.339  11.698 -30.605  1.00  0.00     0.066 CG0
ATOM     18  G   UNL     1     -13.632  11.312 -29.327  1.00  0.00     0.000 G0
ENDBRANCH  13  17
ENDBRANCH  11  13
ENDBRANCH  10  11
ENDBRANCH   1  10
TORSDOF 0
ENDMDL
