MODEL 1
REMARK VINA RESULT:    -4.634      0.000      0.000
REMARK INTER + INTRA:          -5.421
REMARK INTER:                  -5.311
REMARK INTRA:                  -0.110
REMARK UNBOUND:                -0.110
REMARK SMILES COc1cc(C(C)=O)ccc1O
REMARK SMILES IDX 5 1 4 2 3 3 11 4 10 5 9 6 6 7 7 8 8 9 2 10 1 11 12 12
REMARK H PARENT 12 13
REMARK Flexibility Score: inf
ROOT
ATOM      1  C   UNL     1     -16.989  17.647  42.084  1.00  0.00     0.021 A 
ATOM      2  C   UNL     1     -17.634  18.813  41.629  1.00  0.00     0.062 A 
ATOM      3  C   UNL     1     -17.964  19.853  42.520  1.00  0.00     0.161 A 
ATOM      4  C   UNL     1     -17.641  19.719  43.881  1.00  0.00     0.157 A 
ATOM      5  C   UNL     1     -17.001  18.564  44.337  1.00  0.00     0.051 A 
ATOM      6  C   UNL     1     -16.676  17.537  43.451  1.00  0.00     0.016 A 
ENDROOT
BRANCH   1   7
ATOM      7  C   UNL     1     -16.649  16.559  41.124  1.00  0.00     0.159 C 
ATOM      8  C   UNL     1     -16.039  16.846  39.785  1.00  0.00     0.093 C 
ATOM      9  O   UNL     1     -16.874  15.358  41.435  1.00  0.00    -0.295 OA
ENDBRANCH   1   7
BRANCH   3  10
ATOM     10  O   UNL     1     -18.608  21.025  42.091  1.00  0.00    -0.493 OA
ATOM     11  C   UNL     1     -19.957  21.087  41.637  1.00  0.00     0.278 C 
ENDBRANCH   3  10
BRANCH   4  12
ATOM     12  O   UNL     1     -17.950  20.724  44.798  1.00  0.00    -0.504 OA
ATOM     13  H   UNL     1     -17.234  21.284  45.245  1.00  0.00     0.293 HD
ENDBRANCH   4  12
TORSDOF 3
ENDMDL
MODEL 2
REMARK VINA RESULT:    -4.453      1.498      4.299
REMARK INTER + INTRA:          -5.213
REMARK INTER:                  -5.119
REMARK INTRA:                  -0.094
REMARK UNBOUND:                -0.110
REMARK SMILES COc1cc(C(C)=O)ccc1O
REMARK SMILES IDX 5 1 4 2 3 3 11 4 10 5 9 6 6 7 7 8 8 9 2 10 1 11 12 12
REMARK H PARENT 12 13
REMARK Flexibility Score: inf
ROOT
ATOM      1  C   UNL     1     -18.698  20.642  42.097  1.00  0.00     0.021 A 
ATOM      2  C   UNL     1     -18.105  19.479  41.570  1.00  0.00     0.062 A 
ATOM      3  C   UNL     1     -17.406  18.581  42.401  1.00  0.00     0.161 A 
ATOM      4  C   UNL     1     -17.304  18.856  43.776  1.00  0.00     0.157 A 
ATOM      5  C   UNL     1     -17.891  20.008  44.304  1.00  0.00     0.051 A 
ATOM      6  C   UNL     1     -18.582  20.894  43.476  1.00  0.00     0.016 A 
ENDROOT
BRANCH   1   7
ATOM      7  C   UNL     1     -19.432  21.577  41.201  1.00  0.00     0.159 C 
ATOM      8  C   UNL     1     -20.922  21.516  41.040  1.00  0.00     0.093 C 
ATOM      9  O   UNL     1     -18.796  22.453  40.553  1.00  0.00    -0.295 OA
ENDBRANCH   1   7
BRANCH   3  10
ATOM     10  O   UNL     1     -16.804  17.415  41.899  1.00  0.00    -0.493 OA
ATOM     11  C   UNL     1     -16.594  17.145  40.517  1.00  0.00     0.278 C 
ENDBRANCH   3  10
BRANCH   4  12
ATOM     12  O   UNL     1     -16.621  17.995  44.635  1.00  0.00    -0.504 OA
ATOM     13  H   UNL     1     -16.430  18.235  45.600  1.00  0.00     0.293 HD
ENDBRANCH   4  12
TORSDOF 3
ENDMDL
MODEL 3
REMARK VINA RESULT:    -4.125     14.844     15.975
REMARK INTER + INTRA:          -4.837
REMARK INTER:                  -4.726
REMARK INTRA:                  -0.111
REMARK UNBOUND:                -0.110
REMARK SMILES COc1cc(C(C)=O)ccc1O
REMARK SMILES IDX 5 1 4 2 3 3 11 4 10 5 9 6 6 7 7 8 8 9 2 10 1 11 12 12
REMARK H PARENT 12 13
REMARK Flexibility Score: inf
ROOT
ATOM      1  C   UNL     1      -6.903  28.936  46.058  1.00  0.00     0.021 A 
ATOM      2  C   UNL     1      -6.715  30.179  46.692  1.00  0.00     0.062 A 
ATOM      3  C   UNL     1      -7.549  31.276  46.399  1.00  0.00     0.161 A 
ATOM      4  C   UNL     1      -8.583  31.121  45.460  1.00  0.00     0.157 A 
ATOM      5  C   UNL     1      -8.774  29.889  44.828  1.00  0.00     0.051 A 
ATOM      6  C   UNL     1      -7.945  28.806  45.122  1.00  0.00     0.016 A 
ENDROOT
BRANCH   1   7
ATOM      7  C   UNL     1      -6.010  27.789  46.382  1.00  0.00     0.159 C 
ATOM      8  C   UNL     1      -6.446  26.367  46.196  1.00  0.00     0.093 C 
ATOM      9  O   UNL     1      -4.849  28.006  46.826  1.00  0.00    -0.295 OA
ENDBRANCH   1   7
BRANCH   3  10
ATOM     10  O   UNL     1      -7.381  32.526  47.018  1.00  0.00    -0.493 OA
ATOM     11  C   UNL     1      -6.395  32.814  48.004  1.00  0.00     0.278 C 
ENDBRANCH   3  10
BRANCH   4  12
ATOM     12  O   UNL     1      -9.432  32.180  45.140  1.00  0.00    -0.504 OA
ATOM     13  H   UNL     1     -10.286  32.046  44.611  1.00  0.00     0.293 HD
ENDBRANCH   4  12
TORSDOF 3
ENDMDL
MODEL 4
REMARK VINA RESULT:    -4.049      5.944      8.504
REMARK INTER + INTRA:          -4.750
REMARK INTER:                  -4.636
REMARK INTRA:                  -0.115
REMARK UNBOUND:                -0.110
REMARK SMILES COc1cc(C(C)=O)ccc1O
REMARK SMILES IDX 5 1 4 2 3 3 11 4 10 5 9 6 6 7 7 8 8 9 2 10 1 11 12 12
REMARK H PARENT 12 13
REMARK Flexibility Score: inf
ROOT
ATOM      1  C   UNL     1     -21.937  21.843  38.522  1.00  0.00     0.021 A 
ATOM      2  C   UNL     1     -21.388  22.081  37.247  1.00  0.00     0.062 A 
ATOM      3  C   UNL     1     -22.090  21.727  36.078  1.00  0.00     0.161 A 
ATOM      4  C   UNL     1     -23.356  21.128  36.192  1.00  0.00     0.157 A 
ATOM      5  C   UNL     1     -23.905  20.889  37.455  1.00  0.00     0.051 A 
ATOM      6  C   UNL     1     -23.206  21.242  38.610  1.00  0.00     0.016 A 
ENDROOT
BRANCH   1   7
ATOM      7  C   UNL     1     -21.177  22.225  39.745  1.00  0.00     0.159 C 
ATOM      8  C   UNL     1     -21.526  21.680  41.097  1.00  0.00     0.093 C 
ATOM      9  O   UNL     1     -20.209  23.029  39.654  1.00  0.00    -0.295 OA
ENDBRANCH   1   7
BRANCH   3  10
ATOM     10  O   UNL     1     -21.564  21.953  34.796  1.00  0.00    -0.493 OA
ATOM     11  C   UNL     1     -20.587  22.942  34.485  1.00  0.00     0.278 C 
ENDBRANCH   3  10
BRANCH   4  12
ATOM     12  O   UNL     1     -24.086  20.761  35.062  1.00  0.00    -0.504 OA
ATOM     13  H   UNL     1     -23.768  20.040  34.425  1.00  0.00     0.293 HD
ENDBRANCH   4  12
TORSDOF 3
ENDMDL
MODEL 5
REMARK VINA RESULT:    -3.961      2.397      4.579
REMARK INTER + INTRA:          -4.650
REMARK INTER:                  -4.556
REMARK INTRA:                  -0.095
REMARK UNBOUND:                -0.110
REMARK SMILES COc1cc(C(C)=O)ccc1O
REMARK SMILES IDX 5 1 4 2 3 3 11 4 10 5 9 6 6 7 7 8 8 9 2 10 1 11 12 12
REMARK H PARENT 12 13
REMARK Flexibility Score: inf
ROOT
ATOM      1  C   UNL     1     -18.990  20.781  41.879  1.00  0.00     0.021 A 
ATOM      2  C   UNL     1     -18.591  21.972  41.243  1.00  0.00     0.062 A 
ATOM      3  C   UNL     1     -19.544  22.871  40.726  1.00  0.00     0.161 A 
ATOM      4  C   UNL     1     -20.912  22.570  40.850  1.00  0.00     0.157 A 
ATOM      5  C   UNL     1     -21.312  21.389  41.481  1.00  0.00     0.051 A 
ATOM      6  C   UNL     1     -20.364  20.501  41.992  1.00  0.00     0.016 A 
ENDROOT
BRANCH   1   7
ATOM      7  C   UNL     1     -17.965  19.844  42.419  1.00  0.00     0.159 C 
ATOM      8  C   UNL     1     -17.373  18.750  41.583  1.00  0.00     0.093 C 
ATOM      9  O   UNL     1     -17.574  19.964  43.612  1.00  0.00    -0.295 OA
ENDBRANCH   1   7
BRANCH   3  10
ATOM     10  O   UNL     1     -19.172  24.065  40.087  1.00  0.00    -0.493 OA
ATOM     11  C   UNL     1     -17.947  24.260  39.387  1.00  0.00     0.278 C 
ENDBRANCH   3  10
BRANCH   4  12
ATOM     12  O   UNL     1     -21.889  23.431  40.353  1.00  0.00    -0.504 OA
ATOM     13  H   UNL     1     -22.491  23.974  40.961  1.00  0.00     0.293 HD
ENDBRANCH   4  12
TORSDOF 3
ENDMDL
MODEL 6
REMARK VINA RESULT:    -3.929     14.337     15.710
REMARK INTER + INTRA:          -4.613
REMARK INTER:                  -4.499
REMARK INTRA:                  -0.114
REMARK UNBOUND:                -0.110
REMARK SMILES COc1cc(C(C)=O)ccc1O
REMARK SMILES IDX 5 1 4 2 3 3 11 4 10 5 9 6 6 7 7 8 8 9 2 10 1 11 12 12
REMARK H PARENT 12 13
REMARK Flexibility Score: inf
ROOT
ATOM      1  C   UNL     1      -6.767  29.985  46.545  1.00  0.00     0.021 A 
ATOM      2  C   UNL     1      -7.789  29.349  45.813  1.00  0.00     0.062 A 
ATOM      3  C   UNL     1      -7.674  27.998  45.433  1.00  0.00     0.161 A 
ATOM      4  C   UNL     1      -6.521  27.278  45.792  1.00  0.00     0.157 A 
ATOM      5  C   UNL     1      -5.505  27.905  46.518  1.00  0.00     0.051 A 
ATOM      6  C   UNL     1      -5.623  29.244  46.893  1.00  0.00     0.016 A 
ENDROOT
BRANCH   1   7
ATOM      7  C   UNL     1      -6.908  31.415  46.937  1.00  0.00     0.159 C 
ATOM      8  C   UNL     1      -5.901  32.101  47.809  1.00  0.00     0.093 C 
ATOM      9  O   UNL     1      -7.899  32.081  46.528  1.00  0.00    -0.295 OA
ENDBRANCH   1   7
BRANCH   3  10
ATOM     10  O   UNL     1      -8.678  27.341  44.703  1.00  0.00    -0.493 OA
ATOM     11  C   UNL     1      -9.820  27.982  44.141  1.00  0.00     0.278 C 
ENDBRANCH   3  10
BRANCH   4  12
ATOM     12  O   UNL     1      -6.366  25.939  45.436  1.00  0.00    -0.504 OA
ATOM     13  H   UNL     1      -7.133  25.279  45.471  1.00  0.00     0.293 HD
ENDBRANCH   4  12
TORSDOF 3
ENDMDL
MODEL 7
REMARK VINA RESULT:    -3.924     15.913     16.881
REMARK INTER + INTRA:          -4.607
REMARK INTER:                  -4.495
REMARK INTRA:                  -0.112
REMARK UNBOUND:                -0.110
REMARK SMILES COc1cc(C(C)=O)ccc1O
REMARK SMILES IDX 5 1 4 2 3 3 11 4 10 5 9 6 6 7 7 8 8 9 2 10 1 11 12 12
REMARK H PARENT 12 13
REMARK Flexibility Score: inf
ROOT
ATOM      1  C   UNL     1      -5.779  28.755  46.498  1.00  0.00     0.021 A 
ATOM      2  C   UNL     1      -6.637  29.824  46.824  1.00  0.00     0.062 A 
ATOM      3  C   UNL     1      -6.121  31.095  47.145  1.00  0.00     0.161 A 
ATOM      4  C   UNL     1      -4.730  31.294  47.138  1.00  0.00     0.157 A 
ATOM      5  C   UNL     1      -3.875  30.237  46.815  1.00  0.00     0.051 A 
ATOM      6  C   UNL     1      -4.390  28.980  46.497  1.00  0.00     0.016 A 
ENDROOT
BRANCH   1   7
ATOM      7  C   UNL     1      -6.345  27.420  46.161  1.00  0.00     0.159 C 
ATOM      8  C   UNL     1      -7.635  27.272  45.412  1.00  0.00     0.093 C 
ATOM      9  O   UNL     1      -5.732  26.374  46.509  1.00  0.00    -0.295 OA
ENDBRANCH   1   7
BRANCH   3  10
ATOM     10  O   UNL     1      -6.956  32.176  47.474  1.00  0.00    -0.493 OA
ATOM     11  C   UNL     1      -7.580  33.035  46.525  1.00  0.00     0.278 C 
ENDBRANCH   3  10
BRANCH   4  12
ATOM     12  O   UNL     1      -4.176  32.535  47.449  1.00  0.00    -0.504 OA
ATOM     13  H   UNL     1      -4.503  33.091  48.231  1.00  0.00     0.293 HD
ENDBRANCH   4  12
TORSDOF 3
ENDMDL
MODEL 8
REMARK VINA RESULT:    -3.900     15.964     17.513
REMARK INTER + INTRA:          -4.580
REMARK INTER:                  -4.470
REMARK INTRA:                  -0.109
REMARK UNBOUND:                -0.110
REMARK SMILES COc1cc(C(C)=O)ccc1O
REMARK SMILES IDX 5 1 4 2 3 3 11 4 10 5 9 6 6 7 7 8 8 9 2 10 1 11 12 12
REMARK H PARENT 12 13
REMARK Flexibility Score: inf
ROOT
ATOM      1  C   UNL     1      -6.305  31.455  47.373  1.00  0.00     0.021 A 
ATOM      2  C   UNL     1      -5.498  30.310  47.230  1.00  0.00     0.062 A 
ATOM      3  C   UNL     1      -5.993  29.147  46.608  1.00  0.00     0.161 A 
ATOM      4  C   UNL     1      -7.314  29.135  46.125  1.00  0.00     0.157 A 
ATOM      5  C   UNL     1      -8.118  30.269  46.265  1.00  0.00     0.051 A 
ATOM      6  C   UNL     1      -7.622  31.419  46.881  1.00  0.00     0.016 A 
ENDROOT
BRANCH   1   7
ATOM      7  C   UNL     1      -5.761  32.674  48.033  1.00  0.00     0.159 C 
ATOM      8  C   UNL     1      -4.338  33.108  47.845  1.00  0.00     0.093 C 
ATOM      9  O   UNL     1      -6.507  33.371  48.774  1.00  0.00    -0.295 OA
ENDBRANCH   1   7
BRANCH   3  10
ATOM     10  O   UNL     1      -5.209  27.992  46.454  1.00  0.00    -0.493 OA
ATOM     11  C   UNL     1      -4.318  27.758  45.368  1.00  0.00     0.278 C 
ENDBRANCH   3  10
BRANCH   4  12
ATOM     12  O   UNL     1      -7.845  28.006  45.503  1.00  0.00    -0.504 OA
ATOM     13  H   UNL     1      -7.752  27.844  44.508  1.00  0.00     0.293 HD
ENDBRANCH   4  12
TORSDOF 3
ENDMDL
MODEL 9
REMARK VINA RESULT:    -3.899     13.973     15.107
REMARK INTER + INTRA:          -4.579
REMARK INTER:                  -4.475
REMARK INTRA:                  -0.104
REMARK UNBOUND:                -0.110
REMARK SMILES COc1cc(C(C)=O)ccc1O
REMARK SMILES IDX 5 1 4 2 3 3 11 4 10 5 9 6 6 7 7 8 8 9 2 10 1 11 12 12
REMARK H PARENT 12 13
REMARK Flexibility Score: inf
ROOT
ATOM      1  C   UNL     1      -8.114  28.467  44.918  1.00  0.00     0.021 A 
ATOM      2  C   UNL     1      -7.678  29.599  45.634  1.00  0.00     0.062 A 
ATOM      3  C   UNL     1      -6.528  29.543  46.446  1.00  0.00     0.161 A 
ATOM      4  C   UNL     1      -5.809  28.338  46.539  1.00  0.00     0.157 A 
ATOM      5  C   UNL     1      -6.239  27.213  45.830  1.00  0.00     0.051 A 
ATOM      6  C   UNL     1      -7.378  27.273  45.026  1.00  0.00     0.016 A 
ENDROOT
BRANCH   1   7
ATOM      7  C   UNL     1      -9.333  28.548  44.066  1.00  0.00     0.159 C 
ATOM      8  C   UNL     1     -10.449  27.554  44.182  1.00  0.00     0.093 C 
ATOM      9  O   UNL     1      -9.443  29.475  43.218  1.00  0.00    -0.295 OA
ENDBRANCH   1   7
BRANCH   3  10
ATOM     10  O   UNL     1      -6.073  30.657  47.171  1.00  0.00    -0.493 OA
ATOM     11  C   UNL     1      -6.818  31.855  47.364  1.00  0.00     0.278 C 
ENDBRANCH   3  10
BRANCH   4  12
ATOM     12  O   UNL     1      -4.666  28.239  47.330  1.00  0.00    -0.504 OA
ATOM     13  H   UNL     1      -3.750  28.508  46.992  1.00  0.00     0.293 HD
ENDBRANCH   4  12
TORSDOF 3
ENDMDL
