MODEL 1
REMARK VINA RESULT:    -5.123      0.000      0.000
REMARK INTER + INTRA:         -10.995
REMARK INTER:                  -9.016
REMARK INTRA:                  -1.979
REMARK UNBOUND:                -1.979
REMARK SMILES CCCCCCC=CCCCCCCCC(=O)[O-]
REMARK SMILES IDX 10 1 11 2 12 3 13 4 14 5 15 6 16 7 17 8 18 9 9 10 8 11 7 12
REMARK SMILES IDX 6 13 5 14 4 15 3 16 2 17 1 18
REMARK H PARENT
REMARK Flexibility Score: inf
ROOT
ATOM      1  C   UNL     1      -0.010  -3.497  -2.727  1.00  0.00     0.004 C 
ENDROOT
BRANCH   1   2
ATOM      2  C   UNL     1      -0.282  -4.292  -1.441  1.00  0.00     0.000 C 
BRANCH   2   3
ATOM      3  C   UNL     1       0.430  -5.655  -1.429  1.00  0.00     0.000 C 
BRANCH   3   4
ATOM      4  C   UNL     1      -0.522  -6.816  -1.099  1.00  0.00     0.000 C 
BRANCH   4   5
ATOM      5  C   UNL     1      -2.001  -6.443  -1.284  1.00  0.00     0.006 C 
BRANCH   5   6
ATOM      6  C   UNL     1      -2.616  -7.211  -2.458  1.00  0.00     0.053 C 
BRANCH   6   7
ATOM      7  C   UNL     1      -2.975  -6.273  -3.567  1.00  0.00     0.041 C 
ATOM      8  O   UNL     1      -3.350  -5.099  -3.308  1.00  0.00    -0.550 OA
ATOM      9  O   UNL     1      -2.944  -6.711  -4.884  1.00  0.00    -0.550 OA
ENDBRANCH   6   7
ENDBRANCH   5   6
ENDBRANCH   4   5
ENDBRANCH   3   4
ENDBRANCH   2   3
ENDBRANCH   1   2
BRANCH   1  10
ATOM     10  C   UNL     1       0.219  -4.402  -3.947  1.00  0.00     0.027 C 
BRANCH  10  11
ATOM     11  C   UNL     1       1.311  -3.857  -4.826  1.00  0.00    -0.031 C 
ATOM     12  C   UNL     1       2.413  -3.293  -4.309  1.00  0.00    -0.031 C 
BRANCH  12  13
ATOM     13  C   UNL     1       3.494  -2.732  -5.191  1.00  0.00     0.027 C 
BRANCH  13  14
ATOM     14  C   UNL     1       4.796  -3.535  -5.049  1.00  0.00     0.004 C 
BRANCH  14  15
ATOM     15  C   UNL     1       4.753  -4.858  -5.842  1.00  0.00     0.000 C 
BRANCH  15  16
ATOM     16  C   UNL     1       4.888  -6.110  -4.957  1.00  0.00    -0.000 C 
BRANCH  16  17
ATOM     17  C   UNL     1       3.576  -6.895  -4.831  1.00  0.00    -0.003 C 
ATOM     18  C   UNL     1       3.219  -7.138  -3.367  1.00  0.00     0.004 C 
ENDBRANCH  16  17
ENDBRANCH  15  16
ENDBRANCH  14  15
ENDBRANCH  13  14
ENDBRANCH  12  13
ENDBRANCH  10  11
ENDBRANCH   1  10
TORSDOF 13
ENDMDL
MODEL 2
REMARK VINA RESULT:    -4.919      2.481      6.084
REMARK INTER + INTRA:         -10.637
REMARK INTER:                  -9.016
REMARK INTRA:                  -1.621
REMARK UNBOUND:                -1.979
REMARK SMILES CCCCCCC=CCCCCCCCC(=O)[O-]
REMARK SMILES IDX 10 1 11 2 12 3 13 4 14 5 15 6 16 7 17 8 18 9 9 10 8 11 7 12
REMARK SMILES IDX 6 13 5 14 4 15 3 16 2 17 1 18
REMARK H PARENT
REMARK Flexibility Score: inf
ROOT
ATOM      1  C   UNL     1       2.422  -3.222  -5.431  1.00  0.00     0.004 C 
ENDROOT
BRANCH   1   2
ATOM      2  C   UNL     1       3.828  -2.834  -4.951  1.00  0.00     0.000 C 
BRANCH   2   3
ATOM      3  C   UNL     1       4.925  -3.724  -5.560  1.00  0.00     0.000 C 
BRANCH   3   4
ATOM      4  C   UNL     1       4.412  -5.124  -5.931  1.00  0.00     0.000 C 
BRANCH   4   5
ATOM      5  C   UNL     1       4.674  -6.165  -4.831  1.00  0.00     0.006 C 
BRANCH   5   6
ATOM      6  C   UNL     1       3.367  -6.580  -4.149  1.00  0.00     0.053 C 
BRANCH   6   7
ATOM      7  C   UNL     1       3.586  -7.783  -3.287  1.00  0.00     0.041 C 
ATOM      8  O   UNL     1       4.455  -7.761  -2.376  1.00  0.00    -0.550 OA
ATOM      9  O   UNL     1       2.864  -8.946  -3.521  1.00  0.00    -0.550 OA
ENDBRANCH   6   7
ENDBRANCH   5   6
ENDBRANCH   4   5
ENDBRANCH   3   4
ENDBRANCH   2   3
ENDBRANCH   1   2
BRANCH   1  10
ATOM     10  C   UNL     1       1.315  -2.722  -4.490  1.00  0.00     0.027 C 
BRANCH  10  11
ATOM     11  C   UNL     1       1.034  -3.726  -3.407  1.00  0.00    -0.031 C 
ATOM     12  C   UNL     1       0.209  -3.447  -2.386  1.00  0.00    -0.031 C 
BRANCH  12  13
ATOM     13  C   UNL     1      -0.055  -4.447  -1.294  1.00  0.00     0.027 C 
BRANCH  13  14
ATOM     14  C   UNL     1       0.540  -5.819  -1.645  1.00  0.00     0.004 C 
BRANCH  14  15
ATOM     15  C   UNL     1      -0.518  -6.940  -1.605  1.00  0.00     0.000 C 
BRANCH  15  16
ATOM     16  C   UNL     1      -1.946  -6.428  -1.346  1.00  0.00    -0.000 C 
BRANCH  16  17
ATOM     17  C   UNL     1      -2.870  -6.595  -2.560  1.00  0.00    -0.003 C 
ATOM     18  C   UNL     1      -2.965  -5.300  -3.361  1.00  0.00     0.004 C 
ENDBRANCH  16  17
ENDBRANCH  15  16
ENDBRANCH  14  15
ENDBRANCH  13  14
ENDBRANCH  12  13
ENDBRANCH  10  11
ENDBRANCH   1  10
TORSDOF 13
ENDMDL
MODEL 3
REMARK VINA RESULT:    -4.910      0.741      1.600
REMARK INTER + INTRA:         -10.620
REMARK INTER:                  -8.899
REMARK INTRA:                  -1.721
REMARK UNBOUND:                -1.979
REMARK SMILES CCCCCCC=CCCCCCCCC(=O)[O-]
REMARK SMILES IDX 10 1 11 2 12 3 13 4 14 5 15 6 16 7 17 8 18 9 9 10 8 11 7 12
REMARK SMILES IDX 6 13 5 14 4 15 3 16 2 17 1 18
REMARK H PARENT
REMARK Flexibility Score: inf
ROOT
ATOM      1  C   UNL     1       0.725  -3.702  -3.754  1.00  0.00     0.004 C 
ENDROOT
BRANCH   1   2
ATOM      2  C   UNL     1      -0.323  -3.227  -2.736  1.00  0.00     0.000 C 
BRANCH   2   3
ATOM      3  C   UNL     1      -0.179  -3.924  -1.373  1.00  0.00     0.000 C 
BRANCH   3   4
ATOM      4  C   UNL     1      -0.163  -5.457  -1.491  1.00  0.00     0.000 C 
BRANCH   4   5
ATOM      5  C   UNL     1      -1.574  -6.062  -1.569  1.00  0.00     0.006 C 
BRANCH   5   6
ATOM      6  C   UNL     1      -1.748  -6.879  -2.852  1.00  0.00     0.053 C 
BRANCH   6   7
ATOM      7  C   UNL     1      -2.770  -6.246  -3.743  1.00  0.00     0.041 C 
ATOM      8  O   UNL     1      -3.064  -6.775  -4.846  1.00  0.00    -0.550 OA
ATOM      9  O   UNL     1      -3.362  -5.044  -3.376  1.00  0.00    -0.550 OA
ENDBRANCH   6   7
ENDBRANCH   5   6
ENDBRANCH   4   5
ENDBRANCH   3   4
ENDBRANCH   2   3
ENDBRANCH   1   2
BRANCH   1  10
ATOM     10  C   UNL     1       1.423  -2.538  -4.475  1.00  0.00     0.027 C 
BRANCH  10  11
ATOM     11  C   UNL     1       2.547  -3.036  -5.340  1.00  0.00    -0.031 C 
ATOM     12  C   UNL     1       3.825  -2.971  -4.938  1.00  0.00    -0.031 C 
BRANCH  12  13
ATOM     13  C   UNL     1       4.949  -3.452  -5.814  1.00  0.00     0.027 C 
BRANCH  13  14
ATOM     14  C   UNL     1       4.742  -4.919  -6.223  1.00  0.00     0.004 C 
BRANCH  14  15
ATOM     15  C   UNL     1       4.993  -5.890  -5.051  1.00  0.00     0.000 C 
BRANCH  15  16
ATOM     16  C   UNL     1       3.895  -6.956  -4.891  1.00  0.00    -0.000 C 
BRANCH  16  17
ATOM     17  C   UNL     1       2.902  -6.627  -3.769  1.00  0.00    -0.003 C 
ATOM     18  C   UNL     1       1.745  -7.622  -3.750  1.00  0.00     0.004 C 
ENDBRANCH  16  17
ENDBRANCH  15  16
ENDBRANCH  14  15
ENDBRANCH  13  14
ENDBRANCH  12  13
ENDBRANCH  10  11
ENDBRANCH   1  10
TORSDOF 13
ENDMDL
MODEL 4
REMARK VINA RESULT:    -4.865      3.266      6.366
REMARK INTER + INTRA:         -10.542
REMARK INTER:                  -8.459
REMARK INTRA:                  -2.083
REMARK UNBOUND:                -1.979
REMARK SMILES CCCCCCC=CCCCCCCCC(=O)[O-]
REMARK SMILES IDX 10 1 11 2 12 3 13 4 14 5 15 6 16 7 17 8 18 9 9 10 8 11 7 12
REMARK SMILES IDX 6 13 5 14 4 15 3 16 2 17 1 18
REMARK H PARENT
REMARK Flexibility Score: inf
ROOT
ATOM      1  C   UNL     1       0.839  -4.057  -6.191  1.00  0.00     0.004 C 
ENDROOT
BRANCH   1   2
ATOM      2  C   UNL     1       0.937  -5.542  -5.811  1.00  0.00     0.000 C 
BRANCH   2   3
ATOM      3  C   UNL     1       2.292  -6.160  -6.193  1.00  0.00     0.000 C 
BRANCH   3   4
ATOM      4  C   UNL     1       3.146  -6.518  -4.966  1.00  0.00     0.000 C 
BRANCH   4   5
ATOM      5  C   UNL     1       4.591  -6.007  -5.077  1.00  0.00     0.006 C 
BRANCH   5   6
ATOM      6  C   UNL     1       4.625  -4.479  -5.174  1.00  0.00     0.053 C 
BRANCH   6   7
ATOM      7  C   UNL     1       5.236  -4.050  -6.470  1.00  0.00     0.041 C 
ATOM      8  O   UNL     1       5.578  -2.850  -6.643  1.00  0.00    -0.550 OA
ATOM      9  O   UNL     1       5.383  -4.963  -7.506  1.00  0.00    -0.550 OA
ENDBRANCH   6   7
ENDBRANCH   5   6
ENDBRANCH   4   5
ENDBRANCH   3   4
ENDBRANCH   2   3
ENDBRANCH   1   2
BRANCH   1  10
ATOM     10  C   UNL     1       1.246  -3.122  -5.041  1.00  0.00     0.027 C 
BRANCH  10  11
ATOM     11  C   UNL     1       0.963  -3.754  -3.707  1.00  0.00    -0.031 C 
ATOM     12  C   UNL     1       0.144  -3.176  -2.815  1.00  0.00    -0.031 C 
BRANCH  12  13
ATOM     13  C   UNL     1      -0.122  -3.801  -1.474  1.00  0.00     0.027 C 
BRANCH  13  14
ATOM     14  C   UNL     1       0.071  -5.325  -1.526  1.00  0.00     0.004 C 
BRANCH  14  15
ATOM     15  C   UNL     1      -1.254  -6.071  -1.788  1.00  0.00     0.000 C 
BRANCH  15  16
ATOM     16  C   UNL     1      -1.341  -6.692  -3.193  1.00  0.00    -0.000 C 
BRANCH  16  17
ATOM     17  C   UNL     1      -2.491  -6.117  -4.030  1.00  0.00    -0.003 C 
ATOM     18  C   UNL     1      -3.116  -4.904  -3.346  1.00  0.00     0.004 C 
ENDBRANCH  16  17
ENDBRANCH  15  16
ENDBRANCH  14  15
ENDBRANCH  13  14
ENDBRANCH  12  13
ENDBRANCH  10  11
ENDBRANCH   1  10
TORSDOF 13
ENDMDL
MODEL 5
REMARK VINA RESULT:    -4.735      1.833      5.954
REMARK INTER + INTRA:         -10.314
REMARK INTER:                  -8.507
REMARK INTRA:                  -1.806
REMARK UNBOUND:                -1.979
REMARK SMILES CCCCCCC=CCCCCCCCC(=O)[O-]
REMARK SMILES IDX 10 1 11 2 12 3 13 4 14 5 15 6 16 7 17 8 18 9 9 10 8 11 7 12
REMARK SMILES IDX 6 13 5 14 4 15 3 16 2 17 1 18
REMARK H PARENT
REMARK Flexibility Score: inf
ROOT
ATOM      1  C   UNL     1       4.652  -6.287  -6.002  1.00  0.00     0.004 C 
ENDROOT
BRANCH   1   2
ATOM      2  C   UNL     1       4.723  -4.795  -6.362  1.00  0.00     0.000 C 
BRANCH   2   3
ATOM      3  C   UNL     1       4.852  -3.895  -5.122  1.00  0.00     0.000 C 
BRANCH   3   4
ATOM      4  C   UNL     1       3.787  -2.786  -5.083  1.00  0.00     0.000 C 
BRANCH   4   5
ATOM      5  C   UNL     1       2.409  -3.301  -4.638  1.00  0.00     0.006 C 
BRANCH   5   6
ATOM      6  C   UNL     1       1.378  -3.142  -5.759  1.00  0.00     0.053 C 
BRANCH   6   7
ATOM      7  C   UNL     1       1.014  -4.476  -6.330  1.00  0.00     0.041 C 
ATOM      8  O   UNL     1       1.545  -4.874  -7.399  1.00  0.00    -0.550 OA
ATOM      9  O   UNL     1       0.051  -5.259  -5.707  1.00  0.00    -0.550 OA
ENDBRANCH   6   7
ENDBRANCH   5   6
ENDBRANCH   4   5
ENDBRANCH   3   4
ENDBRANCH   2   3
ENDBRANCH   1   2
BRANCH   1  10
ATOM     10  C   UNL     1       4.447  -6.526  -4.498  1.00  0.00     0.027 C 
BRANCH  10  11
ATOM     11  C   UNL     1       3.022  -6.904  -4.202  1.00  0.00    -0.031 C 
ATOM     12  C   UNL     1       2.402  -6.488  -3.087  1.00  0.00    -0.031 C 
BRANCH  12  13
ATOM     13  C   UNL     1       0.983  -6.884  -2.785  1.00  0.00     0.027 C 
BRANCH  13  14
ATOM     14  C   UNL     1       0.432  -6.094  -1.588  1.00  0.00     0.004 C 
BRANCH  14  15
ATOM     15  C   UNL     1      -1.083  -5.831  -1.712  1.00  0.00     0.000 C 
BRANCH  15  16
ATOM     16  C   UNL     1      -1.431  -4.677  -2.669  1.00  0.00    -0.000 C 
BRANCH  16  17
ATOM     17  C   UNL     1      -2.780  -4.871  -3.373  1.00  0.00    -0.003 C 
ATOM     18  C   UNL     1      -2.875  -6.254  -4.010  1.00  0.00     0.004 C 
ENDBRANCH  16  17
ENDBRANCH  15  16
ENDBRANCH  14  15
ENDBRANCH  13  14
ENDBRANCH  12  13
ENDBRANCH  10  11
ENDBRANCH   1  10
TORSDOF 13
ENDMDL
MODEL 6
REMARK VINA RESULT:    -4.733      3.599      6.642
REMARK INTER + INTRA:         -10.309
REMARK INTER:                  -8.212
REMARK INTRA:                  -2.098
REMARK UNBOUND:                -1.979
REMARK SMILES CCCCCCC=CCCCCCCCC(=O)[O-]
REMARK SMILES IDX 10 1 11 2 12 3 13 4 14 5 15 6 16 7 17 8 18 9 9 10 8 11 7 12
REMARK SMILES IDX 6 13 5 14 4 15 3 16 2 17 1 18
REMARK H PARENT
REMARK Flexibility Score: inf
ROOT
ATOM      1  C   UNL     1       1.599  -2.632  -5.467  1.00  0.00     0.004 C 
ENDROOT
BRANCH   1   2
ATOM      2  C   UNL     1       2.932  -2.793  -4.721  1.00  0.00     0.000 C 
BRANCH   2   3
ATOM      3  C   UNL     1       4.106  -3.092  -5.669  1.00  0.00     0.000 C 
BRANCH   3   4
ATOM      4  C   UNL     1       5.125  -4.068  -5.058  1.00  0.00     0.000 C 
BRANCH   4   5
ATOM      5  C   UNL     1       4.884  -5.524  -5.489  1.00  0.00     0.006 C 
BRANCH   5   6
ATOM      6  C   UNL     1       4.340  -5.589  -6.919  1.00  0.00     0.053 C 
BRANCH   6   7
ATOM      7  C   UNL     1       5.438  -5.909  -7.883  1.00  0.00     0.041 C 
ATOM      8  O   UNL     1       5.726  -7.108  -8.140  1.00  0.00    -0.550 OA
ATOM      9  O   UNL     1       6.177  -4.885  -8.461  1.00  0.00    -0.550 OA
ENDBRANCH   6   7
ENDBRANCH   5   6
ENDBRANCH   4   5
ENDBRANCH   3   4
ENDBRANCH   2   3
ENDBRANCH   1   2
BRANCH   1  10
ATOM     10  C   UNL     1       1.082  -3.956  -6.051  1.00  0.00     0.027 C 
BRANCH  10  11
ATOM     11  C   UNL     1       0.708  -4.918  -4.959  1.00  0.00    -0.031 C 
ATOM     12  C   UNL     1       1.368  -6.073  -4.782  1.00  0.00    -0.031 C 
BRANCH  12  13
ATOM     13  C   UNL     1       0.979  -7.042  -3.701  1.00  0.00     0.027 C 
BRANCH  13  14
ATOM     14  C   UNL     1       1.253  -6.455  -2.307  1.00  0.00     0.004 C 
BRANCH  14  15
ATOM     15  C   UNL     1      -0.010  -6.442  -1.423  1.00  0.00     0.000 C 
BRANCH  15  16
ATOM     16  C   UNL     1      -0.901  -5.206  -1.640  1.00  0.00    -0.000 C 
BRANCH  16  17
ATOM     17  C   UNL     1      -0.131  -3.885  -1.510  1.00  0.00    -0.003 C 
ATOM     18  C   UNL     1      -0.771  -2.790  -2.359  1.00  0.00     0.004 C 
ENDBRANCH  16  17
ENDBRANCH  15  16
ENDBRANCH  14  15
ENDBRANCH  13  14
ENDBRANCH  12  13
ENDBRANCH  10  11
ENDBRANCH   1  10
TORSDOF 13
ENDMDL
MODEL 7
REMARK VINA RESULT:    -4.733      2.299      6.370
REMARK INTER + INTRA:         -10.309
REMARK INTER:                  -8.580
REMARK INTRA:                  -1.728
REMARK UNBOUND:                -1.979
REMARK SMILES CCCCCCC=CCCCCCCCC(=O)[O-]
REMARK SMILES IDX 10 1 11 2 12 3 13 4 14 5 15 6 16 7 17 8 18 9 9 10 8 11 7 12
REMARK SMILES IDX 6 13 5 14 4 15 3 16 2 17 1 18
REMARK H PARENT
REMARK Flexibility Score: inf
ROOT
ATOM      1  C   UNL     1       1.394  -3.379  -3.633  1.00  0.00     0.004 C 
ENDROOT
BRANCH   1   2
ATOM      2  C   UNL     1       1.428  -2.659  -4.990  1.00  0.00     0.000 C 
BRANCH   2   3
ATOM      3  C   UNL     1       2.817  -2.087  -5.319  1.00  0.00     0.000 C 
BRANCH   3   4
ATOM      4  C   UNL     1       3.960  -2.970  -4.794  1.00  0.00     0.000 C 
BRANCH   4   5
ATOM      5  C   UNL     1       4.671  -3.750  -5.911  1.00  0.00     0.006 C 
BRANCH   5   6
ATOM      6  C   UNL     1       4.776  -5.236  -5.560  1.00  0.00     0.053 C 
BRANCH   6   7
ATOM      7  C   UNL     1       3.414  -5.833  -5.391  1.00  0.00     0.041 C 
ATOM      8  O   UNL     1       3.105  -6.414  -4.318  1.00  0.00    -0.550 OA
ATOM      9  O   UNL     1       2.503  -5.791  -6.439  1.00  0.00    -0.550 OA
ENDBRANCH   6   7
ENDBRANCH   5   6
ENDBRANCH   4   5
ENDBRANCH   3   4
ENDBRANCH   2   3
ENDBRANCH   1   2
BRANCH   1  10
ATOM     10  C   UNL     1       0.127  -3.061  -2.824  1.00  0.00     0.027 C 
BRANCH  10  11
ATOM     11  C   UNL     1      -0.073  -4.062  -1.720  1.00  0.00    -0.031 C 
ATOM     12  C   UNL     1       0.455  -5.294  -1.784  1.00  0.00    -0.031 C 
BRANCH  12  13
ATOM     13  C   UNL     1       0.236  -6.299  -0.687  1.00  0.00     0.027 C 
BRANCH  13  14
ATOM     14  C   UNL     1      -0.801  -7.354  -1.103  1.00  0.00     0.004 C 
BRANCH  14  15
ATOM     15  C   UNL     1      -2.247  -6.845  -0.937  1.00  0.00     0.000 C 
BRANCH  15  16
ATOM     16  C   UNL     1      -3.088  -6.951  -2.221  1.00  0.00    -0.000 C 
BRANCH  16  17
ATOM     17  C   UNL     1      -3.093  -5.654  -3.041  1.00  0.00    -0.003 C 
ATOM     18  C   UNL     1      -2.221  -5.786  -4.286  1.00  0.00     0.004 C 
ENDBRANCH  16  17
ENDBRANCH  15  16
ENDBRANCH  14  15
ENDBRANCH  13  14
ENDBRANCH  12  13
ENDBRANCH  10  11
ENDBRANCH   1  10
TORSDOF 13
ENDMDL
MODEL 8
REMARK VINA RESULT:    -4.705      1.275      2.969
REMARK INTER + INTRA:         -10.259
REMARK INTER:                  -8.438
REMARK INTRA:                  -1.821
REMARK UNBOUND:                -1.979
REMARK SMILES CCCCCCC=CCCCCCCCC(=O)[O-]
REMARK SMILES IDX 10 1 11 2 12 3 13 4 14 5 15 6 16 7 17 8 18 9 9 10 8 11 7 12
REMARK SMILES IDX 6 13 5 14 4 15 3 16 2 17 1 18
REMARK H PARENT
REMARK Flexibility Score: inf
ROOT
ATOM      1  C   UNL     1       0.839  -6.558  -3.056  1.00  0.00     0.004 C 
ENDROOT
BRANCH   1   2
ATOM      2  C   UNL     1       0.733  -5.670  -1.808  1.00  0.00     0.000 C 
BRANCH   2   3
ATOM      3  C   UNL     1      -0.593  -4.893  -1.748  1.00  0.00     0.000 C 
BRANCH   3   4
ATOM      4  C   UNL     1      -1.200  -4.652  -3.139  1.00  0.00     0.000 C 
BRANCH   4   5
ATOM      5  C   UNL     1      -2.653  -5.142  -3.247  1.00  0.00     0.006 C 
BRANCH   5   6
ATOM      6  C   UNL     1      -2.780  -6.252  -4.294  1.00  0.00     0.053 C 
BRANCH   6   7
ATOM      7  C   UNL     1      -2.880  -7.589  -3.630  1.00  0.00     0.041 C 
ATOM      8  O   UNL     1      -2.881  -7.675  -2.374  1.00  0.00    -0.550 OA
ATOM      9  O   UNL     1      -2.921  -8.745  -4.399  1.00  0.00    -0.550 OA
ENDBRANCH   6   7
ENDBRANCH   5   6
ENDBRANCH   4   5
ENDBRANCH   3   4
ENDBRANCH   2   3
ENDBRANCH   1   2
BRANCH   1  10
ATOM     10  C   UNL     1       1.941  -7.623  -2.935  1.00  0.00     0.027 C 
BRANCH  10  11
ATOM     11  C   UNL     1       3.270  -7.077  -3.379  1.00  0.00    -0.031 C 
ATOM     12  C   UNL     1       3.504  -6.753  -4.659  1.00  0.00    -0.031 C 
BRANCH  12  13
ATOM     13  C   UNL     1       4.840  -6.225  -5.103  1.00  0.00     0.027 C 
BRANCH  13  14
ATOM     14  C   UNL     1       4.678  -4.959  -5.958  1.00  0.00     0.004 C 
BRANCH  14  15
ATOM     15  C   UNL     1       4.894  -3.671  -5.137  1.00  0.00     0.000 C 
BRANCH  15  16
ATOM     16  C   UNL     1       3.689  -2.713  -5.169  1.00  0.00    -0.000 C 
BRANCH  16  17
ATOM     17  C   UNL     1       2.472  -3.259  -4.409  1.00  0.00    -0.003 C 
ATOM     18  C   UNL     1       1.343  -3.621  -5.368  1.00  0.00     0.004 C 
ENDBRANCH  16  17
ENDBRANCH  15  16
ENDBRANCH  14  15
ENDBRANCH  13  14
ENDBRANCH  12  13
ENDBRANCH  10  11
ENDBRANCH   1  10
TORSDOF 13
ENDMDL
MODEL 9
REMARK VINA RESULT:    -4.681      1.285      2.946
REMARK INTER + INTRA:         -10.217
REMARK INTER:                  -7.736
REMARK INTRA:                  -2.481
REMARK UNBOUND:                -1.979
REMARK SMILES CCCCCCC=CCCCCCCCC(=O)[O-]
REMARK SMILES IDX 10 1 11 2 12 3 13 4 14 5 15 6 16 7 17 8 18 9 9 10 8 11 7 12
REMARK SMILES IDX 6 13 5 14 4 15 3 16 2 17 1 18
REMARK H PARENT
REMARK Flexibility Score: inf
ROOT
ATOM      1  C   UNL     1       1.835  -2.494  -5.000  1.00  0.00     0.004 C 
ENDROOT
BRANCH   1   2
ATOM      2  C   UNL     1       1.664  -3.090  -3.594  1.00  0.00     0.000 C 
BRANCH   2   3
ATOM      3  C   UNL     1       0.186  -3.255  -3.200  1.00  0.00     0.000 C 
BRANCH   3   4
ATOM      4  C   UNL     1       0.009  -4.017  -1.876  1.00  0.00     0.000 C 
BRANCH   4   5
ATOM      5  C   UNL     1      -1.133  -5.044  -1.930  1.00  0.00     0.006 C 
BRANCH   5   6
ATOM      6  C   UNL     1      -1.820  -5.027  -3.298  1.00  0.00     0.053 C 
BRANCH   6   7
ATOM      7  C   UNL     1      -2.204  -6.413  -3.708  1.00  0.00     0.041 C 
ATOM      8  O   UNL     1      -2.973  -6.594  -4.689  1.00  0.00    -0.550 OA
ATOM      9  O   UNL     1      -1.754  -7.504  -2.976  1.00  0.00    -0.550 OA
ENDBRANCH   6   7
ENDBRANCH   5   6
ENDBRANCH   4   5
ENDBRANCH   3   4
ENDBRANCH   2   3
ENDBRANCH   1   2
BRANCH   1  10
ATOM     10  C   UNL     1       3.309  -2.369  -5.416  1.00  0.00     0.027 C 
BRANCH  10  11
ATOM     11  C   UNL     1       4.095  -3.577  -4.987  1.00  0.00    -0.031 C 
ATOM     12  C   UNL     1       4.151  -4.684  -5.743  1.00  0.00    -0.031 C 
BRANCH  12  13
ATOM     13  C   UNL     1       4.922  -5.897  -5.302  1.00  0.00     0.027 C 
BRANCH  13  14
ATOM     14  C   UNL     1       3.975  -7.055  -4.947  1.00  0.00     0.004 C 
BRANCH  14  15
ATOM     15  C   UNL     1       3.205  -6.797  -3.636  1.00  0.00     0.000 C 
BRANCH  15  16
ATOM     16  C   UNL     1       1.677  -6.800  -3.810  1.00  0.00    -0.000 C 
BRANCH  16  17
ATOM     17  C   UNL     1       1.239  -7.105  -5.249  1.00  0.00    -0.003 C 
ATOM     18  C   UNL     1       0.690  -5.856  -5.932  1.00  0.00     0.004 C 
ENDBRANCH  16  17
ENDBRANCH  15  16
ENDBRANCH  14  15
ENDBRANCH  13  14
ENDBRANCH  12  13
ENDBRANCH  10  11
ENDBRANCH   1  10
TORSDOF 13
ENDMDL
