MODEL 1
REMARK VINA RESULT:    -4.120      0.000      0.000
REMARK INTER + INTRA:          -9.233
REMARK INTER:                  -7.492
REMARK INTRA:                  -1.741
REMARK UNBOUND:                -1.741
REMARK SMILES CCCCCCCCCCCCCCCC(=O)[O-]
REMARK SMILES IDX 9 1 10 2 11 3 12 4 13 5 14 6 15 7 16 8 17 9 18 10 8 11 7 12
REMARK SMILES IDX 6 13 5 14 4 15 3 16 2 17 1 18
REMARK H PARENT
REMARK Flexibility Score: inf
ROOT
ATOM      1  C   UNL     1      -4.485  13.839 -15.653  1.00  0.00     0.000 C 
ENDROOT
BRANCH   1   2
ATOM      2  C   UNL     1      -2.991  13.667 -15.302  1.00  0.00     0.000 C 
BRANCH   2   3
ATOM      3  C   UNL     1      -2.077  14.487 -16.231  1.00  0.00     0.000 C 
BRANCH   3   4
ATOM      4  C   UNL     1      -2.575  14.514 -17.685  1.00  0.00     0.000 C 
BRANCH   4   5
ATOM      5  C   UNL     1      -1.583  15.203 -18.637  1.00  0.00     0.000 C 
BRANCH   5   6
ATOM      6  C   UNL     1      -0.475  15.973 -17.894  1.00  0.00     0.006 C 
BRANCH   6   7
ATOM      7  C   UNL     1       0.603  16.567 -18.818  1.00  0.00     0.053 C 
BRANCH   7   8
ATOM      8  C   UNL     1       0.422  18.036 -19.050  1.00  0.00     0.041 C 
ATOM      9  O   UNL     1       0.809  18.560 -20.128  1.00  0.00    -0.550 OA
ATOM     10  O   UNL     1      -0.191  18.823 -18.084  1.00  0.00    -0.550 OA
ENDBRANCH   7   8
ENDBRANCH   6   7
ENDBRANCH   5   6
ENDBRANCH   4   5
ENDBRANCH   3   4
ENDBRANCH   2   3
ENDBRANCH   1   2
BRANCH   1  11
ATOM     11  C   UNL     1      -5.373  12.697 -15.132  1.00  0.00     0.000 C 
BRANCH  11  12
ATOM     12  C   UNL     1      -6.632  12.482 -15.988  1.00  0.00    -0.000 C 
BRANCH  12  13
ATOM     13  C   UNL     1      -6.427  12.886 -17.458  1.00  0.00    -0.000 C 
BRANCH  13  14
ATOM     14  C   UNL     1      -5.988  11.703 -18.337  1.00  0.00    -0.000 C 
BRANCH  14  15
ATOM     15  C   UNL     1      -4.810  12.060 -19.259  1.00  0.00    -0.000 C 
BRANCH  15  16
ATOM     16  C   UNL     1      -3.506  11.345 -18.862  1.00  0.00    -0.000 C 
BRANCH  16  17
ATOM     17  C   UNL     1      -3.650  10.538 -17.563  1.00  0.00    -0.003 C 
ATOM     18  C   UNL     1      -3.329   9.056 -17.750  1.00  0.00     0.004 C 
ENDBRANCH  16  17
ENDBRANCH  15  16
ENDBRANCH  14  15
ENDBRANCH  13  14
ENDBRANCH  12  13
ENDBRANCH  11  12
ENDBRANCH   1  11
TORSDOF 14
ENDMDL
MODEL 2
REMARK VINA RESULT:    -4.009      1.119      2.054
REMARK INTER + INTRA:          -9.031
REMARK INTER:                  -7.742
REMARK INTRA:                  -1.289
REMARK UNBOUND:                -1.741
REMARK SMILES CCCCCCCCCCCCCCCC(=O)[O-]
REMARK SMILES IDX 9 1 10 2 11 3 12 4 13 5 14 6 15 7 16 8 17 9 18 10 8 11 7 12
REMARK SMILES IDX 6 13 5 14 4 15 3 16 2 17 1 18
REMARK H PARENT
REMARK Flexibility Score: inf
ROOT
ATOM      1  C   UNL     1      -2.703  14.297 -16.399  1.00  0.00     0.000 C 
ENDROOT
BRANCH   1   2
ATOM      2  C   UNL     1      -2.713  13.980 -17.910  1.00  0.00     0.000 C 
BRANCH   2   3
ATOM      3  C   UNL     1      -1.978  15.051 -18.734  1.00  0.00     0.000 C 
BRANCH   3   4
ATOM      4  C   UNL     1      -1.080  15.954 -17.873  1.00  0.00     0.000 C 
BRANCH   4   5
ATOM      5  C   UNL     1       0.364  16.028 -18.399  1.00  0.00     0.000 C 
BRANCH   5   6
ATOM      6  C   UNL     1       0.785  17.456 -18.795  1.00  0.00     0.006 C 
BRANCH   6   7
ATOM      7  C   UNL     1      -0.396  18.409 -19.049  1.00  0.00     0.053 C 
BRANCH   7   8
ATOM      8  C   UNL     1      -0.435  19.554 -18.084  1.00  0.00     0.041 C 
ATOM      9  O   UNL     1      -1.528  20.115 -17.809  1.00  0.00    -0.550 OA
ATOM     10  O   UNL     1       0.734  19.989 -17.473  1.00  0.00    -0.550 OA
ENDBRANCH   7   8
ENDBRANCH   6   7
ENDBRANCH   5   6
ENDBRANCH   4   5
ENDBRANCH   3   4
ENDBRANCH   2   3
ENDBRANCH   1   2
BRANCH   1  11
ATOM     11  C   UNL     1      -3.685  13.437 -15.584  1.00  0.00     0.000 C 
BRANCH  11  12
ATOM     12  C   UNL     1      -5.155  13.697 -15.954  1.00  0.00    -0.000 C 
BRANCH  12  13
ATOM     13  C   UNL     1      -6.096  12.584 -15.464  1.00  0.00    -0.000 C 
BRANCH  13  14
ATOM     14  C   UNL     1      -6.066  11.345 -16.374  1.00  0.00    -0.000 C 
BRANCH  14  15
ATOM     15  C   UNL     1      -5.831  11.704 -17.851  1.00  0.00    -0.000 C 
BRANCH  15  16
ATOM     16  C   UNL     1      -4.541  11.082 -18.416  1.00  0.00    -0.000 C 
BRANCH  16  17
ATOM     17  C   UNL     1      -3.849  10.150 -17.411  1.00  0.00    -0.003 C 
ATOM     18  C   UNL     1      -2.703   9.355 -18.036  1.00  0.00     0.004 C 
ENDBRANCH  16  17
ENDBRANCH  15  16
ENDBRANCH  14  15
ENDBRANCH  13  14
ENDBRANCH  12  13
ENDBRANCH  11  12
ENDBRANCH   1  11
TORSDOF 14
ENDMDL
MODEL 3
REMARK VINA RESULT:    -3.805      3.400      7.346
REMARK INTER + INTRA:          -8.660
REMARK INTER:                  -7.487
REMARK INTRA:                  -1.173
REMARK UNBOUND:                -1.741
REMARK SMILES CCCCCCCCCCCCCCCC(=O)[O-]
REMARK SMILES IDX 9 1 10 2 11 3 12 4 13 5 14 6 15 7 16 8 17 9 18 10 8 11 7 12
REMARK SMILES IDX 6 13 5 14 4 15 3 16 2 17 1 18
REMARK H PARENT
REMARK Flexibility Score: inf
ROOT
ATOM      1  C   UNL     1      -2.709  14.368 -16.305  1.00  0.00     0.000 C 
ENDROOT
BRANCH   1   2
ATOM      2  C   UNL     1      -3.556  13.392 -15.460  1.00  0.00     0.000 C 
BRANCH   2   3
ATOM      3  C   UNL     1      -5.024  13.842 -15.350  1.00  0.00     0.000 C 
BRANCH   3   4
ATOM      4  C   UNL     1      -6.017  12.729 -15.721  1.00  0.00     0.000 C 
BRANCH   4   5
ATOM      5  C   UNL     1      -6.320  12.685 -17.229  1.00  0.00     0.000 C 
BRANCH   5   6
ATOM      6  C   UNL     1      -5.585  11.542 -17.955  1.00  0.00     0.006 C 
BRANCH   6   7
ATOM      7  C   UNL     1      -4.876  10.555 -17.012  1.00  0.00     0.053 C 
BRANCH   7   8
ATOM      8  C   UNL     1      -3.708   9.874 -17.657  1.00  0.00     0.041 C 
ATOM      9  O   UNL     1      -3.481   8.655 -17.434  1.00  0.00    -0.550 OA
ATOM     10  O   UNL     1      -2.880  10.581 -18.520  1.00  0.00    -0.550 OA
ENDBRANCH   7   8
ENDBRANCH   6   7
ENDBRANCH   5   6
ENDBRANCH   4   5
ENDBRANCH   3   4
ENDBRANCH   2   3
ENDBRANCH   1   2
BRANCH   1  11
ATOM     11  C   UNL     1      -2.716  14.042 -17.809  1.00  0.00     0.000 C 
BRANCH  11  12
ATOM     12  C   UNL     1      -1.887  15.037 -18.638  1.00  0.00    -0.000 C 
BRANCH  12  13
ATOM     13  C   UNL     1      -0.887  15.834 -17.784  1.00  0.00    -0.000 C 
BRANCH  13  14
ATOM     14  C   UNL     1       0.431  16.111 -18.527  1.00  0.00    -0.000 C 
BRANCH  14  15
ATOM     15  C   UNL     1       0.654  17.609 -18.795  1.00  0.00    -0.000 C 
BRANCH  15  16
ATOM     16  C   UNL     1      -0.654  18.420 -18.758  1.00  0.00    -0.000 C 
BRANCH  16  17
ATOM     17  C   UNL     1      -0.449  19.844 -18.220  1.00  0.00    -0.003 C 
ATOM     18  C   UNL     1       0.933  20.045 -17.599  1.00  0.00     0.004 C 
ENDBRANCH  16  17
ENDBRANCH  15  16
ENDBRANCH  14  15
ENDBRANCH  13  14
ENDBRANCH  12  13
ENDBRANCH  11  12
ENDBRANCH   1  11
TORSDOF 14
ENDMDL
MODEL 4
REMARK VINA RESULT:    -3.780      3.533      6.370
REMARK INTER + INTRA:          -8.616
REMARK INTER:                  -6.881
REMARK INTRA:                  -1.735
REMARK UNBOUND:                -1.741
REMARK SMILES CCCCCCCCCCCCCCCC(=O)[O-]
REMARK SMILES IDX 9 1 10 2 11 3 12 4 13 5 14 6 15 7 16 8 17 9 18 10 8 11 7 12
REMARK SMILES IDX 6 13 5 14 4 15 3 16 2 17 1 18
REMARK H PARENT
REMARK Flexibility Score: inf
ROOT
ATOM      1  C   UNL     1      -5.348  12.592 -15.173  1.00  0.00     0.000 C 
ENDROOT
BRANCH   1   2
ATOM      2  C   UNL     1      -6.351  11.977 -16.173  1.00  0.00     0.000 C 
BRANCH   2   3
ATOM      3  C   UNL     1      -6.590  12.887 -17.391  1.00  0.00     0.000 C 
BRANCH   3   4
ATOM      4  C   UNL     1      -6.418  12.150 -18.729  1.00  0.00     0.000 C 
BRANCH   4   5
ATOM      5  C   UNL     1      -5.108  12.521 -19.445  1.00  0.00     0.000 C 
BRANCH   5   6
ATOM      6  C   UNL     1      -4.149  11.324 -19.598  1.00  0.00     0.006 C 
BRANCH   6   7
ATOM      7  C   UNL     1      -3.288  11.049 -18.353  1.00  0.00     0.053 C 
BRANCH   7   8
ATOM      8  C   UNL     1      -3.498   9.674 -17.796  1.00  0.00     0.041 C 
ATOM      9  O   UNL     1      -3.079   8.665 -18.422  1.00  0.00    -0.550 OA
ATOM     10  O   UNL     1      -4.141   9.508 -16.576  1.00  0.00    -0.550 OA
ENDBRANCH   7   8
ENDBRANCH   6   7
ENDBRANCH   5   6
ENDBRANCH   4   5
ENDBRANCH   3   4
ENDBRANCH   2   3
ENDBRANCH   1   2
BRANCH   1  11
ATOM     11  C   UNL     1      -4.511  13.737 -15.769  1.00  0.00     0.000 C 
BRANCH  11  12
ATOM     12  C   UNL     1      -3.053  13.728 -15.278  1.00  0.00    -0.000 C 
BRANCH  12  13
ATOM     13  C   UNL     1      -2.102  14.477 -16.226  1.00  0.00    -0.000 C 
BRANCH  13  14
ATOM     14  C   UNL     1      -2.616  14.499 -17.676  1.00  0.00    -0.000 C 
BRANCH  14  15
ATOM     15  C   UNL     1      -1.602  15.121 -18.651  1.00  0.00    -0.000 C 
BRANCH  15  16
ATOM     16  C   UNL     1      -0.513  15.941 -17.933  1.00  0.00    -0.000 C 
BRANCH  16  17
ATOM     17  C   UNL     1       0.773  16.066 -18.764  1.00  0.00    -0.003 C 
ATOM     18  C   UNL     1       1.208  17.517 -18.962  1.00  0.00     0.004 C 
ENDBRANCH  16  17
ENDBRANCH  15  16
ENDBRANCH  14  15
ENDBRANCH  13  14
ENDBRANCH  12  13
ENDBRANCH  11  12
ENDBRANCH   1  11
TORSDOF 14
ENDMDL
MODEL 5
REMARK VINA RESULT:    -3.776      1.105      3.283
REMARK INTER + INTRA:          -8.608
REMARK INTER:                  -7.032
REMARK INTRA:                  -1.576
REMARK UNBOUND:                -1.741
REMARK SMILES CCCCCCCCCCCCCCCC(=O)[O-]
REMARK SMILES IDX 9 1 10 2 11 3 12 4 13 5 14 6 15 7 16 8 17 9 18 10 8 11 7 12
REMARK SMILES IDX 6 13 5 14 4 15 3 16 2 17 1 18
REMARK H PARENT
REMARK Flexibility Score: inf
ROOT
ATOM      1  C   UNL     1      -3.151  10.709 -18.340  1.00  0.00     0.000 C 
ENDROOT
BRANCH   1   2
ATOM      2  C   UNL     1      -4.024  11.398 -19.411  1.00  0.00     0.000 C 
BRANCH   2   3
ATOM      3  C   UNL     1      -3.958  12.933 -19.316  1.00  0.00     0.000 C 
BRANCH   3   4
ATOM      4  C   UNL     1      -2.691  13.432 -18.603  1.00  0.00     0.000 C 
BRANCH   4   5
ATOM      5  C   UNL     1      -2.288  14.852 -19.037  1.00  0.00     0.000 C 
BRANCH   5   6
ATOM      6  C   UNL     1      -1.463  15.594 -17.968  1.00  0.00     0.006 C 
BRANCH   6   7
ATOM      7  C   UNL     1      -0.044  15.976 -18.426  1.00  0.00     0.053 C 
BRANCH   7   8
ATOM      8  C   UNL     1       0.132  17.454 -18.596  1.00  0.00     0.041 C 
ATOM      9  O   UNL     1      -0.863  18.188 -18.836  1.00  0.00    -0.550 OA
ATOM     10  O   UNL     1       1.393  18.024 -18.469  1.00  0.00    -0.550 OA
ENDBRANCH   7   8
ENDBRANCH   6   7
ENDBRANCH   5   6
ENDBRANCH   4   5
ENDBRANCH   3   4
ENDBRANCH   2   3
ENDBRANCH   1   2
BRANCH   1  11
ATOM     11  C   UNL     1      -3.895   9.620 -17.549  1.00  0.00     0.000 C 
BRANCH  11  12
ATOM     12  C   UNL     1      -4.552  10.158 -16.267  1.00  0.00    -0.000 C 
BRANCH  12  13
ATOM     13  C   UNL     1      -6.027  10.541 -16.472  1.00  0.00    -0.000 C 
BRANCH  13  14
ATOM     14  C   UNL     1      -6.215  12.048 -16.717  1.00  0.00    -0.000 C 
BRANCH  14  15
ATOM     15  C   UNL     1      -6.590  12.811 -15.436  1.00  0.00    -0.000 C 
BRANCH  15  16
ATOM     16  C   UNL     1      -5.367  13.431 -14.734  1.00  0.00    -0.000 C 
BRANCH  16  17
ATOM     17  C   UNL     1      -4.211  13.713 -15.705  1.00  0.00    -0.003 C 
ATOM     18  C   UNL     1      -2.849  13.721 -15.014  1.00  0.00     0.004 C 
ENDBRANCH  16  17
ENDBRANCH  15  16
ENDBRANCH  14  15
ENDBRANCH  13  14
ENDBRANCH  12  13
ENDBRANCH  11  12
ENDBRANCH   1  11
TORSDOF 14
ENDMDL
MODEL 6
REMARK VINA RESULT:    -3.773      0.963      2.399
REMARK INTER + INTRA:          -8.601
REMARK INTER:                  -6.551
REMARK INTRA:                  -2.050
REMARK UNBOUND:                -1.741
REMARK SMILES CCCCCCCCCCCCCCCC(=O)[O-]
REMARK SMILES IDX 9 1 10 2 11 3 12 4 13 5 14 6 15 7 16 8 17 9 18 10 8 11 7 12
REMARK SMILES IDX 6 13 5 14 4 15 3 16 2 17 1 18
REMARK H PARENT
REMARK Flexibility Score: inf
ROOT
ATOM      1  C   UNL     1      -5.596  12.710 -15.493  1.00  0.00     0.000 C 
ENDROOT
BRANCH   1   2
ATOM      2  C   UNL     1      -4.638  13.778 -16.064  1.00  0.00     0.000 C 
BRANCH   2   3
ATOM      3  C   UNL     1      -3.238  13.703 -15.429  1.00  0.00     0.000 C 
BRANCH   3   4
ATOM      4  C   UNL     1      -2.167  14.428 -16.259  1.00  0.00     0.000 C 
BRANCH   4   5
ATOM      5  C   UNL     1      -2.645  14.757 -17.684  1.00  0.00     0.000 C 
BRANCH   5   6
ATOM      6  C   UNL     1      -1.497  15.184 -18.618  1.00  0.00     0.006 C 
BRANCH   6   7
ATOM      7  C   UNL     1      -0.414  16.034 -17.931  1.00  0.00     0.053 C 
BRANCH   7   8
ATOM      8  C   UNL     1      -0.101  17.292 -18.682  1.00  0.00     0.041 C 
ATOM      9  O   UNL     1      -0.929  18.240 -18.704  1.00  0.00    -0.550 OA
ATOM     10  O   UNL     1       1.114  17.424 -19.343  1.00  0.00    -0.550 OA
ENDBRANCH   7   8
ENDBRANCH   6   7
ENDBRANCH   5   6
ENDBRANCH   4   5
ENDBRANCH   3   4
ENDBRANCH   2   3
ENDBRANCH   1   2
BRANCH   1  11
ATOM     11  C   UNL     1      -4.944  11.328 -15.325  1.00  0.00     0.000 C 
BRANCH  11  12
ATOM     12  C   UNL     1      -5.186  10.402 -16.529  1.00  0.00    -0.000 C 
BRANCH  12  13
ATOM     13  C   UNL     1      -3.944   9.576 -16.903  1.00  0.00    -0.000 C 
BRANCH  13  14
ATOM     14  C   UNL     1      -3.431   9.894 -18.318  1.00  0.00    -0.000 C 
BRANCH  14  15
ATOM     15  C   UNL     1      -3.401  11.404 -18.609  1.00  0.00    -0.000 C 
BRANCH  15  16
ATOM     16  C   UNL     1      -4.244  11.788 -19.839  1.00  0.00    -0.000 C 
BRANCH  16  17
ATOM     17  C   UNL     1      -5.450  12.667 -19.474  1.00  0.00    -0.003 C 
ATOM     18  C   UNL     1      -6.772  11.903 -19.518  1.00  0.00     0.004 C 
ENDBRANCH  16  17
ENDBRANCH  15  16
ENDBRANCH  14  15
ENDBRANCH  13  14
ENDBRANCH  12  13
ENDBRANCH  11  12
ENDBRANCH   1  11
TORSDOF 14
ENDMDL
MODEL 7
REMARK VINA RESULT:    -3.769      3.539      6.971
REMARK INTER + INTRA:          -8.594
REMARK INTER:                  -7.542
REMARK INTRA:                  -1.052
REMARK UNBOUND:                -1.741
REMARK SMILES CCCCCCCCCCCCCCCC(=O)[O-]
REMARK SMILES IDX 9 1 10 2 11 3 12 4 13 5 14 6 15 7 16 8 17 9 18 10 8 11 7 12
REMARK SMILES IDX 6 13 5 14 4 15 3 16 2 17 1 18
REMARK H PARENT
REMARK Flexibility Score: inf
ROOT
ATOM      1  C   UNL     1      -3.483  13.239 -15.698  1.00  0.00     0.000 C 
ENDROOT
BRANCH   1   2
ATOM      2  C   UNL     1      -4.972  13.531 -15.411  1.00  0.00     0.000 C 
BRANCH   2   3
ATOM      3  C   UNL     1      -5.904  12.501 -16.073  1.00  0.00     0.000 C 
BRANCH   3   4
ATOM      4  C   UNL     1      -6.117  12.766 -17.572  1.00  0.00     0.000 C 
BRANCH   4   5
ATOM      5  C   UNL     1      -5.954  11.497 -18.426  1.00  0.00     0.000 C 
BRANCH   5   6
ATOM      6  C   UNL     1      -4.705  11.537 -19.327  1.00  0.00     0.006 C 
BRANCH   6   7
ATOM      7  C   UNL     1      -3.413  11.079 -18.627  1.00  0.00     0.053 C 
BRANCH   7   8
ATOM      8  C   UNL     1      -3.541   9.723 -18.003  1.00  0.00     0.041 C 
ATOM      9  O   UNL     1      -3.867   9.611 -16.791  1.00  0.00    -0.550 OA
ATOM     10  O   UNL     1      -3.319   8.583 -18.763  1.00  0.00    -0.550 OA
ENDBRANCH   7   8
ENDBRANCH   6   7
ENDBRANCH   5   6
ENDBRANCH   4   5
ENDBRANCH   3   4
ENDBRANCH   2   3
ENDBRANCH   1   2
BRANCH   1  11
ATOM     11  C   UNL     1      -2.774  14.365 -16.471  1.00  0.00     0.000 C 
BRANCH  11  12
ATOM     12  C   UNL     1      -2.728  14.110 -17.987  1.00  0.00    -0.000 C 
BRANCH  12  13
ATOM     13  C   UNL     1      -1.885  15.153 -18.739  1.00  0.00    -0.000 C 
BRANCH  13  14
ATOM     14  C   UNL     1      -0.853  15.842 -17.830  1.00  0.00    -0.000 C 
BRANCH  14  15
ATOM     15  C   UNL     1       0.489  16.085 -18.540  1.00  0.00    -0.000 C 
BRANCH  15  16
ATOM     16  C   UNL     1       0.791  17.581 -18.742  1.00  0.00    -0.000 C 
BRANCH  16  17
ATOM     17  C   UNL     1      -0.481  18.442 -18.759  1.00  0.00    -0.003 C 
ATOM     18  C   UNL     1      -0.363  19.687 -17.882  1.00  0.00     0.004 C 
ENDBRANCH  16  17
ENDBRANCH  15  16
ENDBRANCH  14  15
ENDBRANCH  13  14
ENDBRANCH  12  13
ENDBRANCH  11  12
ENDBRANCH   1  11
TORSDOF 14
ENDMDL
MODEL 8
REMARK VINA RESULT:    -3.750      3.370      7.531
REMARK INTER + INTRA:          -8.560
REMARK INTER:                  -7.402
REMARK INTRA:                  -1.158
REMARK UNBOUND:                -1.741
REMARK SMILES CCCCCCCCCCCCCCCC(=O)[O-]
REMARK SMILES IDX 9 1 10 2 11 3 12 4 13 5 14 6 15 7 16 8 17 9 18 10 8 11 7 12
REMARK SMILES IDX 6 13 5 14 4 15 3 16 2 17 1 18
REMARK H PARENT
REMARK Flexibility Score: inf
ROOT
ATOM      1  C   UNL     1      -2.800  13.165 -18.807  1.00  0.00     0.000 C 
ENDROOT
BRANCH   1   2
ATOM      2  C   UNL     1      -4.280  12.924 -19.176  1.00  0.00     0.000 C 
BRANCH   2   3
ATOM      3  C   UNL     1      -4.655  11.432 -19.128  1.00  0.00     0.000 C 
BRANCH   3   4
ATOM      4  C   UNL     1      -3.534  10.554 -18.550  1.00  0.00     0.000 C 
BRANCH   4   5
ATOM      5  C   UNL     1      -3.844  10.061 -17.126  1.00  0.00     0.000 C 
BRANCH   5   6
ATOM      6  C   UNL     1      -5.162  10.630 -16.567  1.00  0.00     0.006 C 
BRANCH   6   7
ATOM      7  C   UNL     1      -4.970  11.685 -15.463  1.00  0.00     0.053 C 
BRANCH   7   8
ATOM      8  C   UNL     1      -6.021  12.752 -15.492  1.00  0.00     0.041 C 
ATOM      9  O   UNL     1      -6.281  13.415 -14.453  1.00  0.00    -0.550 OA
ATOM     10  O   UNL     1      -6.701  13.028 -16.672  1.00  0.00    -0.550 OA
ENDBRANCH   7   8
ENDBRANCH   6   7
ENDBRANCH   5   6
ENDBRANCH   4   5
ENDBRANCH   3   4
ENDBRANCH   2   3
ENDBRANCH   1   2
BRANCH   1  11
ATOM     11  C   UNL     1      -2.564  14.482 -18.048  1.00  0.00     0.000 C 
BRANCH  11  12
ATOM     12  C   UNL     1      -1.631  15.446 -18.801  1.00  0.00    -0.000 C 
BRANCH  12  13
ATOM     13  C   UNL     1      -0.464  15.943 -17.933  1.00  0.00    -0.000 C 
BRANCH  13  14
ATOM     14  C   UNL     1       0.860  16.017 -18.713  1.00  0.00    -0.000 C 
BRANCH  14  15
ATOM     15  C   UNL     1       1.437  17.441 -18.760  1.00  0.00    -0.000 C 
BRANCH  15  16
ATOM     16  C   UNL     1       0.826  18.294 -19.887  1.00  0.00    -0.000 C 
BRANCH  16  17
ATOM     17  C   UNL     1       0.333  19.661 -19.389  1.00  0.00    -0.003 C 
ATOM     18  C   UNL     1      -0.865  19.548 -18.446  1.00  0.00     0.004 C 
ENDBRANCH  16  17
ENDBRANCH  15  16
ENDBRANCH  14  15
ENDBRANCH  13  14
ENDBRANCH  12  13
ENDBRANCH  11  12
ENDBRANCH   1  11
TORSDOF 14
ENDMDL
MODEL 9
REMARK VINA RESULT:    -3.726      0.805      1.863
REMARK INTER + INTRA:          -8.517
REMARK INTER:                  -6.976
REMARK INTRA:                  -1.540
REMARK UNBOUND:                -1.741
REMARK SMILES CCCCCCCCCCCCCCCC(=O)[O-]
REMARK SMILES IDX 9 1 10 2 11 3 12 4 13 5 14 6 15 7 16 8 17 9 18 10 8 11 7 12
REMARK SMILES IDX 6 13 5 14 4 15 3 16 2 17 1 18
REMARK H PARENT
REMARK Flexibility Score: inf
ROOT
ATOM      1  C   UNL     1      -3.372  13.634 -15.386  1.00  0.00     0.000 C 
ENDROOT
BRANCH   1   2
ATOM      2  C   UNL     1      -2.318  14.290 -16.305  1.00  0.00     0.000 C 
BRANCH   2   3
ATOM      3  C   UNL     1      -2.820  14.438 -17.751  1.00  0.00     0.000 C 
BRANCH   3   4
ATOM      4  C   UNL     1      -1.731  14.940 -18.712  1.00  0.00     0.000 C 
BRANCH   4   5
ATOM      5  C   UNL     1      -0.739  15.900 -18.032  1.00  0.00     0.000 C 
BRANCH   5   6
ATOM      6  C   UNL     1       0.668  15.850 -18.657  1.00  0.00     0.006 C 
BRANCH   6   7
ATOM      7  C   UNL     1       1.447  17.173 -18.553  1.00  0.00     0.053 C 
BRANCH   7   8
ATOM      8  C   UNL     1       0.681  18.340 -19.097  1.00  0.00     0.041 C 
ATOM      9  O   UNL     1       0.799  18.668 -20.308  1.00  0.00    -0.550 OA
ATOM     10  O   UNL     1      -0.178  19.055 -18.272  1.00  0.00    -0.550 OA
ENDBRANCH   7   8
ENDBRANCH   6   7
ENDBRANCH   5   6
ENDBRANCH   4   5
ENDBRANCH   3   4
ENDBRANCH   2   3
ENDBRANCH   1   2
BRANCH   1  11
ATOM     11  C   UNL     1      -4.820  13.870 -15.846  1.00  0.00     0.000 C 
BRANCH  11  12
ATOM     12  C   UNL     1      -5.732  12.657 -15.594  1.00  0.00    -0.000 C 
BRANCH  12  13
ATOM     13  C   UNL     1      -4.943  11.353 -15.394  1.00  0.00    -0.000 C 
BRANCH  13  14
ATOM     14  C   UNL     1      -5.167  10.348 -16.537  1.00  0.00    -0.000 C 
BRANCH  14  15
ATOM     15  C   UNL     1      -3.868  10.008 -17.286  1.00  0.00    -0.000 C 
BRANCH  15  16
ATOM     16  C   UNL     1      -3.400  11.147 -18.210  1.00  0.00    -0.000 C 
BRANCH  16  17
ATOM     17  C   UNL     1      -4.258  11.265 -19.479  1.00  0.00    -0.003 C 
ATOM     18  C   UNL     1      -5.266  12.412 -19.404  1.00  0.00     0.004 C 
ENDBRANCH  16  17
ENDBRANCH  15  16
ENDBRANCH  14  15
ENDBRANCH  13  14
ENDBRANCH  12  13
ENDBRANCH  11  12
ENDBRANCH   1  11
TORSDOF 14
ENDMDL
