MODEL 1
REMARK VINA RESULT:    -3.623      0.000      0.000
REMARK INTER + INTRA:          -5.526
REMARK INTER:                  -5.530
REMARK INTRA:                   0.004
REMARK UNBOUND:                 0.004
REMARK SMILES CC1=CCC[C@@H](C)C(=O)C[C@@H](C(C)C)C(=O)C1
REMARK SMILES IDX 8 1 9 2 6 3 7 4 5 5 4 6 3 7 2 8 1 9 10 11 11 12 15 13 16 14
REMARK SMILES IDX 17 15 12 17 13 18 14 19
REMARK H PARENT
REMARK Flexibility Score: 70.00
ROOT
ATOM      1  C   UNL     1     -11.512   4.594 -15.173  1.00  0.00     0.136 C 
ATOM      2  O   UNL     1     -11.211   5.582 -15.826  1.00  0.00    -0.299 OA
ENDROOT
BRANCH   1   3
ATOM      3  C   UNL     1     -12.278   3.473 -15.856  1.00  0.00     0.053 C 
ATOM      4  C   UNL     1     -12.153   3.627 -17.377  1.00  0.00     0.016 C 
BRANCH   3   5
ATOM      5  C   UNL     1     -13.769   3.405 -15.436  1.00  0.00     0.015 C 
BRANCH   5   6
ATOM      6  C   UNL     1     -14.198   2.137 -14.665  1.00  0.00     0.028 C 
BRANCH   6   7
ATOM      7  C   UNL     1     -15.122   2.342 -13.488  1.00  0.00    -0.028 C 
ATOM      8  C   UNL     1     -14.765   2.321 -12.184  1.00  0.00    -0.070 CG0
ATOM      9  C   UNL     1     -15.798   2.766 -11.176  1.00  0.00     0.039 C 
ATOM     10  G   UNL     1     -13.372   1.943 -11.705  1.00  0.00     0.000 G0
ENDBRANCH   6   7
ENDBRANCH   5   6
ENDBRANCH   3   5
ENDBRANCH   1   3
BRANCH   1  11
ATOM     11  C   UNL     1     -11.251   4.587 -13.680  1.00  0.00     0.087 C 
BRANCH  11  12
ATOM     12  C   UNL     1     -11.366   3.184 -13.019  1.00  0.00     0.066 C 
BRANCH  12  13
ATOM     13  C   UNL     1     -12.366   3.072 -11.868  1.00  0.00     0.140 C 
ATOM     14  O   UNL     1     -12.358   3.957 -11.025  1.00  0.00    -0.299 OA
BRANCH  13  15
ATOM     15  C   UNL     1     -13.364   1.946 -11.697  1.00  0.00     0.106 CG0
ATOM     16  G   UNL     1     -14.741   2.340 -12.207  1.00  0.00     0.000 G0
ENDBRANCH  13  15
ENDBRANCH  12  13
BRANCH  12  17
ATOM     17  C   UNL     1      -9.980   2.619 -12.569  1.00  0.00    -0.006 C 
ATOM     18  C   UNL     1      -9.273   1.827 -13.681  1.00  0.00     0.008 C 
ATOM     19  C   UNL     1      -9.040   3.697 -12.003  1.00  0.00     0.008 C 
ENDBRANCH  12  17
ENDBRANCH  11  12
ENDBRANCH   1  11
TORSDOF 1
ENDMDL
MODEL 2
REMARK VINA RESULT:    -3.570      2.765      4.074
REMARK INTER + INTRA:          -5.444
REMARK INTER:                  -5.451
REMARK INTRA:                   0.007
REMARK UNBOUND:                 0.004
REMARK SMILES CC1=CCC[C@@H](C)C(=O)C[C@@H](C(C)C)C(=O)C1
REMARK SMILES IDX 8 1 9 2 6 3 7 4 5 5 4 6 3 7 2 8 1 9 10 11 11 12 15 13 16 14
REMARK SMILES IDX 17 15 12 17 13 18 14 19
REMARK H PARENT
REMARK Flexibility Score: 70.00
ROOT
ATOM      1  C   UNL     1     -12.786   2.875 -15.175  1.00  0.00     0.136 C 
ATOM      2  O   UNL     1     -13.599   2.071 -14.744  1.00  0.00    -0.299 OA
ENDROOT
BRANCH   1   3
ATOM      3  C   UNL     1     -13.134   3.665 -16.427  1.00  0.00     0.053 C 
ATOM      4  C   UNL     1     -11.906   3.727 -17.344  1.00  0.00     0.016 C 
BRANCH   3   5
ATOM      5  C   UNL     1     -13.662   5.091 -16.125  1.00  0.00     0.015 C 
BRANCH   5   6
ATOM      6  C   UNL     1     -12.700   6.253 -16.459  1.00  0.00     0.028 C 
BRANCH   6   7
ATOM      7  C   UNL     1     -12.404   7.227 -15.343  1.00  0.00    -0.028 C 
ATOM      8  C   UNL     1     -11.415   7.110 -14.428  1.00  0.00    -0.070 CG0
ATOM      9  C   UNL     1     -11.154   8.300 -13.535  1.00  0.00     0.039 C 
ATOM     10  G   UNL     1     -10.525   5.882 -14.312  1.00  0.00     0.000 G0
ENDBRANCH   6   7
ENDBRANCH   5   6
ENDBRANCH   3   5
ENDBRANCH   1   3
BRANCH   1  11
ATOM     11  C   UNL     1     -11.409   2.946 -14.545  1.00  0.00     0.087 C 
BRANCH  11  12
ATOM     12  C   UNL     1     -11.386   3.603 -13.136  1.00  0.00     0.066 C 
BRANCH  12  13
ATOM     13  C   UNL     1     -10.880   5.044 -13.083  1.00  0.00     0.140 C 
ATOM     14  O   UNL     1     -10.767   5.564 -11.983  1.00  0.00    -0.299 OA
BRANCH  13  15
ATOM     15  C   UNL     1     -10.508   5.874 -14.294  1.00  0.00     0.106 CG0
ATOM     16  G   UNL     1     -11.394   7.104 -14.419  1.00  0.00     0.000 G0
ENDBRANCH  13  15
ENDBRANCH  12  13
BRANCH  12  17
ATOM     17  C   UNL     1     -10.619   2.737 -12.084  1.00  0.00    -0.006 C 
ATOM     18  C   UNL     1     -11.560   1.896 -11.208  1.00  0.00     0.008 C 
ATOM     19  C   UNL     1      -9.533   1.844 -12.710  1.00  0.00     0.008 C 
ENDBRANCH  12  17
ENDBRANCH  11  12
ENDBRANCH   1  11
TORSDOF 1
ENDMDL
MODEL 3
REMARK VINA RESULT:    -3.563      2.278      4.162
REMARK INTER + INTRA:          -5.433
REMARK INTER:                  -5.252
REMARK INTRA:                  -0.181
REMARK UNBOUND:                 0.004
REMARK SMILES CC1=CCC[C@@H](C)C(=O)C[C@@H](C(C)C)C(=O)C1
REMARK SMILES IDX 8 1 9 2 6 3 7 4 5 5 4 6 3 7 2 8 1 9 10 11 11 12 15 13 16 14
REMARK SMILES IDX 17 15 12 17 13 18 14 19
REMARK H PARENT
REMARK Flexibility Score: 70.00
ROOT
ATOM      1  C   UNL     1     -12.968   2.632 -13.029  1.00  0.00     0.136 C 
ATOM      2  O   UNL     1     -13.203   2.101 -11.954  1.00  0.00    -0.299 OA
ENDROOT
BRANCH   1   3
ATOM      3  C   UNL     1     -14.071   2.679 -14.075  1.00  0.00     0.053 C 
ATOM      4  C   UNL     1     -15.353   2.076 -13.488  1.00  0.00     0.016 C 
BRANCH   3   5
ATOM      5  C   UNL     1     -13.690   1.967 -15.399  1.00  0.00     0.015 C 
BRANCH   5   6
ATOM      6  C   UNL     1     -13.020   2.851 -16.473  1.00  0.00     0.028 C 
BRANCH   6   7
ATOM      7  C   UNL     1     -13.366   4.321 -16.451  1.00  0.00    -0.028 C 
ATOM      8  C   UNL     1     -12.525   5.331 -16.133  1.00  0.00    -0.070 CG0
ATOM      9  C   UNL     1     -13.007   6.740 -16.386  1.00  0.00     0.039 C 
ATOM     10  G   UNL     1     -11.114   5.110 -15.609  1.00  0.00     0.000 G0
ENDBRANCH   6   7
ENDBRANCH   5   6
ENDBRANCH   3   5
ENDBRANCH   1   3
BRANCH   1  11
ATOM     11  C   UNL     1     -11.556   3.084 -13.339  1.00  0.00     0.087 C 
BRANCH  11  12
ATOM     12  C   UNL     1     -11.261   4.563 -12.961  1.00  0.00     0.066 C 
BRANCH  12  13
ATOM     13  C   UNL     1     -11.005   5.510 -14.134  1.00  0.00     0.140 C 
ATOM     14  O   UNL     1     -10.690   6.662 -13.872  1.00  0.00    -0.299 OA
BRANCH  13  15
ATOM     15  C   UNL     1     -11.111   5.125 -15.595  1.00  0.00     0.106 CG0
ATOM     16  G   UNL     1     -12.523   5.328 -16.122  1.00  0.00     0.000 G0
ENDBRANCH  13  15
ENDBRANCH  12  13
BRANCH  12  17
ATOM     17  C   UNL     1     -10.107   4.696 -11.916  1.00  0.00    -0.006 C 
ATOM     18  C   UNL     1     -10.584   4.463 -10.473  1.00  0.00     0.008 C 
ATOM     19  C   UNL     1      -8.898   3.797 -12.229  1.00  0.00     0.008 C 
ENDBRANCH  12  17
ENDBRANCH  11  12
ENDBRANCH   1  11
TORSDOF 1
ENDMDL
MODEL 4
REMARK VINA RESULT:    -3.422     16.970     18.892
REMARK INTER + INTRA:          -5.219
REMARK INTER:                  -5.247
REMARK INTRA:                   0.028
REMARK UNBOUND:                 0.004
REMARK SMILES CC1=CCC[C@@H](C)C(=O)C[C@@H](C(C)C)C(=O)C1
REMARK SMILES IDX 8 1 9 2 6 3 7 4 5 5 4 6 3 7 2 8 1 9 10 11 11 12 15 13 16 14
REMARK SMILES IDX 17 15 12 17 13 18 14 19
REMARK H PARENT
REMARK Flexibility Score: 70.00
ROOT
ATOM      1  C   UNL     1     -25.578   9.868 -22.929  1.00  0.00     0.136 C 
ATOM      2  O   UNL     1     -24.717  10.732 -22.858  1.00  0.00    -0.299 OA
ENDROOT
BRANCH   1   3
ATOM      3  C   UNL     1     -25.257   8.474 -22.414  1.00  0.00     0.053 C 
ATOM      4  C   UNL     1     -23.751   8.219 -22.545  1.00  0.00     0.016 C 
BRANCH   3   5
ATOM      5  C   UNL     1     -26.063   7.357 -23.126  1.00  0.00     0.015 C 
BRANCH   5   6
ATOM      6  C   UNL     1     -27.265   6.784 -22.342  1.00  0.00     0.028 C 
BRANCH   6   7
ATOM      7  C   UNL     1     -27.513   7.363 -20.969  1.00  0.00    -0.028 C 
ATOM      8  C   UNL     1     -28.364   8.371 -20.674  1.00  0.00    -0.070 CG0
ATOM      9  C   UNL     1     -28.627   8.650 -19.213  1.00  0.00     0.039 C 
ATOM     10  G   UNL     1     -29.109   9.172 -21.731  1.00  0.00     0.000 G0
ENDBRANCH   6   7
ENDBRANCH   5   6
ENDBRANCH   3   5
ENDBRANCH   1   3
BRANCH   1  11
ATOM     11  C   UNL     1     -26.870  10.169 -23.663  1.00  0.00     0.087 C 
BRANCH  11  12
ATOM     12  C   UNL     1     -27.797  11.181 -22.934  1.00  0.00     0.066 C 
BRANCH  12  13
ATOM     13  C   UNL     1     -28.658  10.603 -21.811  1.00  0.00     0.140 C 
ATOM     14  O   UNL     1     -28.995  11.359 -20.911  1.00  0.00    -0.299 OA
BRANCH  13  15
ATOM     15  C   UNL     1     -29.125   9.164 -21.733  1.00  0.00     0.106 CG0
ATOM     16  G   UNL     1     -28.366   8.391 -20.665  1.00  0.00     0.000 G0
ENDBRANCH  13  15
ENDBRANCH  12  13
BRANCH  12  17
ATOM     17  C   UNL     1     -28.697  11.990 -23.924  1.00  0.00    -0.006 C 
ATOM     18  C   UNL     1     -28.726  13.493 -23.605  1.00  0.00     0.008 C 
ATOM     19  C   UNL     1     -28.328  11.765 -25.400  1.00  0.00     0.008 C 
ENDBRANCH  12  17
ENDBRANCH  11  12
ENDBRANCH   1  11
TORSDOF 1
ENDMDL
MODEL 5
REMARK VINA RESULT:    -3.250      2.493      3.826
REMARK INTER + INTRA:          -4.956
REMARK INTER:                  -4.790
REMARK INTRA:                  -0.165
REMARK UNBOUND:                 0.004
REMARK SMILES CC1=CCC[C@@H](C)C(=O)C[C@@H](C(C)C)C(=O)C1
REMARK SMILES IDX 8 1 9 2 6 3 7 4 5 5 4 6 3 7 2 8 1 9 10 11 11 12 15 13 16 14
REMARK SMILES IDX 17 15 12 17 13 18 14 19
REMARK H PARENT
REMARK Flexibility Score: 70.00
ROOT
ATOM      1  C   UNL     1     -13.375   2.448 -12.815  1.00  0.00     0.136 C 
ATOM      2  O   UNL     1     -13.482   2.326 -14.026  1.00  0.00    -0.299 OA
ENDROOT
BRANCH   1   3
ATOM      3  C   UNL     1     -14.561   2.079 -11.937  1.00  0.00     0.053 C 
ATOM      4  C   UNL     1     -15.842   2.096 -12.782  1.00  0.00     0.016 C 
BRANCH   3   5
ATOM      5  C   UNL     1     -14.714   2.996 -10.697  1.00  0.00     0.015 C 
BRANCH   5   6
ATOM      6  C   UNL     1     -14.332   2.367  -9.339  1.00  0.00     0.028 C 
BRANCH   6   7
ATOM      7  C   UNL     1     -13.707   0.993  -9.383  1.00  0.00    -0.028 C 
ATOM      8  C   UNL     1     -12.382   0.723  -9.429  1.00  0.00    -0.070 CG0
ATOM      9  C   UNL     1     -11.963  -0.716  -9.246  1.00  0.00     0.039 C 
ATOM     10  G   UNL     1     -11.316   1.796  -9.582  1.00  0.00     0.000 G0
ENDBRANCH   6   7
ENDBRANCH   5   6
ENDBRANCH   3   5
ENDBRANCH   1   3
BRANCH   1  11
ATOM     11  C   UNL     1     -12.134   3.103 -12.243  1.00  0.00     0.087 C 
BRANCH  11  12
ATOM     12  C   UNL     1     -10.882   2.183 -12.216  1.00  0.00     0.066 C 
BRANCH  12  13
ATOM     13  C   UNL     1     -10.505   1.613 -10.848  1.00  0.00     0.140 C 
ATOM     14  O   UNL     1      -9.479   0.955 -10.773  1.00  0.00    -0.299 OA
BRANCH  13  15
ATOM     15  C   UNL     1     -11.311   1.807  -9.580  1.00  0.00     0.106 CG0
ATOM     16  G   UNL     1     -12.378   0.733  -9.430  1.00  0.00     0.000 G0
ENDBRANCH  13  15
ENDBRANCH  12  13
BRANCH  12  17
ATOM     17  C   UNL     1      -9.630   2.855 -12.869  1.00  0.00    -0.006 C 
ATOM     18  C   UNL     1      -9.307   2.283 -14.258  1.00  0.00     0.008 C 
ATOM     19  C   UNL     1      -9.730   4.389 -12.933  1.00  0.00     0.008 C 
ENDBRANCH  12  17
ENDBRANCH  11  12
ENDBRANCH   1  11
TORSDOF 1
ENDMDL
MODEL 6
REMARK VINA RESULT:    -3.193      2.361      4.385
REMARK INTER + INTRA:          -4.869
REMARK INTER:                  -4.853
REMARK INTRA:                  -0.016
REMARK UNBOUND:                 0.004
REMARK SMILES CC1=CCC[C@@H](C)C(=O)C[C@@H](C(C)C)C(=O)C1
REMARK SMILES IDX 8 1 9 2 6 3 7 4 5 5 4 6 3 7 2 8 1 9 10 11 11 12 15 13 16 14
REMARK SMILES IDX 17 15 12 17 13 18 14 19
REMARK H PARENT
REMARK Flexibility Score: 70.00
ROOT
ATOM      1  C   UNL     1     -11.689   6.215 -14.975  1.00  0.00     0.136 C 
ATOM      2  O   UNL     1     -12.595   6.606 -15.696  1.00  0.00    -0.299 OA
ENDROOT
BRANCH   1   3
ATOM      3  C   UNL     1     -11.231   7.107 -13.831  1.00  0.00     0.053 C 
ATOM      4  C   UNL     1     -11.280   8.573 -14.281  1.00  0.00     0.016 C 
BRANCH   3   5
ATOM      5  C   UNL     1      -9.818   6.746 -13.302  1.00  0.00     0.015 C 
BRANCH   5   6
ATOM      6  C   UNL     1      -9.729   6.390 -11.802  1.00  0.00     0.028 C 
BRANCH   6   7
ATOM      7  C   UNL     1     -10.689   5.338 -11.299  1.00  0.00    -0.028 C 
ATOM      8  C   UNL     1     -10.637   4.016 -11.578  1.00  0.00    -0.070 CG0
ATOM      9  C   UNL     1     -11.559   3.107 -10.800  1.00  0.00     0.039 C 
ATOM     10  G   UNL     1      -9.658   3.410 -12.572  1.00  0.00     0.000 G0
ENDBRANCH   6   7
ENDBRANCH   5   6
ENDBRANCH   3   5
ENDBRANCH   1   3
BRANCH   1  11
ATOM     11  C   UNL     1     -10.956   4.937 -15.332  1.00  0.00     0.087 C 
BRANCH  11  12
ATOM     12  C   UNL     1     -11.457   3.680 -14.568  1.00  0.00     0.066 C 
BRANCH  12  13
ATOM     13  C   UNL     1     -10.387   2.894 -13.809  1.00  0.00     0.140 C 
ATOM     14  O   UNL     1     -10.097   1.784 -14.228  1.00  0.00    -0.299 OA
BRANCH  13  15
ATOM     15  C   UNL     1      -9.662   3.393 -12.576  1.00  0.00     0.106 CG0
ATOM     16  G   UNL     1     -10.626   4.009 -11.574  1.00  0.00     0.000 G0
ENDBRANCH  13  15
ENDBRANCH  12  13
BRANCH  12  17
ATOM     17  C   UNL     1     -12.272   2.709 -15.483  1.00  0.00    -0.006 C 
ATOM     18  C   UNL     1     -13.579   2.234 -14.827  1.00  0.00     0.008 C 
ATOM     19  C   UNL     1     -12.556   3.286 -16.880  1.00  0.00     0.008 C 
ENDBRANCH  12  17
ENDBRANCH  11  12
ENDBRANCH   1  11
TORSDOF 1
ENDMDL
MODEL 7
REMARK VINA RESULT:    -3.186      2.436      4.347
REMARK INTER + INTRA:          -4.859
REMARK INTER:                  -4.597
REMARK INTRA:                  -0.263
REMARK UNBOUND:                 0.004
REMARK SMILES CC1=CCC[C@@H](C)C(=O)C[C@@H](C(C)C)C(=O)C1
REMARK SMILES IDX 8 1 9 2 6 3 7 4 5 5 4 6 3 7 2 8 1 9 10 11 11 12 15 13 16 14
REMARK SMILES IDX 17 15 12 17 13 18 14 19
REMARK H PARENT
REMARK Flexibility Score: 70.00
ROOT
ATOM      1  C   UNL     1     -12.967   2.622 -13.380  1.00  0.00     0.136 C 
ATOM      2  O   UNL     1     -14.079   2.154 -13.573  1.00  0.00    -0.299 OA
ENDROOT
BRANCH   1   3
ATOM      3  C   UNL     1     -12.208   3.210 -14.560  1.00  0.00     0.053 C 
ATOM      4  C   UNL     1     -12.983   2.926 -15.853  1.00  0.00     0.016 C 
BRANCH   3   5
ATOM      5  C   UNL     1     -10.752   2.690 -14.672  1.00  0.00     0.015 C 
BRANCH   5   6
ATOM      6  C   UNL     1      -9.645   3.682 -14.250  1.00  0.00     0.028 C 
BRANCH   6   7
ATOM      7  C   UNL     1     -10.096   5.070 -13.860  1.00  0.00    -0.028 C 
ATOM      8  C   UNL     1     -10.293   5.516 -12.598  1.00  0.00    -0.070 CG0
ATOM      9  C   UNL     1     -10.529   6.997 -12.417  1.00  0.00     0.039 C 
ATOM     10  G   UNL     1     -10.216   4.618 -11.373  1.00  0.00     0.000 G0
ENDBRANCH   6   7
ENDBRANCH   5   6
ENDBRANCH   3   5
ENDBRANCH   1   3
BRANCH   1  11
ATOM     11  C   UNL     1     -12.322   2.464 -12.017  1.00  0.00     0.087 C 
BRANCH  11  12
ATOM     12  C   UNL     1     -12.686   3.586 -11.005  1.00  0.00     0.066 C 
BRANCH  12  13
ATOM     13  C   UNL     1     -11.551   4.543 -10.639  1.00  0.00     0.140 C 
ATOM     14  O   UNL     1     -11.731   5.299  -9.695  1.00  0.00    -0.299 OA
BRANCH  13  15
ATOM     15  C   UNL     1     -10.221   4.622 -11.359  1.00  0.00     0.106 CG0
ATOM     16  G   UNL     1     -10.308   5.507 -12.593  1.00  0.00     0.000 G0
ENDBRANCH  13  15
ENDBRANCH  12  13
BRANCH  12  17
ATOM     17  C   UNL     1     -13.345   3.027  -9.702  1.00  0.00    -0.006 C 
ATOM     18  C   UNL     1     -14.783   2.537  -9.929  1.00  0.00     0.008 C 
ATOM     19  C   UNL     1     -12.508   1.930  -9.022  1.00  0.00     0.008 C 
ENDBRANCH  12  17
ENDBRANCH  11  12
ENDBRANCH   1  11
TORSDOF 1
ENDMDL
MODEL 8
REMARK VINA RESULT:    -3.178     16.319     18.322
REMARK INTER + INTRA:          -4.847
REMARK INTER:                  -4.803
REMARK INTRA:                  -0.044
REMARK UNBOUND:                 0.004
REMARK SMILES CC1=CCC[C@@H](C)C(=O)C[C@@H](C(C)C)C(=O)C1
REMARK SMILES IDX 8 1 9 2 6 3 7 4 5 5 4 6 3 7 2 8 1 9 10 11 11 12 15 13 16 14
REMARK SMILES IDX 17 15 12 17 13 18 14 19
REMARK H PARENT
REMARK Flexibility Score: 70.00
ROOT
ATOM      1  C   UNL     1     -27.471   6.744 -20.551  1.00  0.00     0.136 C 
ATOM      2  O   UNL     1     -28.353   5.968 -20.885  1.00  0.00    -0.299 OA
ENDROOT
BRANCH   1   3
ATOM      3  C   UNL     1     -27.808   7.849 -19.561  1.00  0.00     0.053 C 
ATOM      4  C   UNL     1     -29.043   7.441 -18.748  1.00  0.00     0.016 C 
BRANCH   3   5
ATOM      5  C   UNL     1     -28.029   9.228 -20.234  1.00  0.00     0.015 C 
BRANCH   5   6
ATOM      6  C   UNL     1     -29.122   9.280 -21.325  1.00  0.00     0.028 C 
BRANCH   6   7
ATOM      7  C   UNL     1     -28.761   9.989 -22.609  1.00  0.00    -0.028 C 
ATOM      8  C   UNL     1     -28.362   9.398 -23.759  1.00  0.00    -0.070 CG0
ATOM      9  C   UNL     1     -28.263  10.271 -24.987  1.00  0.00     0.039 C 
ATOM     10  G   UNL     1     -28.086   7.907 -23.879  1.00  0.00     0.000 G0
ENDBRANCH   6   7
ENDBRANCH   5   6
ENDBRANCH   3   5
ENDBRANCH   1   3
BRANCH   1  11
ATOM     11  C   UNL     1     -26.124   6.678 -21.243  1.00  0.00     0.087 C 
BRANCH  11  12
ATOM     12  C   UNL     1     -25.901   7.786 -22.310  1.00  0.00     0.066 C 
BRANCH  12  13
ATOM     13  C   UNL     1     -26.624   7.581 -23.642  1.00  0.00     0.140 C 
ATOM     14  O   UNL     1     -25.975   7.130 -24.574  1.00  0.00    -0.299 OA
BRANCH  13  15
ATOM     15  C   UNL     1     -28.085   7.896 -23.888  1.00  0.00     0.106 CG0
ATOM     16  G   UNL     1     -28.360   9.387 -23.772  1.00  0.00     0.000 G0
ENDBRANCH  13  15
ENDBRANCH  12  13
BRANCH  12  17
ATOM     17  C   UNL     1     -24.385   8.067 -22.573  1.00  0.00    -0.006 C 
ATOM     18  C   UNL     1     -24.020   9.550 -22.403  1.00  0.00     0.008 C 
ATOM     19  C   UNL     1     -23.450   7.187 -21.727  1.00  0.00     0.008 C 
ENDBRANCH  12  17
ENDBRANCH  11  12
ENDBRANCH   1  11
TORSDOF 1
ENDMDL
MODEL 9
REMARK VINA RESULT:    -3.128      2.535      5.838
REMARK INTER + INTRA:          -4.770
REMARK INTER:                  -4.567
REMARK INTRA:                  -0.203
REMARK UNBOUND:                 0.004
REMARK SMILES CC1=CCC[C@@H](C)C(=O)C[C@@H](C(C)C)C(=O)C1
REMARK SMILES IDX 8 1 9 2 6 3 7 4 5 5 4 6 3 7 2 8 1 9 10 11 11 12 15 13 16 14
REMARK SMILES IDX 17 15 12 17 13 18 14 19
REMARK H PARENT
REMARK Flexibility Score: 70.00
ROOT
ATOM      1  C   UNL     1     -11.398   0.878  -9.184  1.00  0.00     0.136 C 
ATOM      2  O   UNL     1     -11.058   0.682  -8.027  1.00  0.00    -0.299 OA
ENDROOT
BRANCH   1   3
ATOM      3  C   UNL     1     -10.578   0.251 -10.301  1.00  0.00     0.053 C 
ATOM      4  C   UNL     1     -10.468  -1.261 -10.062  1.00  0.00     0.016 C 
BRANCH   3   5
ATOM      5  C   UNL     1      -9.171   0.882 -10.457  1.00  0.00     0.015 C 
BRANCH   5   6
ATOM      6  C   UNL     1      -9.133   2.417 -10.628  1.00  0.00     0.028 C 
BRANCH   6   7
ATOM      7  C   UNL     1      -9.314   2.944 -12.032  1.00  0.00    -0.028 C 
ATOM      8  C   UNL     1     -10.400   3.600 -12.501  1.00  0.00    -0.070 CG0
ATOM      9  C   UNL     1     -10.290   4.234 -13.866  1.00  0.00     0.039 C 
ATOM     10  G   UNL     1     -11.678   3.782 -11.695  1.00  0.00     0.000 G0
ENDBRANCH   6   7
ENDBRANCH   5   6
ENDBRANCH   3   5
ENDBRANCH   1   3
BRANCH   1  11
ATOM     11  C   UNL     1     -12.521   1.854  -9.471  1.00  0.00     0.087 C 
BRANCH  11  12
ATOM     12  C   UNL     1     -13.166   1.690 -10.876  1.00  0.00     0.066 C 
BRANCH  12  13
ATOM     13  C   UNL     1     -12.691   2.674 -11.945  1.00  0.00     0.140 C 
ATOM     14  O   UNL     1     -13.140   2.543 -13.074  1.00  0.00    -0.299 OA
BRANCH  13  15
ATOM     15  C   UNL     1     -11.704   3.799 -11.707  1.00  0.00     0.106 CG0
ATOM     16  G   UNL     1     -10.420   3.588 -12.493  1.00  0.00     0.000 G0
ENDBRANCH  13  15
ENDBRANCH  12  13
BRANCH  12  17
ATOM     17  C   UNL     1     -14.728   1.687 -10.820  1.00  0.00    -0.006 C 
ATOM     18  C   UNL     1     -15.285   0.631  -9.853  1.00  0.00     0.008 C 
ATOM     19  C   UNL     1     -15.326   3.068 -10.504  1.00  0.00     0.008 C 
ENDBRANCH  12  17
ENDBRANCH  11  12
ENDBRANCH   1  11
TORSDOF 1
ENDMDL
