MODEL 1
REMARK VINA RESULT:    -5.864      0.000      0.000
REMARK INTER + INTRA:          -7.020
REMARK INTER:                  -6.892
REMARK INTRA:                  -0.128
REMARK UNBOUND:                -0.128
REMARK SMILES O=C([O-])C=Cc1ccc(O)c(O)c1
REMARK SMILES IDX 6 1 13 2 7 3 11 4 8 5 9 6 5 7 4 8 2 9 1 10 3 11 12 12 10 14
REMARK H PARENT 12 13 10 15
REMARK Flexibility Score: inf
ROOT
ATOM      1  C   UNL     1      17.942  19.272 -12.712  1.00  0.00    -0.022 A 
ATOM      2  C   UNL     1      18.420  18.592 -11.574  1.00  0.00     0.058 A 
ATOM      3  C   UNL     1      18.137  18.695 -13.977  1.00  0.00     0.012 A 
ATOM      4  C   UNL     1      19.102  17.373 -11.705  1.00  0.00     0.157 A 
ATOM      5  C   UNL     1      18.816  17.482 -14.110  1.00  0.00     0.051 A 
ATOM      6  C   UNL     1      19.303  16.818 -12.980  1.00  0.00     0.157 A 
ENDROOT
BRANCH   1   7
ATOM      7  C   UNL     1      17.206  20.557 -12.624  1.00  0.00     0.010 C 
ATOM      8  C   UNL     1      15.918  20.655 -12.263  1.00  0.00     0.025 C 
BRANCH   8   9
ATOM      9  C   UNL     1      15.223  21.950 -12.177  1.00  0.00     0.064 C 
ATOM     10  O   UNL     1      15.709  22.988 -12.699  1.00  0.00    -0.545 OA
ATOM     11  O   UNL     1      14.009  22.029 -11.506  1.00  0.00    -0.545 OA
ENDBRANCH   8   9
ENDBRANCH   1   7
BRANCH   4  12
ATOM     12  O   UNL     1      19.575  16.709 -10.575  1.00  0.00    -0.504 OA
ATOM     13  H   UNL     1      20.333  17.084 -10.017  1.00  0.00     0.293 HD
ENDBRANCH   4  12
BRANCH   6  14
ATOM     14  O   UNL     1      19.980  15.610 -13.143  1.00  0.00    -0.504 OA
ATOM     15  H   UNL     1      19.584  14.727 -12.845  1.00  0.00     0.293 HD
ENDBRANCH   6  14
TORSDOF 4
ENDMDL
MODEL 2
REMARK VINA RESULT:    -5.801      1.716      2.085
REMARK INTER + INTRA:          -6.946
REMARK INTER:                  -6.824
REMARK INTRA:                  -0.123
REMARK UNBOUND:                -0.128
REMARK SMILES O=C([O-])C=Cc1ccc(O)c(O)c1
REMARK SMILES IDX 6 1 13 2 7 3 11 4 8 5 9 6 5 7 4 8 2 9 1 10 3 11 12 12 10 14
REMARK H PARENT 12 13 10 15
REMARK Flexibility Score: inf
ROOT
ATOM      1  C   UNL     1      17.107  20.797 -12.801  1.00  0.00    -0.022 A 
ATOM      2  C   UNL     1      17.158  19.784 -11.822  1.00  0.00     0.058 A 
ATOM      3  C   UNL     1      18.159  20.901 -13.724  1.00  0.00     0.012 A 
ATOM      4  C   UNL     1      18.253  18.910 -11.756  1.00  0.00     0.157 A 
ATOM      5  C   UNL     1      19.252  20.032 -13.659  1.00  0.00     0.051 A 
ATOM      6  C   UNL     1      19.306  19.038 -12.677  1.00  0.00     0.157 A 
ENDROOT
BRANCH   1   7
ATOM      7  C   UNL     1      15.966  21.737 -12.918  1.00  0.00     0.010 C 
ATOM      8  C   UNL     1      14.880  21.694 -12.132  1.00  0.00     0.025 C 
BRANCH   8   9
ATOM      9  C   UNL     1      13.770  22.651 -12.271  1.00  0.00     0.064 C 
ATOM     10  O   UNL     1      12.773  22.393 -12.996  1.00  0.00    -0.545 OA
ATOM     11  O   UNL     1      13.823  23.860 -11.590  1.00  0.00    -0.545 OA
ENDBRANCH   8   9
ENDBRANCH   1   7
BRANCH   4  12
ATOM     12  O   UNL     1      18.297  17.914 -10.783  1.00  0.00    -0.504 OA
ATOM     13  H   UNL     1      19.176  17.537 -10.447  1.00  0.00     0.293 HD
ENDBRANCH   4  12
BRANCH   6  14
ATOM     14  O   UNL     1      20.410  18.188 -12.635  1.00  0.00    -0.504 OA
ATOM     15  H   UNL     1      20.879  17.872 -13.475  1.00  0.00     0.293 HD
ENDBRANCH   6  14
TORSDOF 4
ENDMDL
MODEL 3
REMARK VINA RESULT:    -5.775      2.284      6.673
REMARK INTER + INTRA:          -6.916
REMARK INTER:                  -6.794
REMARK INTRA:                  -0.122
REMARK UNBOUND:                -0.128
REMARK SMILES O=C([O-])C=Cc1ccc(O)c(O)c1
REMARK SMILES IDX 6 1 13 2 7 3 11 4 8 5 9 6 5 7 4 8 2 9 1 10 3 11 12 12 10 14
REMARK H PARENT 12 13 10 15
REMARK Flexibility Score: inf
ROOT
ATOM      1  C   UNL     1      15.503  22.081 -12.794  1.00  0.00    -0.022 A 
ATOM      2  C   UNL     1      14.317  21.823 -12.078  1.00  0.00     0.058 A 
ATOM      3  C   UNL     1      15.529  23.155 -13.698  1.00  0.00     0.012 A 
ATOM      4  C   UNL     1      13.174  22.611 -12.283  1.00  0.00     0.157 A 
ATOM      5  C   UNL     1      14.392  23.940 -13.904  1.00  0.00     0.051 A 
ATOM      6  C   UNL     1      13.212  23.672 -13.203  1.00  0.00     0.157 A 
ENDROOT
BRANCH   1   7
ATOM      7  C   UNL     1      16.740  21.284 -12.605  1.00  0.00     0.010 C 
ATOM      8  C   UNL     1      16.748  20.000 -12.216  1.00  0.00     0.025 C 
BRANCH   8   9
ATOM      9  C   UNL     1      17.995  19.237 -12.048  1.00  0.00     0.064 C 
ATOM     10  O   UNL     1      18.859  19.189 -12.964  1.00  0.00    -0.545 OA
ATOM     11  O   UNL     1      18.224  18.557 -10.859  1.00  0.00    -0.545 OA
ENDBRANCH   8   9
ENDBRANCH   1   7
BRANCH   4  12
ATOM     12  O   UNL     1      12.005  22.346 -11.573  1.00  0.00    -0.504 OA
ATOM     13  H   UNL     1      12.005  21.758 -10.749  1.00  0.00     0.293 HD
ENDBRANCH   4  12
BRANCH   6  14
ATOM     14  O   UNL     1      12.092  24.469 -13.431  1.00  0.00    -0.504 OA
ATOM     15  H   UNL     1      11.301  24.144 -13.973  1.00  0.00     0.293 HD
ENDBRANCH   6  14
TORSDOF 4
ENDMDL
MODEL 4
REMARK VINA RESULT:    -5.443     11.118     13.215
REMARK INTER + INTRA:          -6.525
REMARK INTER:                  -6.385
REMARK INTRA:                  -0.141
REMARK UNBOUND:                -0.128
REMARK SMILES O=C([O-])C=Cc1ccc(O)c(O)c1
REMARK SMILES IDX 6 1 13 2 7 3 11 4 8 5 9 6 5 7 4 8 2 9 1 10 3 11 12 12 10 14
REMARK H PARENT 12 13 10 15
REMARK Flexibility Score: inf
ROOT
ATOM      1  C   UNL     1       6.973  15.931  -8.159  1.00  0.00    -0.022 A 
ATOM      2  C   UNL     1       7.086  17.118  -7.406  1.00  0.00     0.058 A 
ATOM      3  C   UNL     1       5.807  15.159  -8.036  1.00  0.00     0.012 A 
ATOM      4  C   UNL     1       6.061  17.506  -6.530  1.00  0.00     0.157 A 
ATOM      5  C   UNL     1       4.787  15.544  -7.163  1.00  0.00     0.051 A 
ATOM      6  C   UNL     1       4.909  16.713  -6.406  1.00  0.00     0.157 A 
ENDROOT
BRANCH   1   7
ATOM      7  C   UNL     1       8.024  15.484  -9.106  1.00  0.00     0.010 C 
ATOM      8  C   UNL     1       8.432  14.212  -9.220  1.00  0.00     0.025 C 
BRANCH   8   9
ATOM      9  C   UNL     1       9.470  13.802 -10.180  1.00  0.00     0.064 C 
ATOM     10  O   UNL     1      10.676  14.126 -10.014  1.00  0.00    -0.545 OA
ATOM     11  O   UNL     1       9.114  13.047 -11.289  1.00  0.00    -0.545 OA
ENDBRANCH   8   9
ENDBRANCH   1   7
BRANCH   4  12
ATOM     12  O   UNL     1       6.183  18.679  -5.786  1.00  0.00    -0.504 OA
ATOM     13  H   UNL     1       5.709  18.796  -4.898  1.00  0.00     0.293 HD
ENDBRANCH   4  12
BRANCH   6  14
ATOM     14  O   UNL     1       3.875  17.071  -5.541  1.00  0.00    -0.504 OA
ATOM     15  H   UNL     1       3.705  16.578  -4.673  1.00  0.00     0.293 HD
ENDBRANCH   6  14
TORSDOF 4
ENDMDL
MODEL 5
REMARK VINA RESULT:    -5.374      0.820      2.051
REMARK INTER + INTRA:          -6.444
REMARK INTER:                  -6.304
REMARK INTRA:                  -0.141
REMARK UNBOUND:                -0.128
REMARK SMILES O=C([O-])C=Cc1ccc(O)c(O)c1
REMARK SMILES IDX 6 1 13 2 7 3 11 4 8 5 9 6 5 7 4 8 2 9 1 10 3 11 12 12 10 14
REMARK H PARENT 12 13 10 15
REMARK Flexibility Score: inf
ROOT
ATOM      1  C   UNL     1      18.137  19.012 -12.506  1.00  0.00    -0.022 A 
ATOM      2  C   UNL     1      18.468  18.041 -13.473  1.00  0.00     0.058 A 
ATOM      3  C   UNL     1      18.727  18.931 -11.235  1.00  0.00     0.012 A 
ATOM      4  C   UNL     1      19.352  16.997 -13.162  1.00  0.00     0.157 A 
ATOM      5  C   UNL     1      19.606  17.891 -10.923  1.00  0.00     0.051 A 
ATOM      6  C   UNL     1      19.919  16.920 -11.879  1.00  0.00     0.157 A 
ENDROOT
BRANCH   1   7
ATOM      7  C   UNL     1      17.218  20.142 -12.791  1.00  0.00     0.010 C 
ATOM      8  C   UNL     1      16.211  20.504 -11.982  1.00  0.00     0.025 C 
BRANCH   8   9
ATOM      9  C   UNL     1      15.324  21.638 -12.291  1.00  0.00     0.064 C 
ATOM     10  O   UNL     1      14.170  21.717 -11.795  1.00  0.00    -0.545 OA
ATOM     11  O   UNL     1      15.769  22.638 -13.146  1.00  0.00    -0.545 OA
ENDBRANCH   8   9
ENDBRANCH   1   7
BRANCH   4  12
ATOM     12  O   UNL     1      19.670  16.039 -14.122  1.00  0.00    -0.504 OA
ATOM     13  H   UNL     1      20.562  15.558 -14.119  1.00  0.00     0.293 HD
ENDBRANCH   4  12
BRANCH   6  14
ATOM     14  O   UNL     1      20.798  15.892 -11.539  1.00  0.00    -0.504 OA
ATOM     15  H   UNL     1      20.646  14.935 -11.834  1.00  0.00     0.293 HD
ENDBRANCH   6  14
TORSDOF 4
ENDMDL
MODEL 6
REMARK VINA RESULT:    -5.337      1.371      6.004
REMARK INTER + INTRA:          -6.401
REMARK INTER:                  -6.270
REMARK INTRA:                  -0.131
REMARK UNBOUND:                -0.128
REMARK SMILES O=C([O-])C=Cc1ccc(O)c(O)c1
REMARK SMILES IDX 6 1 13 2 7 3 11 4 8 5 9 6 5 7 4 8 2 9 1 10 3 11 12 12 10 14
REMARK H PARENT 12 13 10 15
REMARK Flexibility Score: inf
ROOT
ATOM      1  C   UNL     1      16.601  20.342 -12.461  1.00  0.00    -0.022 A 
ATOM      2  C   UNL     1      15.307  20.357 -11.902  1.00  0.00     0.058 A 
ATOM      3  C   UNL     1      17.083  21.504 -13.084  1.00  0.00     0.012 A 
ATOM      4  C   UNL     1      14.506  21.505 -11.988  1.00  0.00     0.157 A 
ATOM      5  C   UNL     1      16.285  22.647 -13.172  1.00  0.00     0.051 A 
ATOM      6  C   UNL     1      14.997  22.654 -12.630  1.00  0.00     0.157 A 
ENDROOT
BRANCH   1   7
ATOM      7  C   UNL     1      17.490  19.157 -12.386  1.00  0.00     0.010 C 
ATOM      8  C   UNL     1      18.386  18.959 -11.408  1.00  0.00     0.025 C 
BRANCH   8   9
ATOM      9  C   UNL     1      19.246  17.765 -11.359  1.00  0.00     0.064 C 
ATOM     10  O   UNL     1      19.328  16.980 -12.341  1.00  0.00    -0.545 OA
ATOM     11  O   UNL     1      19.979  17.498 -10.210  1.00  0.00    -0.545 OA
ENDBRANCH   8   9
ENDBRANCH   1   7
BRANCH   4  12
ATOM     12  O   UNL     1      13.226  21.509 -11.436  1.00  0.00    -0.504 OA
ATOM     13  H   UNL     1      13.070  21.309 -10.455  1.00  0.00     0.293 HD
ENDBRANCH   4  12
BRANCH   6  14
ATOM     14  O   UNL     1      14.222  23.808 -12.735  1.00  0.00    -0.504 OA
ATOM     15  H   UNL     1      13.354  23.922 -12.227  1.00  0.00     0.293 HD
ENDBRANCH   6  14
TORSDOF 4
ENDMDL
MODEL 7
REMARK VINA RESULT:    -5.268     11.163     13.174
REMARK INTER + INTRA:          -6.320
REMARK INTER:                  -6.199
REMARK INTRA:                  -0.121
REMARK UNBOUND:                -0.128
REMARK SMILES O=C([O-])C=Cc1ccc(O)c(O)c1
REMARK SMILES IDX 6 1 13 2 7 3 11 4 8 5 9 6 5 7 4 8 2 9 1 10 3 11 12 12 10 14
REMARK H PARENT 12 13 10 15
REMARK Flexibility Score: inf
ROOT
ATOM      1  C   UNL     1       7.217  15.780  -8.370  1.00  0.00    -0.022 A 
ATOM      2  C   UNL     1       6.049  15.036  -8.103  1.00  0.00     0.058 A 
ATOM      3  C   UNL     1       7.400  17.009  -7.718  1.00  0.00     0.012 A 
ATOM      4  C   UNL     1       5.076  15.528  -7.221  1.00  0.00     0.157 A 
ATOM      5  C   UNL     1       6.431  17.501  -6.840  1.00  0.00     0.051 A 
ATOM      6  C   UNL     1       5.267  16.769  -6.590  1.00  0.00     0.157 A 
ENDROOT
BRANCH   1   7
ATOM      7  C   UNL     1       8.280  15.297  -9.285  1.00  0.00     0.010 C 
ATOM      8  C   UNL     1       8.692  14.022  -9.341  1.00  0.00     0.025 C 
BRANCH   8   9
ATOM      9  C   UNL     1       9.744  13.576 -10.270  1.00  0.00     0.064 C 
ATOM     10  O   UNL     1      10.939  13.946 -10.127  1.00  0.00    -0.545 OA
ATOM     11  O   UNL     1       9.411  12.734 -11.323  1.00  0.00    -0.545 OA
ENDBRANCH   8   9
ENDBRANCH   1   7
BRANCH   4  12
ATOM     12  O   UNL     1       3.923  14.788  -6.967  1.00  0.00    -0.504 OA
ATOM     13  H   UNL     1       3.148  14.769  -7.619  1.00  0.00     0.293 HD
ENDBRANCH   4  12
BRANCH   6  14
ATOM     14  O   UNL     1       4.315  17.286  -5.712  1.00  0.00    -0.504 OA
ATOM     15  H   UNL     1       4.567  17.662  -4.806  1.00  0.00     0.293 HD
ENDBRANCH   6  14
TORSDOF 4
ENDMDL
MODEL 8
REMARK VINA RESULT:    -5.232      1.882      5.808
REMARK INTER + INTRA:          -6.277
REMARK INTER:                  -6.150
REMARK INTRA:                  -0.127
REMARK UNBOUND:                -0.128
REMARK SMILES O=C([O-])C=Cc1ccc(O)c(O)c1
REMARK SMILES IDX 6 1 13 2 7 3 11 4 8 5 9 6 5 7 4 8 2 9 1 10 3 11 12 12 10 14
REMARK H PARENT 12 13 10 15
REMARK Flexibility Score: inf
ROOT
ATOM      1  C   UNL     1      18.977  18.701 -12.141  1.00  0.00    -0.022 A 
ATOM      2  C   UNL     1      17.732  19.018 -11.560  1.00  0.00     0.058 A 
ATOM      3  C   UNL     1      19.438  19.473 -13.219  1.00  0.00     0.012 A 
ATOM      4  C   UNL     1      16.956  20.071 -12.068  1.00  0.00     0.157 A 
ATOM      5  C   UNL     1      18.666  20.521 -13.726  1.00  0.00     0.051 A 
ATOM      6  C   UNL     1      17.425  20.823 -13.158  1.00  0.00     0.157 A 
ENDROOT
BRANCH   1   7
ATOM      7  C   UNL     1      19.839  17.605 -11.633  1.00  0.00     0.010 C 
ATOM      8  C   UNL     1      20.516  17.664 -10.477  1.00  0.00     0.025 C 
BRANCH   8   9
ATOM      9  C   UNL     1      21.354  16.553 -10.000  1.00  0.00     0.064 C 
ATOM     10  O   UNL     1      21.880  15.740 -10.805  1.00  0.00    -0.545 OA
ATOM     11  O   UNL     1      21.568  16.396  -8.636  1.00  0.00    -0.545 OA
ENDBRANCH   8   9
ENDBRANCH   1   7
BRANCH   4  12
ATOM     12  O   UNL     1      15.724  20.375 -11.491  1.00  0.00    -0.504 OA
ATOM     13  H   UNL     1      15.643  21.042 -10.733  1.00  0.00     0.293 HD
ENDBRANCH   4  12
BRANCH   6  14
ATOM     14  O   UNL     1      16.674  21.873 -13.687  1.00  0.00    -0.504 OA
ATOM     15  H   UNL     1      17.061  22.800 -13.813  1.00  0.00     0.293 HD
ENDBRANCH   6  14
TORSDOF 4
ENDMDL
MODEL 9
REMARK VINA RESULT:    -5.143      1.331      1.706
REMARK INTER + INTRA:          -6.173
REMARK INTER:                  -6.036
REMARK INTRA:                  -0.137
REMARK UNBOUND:                -0.128
REMARK SMILES O=C([O-])C=Cc1ccc(O)c(O)c1
REMARK SMILES IDX 6 1 13 2 7 3 11 4 8 5 9 6 5 7 4 8 2 9 1 10 3 11 12 12 10 14
REMARK H PARENT 12 13 10 15
REMARK Flexibility Score: inf
ROOT
ATOM      1  C   UNL     1      18.499  18.795 -11.854  1.00  0.00    -0.022 A 
ATOM      2  C   UNL     1      19.159  18.460 -10.654  1.00  0.00     0.058 A 
ATOM      3  C   UNL     1      18.971  18.254 -13.060  1.00  0.00     0.012 A 
ATOM      4  C   UNL     1      20.284  17.621 -10.669  1.00  0.00     0.157 A 
ATOM      5  C   UNL     1      20.092  17.420 -13.077  1.00  0.00     0.051 A 
ATOM      6  C   UNL     1      20.754  17.103 -11.887  1.00  0.00     0.157 A 
ENDROOT
BRANCH   1   7
ATOM      7  C   UNL     1      17.300  19.667 -11.889  1.00  0.00     0.010 C 
ATOM      8  C   UNL     1      17.229  20.807 -12.591  1.00  0.00     0.025 C 
BRANCH   8   9
ATOM      9  C   UNL     1      16.017  21.644 -12.611  1.00  0.00     0.064 C 
ATOM     10  O   UNL     1      15.040  21.394 -11.857  1.00  0.00    -0.545 OA
ATOM     11  O   UNL     1      15.950  22.727 -13.478  1.00  0.00    -0.545 OA
ENDBRANCH   8   9
ENDBRANCH   1   7
BRANCH   4  12
ATOM     12  O   UNL     1      20.933  17.299  -9.478  1.00  0.00    -0.504 OA
ATOM     13  H   UNL     1      20.476  16.760  -8.752  1.00  0.00     0.293 HD
ENDBRANCH   4  12
BRANCH   6  14
ATOM     14  O   UNL     1      21.871  16.270 -11.934  1.00  0.00    -0.504 OA
ATOM     15  H   UNL     1      21.802  15.268 -11.805  1.00  0.00     0.293 HD
ENDBRANCH   6  14
TORSDOF 4
ENDMDL
