MODEL 1
REMARK VINA RESULT:    -5.722      0.000      0.000
REMARK INTER + INTRA:          -6.284
REMARK INTER:                  -6.224
REMARK INTRA:                  -0.060
REMARK UNBOUND:                -0.060
REMARK SMILES COc1cc2ccc(=O)oc2cc1O
REMARK SMILES IDX 3 1 13 2 12 3 11 4 5 5 4 6 6 7 7 8 8 9 9 10 10 11 2 12 1 13
REMARK SMILES IDX 14 14
REMARK H PARENT 14 15
REMARK Flexibility Score: inf
ROOT
ATOM      1  C   UNL     1      10.316 -16.011   6.087  1.00  0.00     0.161 A 
ATOM      2  C   UNL     1       9.735 -16.688   7.177  1.00  0.00     0.161 A 
ATOM      3  C   UNL     1       8.418 -16.411   7.559  1.00  0.00     0.098 A 
ATOM      4  C   UNL     1       7.665 -15.462   6.865  1.00  0.00     0.142 A 
ATOM      5  C   UNL     1       8.236 -14.778   5.772  1.00  0.00     0.022 A 
ATOM      6  C   UNL     1       9.554 -15.053   5.386  1.00  0.00     0.062 A 
ATOM      7  C   UNL     1       7.456 -13.833   5.096  1.00  0.00     0.019 A 
ATOM      8  C   UNL     1       6.149 -13.595   5.519  1.00  0.00     0.094 A 
ATOM      9  C   UNL     1       5.649 -14.311   6.612  1.00  0.00     0.336 A 
ATOM     10  O   UNL     1       4.472 -14.112   7.008  1.00  0.00    -0.246 OA
ATOM     11  O   UNL     1       6.412 -15.206   7.236  1.00  0.00    -0.423 OA
ENDROOT
BRANCH   1  12
ATOM     12  O   UNL     1      11.638 -16.314   5.730  1.00  0.00    -0.493 OA
ATOM     13  C   UNL     1      12.784 -15.607   6.195  1.00  0.00     0.278 C 
ENDBRANCH   1  12
BRANCH   2  14
ATOM     14  O   UNL     1      10.454 -17.643   7.895  1.00  0.00    -0.504 OA
ATOM     15  H   UNL     1       9.999 -18.346   8.466  1.00  0.00     0.293 HD
ENDBRANCH   2  14
TORSDOF 2
ENDMDL
MODEL 2
REMARK VINA RESULT:    -5.590      1.262      5.415
REMARK INTER + INTRA:          -6.141
REMARK INTER:                  -6.077
REMARK INTRA:                  -0.064
REMARK UNBOUND:                -0.060
REMARK SMILES COc1cc2ccc(=O)oc2cc1O
REMARK SMILES IDX 3 1 13 2 12 3 11 4 5 5 4 6 6 7 7 8 8 9 9 10 10 11 2 12 1 13
REMARK SMILES IDX 14 14
REMARK H PARENT 14 15
REMARK Flexibility Score: inf
ROOT
ATOM      1  C   UNL     1       6.257 -14.728   6.535  1.00  0.00     0.161 A 
ATOM      2  C   UNL     1       6.794 -14.005   5.452  1.00  0.00     0.161 A 
ATOM      3  C   UNL     1       8.126 -14.197   5.066  1.00  0.00     0.098 A 
ATOM      4  C   UNL     1       8.935 -15.108   5.748  1.00  0.00     0.142 A 
ATOM      5  C   UNL     1       8.408 -15.837   6.834  1.00  0.00     0.022 A 
ATOM      6  C   UNL     1       7.075 -15.648   7.223  1.00  0.00     0.062 A 
ATOM      7  C   UNL     1       9.243 -16.742   7.498  1.00  0.00     0.019 A 
ATOM      8  C   UNL     1      10.562 -16.895   7.072  1.00  0.00     0.094 A 
ATOM      9  C   UNL     1      11.017 -16.137   5.988  1.00  0.00     0.336 A 
ATOM     10  O   UNL     1      12.203 -16.261   5.588  1.00  0.00    -0.246 OA
ATOM     11  O   UNL     1      10.200 -15.285   5.374  1.00  0.00    -0.423 OA
ENDROOT
BRANCH   1  12
ATOM     12  O   UNL     1       4.918 -14.512   6.895  1.00  0.00    -0.493 OA
ATOM     13  C   UNL     1       3.855 -15.428   6.649  1.00  0.00     0.278 C 
ENDBRANCH   1  12
BRANCH   2  14
ATOM     14  O   UNL     1       6.018 -13.087   4.745  1.00  0.00    -0.504 OA
ATOM     15  H   UNL     1       6.025 -13.040   3.733  1.00  0.00     0.293 HD
ENDBRANCH   2  14
TORSDOF 2
ENDMDL
MODEL 3
REMARK VINA RESULT:    -5.498      2.270      4.015
REMARK INTER + INTRA:          -6.041
REMARK INTER:                  -5.997
REMARK INTRA:                  -0.043
REMARK UNBOUND:                -0.060
REMARK SMILES COc1cc2ccc(=O)oc2cc1O
REMARK SMILES IDX 3 1 13 2 12 3 11 4 5 5 4 6 6 7 7 8 8 9 9 10 10 11 2 12 1 13
REMARK SMILES IDX 14 14
REMARK H PARENT 14 15
REMARK Flexibility Score: inf
ROOT
ATOM      1  C   UNL     1       7.423 -14.967   6.414  1.00  0.00     0.161 A 
ATOM      2  C   UNL     1       6.639 -14.030   5.714  1.00  0.00     0.161 A 
ATOM      3  C   UNL     1       5.340 -13.736   6.144  1.00  0.00     0.098 A 
ATOM      4  C   UNL     1       4.807 -14.368   7.269  1.00  0.00     0.142 A 
ATOM      5  C   UNL     1       5.583 -15.308   7.977  1.00  0.00     0.022 A 
ATOM      6  C   UNL     1       6.884 -15.605   7.551  1.00  0.00     0.062 A 
ATOM      7  C   UNL     1       5.022 -15.925   9.101  1.00  0.00     0.019 A 
ATOM      8  C   UNL     1       3.723 -15.596   9.485  1.00  0.00     0.094 A 
ATOM      9  C   UNL     1       3.012 -14.654   8.734  1.00  0.00     0.336 A 
ATOM     10  O   UNL     1       1.839 -14.342   9.065  1.00  0.00    -0.246 OA
ATOM     11  O   UNL     1       3.571 -14.082   7.671  1.00  0.00    -0.423 OA
ENDROOT
BRANCH   1  12
ATOM     12  O   UNL     1       8.722 -15.238   5.957  1.00  0.00    -0.493 OA
ATOM     13  C   UNL     1       9.592 -16.215   6.522  1.00  0.00     0.278 C 
ENDBRANCH   1  12
BRANCH   2  14
ATOM     14  O   UNL     1       7.135 -13.377   4.586  1.00  0.00    -0.504 OA
ATOM     15  H   UNL     1       6.588 -13.267   3.741  1.00  0.00     0.293 HD
ENDBRANCH   2  14
TORSDOF 2
ENDMDL
MODEL 4
REMARK VINA RESULT:    -5.251      2.393      5.602
REMARK INTER + INTRA:          -5.771
REMARK INTER:                  -5.730
REMARK INTRA:                  -0.041
REMARK UNBOUND:                -0.060
REMARK SMILES COc1cc2ccc(=O)oc2cc1O
REMARK SMILES IDX 3 1 13 2 12 3 11 4 5 5 4 6 6 7 7 8 8 9 9 10 10 11 2 12 1 13
REMARK SMILES IDX 14 14
REMARK H PARENT 14 15
REMARK Flexibility Score: inf
ROOT
ATOM      1  C   UNL     1       3.866 -14.805   8.439  1.00  0.00     0.161 A 
ATOM      2  C   UNL     1       4.798 -15.630   9.099  1.00  0.00     0.161 A 
ATOM      3  C   UNL     1       6.080 -15.811   8.567  1.00  0.00     0.098 A 
ATOM      4  C   UNL     1       6.449 -15.176   7.380  1.00  0.00     0.142 A 
ATOM      5  C   UNL     1       5.524 -14.348   6.711  1.00  0.00     0.022 A 
ATOM      6  C   UNL     1       4.239 -14.164   7.240  1.00  0.00     0.062 A 
ATOM      7  C   UNL     1       5.922 -13.726   5.523  1.00  0.00     0.019 A 
ATOM      8  C   UNL     1       7.212 -13.941   5.037  1.00  0.00     0.094 A 
ATOM      9  C   UNL     1       8.076 -14.775   5.754  1.00  0.00     0.336 A 
ATOM     10  O   UNL     1       9.243 -14.982   5.332  1.00  0.00    -0.246 OA
ATOM     11  O   UNL     1       7.671 -15.354   6.882  1.00  0.00    -0.423 OA
ENDROOT
BRANCH   1  12
ATOM     12  O   UNL     1       2.589 -14.644   9.000  1.00  0.00    -0.493 OA
ATOM     13  C   UNL     1       1.483 -15.506   8.753  1.00  0.00     0.278 C 
ENDBRANCH   1  12
BRANCH   2  14
ATOM     14  O   UNL     1       4.468 -16.280  10.288  1.00  0.00    -0.504 OA
ATOM     15  H   UNL     1       5.141 -16.422  11.031  1.00  0.00     0.293 HD
ENDBRANCH   2  14
TORSDOF 2
ENDMDL
MODEL 5
REMARK VINA RESULT:    -5.055      2.321      3.451
REMARK INTER + INTRA:          -5.558
REMARK INTER:                  -5.552
REMARK INTRA:                  -0.006
REMARK UNBOUND:                -0.060
REMARK SMILES COc1cc2ccc(=O)oc2cc1O
REMARK SMILES IDX 3 1 13 2 12 3 11 4 5 5 4 6 6 7 7 8 8 9 9 10 10 11 2 12 1 13
REMARK SMILES IDX 14 14
REMARK H PARENT 14 15
REMARK Flexibility Score: inf
ROOT
ATOM      1  C   UNL     1       7.250 -14.713   5.935  1.00  0.00     0.161 A 
ATOM      2  C   UNL     1       7.759 -15.662   6.843  1.00  0.00     0.161 A 
ATOM      3  C   UNL     1       6.975 -16.103   7.915  1.00  0.00     0.098 A 
ATOM      4  C   UNL     1       5.682 -15.608   8.097  1.00  0.00     0.142 A 
ATOM      5  C   UNL     1       5.163 -14.657   7.194  1.00  0.00     0.022 A 
ATOM      6  C   UNL     1       5.944 -14.213   6.119  1.00  0.00     0.062 A 
ATOM      7  C   UNL     1       3.865 -14.179   7.402  1.00  0.00     0.019 A 
ATOM      8  C   UNL     1       3.127 -14.651   8.487  1.00  0.00     0.094 A 
ATOM      9  C   UNL     1       3.707 -15.595   9.342  1.00  0.00     0.336 A 
ATOM     10  O   UNL     1       3.058 -16.034  10.326  1.00  0.00    -0.246 OA
ATOM     11  O   UNL     1       4.944 -16.033   9.120  1.00  0.00    -0.423 OA
ENDROOT
BRANCH   1  12
ATOM     12  O   UNL     1       8.062 -14.293   4.870  1.00  0.00    -0.493 OA
ATOM     13  C   UNL     1       9.084 -13.306   4.972  1.00  0.00     0.278 C 
ENDBRANCH   1  12
BRANCH   2  14
ATOM     14  O   UNL     1       9.044 -16.181   6.695  1.00  0.00    -0.504 OA
ATOM     15  H   UNL     1       9.462 -16.339   5.785  1.00  0.00     0.293 HD
ENDBRANCH   2  14
TORSDOF 2
ENDMDL
MODEL 6
REMARK VINA RESULT:    -4.895      2.030      5.589
REMARK INTER + INTRA:          -5.384
REMARK INTER:                  -5.324
REMARK INTRA:                  -0.060
REMARK UNBOUND:                -0.060
REMARK SMILES COc1cc2ccc(=O)oc2cc1O
REMARK SMILES IDX 3 1 13 2 12 3 11 4 5 5 4 6 6 7 7 8 8 9 9 10 10 11 2 12 1 13
REMARK SMILES IDX 14 14
REMARK H PARENT 14 15
REMARK Flexibility Score: inf
ROOT
ATOM      1  C   UNL     1       5.189 -15.301   8.825  1.00  0.00     0.161 A 
ATOM      2  C   UNL     1       5.019 -14.416   7.742  1.00  0.00     0.161 A 
ATOM      3  C   UNL     1       6.008 -14.308   6.758  1.00  0.00     0.098 A 
ATOM      4  C   UNL     1       7.173 -15.074   6.838  1.00  0.00     0.142 A 
ATOM      5  C   UNL     1       7.353 -15.963   7.918  1.00  0.00     0.022 A 
ATOM      6  C   UNL     1       6.365 -16.075   8.906  1.00  0.00     0.062 A 
ATOM      7  C   UNL     1       8.530 -16.717   7.972  1.00  0.00     0.019 A 
ATOM      8  C   UNL     1       9.484 -16.570   6.965  1.00  0.00     0.094 A 
ATOM      9  C   UNL     1       9.237 -15.669   5.924  1.00  0.00     0.336 A 
ATOM     10  O   UNL     1      10.084 -15.522   5.005  1.00  0.00    -0.246 OA
ATOM     11  O   UNL     1       8.108 -14.965   5.897  1.00  0.00    -0.423 OA
ENDROOT
BRANCH   1  12
ATOM     12  O   UNL     1       4.177 -15.386   9.794  1.00  0.00    -0.493 OA
ATOM     13  C   UNL     1       3.390 -16.546  10.043  1.00  0.00     0.278 C 
ENDBRANCH   1  12
BRANCH   2  14
ATOM     14  O   UNL     1       3.870 -13.635   7.626  1.00  0.00    -0.504 OA
ATOM     15  H   UNL     1       3.675 -12.864   8.254  1.00  0.00     0.293 HD
ENDBRANCH   2  14
TORSDOF 2
ENDMDL
MODEL 7
REMARK VINA RESULT:    -4.864      3.490      6.627
REMARK INTER + INTRA:          -5.351
REMARK INTER:                  -5.308
REMARK INTRA:                  -0.043
REMARK UNBOUND:                -0.060
REMARK SMILES COc1cc2ccc(=O)oc2cc1O
REMARK SMILES IDX 3 1 13 2 12 3 11 4 5 5 4 6 6 7 7 8 8 9 9 10 10 11 2 12 1 13
REMARK SMILES IDX 14 14
REMARK H PARENT 14 15
REMARK Flexibility Score: inf
ROOT
ATOM      1  C   UNL     1       2.470 -15.560   9.445  1.00  0.00     0.161 A 
ATOM      2  C   UNL     1       3.410 -16.475   9.957  1.00  0.00     0.161 A 
ATOM      3  C   UNL     1       4.701 -16.537   9.418  1.00  0.00     0.098 A 
ATOM      4  C   UNL     1       5.070 -15.693   8.369  1.00  0.00     0.142 A 
ATOM      5  C   UNL     1       4.136 -14.774   7.848  1.00  0.00     0.022 A 
ATOM      6  C   UNL     1       2.844 -14.708   8.384  1.00  0.00     0.062 A 
ATOM      7  C   UNL     1       4.536 -13.942   6.796  1.00  0.00     0.019 A 
ATOM      8  C   UNL     1       5.833 -14.045   6.296  1.00  0.00     0.094 A 
ATOM      9  C   UNL     1       6.705 -14.981   6.862  1.00  0.00     0.336 A 
ATOM     10  O   UNL     1       7.880 -15.090   6.426  1.00  0.00    -0.246 OA
ATOM     11  O   UNL     1       6.300 -15.759   7.863  1.00  0.00    -0.423 OA
ENDROOT
BRANCH   1  12
ATOM     12  O   UNL     1       1.186 -15.524  10.008  1.00  0.00    -0.493 OA
ATOM     13  C   UNL     1       0.111 -14.725   9.523  1.00  0.00     0.278 C 
ENDBRANCH   1  12
BRANCH   2  14
ATOM     14  O   UNL     1       3.080 -17.333  11.006  1.00  0.00    -0.504 OA
ATOM     15  H   UNL     1       3.603 -18.180  11.195  1.00  0.00     0.293 HD
ENDBRANCH   2  14
TORSDOF 2
ENDMDL
MODEL 8
REMARK VINA RESULT:    -4.805      1.266      2.340
REMARK INTER + INTRA:          -5.287
REMARK INTER:                  -5.222
REMARK INTRA:                  -0.065
REMARK UNBOUND:                -0.060
REMARK SMILES COc1cc2ccc(=O)oc2cc1O
REMARK SMILES IDX 3 1 13 2 12 3 11 4 5 5 4 6 6 7 7 8 8 9 9 10 10 11 2 12 1 13
REMARK SMILES IDX 14 14
REMARK H PARENT 14 15
REMARK Flexibility Score: inf
ROOT
ATOM      1  C   UNL     1      10.125 -16.650   7.382  1.00  0.00     0.161 A 
ATOM      2  C   UNL     1      10.472 -16.021   6.170  1.00  0.00     0.161 A 
ATOM      3  C   UNL     1       9.536 -15.231   5.493  1.00  0.00     0.098 A 
ATOM      4  C   UNL     1       8.251 -15.057   6.010  1.00  0.00     0.142 A 
ATOM      5  C   UNL     1       7.893 -15.682   7.222  1.00  0.00     0.022 A 
ATOM      6  C   UNL     1       8.827 -16.474   7.904  1.00  0.00     0.062 A 
ATOM      7  C   UNL     1       6.598 -15.489   7.716  1.00  0.00     0.019 A 
ATOM      8  C   UNL     1       5.705 -14.692   7.001  1.00  0.00     0.094 A 
ATOM      9  C   UNL     1       6.129 -14.104   5.805  1.00  0.00     0.336 A 
ATOM     10  O   UNL     1       5.339 -13.380   5.145  1.00  0.00    -0.246 OA
ATOM     11  O   UNL     1       7.367 -14.303   5.359  1.00  0.00    -0.423 OA
ENDROOT
BRANCH   1  12
ATOM     12  O   UNL     1      11.088 -17.435   8.035  1.00  0.00    -0.493 OA
ATOM     13  C   UNL     1      11.844 -17.013   9.166  1.00  0.00     0.278 C 
ENDBRANCH   1  12
BRANCH   2  14
ATOM     14  O   UNL     1      11.745 -16.170   5.621  1.00  0.00    -0.504 OA
ATOM     15  H   UNL     1      12.488 -15.502   5.792  1.00  0.00     0.293 HD
ENDBRANCH   2  14
TORSDOF 2
ENDMDL
MODEL 9
REMARK VINA RESULT:    -4.735      1.633      5.640
REMARK INTER + INTRA:          -5.210
REMARK INTER:                  -5.145
REMARK INTRA:                  -0.065
REMARK UNBOUND:                -0.060
REMARK SMILES COc1cc2ccc(=O)oc2cc1O
REMARK SMILES IDX 3 1 13 2 12 3 11 4 5 5 4 6 6 7 7 8 8 9 9 10 10 11 2 12 1 13
REMARK SMILES IDX 14 14
REMARK H PARENT 14 15
REMARK Flexibility Score: inf
ROOT
ATOM      1  C   UNL     1       8.204 -15.833   6.927  1.00  0.00     0.161 A 
ATOM      2  C   UNL     1       8.685 -15.351   5.694  1.00  0.00     0.161 A 
ATOM      3  C   UNL     1      10.057 -15.374   5.415  1.00  0.00     0.098 A 
ATOM      4  C   UNL     1      10.962 -15.874   6.353  1.00  0.00     0.142 A 
ATOM      5  C   UNL     1      10.491 -16.359   7.590  1.00  0.00     0.022 A 
ATOM      6  C   UNL     1       9.119 -16.338   7.874  1.00  0.00     0.062 A 
ATOM      7  C   UNL     1      11.421 -16.854   8.510  1.00  0.00     0.019 A 
ATOM      8  C   UNL     1      12.777 -16.853   8.181  1.00  0.00     0.094 A 
ATOM      9  C   UNL     1      13.171 -16.356   6.934  1.00  0.00     0.336 A 
ATOM     10  O   UNL     1      14.388 -16.347   6.617  1.00  0.00    -0.246 OA
ATOM     11  O   UNL     1      12.264 -15.892   6.078  1.00  0.00    -0.423 OA
ENDROOT
BRANCH   1  12
ATOM     12  O   UNL     1       6.824 -15.796   7.175  1.00  0.00    -0.493 OA
ATOM     13  C   UNL     1       6.162 -14.779   7.921  1.00  0.00     0.278 C 
ENDBRANCH   1  12
BRANCH   2  14
ATOM     14  O   UNL     1       7.814 -14.845   4.731  1.00  0.00    -0.504 OA
ATOM     15  H   UNL     1       7.343 -15.441   4.061  1.00  0.00     0.293 HD
ENDBRANCH   2  14
TORSDOF 2
ENDMDL
