MODEL 1
REMARK VINA RESULT:    24.083      0.000      0.000
REMARK INTER + INTRA:          31.987
REMARK INTER:                  32.530
REMARK INTRA:                  -0.543
REMARK UNBOUND:                -0.543
REMARK SMILES O=c1c(-c2ccc(O)cc2)coc2c([C@@H]3O[C@@H](CO)[C@@H](O)[C@@H](O)[C@@H]3O)c(O)ccc12
REMARK SMILES IDX 3 1 11 2 12 3 13 4 30 5 2 6 1 7 29 8 28 9 26 10 14 11 4 12
REMARK SMILES IDX 5 13 6 14 7 15 10 16 9 17 8 18 15 20 24 21 16 22 22 23 17 24
REMARK SMILES IDX 20 25 25 26 23 28 18 30 19 31 21 33 27 35
REMARK H PARENT 8 19 25 27 23 29 19 32 21 34 27 36
REMARK Flexibility Score: inf
ROOT
ATOM      1  C   UNL     1     -17.735 -22.983 -45.897  1.00  0.00     0.065 A 
ATOM      2  C   UNL     1     -18.110 -23.674 -44.737  1.00  0.00     0.208 A 
ATOM      3  O   UNL     1     -19.385 -23.778 -44.388  1.00  0.00    -0.463 OA
ATOM      4  C   UNL     1     -20.383 -23.248 -45.091  1.00  0.00     0.147 A 
ATOM      5  C   UNL     1     -20.093 -22.536 -46.279  1.00  0.00     0.066 A 
ATOM      6  C   UNL     1     -18.749 -22.398 -46.674  1.00  0.00     0.200 A 
ATOM      7  O   UNL     1     -18.455 -21.738 -47.710  1.00  0.00    -0.288 OA
ATOM      8  C   UNL     1     -21.140 -21.988 -47.032  1.00  0.00     0.020 A 
ATOM      9  C   UNL     1     -22.460 -22.170 -46.633  1.00  0.00     0.047 A 
ATOM     10  C   UNL     1     -22.769 -22.886 -45.473  1.00  0.00     0.125 A 
ATOM     11  C   UNL     1     -21.727 -23.399 -44.652  1.00  0.00     0.069 A 
ENDROOT
BRANCH   1  12
ATOM     12  C   UNL     1     -16.301 -22.885 -46.269  1.00  0.00    -0.011 A 
ATOM     13  C   UNL     1     -15.494 -24.035 -46.294  1.00  0.00     0.013 A 
ATOM     14  C   UNL     1     -14.145 -23.946 -46.652  1.00  0.00     0.047 A 
ATOM     15  C   UNL     1     -13.588 -22.711 -46.996  1.00  0.00     0.115 A 
ATOM     16  C   UNL     1     -15.736 -21.646 -46.623  1.00  0.00     0.013 A 
ATOM     17  C   UNL     1     -14.388 -21.561 -46.982  1.00  0.00     0.047 A 
BRANCH  15  18
ATOM     18  O   UNL     1     -12.244 -22.638 -47.351  1.00  0.00    -0.508 OA
ATOM     19  H   UNL     1     -11.879 -23.141 -48.153  1.00  0.00     0.293 HD
ENDBRANCH  15  18
ENDBRANCH   1  12
BRANCH  11  20
ATOM     20  C   UNL     1     -22.051 -24.142 -43.356  1.00  0.00     0.188 C 
ATOM     21  C   UNL     1     -21.874 -23.198 -42.139  1.00  0.00     0.179 C 
ATOM     22  O   UNL     1     -23.364 -24.683 -43.405  1.00  0.00    -0.362 OA
ATOM     23  C   UNL     1     -22.212 -23.924 -40.815  1.00  0.00     0.177 C 
ATOM     24  C   UNL     1     -23.660 -25.512 -42.288  1.00  0.00     0.176 C 
ATOM     25  C   UNL     1     -23.519 -24.747 -40.941  1.00  0.00     0.177 C 
BRANCH  21  26
ATOM     26  O   UNL     1     -22.644 -22.027 -42.277  1.00  0.00    -0.387 OA
ATOM     27  H   UNL     1     -22.968 -21.765 -41.378  1.00  0.00     0.211 HD
ENDBRANCH  21  26
BRANCH  23  28
ATOM     28  O   UNL     1     -21.137 -24.706 -40.343  1.00  0.00    -0.387 OA
ATOM     29  H   UNL     1     -20.296 -24.193 -40.433  1.00  0.00     0.211 HD
ENDBRANCH  23  28
BRANCH  24  30
ATOM     30  C   UNL     1     -22.932 -26.876 -42.374  1.00  0.00     0.191 C 
BRANCH  30  31
ATOM     31  O   UNL     1     -23.436 -27.773 -41.419  1.00  0.00    -0.394 OA
ATOM     32  H   UNL     1     -22.734 -28.458 -41.271  1.00  0.00     0.210 HD
ENDBRANCH  30  31
ENDBRANCH  24  30
BRANCH  25  33
ATOM     33  O   UNL     1     -23.733 -25.581 -39.827  1.00  0.00    -0.388 OA
ATOM     34  H   UNL     1     -22.855 -25.782 -39.414  1.00  0.00     0.211 HD
ENDBRANCH  25  33
ENDBRANCH  11  20
BRANCH  10  35
ATOM     35  O   UNL     1     -24.125 -23.071 -45.186  1.00  0.00    -0.507 OA
ATOM     36  H   UNL     1     -24.750 -22.338 -44.882  1.00  0.00     0.293 HD
ENDBRANCH  10  35
TORSDOF 9
ENDMDL
MODEL 2
REMARK VINA RESULT:    25.242      2.612      8.147
REMARK INTER + INTRA:          33.553
REMARK INTER:                  33.132
REMARK INTRA:                   0.422
REMARK UNBOUND:                -0.543
REMARK SMILES O=c1c(-c2ccc(O)cc2)coc2c([C@@H]3O[C@@H](CO)[C@@H](O)[C@@H](O)[C@@H]3O)c(O)ccc12
REMARK SMILES IDX 3 1 11 2 12 3 13 4 30 5 2 6 1 7 29 8 28 9 26 10 14 11 4 12
REMARK SMILES IDX 5 13 6 14 7 15 10 16 9 17 8 18 15 20 24 21 16 22 22 23 17 24
REMARK SMILES IDX 20 25 25 26 23 28 18 30 19 31 21 33 27 35
REMARK H PARENT 8 19 25 27 23 29 19 32 21 34 27 36
REMARK Flexibility Score: inf
ROOT
ATOM      1  C   UNL     1     -22.608 -24.669 -40.428  1.00  0.00     0.065 A 
ATOM      2  C   UNL     1     -21.853 -23.781 -41.205  1.00  0.00     0.208 A 
ATOM      3  O   UNL     1     -21.863 -23.856 -42.530  1.00  0.00    -0.463 OA
ATOM      4  C   UNL     1     -22.571 -24.756 -43.208  1.00  0.00     0.147 A 
ATOM      5  C   UNL     1     -23.365 -25.689 -42.500  1.00  0.00     0.066 A 
ATOM      6  C   UNL     1     -23.371 -25.645 -41.094  1.00  0.00     0.200 A 
ATOM      7  O   UNL     1     -24.041 -26.486 -40.433  1.00  0.00    -0.288 OA
ATOM      8  C   UNL     1     -24.125 -26.630 -43.208  1.00  0.00     0.020 A 
ATOM      9  C   UNL     1     -24.125 -26.627 -44.599  1.00  0.00     0.047 A 
ATOM     10  C   UNL     1     -23.362 -25.703 -45.317  1.00  0.00     0.125 A 
ATOM     11  C   UNL     1     -22.530 -24.776 -44.629  1.00  0.00     0.069 A 
ENDROOT
BRANCH   1  12
ATOM     12  C   UNL     1     -22.585 -24.562 -38.948  1.00  0.00    -0.011 A 
ATOM     13  C   UNL     1     -21.361 -24.460 -38.263  1.00  0.00     0.013 A 
ATOM     14  C   UNL     1     -21.337 -24.352 -36.870  1.00  0.00     0.047 A 
ATOM     15  C   UNL     1     -22.531 -24.336 -36.144  1.00  0.00     0.115 A 
ATOM     16  C   UNL     1     -23.783 -24.539 -38.212  1.00  0.00     0.013 A 
ATOM     17  C   UNL     1     -23.755 -24.429 -36.819  1.00  0.00     0.047 A 
BRANCH  15  18
ATOM     18  O   UNL     1     -22.491 -24.226 -34.756  1.00  0.00    -0.508 OA
ATOM     19  H   UNL     1     -22.113 -24.967 -34.177  1.00  0.00     0.293 HD
ENDBRANCH  15  18
ENDBRANCH   1  12
BRANCH  11  20
ATOM     20  C   UNL     1     -21.654 -23.792 -45.403  1.00  0.00     0.188 C 
ATOM     21  C   UNL     1     -22.223 -22.356 -45.279  1.00  0.00     0.179 C 
ATOM     22  O   UNL     1     -20.308 -23.857 -44.951  1.00  0.00    -0.362 OA
ATOM     23  C   UNL     1     -21.342 -21.337 -46.043  1.00  0.00     0.177 C 
ATOM     24  C   UNL     1     -19.423 -23.073 -45.741  1.00  0.00     0.176 C 
ATOM     25  C   UNL     1     -19.837 -21.573 -45.765  1.00  0.00     0.177 C 
BRANCH  21  26
ATOM     26  O   UNL     1     -22.372 -21.974 -43.932  1.00  0.00    -0.387 OA
ATOM     27  H   UNL     1     -21.761 -21.212 -43.758  1.00  0.00     0.211 HD
ENDBRANCH  21  26
BRANCH  23  28
ATOM     28  O   UNL     1     -21.629 -21.313 -47.424  1.00  0.00    -0.387 OA
ATOM     29  H   UNL     1     -22.066 -20.455 -47.652  1.00  0.00     0.211 HD
ENDBRANCH  23  28
BRANCH  24  30
ATOM     30  C   UNL     1     -19.150 -23.724 -47.118  1.00  0.00     0.191 C 
BRANCH  30  31
ATOM     31  O   UNL     1     -18.098 -23.072 -47.780  1.00  0.00    -0.394 OA
ATOM     32  H   UNL     1     -18.343 -22.111 -47.829  1.00  0.00     0.210 HD
ENDBRANCH  30  31
ENDBRANCH  24  30
BRANCH  25  33
ATOM     33  O   UNL     1     -19.012 -20.804 -46.608  1.00  0.00    -0.388 OA
ATOM     34  H   UNL     1     -19.410 -19.901 -46.694  1.00  0.00     0.211 HD
ENDBRANCH  25  33
ENDBRANCH  11  20
BRANCH  10  35
ATOM     35  O   UNL     1     -23.473 -25.735 -46.710  1.00  0.00    -0.507 OA
ATOM     36  H   UNL     1     -22.727 -25.498 -47.349  1.00  0.00     0.293 HD
ENDBRANCH  10  35
TORSDOF 9
ENDMDL
