MODEL 1
REMARK VINA RESULT:    -5.097      0.000      0.000
REMARK INTER + INTRA:         -11.146
REMARK INTER:                  -9.865
REMARK INTRA:                  -1.281
REMARK UNBOUND:                -1.281
REMARK SMILES CCCCCCCCCCCCCCCCCC(=O)[O-]
REMARK SMILES IDX 10 1 11 2 12 3 13 4 14 5 15 6 16 7 17 8 18 9 19 10 20 11
REMARK SMILES IDX 9 12 8 13 7 14 6 15 5 16 4 17 3 18 2 19 1 20
REMARK H PARENT
REMARK Flexibility Score: inf
ROOT
ATOM      1  C   UNL     1       4.651  46.832  65.178  1.00  0.00     0.000 C 
ENDROOT
BRANCH   1   2
ATOM      2  C   UNL     1       4.625  48.205  64.491  1.00  0.00     0.000 C 
BRANCH   2   3
ATOM      3  C   UNL     1       4.024  49.311  65.378  1.00  0.00     0.000 C 
BRANCH   3   4
ATOM      4  C   UNL     1       5.032  50.055  66.277  1.00  0.00     0.000 C 
BRANCH   4   5
ATOM      5  C   UNL     1       6.483  49.925  65.786  1.00  0.00     0.000 C 
BRANCH   5   6
ATOM      6  C   UNL     1       7.447  49.432  66.883  1.00  0.00     0.000 C 
BRANCH   6   7
ATOM      7  C   UNL     1       7.773  47.925  66.847  1.00  0.00     0.006 C 
BRANCH   7   8
ATOM      8  C   UNL     1       8.205  47.333  68.196  1.00  0.00     0.053 C 
BRANCH   8   9
ATOM      9  C   UNL     1       7.085  47.327  69.190  1.00  0.00     0.041 C 
ATOM     10  O   UNL     1       7.306  47.601  70.399  1.00  0.00    -0.550 OA
ATOM     11  O   UNL     1       5.788  47.056  68.772  1.00  0.00    -0.550 OA
ENDBRANCH   8   9
ENDBRANCH   7   8
ENDBRANCH   6   7
ENDBRANCH   5   6
ENDBRANCH   4   5
ENDBRANCH   3   4
ENDBRANCH   2   3
ENDBRANCH   1   2
BRANCH   1  12
ATOM     12  C   UNL     1       3.802  45.813  64.401  1.00  0.00     0.000 C 
BRANCH  12  13
ATOM     13  C   UNL     1       3.005  44.882  65.328  1.00  0.00    -0.000 C 
BRANCH  13  14
ATOM     14  C   UNL     1       3.360  43.398  65.127  1.00  0.00    -0.000 C 
BRANCH  14  15
ATOM     15  C   UNL     1       3.333  42.603  66.449  1.00  0.00    -0.000 C 
BRANCH  15  16
ATOM     16  C   UNL     1       3.036  43.470  67.689  1.00  0.00    -0.000 C 
BRANCH  16  17
ATOM     17  C   UNL     1       3.285  42.776  69.039  1.00  0.00    -0.000 C 
BRANCH  17  18
ATOM     18  C   UNL     1       2.261  43.111  70.140  1.00  0.00    -0.000 C 
BRANCH  18  19
ATOM     19  C   UNL     1       2.895  43.679  71.428  1.00  0.00    -0.003 C 
ATOM     20  C   UNL     1       4.409  43.865  71.304  1.00  0.00     0.004 C 
ENDBRANCH  18  19
ENDBRANCH  17  18
ENDBRANCH  16  17
ENDBRANCH  15  16
ENDBRANCH  14  15
ENDBRANCH  13  14
ENDBRANCH  12  13
ENDBRANCH   1  12
TORSDOF 16
ENDMDL
MODEL 2
REMARK VINA RESULT:    -5.074     11.453     13.563
REMARK INTER + INTRA:         -11.100
REMARK INTER:                  -8.813
REMARK INTRA:                  -2.288
REMARK UNBOUND:                -1.281
REMARK SMILES CCCCCCCCCCCCCCCCCC(=O)[O-]
REMARK SMILES IDX 10 1 11 2 12 3 13 4 14 5 15 6 16 7 17 8 18 9 19 10 20 11
REMARK SMILES IDX 9 12 8 13 7 14 6 15 5 16 4 17 3 18 2 19 1 20
REMARK H PARENT
REMARK Flexibility Score: inf
ROOT
ATOM      1  C   UNL     1       4.968  35.136  70.459  1.00  0.00     0.000 C 
ENDROOT
BRANCH   1   2
ATOM      2  C   UNL     1       5.359  33.715  70.891  1.00  0.00     0.000 C 
BRANCH   2   3
ATOM      3  C   UNL     1       6.873  33.549  71.118  1.00  0.00     0.000 C 
BRANCH   3   4
ATOM      4  C   UNL     1       7.398  32.103  71.028  1.00  0.00     0.000 C 
BRANCH   4   5
ATOM      5  C   UNL     1       6.979  31.392  69.730  1.00  0.00     0.000 C 
BRANCH   5   6
ATOM      6  C   UNL     1       8.138  31.241  68.727  1.00  0.00     0.000 C 
BRANCH   6   7
ATOM      7  C   UNL     1       7.915  31.907  67.354  1.00  0.00     0.006 C 
BRANCH   7   8
ATOM      8  C   UNL     1       6.679  32.816  67.278  1.00  0.00     0.053 C 
BRANCH   8   9
ATOM      9  C   UNL     1       7.053  34.264  67.203  1.00  0.00     0.041 C 
ATOM     10  O   UNL     1       6.588  34.994  66.287  1.00  0.00    -0.550 OA
ATOM     11  O   UNL     1       7.885  34.818  68.168  1.00  0.00    -0.550 OA
ENDBRANCH   8   9
ENDBRANCH   7   8
ENDBRANCH   6   7
ENDBRANCH   5   6
ENDBRANCH   4   5
ENDBRANCH   3   4
ENDBRANCH   2   3
ENDBRANCH   1   2
BRANCH   1  12
ATOM     12  C   UNL     1       3.914  35.729  71.407  1.00  0.00     0.000 C 
BRANCH  12  13
ATOM     13  C   UNL     1       2.478  35.385  70.980  1.00  0.00    -0.000 C 
BRANCH  13  14
ATOM     14  C   UNL     1       2.056  36.105  69.686  1.00  0.00    -0.000 C 
BRANCH  14  15
ATOM     15  C   UNL     1       0.527  36.097  69.482  1.00  0.00    -0.000 C 
BRANCH  15  16
ATOM     16  C   UNL     1       0.052  35.129  68.379  1.00  0.00    -0.000 C 
BRANCH  16  17
ATOM     17  C   UNL     1       1.159  34.636  67.431  1.00  0.00    -0.000 C 
BRANCH  17  18
ATOM     18  C   UNL     1       1.558  33.159  67.611  1.00  0.00    -0.000 C 
BRANCH  18  19
ATOM     19  C   UNL     1       3.041  32.957  67.991  1.00  0.00    -0.003 C 
ATOM     20  C   UNL     1       3.304  31.587  68.619  1.00  0.00     0.004 C 
ENDBRANCH  18  19
ENDBRANCH  17  18
ENDBRANCH  16  17
ENDBRANCH  15  16
ENDBRANCH  14  15
ENDBRANCH  13  14
ENDBRANCH  12  13
ENDBRANCH   1  12
TORSDOF 16
ENDMDL
MODEL 3
REMARK VINA RESULT:    -5.070      1.612      5.995
REMARK INTER + INTRA:         -11.092
REMARK INTER:                  -9.721
REMARK INTRA:                  -1.371
REMARK UNBOUND:                -1.281
REMARK SMILES CCCCCCCCCCCCCCCCCC(=O)[O-]
REMARK SMILES IDX 10 1 11 2 12 3 13 4 14 5 15 6 16 7 17 8 18 9 19 10 20 11
REMARK SMILES IDX 9 12 8 13 7 14 6 15 5 16 4 17 3 18 2 19 1 20
REMARK H PARENT
REMARK Flexibility Score: inf
ROOT
ATOM      1  C   UNL     1       4.259  46.282  64.964  1.00  0.00     0.000 C 
ENDROOT
BRANCH   1   2
ATOM      2  C   UNL     1       3.204  45.351  64.348  1.00  0.00     0.000 C 
BRANCH   2   3
ATOM      3  C   UNL     1       3.637  43.874  64.337  1.00  0.00     0.000 C 
BRANCH   3   4
ATOM      4  C   UNL     1       3.327  43.086  65.625  1.00  0.00     0.000 C 
BRANCH   4   5
ATOM      5  C   UNL     1       2.136  43.662  66.409  1.00  0.00     0.000 C 
BRANCH   5   6
ATOM      6  C   UNL     1       2.519  44.128  67.827  1.00  0.00     0.000 C 
BRANCH   6   7
ATOM      7  C   UNL     1       3.162  43.052  68.725  1.00  0.00     0.006 C 
BRANCH   7   8
ATOM      8  C   UNL     1       2.673  43.059  70.181  1.00  0.00     0.053 C 
BRANCH   8   9
ATOM      9  C   UNL     1       3.613  43.794  71.085  1.00  0.00     0.041 C 
ATOM     10  O   UNL     1       3.224  44.202  72.211  1.00  0.00    -0.550 OA
ATOM     11  O   UNL     1       4.933  43.996  70.698  1.00  0.00    -0.550 OA
ENDBRANCH   8   9
ENDBRANCH   7   8
ENDBRANCH   6   7
ENDBRANCH   5   6
ENDBRANCH   4   5
ENDBRANCH   3   4
ENDBRANCH   2   3
ENDBRANCH   1   2
BRANCH   1  12
ATOM     12  C   UNL     1       4.981  47.092  63.875  1.00  0.00     0.000 C 
BRANCH  12  13
ATOM     13  C   UNL     1       4.973  48.601  64.161  1.00  0.00    -0.000 C 
BRANCH  13  14
ATOM     14  C   UNL     1       5.088  48.921  65.662  1.00  0.00    -0.000 C 
BRANCH  14  15
ATOM     15  C   UNL     1       6.249  49.889  65.970  1.00  0.00    -0.000 C 
BRANCH  15  16
ATOM     16  C   UNL     1       7.220  49.371  67.049  1.00  0.00    -0.000 C 
BRANCH  16  17
ATOM     17  C   UNL     1       7.699  47.923  66.848  1.00  0.00    -0.000 C 
BRANCH  17  18
ATOM     18  C   UNL     1       8.338  47.272  68.090  1.00  0.00    -0.000 C 
BRANCH  18  19
ATOM     19  C   UNL     1       7.631  47.632  69.414  1.00  0.00    -0.003 C 
ATOM     20  C   UNL     1       6.207  47.080  69.489  1.00  0.00     0.004 C 
ENDBRANCH  18  19
ENDBRANCH  17  18
ENDBRANCH  16  17
ENDBRANCH  15  16
ENDBRANCH  14  15
ENDBRANCH  13  14
ENDBRANCH  12  13
ENDBRANCH   1  12
TORSDOF 16
ENDMDL
MODEL 4
REMARK VINA RESULT:    -5.062     11.271     13.779
REMARK INTER + INTRA:         -11.078
REMARK INTER:                  -7.994
REMARK INTRA:                  -3.084
REMARK UNBOUND:                -1.281
REMARK SMILES CCCCCCCCCCCCCCCCCC(=O)[O-]
REMARK SMILES IDX 10 1 11 2 12 3 13 4 14 5 15 6 16 7 17 8 18 9 19 10 20 11
REMARK SMILES IDX 9 12 8 13 7 14 6 15 5 16 4 17 3 18 2 19 1 20
REMARK H PARENT
REMARK Flexibility Score: inf
ROOT
ATOM      1  C   UNL     1       7.080  32.371  70.846  1.00  0.00     0.000 C 
ENDROOT
BRANCH   1   2
ATOM      2  C   UNL     1       6.332  31.142  70.308  1.00  0.00     0.000 C 
BRANCH   2   3
ATOM      3  C   UNL     1       4.829  31.397  70.096  1.00  0.00     0.000 C 
BRANCH   3   4
ATOM      4  C   UNL     1       4.366  31.423  68.626  1.00  0.00     0.000 C 
BRANCH   4   5
ATOM      5  C   UNL     1       3.528  32.666  68.282  1.00  0.00     0.000 C 
BRANCH   5   6
ATOM      6  C   UNL     1       4.312  33.711  67.465  1.00  0.00     0.000 C 
BRANCH   6   7
ATOM      7  C   UNL     1       5.526  33.166  66.686  1.00  0.00     0.006 C 
BRANCH   7   8
ATOM      8  C   UNL     1       6.857  33.863  67.007  1.00  0.00     0.053 C 
BRANCH   8   9
ATOM      9  C   UNL     1       7.946  32.879  67.305  1.00  0.00     0.041 C 
ATOM     10  O   UNL     1       8.942  33.224  67.995  1.00  0.00    -0.550 OA
ATOM     11  O   UNL     1       7.841  31.569  66.854  1.00  0.00    -0.550 OA
ENDBRANCH   8   9
ENDBRANCH   7   8
ENDBRANCH   6   7
ENDBRANCH   5   6
ENDBRANCH   4   5
ENDBRANCH   3   4
ENDBRANCH   2   3
ENDBRANCH   1   2
BRANCH   1  12
ATOM     12  C   UNL     1       6.097  33.490  71.225  1.00  0.00     0.000 C 
BRANCH  12  13
ATOM     13  C   UNL     1       6.319  34.771  70.408  1.00  0.00    -0.000 C 
BRANCH  13  14
ATOM     14  C   UNL     1       5.102  35.714  70.441  1.00  0.00    -0.000 C 
BRANCH  14  15
ATOM     15  C   UNL     1       3.868  35.058  71.094  1.00  0.00    -0.000 C 
BRANCH  15  16
ATOM     16  C   UNL     1       2.576  35.886  70.952  1.00  0.00    -0.000 C 
BRANCH  16  17
ATOM     17  C   UNL     1       2.089  36.083  69.506  1.00  0.00    -0.000 C 
BRANCH  17  18
ATOM     18  C   UNL     1       0.831  35.277  69.128  1.00  0.00    -0.000 C 
BRANCH  18  19
ATOM     19  C   UNL     1       0.592  35.174  67.607  1.00  0.00    -0.003 C 
ATOM     20  C   UNL     1       1.424  36.182  66.812  1.00  0.00     0.004 C 
ENDBRANCH  18  19
ENDBRANCH  17  18
ENDBRANCH  16  17
ENDBRANCH  15  16
ENDBRANCH  14  15
ENDBRANCH  13  14
ENDBRANCH  12  13
ENDBRANCH   1  12
TORSDOF 16
ENDMDL
MODEL 5
REMARK VINA RESULT:    -5.011     11.331     13.566
REMARK INTER + INTRA:         -10.980
REMARK INTER:                  -8.480
REMARK INTRA:                  -2.500
REMARK UNBOUND:                -1.281
REMARK SMILES CCCCCCCCCCCCCCCCCC(=O)[O-]
REMARK SMILES IDX 10 1 11 2 12 3 13 4 14 5 15 6 16 7 17 8 18 9 19 10 20 11
REMARK SMILES IDX 9 12 8 13 7 14 6 15 5 16 4 17 3 18 2 19 1 20
REMARK H PARENT
REMARK Flexibility Score: inf
ROOT
ATOM      1  C   UNL     1       7.236  34.385  67.906  1.00  0.00     0.000 C 
ENDROOT
BRANCH   1   2
ATOM      2  C   UNL     1       6.498  34.391  66.559  1.00  0.00     0.000 C 
BRANCH   2   3
ATOM      3  C   UNL     1       4.997  34.077  66.693  1.00  0.00     0.000 C 
BRANCH   3   4
ATOM      4  C   UNL     1       4.651  32.891  67.615  1.00  0.00     0.000 C 
BRANCH   4   5
ATOM      5  C   UNL     1       3.145  32.585  67.660  1.00  0.00     0.000 C 
BRANCH   5   6
ATOM      6  C   UNL     1       2.482  33.019  68.981  1.00  0.00     0.000 C 
BRANCH   6   7
ATOM      7  C   UNL     1       1.149  33.782  68.832  1.00  0.00     0.006 C 
BRANCH   7   8
ATOM      8  C   UNL     1       0.967  34.493  67.483  1.00  0.00     0.053 C 
BRANCH   8   9
ATOM      9  C   UNL     1       1.458  35.907  67.524  1.00  0.00     0.041 C 
ATOM     10  O   UNL     1       1.615  36.494  68.628  1.00  0.00    -0.550 OA
ATOM     11  O   UNL     1       1.780  36.565  66.344  1.00  0.00    -0.550 OA
ENDBRANCH   8   9
ENDBRANCH   7   8
ENDBRANCH   6   7
ENDBRANCH   5   6
ENDBRANCH   4   5
ENDBRANCH   3   4
ENDBRANCH   2   3
ENDBRANCH   1   2
BRANCH   1  12
ATOM     12  C   UNL     1       8.475  33.477  67.850  1.00  0.00     0.000 C 
BRANCH  12  13
ATOM     13  C   UNL     1       8.119  32.012  67.554  1.00  0.00    -0.000 C 
BRANCH  13  14
ATOM     14  C   UNL     1       8.229  31.112  68.798  1.00  0.00    -0.000 C 
BRANCH  14  15
ATOM     15  C   UNL     1       6.972  31.187  69.689  1.00  0.00    -0.000 C 
BRANCH  15  16
ATOM     16  C   UNL     1       7.232  31.800  71.080  1.00  0.00    -0.000 C 
BRANCH  16  17
ATOM     17  C   UNL     1       6.943  33.308  71.187  1.00  0.00    -0.000 C 
BRANCH  17  18
ATOM     18  C   UNL     1       5.452  33.675  71.319  1.00  0.00    -0.000 C 
BRANCH  18  19
ATOM     19  C   UNL     1       5.093  35.046  70.707  1.00  0.00    -0.003 C 
ATOM     20  C   UNL     1       3.795  35.622  71.278  1.00  0.00     0.004 C 
ENDBRANCH  18  19
ENDBRANCH  17  18
ENDBRANCH  16  17
ENDBRANCH  15  16
ENDBRANCH  14  15
ENDBRANCH  13  14
ENDBRANCH  12  13
ENDBRANCH   1  12
TORSDOF 16
ENDMDL
MODEL 6
REMARK VINA RESULT:    -4.992     11.577     14.242
REMARK INTER + INTRA:         -10.942
REMARK INTER:                  -8.010
REMARK INTRA:                  -2.932
REMARK UNBOUND:                -1.281
REMARK SMILES CCCCCCCCCCCCCCCCCC(=O)[O-]
REMARK SMILES IDX 10 1 11 2 12 3 13 4 14 5 15 6 16 7 17 8 18 9 19 10 20 11
REMARK SMILES IDX 9 12 8 13 7 14 6 15 5 16 4 17 3 18 2 19 1 20
REMARK H PARENT
REMARK Flexibility Score: inf
ROOT
ATOM      1  C   UNL     1       8.406  31.102  68.317  1.00  0.00     0.000 C 
ENDROOT
BRANCH   1   2
ATOM      2  C   UNL     1       7.879  31.908  67.121  1.00  0.00     0.000 C 
BRANCH   2   3
ATOM      3  C   UNL     1       7.955  33.431  67.340  1.00  0.00     0.000 C 
BRANCH   3   4
ATOM      4  C   UNL     1       6.675  34.213  66.986  1.00  0.00     0.000 C 
BRANCH   4   5
ATOM      5  C   UNL     1       5.491  33.297  66.633  1.00  0.00     0.000 C 
BRANCH   5   6
ATOM      6  C   UNL     1       4.319  33.420  67.626  1.00  0.00     0.000 C 
BRANCH   6   7
ATOM      7  C   UNL     1       3.934  32.118  68.358  1.00  0.00     0.006 C 
BRANCH   7   8
ATOM      8  C   UNL     1       2.505  32.100  68.920  1.00  0.00     0.053 C 
BRANCH   8   9
ATOM      9  C   UNL     1       1.476  32.158  67.833  1.00  0.00     0.041 C 
ATOM     10  O   UNL     1       1.449  31.276  66.934  1.00  0.00    -0.550 OA
ATOM     11  O   UNL     1       0.520  33.167  67.836  1.00  0.00    -0.550 OA
ENDBRANCH   8   9
ENDBRANCH   7   8
ENDBRANCH   6   7
ENDBRANCH   5   6
ENDBRANCH   4   5
ENDBRANCH   3   4
ENDBRANCH   2   3
ENDBRANCH   1   2
BRANCH   1  12
ATOM     12  C   UNL     1       7.272  30.771  69.300  1.00  0.00     0.000 C 
BRANCH  12  13
ATOM     13  C   UNL     1       7.431  31.492  70.647  1.00  0.00    -0.000 C 
BRANCH  13  14
ATOM     14  C   UNL     1       6.406  32.624  70.838  1.00  0.00    -0.000 C 
BRANCH  14  15
ATOM     15  C   UNL     1       7.015  34.018  70.578  1.00  0.00    -0.000 C 
BRANCH  15  16
ATOM     16  C   UNL     1       5.972  35.153  70.536  1.00  0.00    -0.000 C 
BRANCH  16  17
ATOM     17  C   UNL     1       4.586  34.780  71.089  1.00  0.00    -0.000 C 
BRANCH  17  18
ATOM     18  C   UNL     1       3.496  35.849  70.885  1.00  0.00    -0.000 C 
BRANCH  18  19
ATOM     19  C   UNL     1       2.256  35.335  70.122  1.00  0.00    -0.003 C 
ATOM     20  C   UNL     1       1.686  36.378  69.159  1.00  0.00     0.004 C 
ENDBRANCH  18  19
ENDBRANCH  17  18
ENDBRANCH  16  17
ENDBRANCH  15  16
ENDBRANCH  14  15
ENDBRANCH  13  14
ENDBRANCH  12  13
ENDBRANCH   1  12
TORSDOF 16
ENDMDL
MODEL 7
REMARK VINA RESULT:    -4.927     11.166     13.560
REMARK INTER + INTRA:         -10.816
REMARK INTER:                  -8.472
REMARK INTRA:                  -2.344
REMARK UNBOUND:                -1.281
REMARK SMILES CCCCCCCCCCCCCCCCCC(=O)[O-]
REMARK SMILES IDX 10 1 11 2 12 3 13 4 14 5 15 6 16 7 17 8 18 9 19 10 20 11
REMARK SMILES IDX 9 12 8 13 7 14 6 15 5 16 4 17 3 18 2 19 1 20
REMARK H PARENT
REMARK Flexibility Score: inf
ROOT
ATOM      1  C   UNL     1       7.862  34.560  68.325  1.00  0.00     0.000 C 
ENDROOT
BRANCH   1   2
ATOM      2  C   UNL     1       6.980  34.778  69.563  1.00  0.00     0.000 C 
BRANCH   2   3
ATOM      3  C   UNL     1       5.494  34.467  69.306  1.00  0.00     0.000 C 
BRANCH   3   4
ATOM      4  C   UNL     1       4.624  34.316  70.569  1.00  0.00     0.000 C 
BRANCH   4   5
ATOM      5  C   UNL     1       4.045  35.653  71.062  1.00  0.00     0.000 C 
BRANCH   5   6
ATOM      6  C   UNL     1       2.505  35.695  71.013  1.00  0.00     0.000 C 
BRANCH   6   7
ATOM      7  C   UNL     1       1.904  36.580  69.901  1.00  0.00     0.006 C 
BRANCH   7   8
ATOM      8  C   UNL     1       1.000  35.833  68.909  1.00  0.00     0.053 C 
BRANCH   8   9
ATOM      9  C   UNL     1       1.745  35.415  67.679  1.00  0.00     0.041 C 
ATOM     10  O   UNL     1       2.394  34.335  67.664  1.00  0.00    -0.550 OA
ATOM     11  O   UNL     1       1.690  36.200  66.534  1.00  0.00    -0.550 OA
ENDBRANCH   8   9
ENDBRANCH   7   8
ENDBRANCH   6   7
ENDBRANCH   5   6
ENDBRANCH   4   5
ENDBRANCH   3   4
ENDBRANCH   2   3
ENDBRANCH   1   2
BRANCH   1  12
ATOM     12  C   UNL     1       7.067  33.888  67.195  1.00  0.00     0.000 C 
BRANCH  12  13
ATOM     13  C   UNL     1       7.513  32.440  66.940  1.00  0.00    -0.000 C 
BRANCH  13  14
ATOM     14  C   UNL     1       8.561  31.955  67.958  1.00  0.00    -0.000 C 
BRANCH  14  15
ATOM     15  C   UNL     1       8.059  30.759  68.793  1.00  0.00    -0.000 C 
BRANCH  15  16
ATOM     16  C   UNL     1       6.582  30.876  69.220  1.00  0.00    -0.000 C 
BRANCH  16  17
ATOM     17  C   UNL     1       6.355  30.996  70.737  1.00  0.00    -0.000 C 
BRANCH  17  18
ATOM     18  C   UNL     1       7.521  31.626  71.522  1.00  0.00    -0.000 C 
BRANCH  18  19
ATOM     19  C   UNL     1       7.071  32.505  72.708  1.00  0.00    -0.003 C 
ATOM     20  C   UNL     1       8.199  32.764  73.709  1.00  0.00     0.004 C 
ENDBRANCH  18  19
ENDBRANCH  17  18
ENDBRANCH  16  17
ENDBRANCH  15  16
ENDBRANCH  14  15
ENDBRANCH  13  14
ENDBRANCH  12  13
ENDBRANCH   1  12
TORSDOF 16
ENDMDL
MODEL 8
REMARK VINA RESULT:    -4.913     11.551     13.751
REMARK INTER + INTRA:         -10.789
REMARK INTER:                  -8.422
REMARK INTRA:                  -2.367
REMARK UNBOUND:                -1.281
REMARK SMILES CCCCCCCCCCCCCCCCCC(=O)[O-]
REMARK SMILES IDX 10 1 11 2 12 3 13 4 14 5 15 6 16 7 17 8 18 9 19 10 20 11
REMARK SMILES IDX 9 12 8 13 7 14 6 15 5 16 4 17 3 18 2 19 1 20
REMARK H PARENT
REMARK Flexibility Score: inf
ROOT
ATOM      1  C   UNL     1       1.029  35.743  69.544  1.00  0.00     0.000 C 
ENDROOT
BRANCH   1   2
ATOM      2  C   UNL     1       0.926  34.216  69.423  1.00  0.00     0.000 C 
BRANCH   2   3
ATOM      3  C   UNL     1       1.429  33.684  68.068  1.00  0.00     0.000 C 
BRANCH   3   4
ATOM      4  C   UNL     1       2.244  32.378  68.135  1.00  0.00     0.000 C 
BRANCH   4   5
ATOM      5  C   UNL     1       3.753  32.620  68.309  1.00  0.00     0.000 C 
BRANCH   5   6
ATOM      6  C   UNL     1       4.286  33.756  67.414  1.00  0.00     0.000 C 
BRANCH   6   7
ATOM      7  C   UNL     1       5.745  33.594  66.941  1.00  0.00     0.006 C 
BRANCH   7   8
ATOM      8  C   UNL     1       6.417  32.284  67.376  1.00  0.00     0.053 C 
BRANCH   8   9
ATOM      9  C   UNL     1       7.909  32.358  67.274  1.00  0.00     0.041 C 
ATOM     10  O   UNL     1       8.533  31.591  66.493  1.00  0.00    -0.550 OA
ATOM     11  O   UNL     1       8.609  33.303  68.014  1.00  0.00    -0.550 OA
ENDBRANCH   8   9
ENDBRANCH   7   8
ENDBRANCH   6   7
ENDBRANCH   5   6
ENDBRANCH   4   5
ENDBRANCH   3   4
ENDBRANCH   2   3
ENDBRANCH   1   2
BRANCH   1  12
ATOM     12  C   UNL     1       2.460  36.171  69.905  1.00  0.00     0.000 C 
BRANCH  12  13
ATOM     13  C   UNL     1       2.849  35.781  71.339  1.00  0.00    -0.000 C 
BRANCH  13  14
ATOM     14  C   UNL     1       4.142  34.948  71.397  1.00  0.00    -0.000 C 
BRANCH  14  15
ATOM     15  C   UNL     1       5.250  35.520  70.490  1.00  0.00    -0.000 C 
BRANCH  15  16
ATOM     16  C   UNL     1       6.478  34.598  70.353  1.00  0.00    -0.000 C 
BRANCH  16  17
ATOM     17  C   UNL     1       6.370  33.259  71.105  1.00  0.00    -0.000 C 
BRANCH  17  18
ATOM     18  C   UNL     1       7.455  33.024  72.173  1.00  0.00    -0.000 C 
BRANCH  18  19
ATOM     19  C   UNL     1       7.029  32.043  73.287  1.00  0.00    -0.003 C 
ATOM     20  C   UNL     1       8.009  30.880  73.450  1.00  0.00     0.004 C 
ENDBRANCH  18  19
ENDBRANCH  17  18
ENDBRANCH  16  17
ENDBRANCH  15  16
ENDBRANCH  14  15
ENDBRANCH  13  14
ENDBRANCH  12  13
ENDBRANCH   1  12
TORSDOF 16
ENDMDL
MODEL 9
REMARK VINA RESULT:    -4.900     11.560     13.730
REMARK INTER + INTRA:         -10.765
REMARK INTER:                  -8.456
REMARK INTRA:                  -2.309
REMARK UNBOUND:                -1.281
REMARK SMILES CCCCCCCCCCCCCCCCCC(=O)[O-]
REMARK SMILES IDX 10 1 11 2 12 3 13 4 14 5 15 6 16 7 17 8 18 9 19 10 20 11
REMARK SMILES IDX 9 12 8 13 7 14 6 15 5 16 4 17 3 18 2 19 1 20
REMARK H PARENT
REMARK Flexibility Score: inf
ROOT
ATOM      1  C   UNL     1       0.404  33.563  68.541  1.00  0.00     0.000 C 
ENDROOT
BRANCH   1   2
ATOM      2  C   UNL     1       1.359  32.700  67.704  1.00  0.00     0.000 C 
BRANCH   2   3
ATOM      3  C   UNL     1       2.792  32.667  68.268  1.00  0.00     0.000 C 
BRANCH   3   4
ATOM      4  C   UNL     1       3.789  33.626  67.591  1.00  0.00     0.000 C 
BRANCH   4   5
ATOM      5  C   UNL     1       5.147  32.969  67.295  1.00  0.00     0.000 C 
BRANCH   5   6
ATOM      6  C   UNL     1       5.324  31.610  68.000  1.00  0.00     0.000 C 
BRANCH   6   7
ATOM      7  C   UNL     1       6.757  31.040  67.986  1.00  0.00     0.006 C 
BRANCH   7   8
ATOM      8  C   UNL     1       7.639  31.554  66.838  1.00  0.00     0.053 C 
BRANCH   8   9
ATOM      9  C   UNL     1       8.810  32.340  67.341  1.00  0.00     0.041 C 
ATOM     10  O   UNL     1       8.639  33.478  67.853  1.00  0.00    -0.550 OA
ATOM     11  O   UNL     1      10.088  31.799  67.278  1.00  0.00    -0.550 OA
ENDBRANCH   8   9
ENDBRANCH   7   8
ENDBRANCH   6   7
ENDBRANCH   5   6
ENDBRANCH   4   5
ENDBRANCH   3   4
ENDBRANCH   2   3
ENDBRANCH   1   2
BRANCH   1  12
ATOM     12  C   UNL     1       0.536  35.048  68.171  1.00  0.00     0.000 C 
BRANCH  12  13
ATOM     13  C   UNL     1       0.664  35.954  69.405  1.00  0.00    -0.000 C 
BRANCH  13  14
ATOM     14  C   UNL     1       2.129  36.218  69.797  1.00  0.00    -0.000 C 
BRANCH  14  15
ATOM     15  C   UNL     1       2.539  35.464  71.079  1.00  0.00    -0.000 C 
BRANCH  15  16
ATOM     16  C   UNL     1       4.053  35.504  71.366  1.00  0.00    -0.000 C 
BRANCH  16  17
ATOM     17  C   UNL     1       4.811  34.209  71.026  1.00  0.00    -0.000 C 
BRANCH  17  18
ATOM     18  C   UNL     1       6.268  34.410  70.566  1.00  0.00    -0.000 C 
BRANCH  18  19
ATOM     19  C   UNL     1       7.192  33.215  70.886  1.00  0.00    -0.003 C 
ATOM     20  C   UNL     1       7.247  32.900  72.382  1.00  0.00     0.004 C 
ENDBRANCH  18  19
ENDBRANCH  17  18
ENDBRANCH  16  17
ENDBRANCH  15  16
ENDBRANCH  14  15
ENDBRANCH  13  14
ENDBRANCH  12  13
ENDBRANCH   1  12
TORSDOF 16
ENDMDL
