MODEL 1
REMARK VINA RESULT:    -4.388      0.000      0.000
REMARK INTER + INTRA:          -7.015
REMARK INTER:                  -6.696
REMARK INTRA:                  -0.318
REMARK UNBOUND:                -0.318
REMARK SMILES CC1=CCC[C@@H](C)C(=O)C[C@@H](C(C)C)C(=O)C1
REMARK SMILES IDX 8 1 9 2 6 3 7 4 5 5 4 6 3 7 2 8 1 9 10 11 11 12 15 13 16 14
REMARK SMILES IDX 17 15 12 17 13 18 14 19
REMARK H PARENT
REMARK Flexibility Score: 70.00
ROOT
ATOM      1  C   UNL     1       6.482  20.693   4.558  1.00  0.00     0.136 C 
ATOM      2  O   UNL     1       7.229  21.613   4.256  1.00  0.00    -0.299 OA
ENDROOT
BRANCH   1   3
ATOM      3  C   UNL     1       6.651  20.053   5.928  1.00  0.00     0.053 C 
ATOM      4  C   UNL     1       5.620  18.931   6.094  1.00  0.00     0.016 C 
BRANCH   3   5
ATOM      5  C   UNL     1       6.493  21.095   7.057  1.00  0.00     0.015 C 
BRANCH   5   6
ATOM      6  C   UNL     1       5.041  21.285   7.523  1.00  0.00     0.028 C 
BRANCH   6   7
ATOM      7  C   UNL     1       4.430  22.555   6.981  1.00  0.00    -0.028 C 
ATOM      8  C   UNL     1       3.520  22.650   5.983  1.00  0.00    -0.070 CG0
ATOM      9  C   UNL     1       3.011  24.026   5.629  1.00  0.00     0.039 C 
ATOM     10  G   UNL     1       3.004  21.467   5.179  1.00  0.00     0.000 G0
ENDBRANCH   6   7
ENDBRANCH   5   6
ENDBRANCH   3   5
ENDBRANCH   1   3
BRANCH   1  11
ATOM     11  C   UNL     1       5.431  20.297   3.537  1.00  0.00     0.087 C 
BRANCH  11  12
ATOM     12  C   UNL     1       4.518  21.427   2.982  1.00  0.00     0.066 C 
BRANCH  12  13
ATOM     13  C   UNL     1       3.190  21.617   3.713  1.00  0.00     0.140 C 
ATOM     14  O   UNL     1       2.208  21.887   3.035  1.00  0.00    -0.299 OA
BRANCH  13  15
ATOM     15  C   UNL     1       2.995  21.448   5.206  1.00  0.00     0.106 CG0
ATOM     16  G   UNL     1       3.519  22.657   5.966  1.00  0.00     0.000 G0
ENDBRANCH  13  15
ENDBRANCH  12  13
BRANCH  12  17
ATOM     17  C   UNL     1       4.245  21.284   1.449  1.00  0.00    -0.006 C 
ATOM     18  C   UNL     1       4.790  19.973   0.859  1.00  0.00     0.008 C 
ATOM     19  C   UNL     1       4.756  22.488   0.640  1.00  0.00     0.008 C 
ENDBRANCH  12  17
ENDBRANCH  11  12
ENDBRANCH   1  11
TORSDOF 1
ENDMDL
MODEL 2
REMARK VINA RESULT:    -4.013      1.897      4.206
REMARK INTER + INTRA:          -6.443
REMARK INTER:                  -6.361
REMARK INTRA:                  -0.082
REMARK UNBOUND:                -0.318
REMARK SMILES CC1=CCC[C@@H](C)C(=O)C[C@@H](C(C)C)C(=O)C1
REMARK SMILES IDX 8 1 9 2 6 3 7 4 5 5 4 6 3 7 2 8 1 9 10 11 11 12 15 13 16 14
REMARK SMILES IDX 17 15 12 17 13 18 14 19
REMARK H PARENT
REMARK Flexibility Score: 70.00
ROOT
ATOM      1  C   UNL     1       5.143  20.935   3.683  1.00  0.00     0.136 C 
ATOM      2  O   UNL     1       6.217  20.445   3.364  1.00  0.00    -0.299 OA
ENDROOT
BRANCH   1   3
ATOM      3  C   UNL     1       4.040  20.988   2.636  1.00  0.00     0.053 C 
ATOM      4  C   UNL     1       4.656  20.835   1.241  1.00  0.00     0.016 C 
BRANCH   3   5
ATOM      5  C   UNL     1       3.245  22.309   2.726  1.00  0.00     0.015 C 
BRANCH   5   6
ATOM      6  C   UNL     1       1.856  22.150   3.365  1.00  0.00     0.028 C 
BRANCH   6   7
ATOM      7  C   UNL     1       1.728  22.928   4.653  1.00  0.00    -0.028 C 
ATOM      8  C   UNL     1       1.794  22.426   5.908  1.00  0.00    -0.070 CG0
ATOM      9  C   UNL     1       1.682  23.398   7.057  1.00  0.00     0.039 C 
ATOM     10  G   UNL     1       1.944  20.948   6.232  1.00  0.00     0.000 G0
ENDBRANCH   6   7
ENDBRANCH   5   6
ENDBRANCH   3   5
ENDBRANCH   1   3
BRANCH   1  11
ATOM     11  C   UNL     1       5.006  21.420   5.115  1.00  0.00     0.087 C 
BRANCH  11  12
ATOM     12  C   UNL     1       4.590  20.371   6.184  1.00  0.00     0.066 C 
BRANCH  12  13
ATOM     13  C   UNL     1       3.276  20.657   6.910  1.00  0.00     0.140 C 
ATOM     14  O   UNL     1       3.307  20.697   8.132  1.00  0.00    -0.299 OA
BRANCH  13  15
ATOM     15  C   UNL     1       1.956  20.941   6.224  1.00  0.00     0.106 CG0
ATOM     16  G   UNL     1       1.800  22.426   5.935  1.00  0.00     0.000 G0
ENDBRANCH  13  15
ENDBRANCH  12  13
BRANCH  12  17
ATOM     17  C   UNL     1       5.713  20.106   7.239  1.00  0.00    -0.006 C 
ATOM     18  C   UNL     1       6.734  21.251   7.333  1.00  0.00     0.008 C 
ATOM     19  C   UNL     1       6.434  18.765   7.016  1.00  0.00     0.008 C 
ENDBRANCH  12  17
ENDBRANCH  11  12
ENDBRANCH   1  11
TORSDOF 1
ENDMDL
MODEL 3
REMARK VINA RESULT:    -3.985      1.626      4.100
REMARK INTER + INTRA:          -6.399
REMARK INTER:                  -6.605
REMARK INTRA:                   0.205
REMARK UNBOUND:                -0.318
REMARK SMILES CC1=CCC[C@@H](C)C(=O)C[C@@H](C(C)C)C(=O)C1
REMARK SMILES IDX 8 1 9 2 6 3 7 4 5 5 4 6 3 7 2 8 1 9 10 11 11 12 15 13 16 14
REMARK SMILES IDX 17 15 12 17 13 18 14 19
REMARK H PARENT
REMARK Flexibility Score: 70.00
ROOT
ATOM      1  C   UNL     1       5.531  21.328   6.922  1.00  0.00     0.136 C 
ATOM      2  O   UNL     1       6.566  21.742   7.425  1.00  0.00    -0.299 OA
ENDROOT
BRANCH   1   3
ATOM      3  C   UNL     1       5.490  19.881   6.453  1.00  0.00     0.053 C 
ATOM      4  C   UNL     1       6.125  18.983   7.521  1.00  0.00     0.016 C 
BRANCH   3   5
ATOM      5  C   UNL     1       6.224  19.709   5.105  1.00  0.00     0.015 C 
BRANCH   5   6
ATOM      6  C   UNL     1       6.247  20.983   4.247  1.00  0.00     0.028 C 
BRANCH   6   7
ATOM      7  C   UNL     1       5.401  20.849   3.004  1.00  0.00    -0.028 C 
ATOM      8  C   UNL     1       4.190  21.416   2.787  1.00  0.00    -0.070 CG0
ATOM      9  C   UNL     1       3.538  21.181   1.446  1.00  0.00     0.039 C 
ATOM     10  G   UNL     1       3.437  22.245   3.815  1.00  0.00     0.000 G0
ENDBRANCH   6   7
ENDBRANCH   5   6
ENDBRANCH   3   5
ENDBRANCH   1   3
BRANCH   1  11
ATOM     11  C   UNL     1       4.368  22.301   6.841  1.00  0.00     0.087 C 
BRANCH  11  12
ATOM     12  C   UNL     1       2.991  21.726   6.405  1.00  0.00     0.066 C 
BRANCH  12  13
ATOM     13  C   UNL     1       2.850  21.413   4.916  1.00  0.00     0.140 C 
ATOM     14  O   UNL     1       2.199  20.425   4.608  1.00  0.00    -0.299 OA
BRANCH  13  15
ATOM     15  C   UNL     1       3.417  22.264   3.799  1.00  0.00     0.106 CG0
ATOM     16  G   UNL     1       4.181  21.413   2.796  1.00  0.00     0.000 G0
ENDBRANCH  13  15
ENDBRANCH  12  13
BRANCH  12  17
ATOM     17  C   UNL     1       1.792  22.622   6.857  1.00  0.00    -0.006 C 
ATOM     18  C   UNL     1       2.168  24.106   6.995  1.00  0.00     0.008 C 
ATOM     19  C   UNL     1       1.126  22.117   8.148  1.00  0.00     0.008 C 
ENDBRANCH  12  17
ENDBRANCH  11  12
ENDBRANCH   1  11
TORSDOF 1
ENDMDL
MODEL 4
REMARK VINA RESULT:    -3.836      1.981      4.286
REMARK INTER + INTRA:          -6.172
REMARK INTER:                  -6.629
REMARK INTRA:                   0.456
REMARK UNBOUND:                -0.318
REMARK SMILES CC1=CCC[C@@H](C)C(=O)C[C@@H](C(C)C)C(=O)C1
REMARK SMILES IDX 8 1 9 2 6 3 7 4 5 5 4 6 3 7 2 8 1 9 10 11 11 12 15 13 16 14
REMARK SMILES IDX 17 15 12 17 13 18 14 19
REMARK H PARENT
REMARK Flexibility Score: 70.00
ROOT
ATOM      1  C   UNL     1       4.465  19.969   7.375  1.00  0.00     0.136 C 
ATOM      2  O   UNL     1       3.981  18.850   7.283  1.00  0.00    -0.299 OA
ENDROOT
BRANCH   1   3
ATOM      3  C   UNL     1       5.972  20.113   7.225  1.00  0.00     0.053 C 
ATOM      4  C   UNL     1       6.379  21.554   7.549  1.00  0.00     0.016 C 
BRANCH   3   5
ATOM      5  C   UNL     1       6.432  19.736   5.799  1.00  0.00     0.015 C 
BRANCH   5   6
ATOM      6  C   UNL     1       6.546  20.938   4.849  1.00  0.00     0.028 C 
BRANCH   6   7
ATOM      7  C   UNL     1       5.615  20.820   3.666  1.00  0.00    -0.028 C 
ATOM      8  C   UNL     1       4.382  21.366   3.552  1.00  0.00    -0.070 CG0
ATOM      9  C   UNL     1       3.639  21.155   2.256  1.00  0.00     0.039 C 
ATOM     10  G   UNL     1       3.689  22.151   4.655  1.00  0.00     0.000 G0
ENDBRANCH   6   7
ENDBRANCH   5   6
ENDBRANCH   3   5
ENDBRANCH   1   3
BRANCH   1  11
ATOM     11  C   UNL     1       3.501  21.119   7.604  1.00  0.00     0.087 C 
BRANCH  11  12
ATOM     12  C   UNL     1       2.233  21.172   6.705  1.00  0.00     0.066 C 
BRANCH  12  13
ATOM     13  C   UNL     1       2.491  21.421   5.219  1.00  0.00     0.140 C 
ATOM     14  O   UNL     1       1.640  21.035   4.429  1.00  0.00    -0.299 OA
BRANCH  13  15
ATOM     15  C   UNL     1       3.695  22.152   4.663  1.00  0.00     0.106 CG0
ATOM     16  G   UNL     1       4.363  21.345   3.560  1.00  0.00     0.000 G0
ENDBRANCH  13  15
ENDBRANCH  12  13
BRANCH  12  17
ATOM     17  C   UNL     1       1.170  22.196   7.220  1.00  0.00    -0.006 C 
ATOM     18  C   UNL     1       1.504  23.650   6.850  1.00  0.00     0.008 C 
ATOM     19  C   UNL     1       0.912  22.076   8.732  1.00  0.00     0.008 C 
ENDBRANCH  12  17
ENDBRANCH  11  12
ENDBRANCH   1  11
TORSDOF 1
ENDMDL
MODEL 5
REMARK VINA RESULT:    -3.688      1.889      4.738
REMARK INTER + INTRA:          -5.946
REMARK INTER:                  -5.659
REMARK INTRA:                  -0.286
REMARK UNBOUND:                -0.318
REMARK SMILES CC1=CCC[C@@H](C)C(=O)C[C@@H](C(C)C)C(=O)C1
REMARK SMILES IDX 8 1 9 2 6 3 7 4 5 5 4 6 3 7 2 8 1 9 10 11 11 12 15 13 16 14
REMARK SMILES IDX 17 15 12 17 13 18 14 19
REMARK H PARENT
REMARK Flexibility Score: 70.00
ROOT
ATOM      1  C   UNL     1       2.910  21.369   3.748  1.00  0.00     0.136 C 
ATOM      2  O   UNL     1       2.111  20.815   3.006  1.00  0.00    -0.299 OA
ENDROOT
BRANCH   1   3
ATOM      3  C   UNL     1       4.168  21.962   3.131  1.00  0.00     0.053 C 
ATOM      4  C   UNL     1       3.875  22.387   1.689  1.00  0.00     0.016 C 
BRANCH   3   5
ATOM      5  C   UNL     1       5.337  20.952   3.164  1.00  0.00     0.015 C 
BRANCH   5   6
ATOM      6  C   UNL     1       6.342  21.208   4.298  1.00  0.00     0.028 C 
BRANCH   6   7
ATOM      7  C   UNL     1       6.420  20.049   5.263  1.00  0.00    -0.028 C 
ATOM      8  C   UNL     1       6.111  20.075   6.581  1.00  0.00    -0.070 CG0
ATOM      9  C   UNL     1       6.223  18.782   7.351  1.00  0.00     0.039 C 
ATOM     10  G   UNL     1       5.690  21.326   7.336  1.00  0.00     0.000 G0
ENDBRANCH   6   7
ENDBRANCH   5   6
ENDBRANCH   3   5
ENDBRANCH   1   3
BRANCH   1  11
ATOM     11  C   UNL     1       2.549  21.435   5.221  1.00  0.00     0.087 C 
BRANCH  11  12
ATOM     12  C   UNL     1       3.463  22.298   6.137  1.00  0.00     0.066 C 
BRANCH  12  13
ATOM     13  C   UNL     1       4.181  21.539   7.252  1.00  0.00     0.140 C 
ATOM     14  O   UNL     1       3.487  21.030   8.122  1.00  0.00    -0.299 OA
BRANCH  13  15
ATOM     15  C   UNL     1       5.679  21.331   7.329  1.00  0.00     0.106 CG0
ATOM     16  G   UNL     1       6.095  20.073   6.581  1.00  0.00     0.000 G0
ENDBRANCH  13  15
ENDBRANCH  12  13
BRANCH  12  17
ATOM     17  C   UNL     1       2.716  23.527   6.750  1.00  0.00    -0.006 C 
ATOM     18  C   UNL     1       1.251  23.629   6.297  1.00  0.00     0.008 C 
ATOM     19  C   UNL     1       3.448  24.856   6.495  1.00  0.00     0.008 C 
ENDBRANCH  12  17
ENDBRANCH  11  12
ENDBRANCH   1  11
TORSDOF 1
ENDMDL
MODEL 6
REMARK VINA RESULT:    -3.667      1.739      4.775
REMARK INTER + INTRA:          -5.914
REMARK INTER:                  -5.874
REMARK INTRA:                  -0.040
REMARK UNBOUND:                -0.318
REMARK SMILES CC1=CCC[C@@H](C)C(=O)C[C@@H](C(C)C)C(=O)C1
REMARK SMILES IDX 8 1 9 2 6 3 7 4 5 5 4 6 3 7 2 8 1 9 10 11 11 12 15 13 16 14
REMARK SMILES IDX 17 15 12 17 13 18 14 19
REMARK H PARENT
REMARK Flexibility Score: 70.00
ROOT
ATOM      1  C   UNL     1       3.183  22.737   6.438  1.00  0.00     0.136 C 
ATOM      2  O   UNL     1       2.400  22.770   7.376  1.00  0.00    -0.299 OA
ENDROOT
BRANCH   1   3
ATOM      3  C   UNL     1       3.416  24.021   5.654  1.00  0.00     0.053 C 
ATOM      4  C   UNL     1       3.473  25.205   6.625  1.00  0.00     0.016 C 
BRANCH   3   5
ATOM      5  C   UNL     1       2.308  24.244   4.602  1.00  0.00     0.015 C 
BRANCH   5   6
ATOM      6  C   UNL     1       2.057  23.025   3.701  1.00  0.00     0.028 C 
BRANCH   6   7
ATOM      7  C   UNL     1       3.009  22.976   2.530  1.00  0.00    -0.028 C 
ATOM      8  C   UNL     1       3.915  22.004   2.268  1.00  0.00    -0.070 CG0
ATOM      9  C   UNL     1       4.739  22.137   1.011  1.00  0.00     0.039 C 
ATOM     10  G   UNL     1       4.173  20.808   3.171  1.00  0.00     0.000 G0
ENDBRANCH   6   7
ENDBRANCH   5   6
ENDBRANCH   3   5
ENDBRANCH   1   3
BRANCH   1  11
ATOM     11  C   UNL     1       3.873  21.414   6.163  1.00  0.00     0.087 C 
BRANCH  11  12
ATOM     12  C   UNL     1       5.293  21.472   5.530  1.00  0.00     0.066 C 
BRANCH  12  13
ATOM     13  C   UNL     1       5.377  21.048   4.064  1.00  0.00     0.140 C 
ATOM     14  O   UNL     1       6.491  20.852   3.599  1.00  0.00    -0.299 OA
BRANCH  13  15
ATOM     15  C   UNL     1       4.181  20.807   3.166  1.00  0.00     0.106 CG0
ATOM     16  G   UNL     1       3.920  22.007   2.269  1.00  0.00     0.000 G0
ENDBRANCH  13  15
ENDBRANCH  12  13
BRANCH  12  17
ATOM     17  C   UNL     1       6.355  20.676   6.357  1.00  0.00    -0.006 C 
ATOM     18  C   UNL     1       6.224  19.152   6.199  1.00  0.00     0.008 C 
ATOM     19  C   UNL     1       6.359  21.060   7.846  1.00  0.00     0.008 C 
ENDBRANCH  12  17
ENDBRANCH  11  12
ENDBRANCH   1  11
TORSDOF 1
ENDMDL
MODEL 7
REMARK VINA RESULT:    -3.551      1.253      1.621
REMARK INTER + INTRA:          -5.738
REMARK INTER:                  -5.891
REMARK INTRA:                   0.153
REMARK UNBOUND:                -0.318
REMARK SMILES CC1=CCC[C@@H](C)C(=O)C[C@@H](C(C)C)C(=O)C1
REMARK SMILES IDX 8 1 9 2 6 3 7 4 5 5 4 6 3 7 2 8 1 9 10 11 11 12 15 13 16 14
REMARK SMILES IDX 17 15 12 17 13 18 14 19
REMARK H PARENT
REMARK Flexibility Score: 70.00
ROOT
ATOM      1  C   UNL     1       5.826  21.307   5.174  1.00  0.00     0.136 C 
ATOM      2  O   UNL     1       6.989  21.470   4.833  1.00  0.00    -0.299 OA
ENDROOT
BRANCH   1   3
ATOM      3  C   UNL     1       5.434  21.692   6.593  1.00  0.00     0.053 C 
ATOM      4  C   UNL     1       6.514  21.209   7.567  1.00  0.00     0.016 C 
BRANCH   3   5
ATOM      5  C   UNL     1       4.063  21.094   6.978  1.00  0.00     0.015 C 
BRANCH   5   6
ATOM      6  C   UNL     1       2.954  22.146   7.137  1.00  0.00     0.028 C 
BRANCH   6   7
ATOM      7  C   UNL     1       3.331  23.471   6.518  1.00  0.00    -0.028 C 
ATOM      8  C   UNL     1       2.877  23.971   5.344  1.00  0.00    -0.070 CG0
ATOM      9  C   UNL     1       3.357  25.342   4.936  1.00  0.00     0.039 C 
ATOM     10  G   UNL     1       1.942  23.229   4.402  1.00  0.00     0.000 G0
ENDBRANCH   6   7
ENDBRANCH   5   6
ENDBRANCH   3   5
ENDBRANCH   1   3
BRANCH   1  11
ATOM     11  C   UNL     1       4.872  20.757   4.128  1.00  0.00     0.087 C 
BRANCH  11  12
ATOM     12  C   UNL     1       3.980  21.781   3.372  1.00  0.00     0.066 C 
BRANCH  12  13
ATOM     13  C   UNL     1       2.555  21.931   3.904  1.00  0.00     0.140 C 
ATOM     14  O   UNL     1       1.873  20.918   3.975  1.00  0.00    -0.299 OA
BRANCH  13  15
ATOM     15  C   UNL     1       1.949  23.230   4.393  1.00  0.00     0.106 CG0
ATOM     16  G   UNL     1       2.886  23.941   5.358  1.00  0.00     0.000 G0
ENDBRANCH  13  15
ENDBRANCH  12  13
BRANCH  12  17
ATOM     17  C   UNL     1       3.929  21.516   1.832  1.00  0.00    -0.006 C 
ATOM     18  C   UNL     1       4.789  20.319   1.397  1.00  0.00     0.008 C 
ATOM     19  C   UNL     1       4.286  22.760   1.002  1.00  0.00     0.008 C 
ENDBRANCH  12  17
ENDBRANCH  11  12
ENDBRANCH   1  11
TORSDOF 1
ENDMDL
MODEL 8
REMARK VINA RESULT:    -3.540      1.816      4.005
REMARK INTER + INTRA:          -5.720
REMARK INTER:                  -5.323
REMARK INTRA:                  -0.398
REMARK UNBOUND:                -0.318
REMARK SMILES CC1=CCC[C@@H](C)C(=O)C[C@@H](C(C)C)C(=O)C1
REMARK SMILES IDX 8 1 9 2 6 3 7 4 5 5 4 6 3 7 2 8 1 9 10 11 11 12 15 13 16 14
REMARK SMILES IDX 17 15 12 17 13 18 14 19
REMARK H PARENT
REMARK Flexibility Score: 70.00
ROOT
ATOM      1  C   UNL     1       4.963  21.718   6.440  1.00  0.00     0.136 C 
ATOM      2  O   UNL     1       5.563  22.375   7.279  1.00  0.00    -0.299 OA
ENDROOT
BRANCH   1   3
ATOM      3  C   UNL     1       5.633  20.465   5.897  1.00  0.00     0.053 C 
ATOM      4  C   UNL     1       6.519  19.850   6.986  1.00  0.00     0.016 C 
BRANCH   3   5
ATOM      5  C   UNL     1       6.473  20.778   4.640  1.00  0.00     0.015 C 
BRANCH   5   6
ATOM      6  C   UNL     1       5.802  20.345   3.326  1.00  0.00     0.028 C 
BRANCH   6   7
ATOM      7  C   UNL     1       5.317  21.524   2.517  1.00  0.00    -0.028 C 
ATOM      8  C   UNL     1       4.029  21.842   2.247  1.00  0.00    -0.070 CG0
ATOM      9  C   UNL     1       3.770  23.097   1.450  1.00  0.00     0.039 C 
ATOM     10  G   UNL     1       2.834  21.001   2.670  1.00  0.00     0.000 G0
ENDBRANCH   6   7
ENDBRANCH   5   6
ENDBRANCH   3   5
ENDBRANCH   1   3
BRANCH   1  11
ATOM     11  C   UNL     1       3.582  22.208   6.041  1.00  0.00     0.087 C 
BRANCH  11  12
ATOM     12  C   UNL     1       2.634  21.180   5.362  1.00  0.00     0.066 C 
BRANCH  12  13
ATOM     13  C   UNL     1       2.182  21.537   3.946  1.00  0.00     0.140 C 
ATOM     14  O   UNL     1       1.270  22.344   3.834  1.00  0.00    -0.299 OA
BRANCH  13  15
ATOM     15  C   UNL     1       2.816  21.003   2.678  1.00  0.00     0.106 CG0
ATOM     16  G   UNL     1       4.016  21.844   2.271  1.00  0.00     0.000 G0
ENDBRANCH  13  15
ENDBRANCH  12  13
BRANCH  12  17
ATOM     17  C   UNL     1       1.378  20.849   6.233  1.00  0.00    -0.006 C 
ATOM     18  C   UNL     1       1.288  21.702   7.509  1.00  0.00     0.008 C 
ATOM     19  C   UNL     1       1.272  19.355   6.581  1.00  0.00     0.008 C 
ENDBRANCH  12  17
ENDBRANCH  11  12
ENDBRANCH   1  11
TORSDOF 1
ENDMDL
MODEL 9
REMARK VINA RESULT:    -3.336      1.802      4.224
REMARK INTER + INTRA:          -5.409
REMARK INTER:                  -5.730
REMARK INTRA:                   0.321
REMARK UNBOUND:                -0.318
REMARK SMILES CC1=CCC[C@@H](C)C(=O)C[C@@H](C(C)C)C(=O)C1
REMARK SMILES IDX 8 1 9 2 6 3 7 4 5 5 4 6 3 7 2 8 1 9 10 11 11 12 15 13 16 14
REMARK SMILES IDX 17 15 12 17 13 18 14 19
REMARK H PARENT
REMARK Flexibility Score: 70.00
ROOT
ATOM      1  C   UNL     1       4.484  21.303   2.461  1.00  0.00     0.136 C 
ATOM      2  O   UNL     1       4.826  21.927   1.466  1.00  0.00    -0.299 OA
ENDROOT
BRANCH   1   3
ATOM      3  C   UNL     1       3.048  20.805   2.537  1.00  0.00     0.053 C 
ATOM      4  C   UNL     1       2.682  20.109   1.221  1.00  0.00     0.016 C 
BRANCH   3   5
ATOM      5  C   UNL     1       2.067  21.963   2.820  1.00  0.00     0.015 C 
BRANCH   5   6
ATOM      6  C   UNL     1       1.525  21.975   4.258  1.00  0.00     0.028 C 
BRANCH   6   7
ATOM      7  C   UNL     1       1.427  20.586   4.842  1.00  0.00    -0.028 C 
ATOM      8  C   UNL     1       2.110  20.111   5.911  1.00  0.00    -0.070 CG0
ATOM      9  C   UNL     1       1.823  18.696   6.351  1.00  0.00     0.039 C 
ATOM     10  G   UNL     1       3.163  20.900   6.673  1.00  0.00     0.000 G0
ENDBRANCH   6   7
ENDBRANCH   5   6
ENDBRANCH   3   5
ENDBRANCH   1   3
BRANCH   1  11
ATOM     11  C   UNL     1       5.545  21.062   3.520  1.00  0.00     0.087 C 
BRANCH  11  12
ATOM     12  C   UNL     1       5.079  20.420   4.858  1.00  0.00     0.066 C 
BRANCH  12  13
ATOM     13  C   UNL     1       4.296  21.343   5.792  1.00  0.00     0.140 C 
ATOM     14  O   UNL     1       4.582  22.532   5.777  1.00  0.00    -0.299 OA
BRANCH  13  15
ATOM     15  C   UNL     1       3.164  20.897   6.694  1.00  0.00     0.106 CG0
ATOM     16  G   UNL     1       2.115  20.122   5.912  1.00  0.00     0.000 G0
ENDBRANCH  13  15
ENDBRANCH  12  13
BRANCH  12  17
ATOM     17  C   UNL     1       6.253  19.761   5.653  1.00  0.00    -0.006 C 
ATOM     18  C   UNL     1       5.836  18.478   6.390  1.00  0.00     0.008 C 
ATOM     19  C   UNL     1       6.935  20.739   6.625  1.00  0.00     0.008 C 
ENDBRANCH  12  17
ENDBRANCH  11  12
ENDBRANCH   1  11
TORSDOF 1
ENDMDL
