MODEL 1
REMARK VINA RESULT:    -7.217      0.000      0.000
REMARK INTER + INTRA:          -8.800
REMARK INTER:                  -8.483
REMARK INTRA:                  -0.317
REMARK UNBOUND:                -0.317
REMARK SMILES O=c1cc(-c2ccc(O)c(O)c2)oc2cc(O)cc(O)c12
REMARK SMILES IDX 4 1 3 2 2 3 1 4 21 5 19 6 18 7 16 8 15 9 14 10 13 11 5 12
REMARK SMILES IDX 6 13 7 14 8 15 12 16 10 17 9 18 11 20 20 22 17 24
REMARK H PARENT 9 19 11 21 20 23 17 25
REMARK Flexibility Score: inf
ROOT
ATOM      1  C   UNL     1      -4.231  20.510  21.989  1.00  0.00     0.138 A 
ATOM      2  C   UNL     1      -3.989  21.154  20.764  1.00  0.00     0.100 A 
ATOM      3  C   UNL     1      -4.629  22.361  20.485  1.00  0.00     0.197 A 
ATOM      4  O   UNL     1      -4.406  22.932  19.383  1.00  0.00    -0.289 OA
ATOM      5  C   UNL     1      -5.513  22.916  21.432  1.00  0.00     0.107 A 
ATOM      6  C   UNL     1      -6.202  24.135  21.229  1.00  0.00     0.134 A 
ATOM      7  C   UNL     1      -7.070  24.617  22.220  1.00  0.00     0.093 A 
ATOM      8  C   UNL     1      -7.261  23.901  23.409  1.00  0.00     0.123 A 
ATOM      9  C   UNL     1      -6.584  22.698  23.614  1.00  0.00     0.094 A 
ATOM     10  C   UNL     1      -5.714  22.202  22.638  1.00  0.00     0.146 A 
ATOM     11  O   UNL     1      -5.079  21.054  22.858  1.00  0.00    -0.456 OA
ENDROOT
BRANCH   1  12
ATOM     12  C   UNL     1      -3.578  19.223  22.339  1.00  0.00     0.021 A 
ATOM     13  C   UNL     1      -2.572  18.708  21.502  1.00  0.00     0.016 A 
ATOM     14  C   UNL     1      -1.948  17.497  21.806  1.00  0.00     0.051 A 
ATOM     15  C   UNL     1      -2.323  16.773  22.944  1.00  0.00     0.157 A 
ATOM     16  C   UNL     1      -3.960  18.484  23.476  1.00  0.00     0.062 A 
ATOM     17  C   UNL     1      -3.336  17.268  23.780  1.00  0.00     0.158 A 
BRANCH  15  18
ATOM     18  O   UNL     1      -1.696  15.564  23.244  1.00  0.00    -0.504 OA
ATOM     19  H   UNL     1      -2.006  14.981  24.012  1.00  0.00     0.293 HD
ENDBRANCH  15  18
BRANCH  17  20
ATOM     20  O   UNL     1      -3.741  16.565  24.915  1.00  0.00    -0.504 OA
ATOM     21  H   UNL     1      -3.102  16.348  25.671  1.00  0.00     0.293 HD
ENDBRANCH  17  20
ENDBRANCH   1  12
BRANCH   6  22
ATOM     22  O   UNL     1      -6.031  24.868  20.055  1.00  0.00    -0.507 OA
ATOM     23  H   UNL     1      -6.724  25.537  19.737  1.00  0.00     0.293 HD
ENDBRANCH   6  22
BRANCH   8  24
ATOM     24  O   UNL     1      -8.123  24.379  24.394  1.00  0.00    -0.508 OA
ATOM     25  H   UNL     1      -9.033  23.962  24.550  1.00  0.00     0.293 HD
ENDBRANCH   8  24
TORSDOF 5
ENDMDL
MODEL 2
REMARK VINA RESULT:    -6.829      1.370      7.381
REMARK INTER + INTRA:          -8.344
REMARK INTER:                  -8.027
REMARK INTRA:                  -0.316
REMARK UNBOUND:                -0.317
REMARK SMILES O=c1cc(-c2ccc(O)c(O)c2)oc2cc(O)cc(O)c12
REMARK SMILES IDX 4 1 3 2 2 3 1 4 21 5 19 6 18 7 16 8 15 9 14 10 13 11 5 12
REMARK SMILES IDX 6 13 7 14 8 15 12 16 10 17 9 18 11 20 20 22 17 24
REMARK H PARENT 9 19 11 21 20 23 17 25
REMARK Flexibility Score: inf
ROOT
ATOM      1  C   UNL     1      -5.349  21.016  22.919  1.00  0.00     0.138 A 
ATOM      2  C   UNL     1      -5.740  20.163  23.964  1.00  0.00     0.100 A 
ATOM      3  C   UNL     1      -5.048  18.970  24.173  1.00  0.00     0.197 A 
ATOM      4  O   UNL     1      -5.406  18.211  25.113  1.00  0.00    -0.289 OA
ATOM      5  C   UNL     1      -3.970  18.635  23.330  1.00  0.00     0.107 A 
ATOM      6  C   UNL     1      -3.215  17.447  23.473  1.00  0.00     0.134 A 
ATOM      7  C   UNL     1      -2.159  17.183  22.588  1.00  0.00     0.093 A 
ATOM      8  C   UNL     1      -1.845  18.087  21.564  1.00  0.00     0.123 A 
ATOM      9  C   UNL     1      -2.587  19.260  21.420  1.00  0.00     0.094 A 
ATOM     10  C   UNL     1      -3.643  19.541  22.292  1.00  0.00     0.146 A 
ATOM     11  O   UNL     1      -4.333  20.666  22.135  1.00  0.00    -0.456 OA
ENDROOT
BRANCH   1  12
ATOM     12  C   UNL     1      -6.050  22.297  22.650  1.00  0.00     0.021 A 
ATOM     13  C   UNL     1      -6.962  22.798  23.596  1.00  0.00     0.016 A 
ATOM     14  C   UNL     1      -7.639  23.997  23.364  1.00  0.00     0.051 A 
ATOM     15  C   UNL     1      -7.425  24.712  22.180  1.00  0.00     0.157 A 
ATOM     16  C   UNL     1      -5.849  23.015  21.455  1.00  0.00     0.062 A 
ATOM     17  C   UNL     1      -6.529  24.216  21.219  1.00  0.00     0.158 A 
BRANCH  15  18
ATOM     18  O   UNL     1      -8.102  25.910  21.952  1.00  0.00    -0.504 OA
ATOM     19  H   UNL     1      -7.634  26.719  21.563  1.00  0.00     0.293 HD
ENDBRANCH  15  18
BRANCH  17  20
ATOM     20  O   UNL     1      -6.303  24.899  20.025  1.00  0.00    -0.504 OA
ATOM     21  H   UNL     1      -6.770  24.644  19.162  1.00  0.00     0.293 HD
ENDBRANCH  17  20
ENDBRANCH   1  12
BRANCH   6  22
ATOM     22  O   UNL     1      -3.505  16.530  24.483  1.00  0.00    -0.507 OA
ATOM     23  H   UNL     1      -2.849  15.803  24.749  1.00  0.00     0.293 HD
ENDBRANCH   6  22
BRANCH   8  24
ATOM     24  O   UNL     1      -0.796  17.825  20.685  1.00  0.00    -0.508 OA
ATOM     25  H   UNL     1      -0.601  16.887  20.356  1.00  0.00     0.293 HD
ENDBRANCH   8  24
TORSDOF 5
ENDMDL
MODEL 3
REMARK VINA RESULT:    -6.471      2.151      7.266
REMARK INTER + INTRA:          -7.923
REMARK INTER:                  -7.633
REMARK INTRA:                  -0.290
REMARK UNBOUND:                -0.317
REMARK SMILES O=c1cc(-c2ccc(O)c(O)c2)oc2cc(O)cc(O)c12
REMARK SMILES IDX 4 1 3 2 2 3 1 4 21 5 19 6 18 7 16 8 15 9 14 10 13 11 5 12
REMARK SMILES IDX 6 13 7 14 8 15 12 16 10 17 9 18 11 20 20 22 17 24
REMARK H PARENT 9 19 11 21 20 23 17 25
REMARK Flexibility Score: inf
ROOT
ATOM      1  C   UNL     1      -5.650  21.065  22.650  1.00  0.00     0.138 A 
ATOM      2  C   UNL     1      -4.665  20.725  23.592  1.00  0.00     0.100 A 
ATOM      3  C   UNL     1      -4.102  19.449  23.567  1.00  0.00     0.197 A 
ATOM      4  O   UNL     1      -3.219  19.153  24.417  1.00  0.00    -0.289 OA
ATOM      5  C   UNL     1      -4.532  18.519  22.600  1.00  0.00     0.107 A 
ATOM      6  C   UNL     1      -4.013  17.205  22.505  1.00  0.00     0.134 A 
ATOM      7  C   UNL     1      -4.499  16.336  21.516  1.00  0.00     0.093 A 
ATOM      8  C   UNL     1      -5.493  16.757  20.623  1.00  0.00     0.123 A 
ATOM      9  C   UNL     1      -6.007  18.051  20.714  1.00  0.00     0.094 A 
ATOM     10  C   UNL     1      -5.536  18.932  21.692  1.00  0.00     0.146 A 
ATOM     11  O   UNL     1      -6.041  20.160  21.757  1.00  0.00    -0.456 OA
ENDROOT
BRANCH   1  12
ATOM     12  C   UNL     1      -6.284  22.408  22.631  1.00  0.00     0.021 A 
ATOM     13  C   UNL     1      -6.773  22.959  23.828  1.00  0.00     0.016 A 
ATOM     14  C   UNL     1      -7.380  24.216  23.836  1.00  0.00     0.051 A 
ATOM     15  C   UNL     1      -7.519  24.942  22.647  1.00  0.00     0.157 A 
ATOM     16  C   UNL     1      -6.438  23.137  21.436  1.00  0.00     0.062 A 
ATOM     17  C   UNL     1      -7.049  24.397  21.440  1.00  0.00     0.158 A 
BRANCH  15  18
ATOM     18  O   UNL     1      -8.125  26.198  22.658  1.00  0.00    -0.504 OA
ATOM     19  H   UNL     1      -8.607  26.547  23.477  1.00  0.00     0.293 HD
ENDBRANCH  15  18
BRANCH  17  20
ATOM     20  O   UNL     1      -7.183  25.089  20.237  1.00  0.00    -0.504 OA
ATOM     21  H   UNL     1      -7.947  24.912  19.596  1.00  0.00     0.293 HD
ENDBRANCH  17  20
ENDBRANCH   1  12
BRANCH   6  22
ATOM     22  O   UNL     1      -3.023  16.760  23.380  1.00  0.00    -0.507 OA
ATOM     23  H   UNL     1      -2.991  17.061  24.348  1.00  0.00     0.293 HD
ENDBRANCH   6  22
BRANCH   8  24
ATOM     24  O   UNL     1      -5.975  15.894  19.641  1.00  0.00    -0.508 OA
ATOM     25  H   UNL     1      -6.929  15.954  19.305  1.00  0.00     0.293 HD
ENDBRANCH   8  24
TORSDOF 5
ENDMDL
MODEL 4
REMARK VINA RESULT:    -6.358      1.716      7.110
REMARK INTER + INTRA:          -7.790
REMARK INTER:                  -7.525
REMARK INTRA:                  -0.265
REMARK UNBOUND:                -0.317
REMARK SMILES O=c1cc(-c2ccc(O)c(O)c2)oc2cc(O)cc(O)c12
REMARK SMILES IDX 4 1 3 2 2 3 1 4 21 5 19 6 18 7 16 8 15 9 14 10 13 11 5 12
REMARK SMILES IDX 6 13 7 14 8 15 12 16 10 17 9 18 11 20 20 22 17 24
REMARK H PARENT 9 19 11 21 20 23 17 25
REMARK Flexibility Score: inf
ROOT
ATOM      1  C   UNL     1      -5.182  20.869  22.546  1.00  0.00     0.138 A 
ATOM      2  C   UNL     1      -5.625  19.748  21.825  1.00  0.00     0.100 A 
ATOM      3  C   UNL     1      -4.903  18.556  21.897  1.00  0.00     0.197 A 
ATOM      4  O   UNL     1      -5.308  17.555  21.247  1.00  0.00    -0.289 OA
ATOM      5  C   UNL     1      -3.739  18.495  22.688  1.00  0.00     0.107 A 
ATOM      6  C   UNL     1      -2.950  17.327  22.817  1.00  0.00     0.134 A 
ATOM      7  C   UNL     1      -1.800  17.350  23.621  1.00  0.00     0.093 A 
ATOM      8  C   UNL     1      -1.426  18.518  24.297  1.00  0.00     0.123 A 
ATOM      9  C   UNL     1      -2.201  19.672  24.172  1.00  0.00     0.094 A 
ATOM     10  C   UNL     1      -3.351  19.670  23.377  1.00  0.00     0.146 A 
ATOM     11  O   UNL     1      -4.073  20.781  23.276  1.00  0.00    -0.456 OA
ENDROOT
BRANCH   1  12
ATOM     12  C   UNL     1      -5.910  22.163  22.506  1.00  0.00     0.021 A 
ATOM     13  C   UNL     1      -6.634  22.584  23.635  1.00  0.00     0.016 A 
ATOM     14  C   UNL     1      -7.333  23.792  23.621  1.00  0.00     0.051 A 
ATOM     15  C   UNL     1      -7.329  24.599  22.476  1.00  0.00     0.157 A 
ATOM     16  C   UNL     1      -5.919  22.972  21.353  1.00  0.00     0.062 A 
ATOM     17  C   UNL     1      -6.621  24.184  21.336  1.00  0.00     0.158 A 
BRANCH  15  18
ATOM     18  O   UNL     1      -8.026  25.805  22.466  1.00  0.00    -0.504 OA
ATOM     19  H   UNL     1      -7.549  26.694  22.370  1.00  0.00     0.293 HD
ENDBRANCH  15  18
BRANCH  17  20
ATOM     20  O   UNL     1      -6.607  24.958  20.176  1.00  0.00    -0.504 OA
ATOM     21  H   UNL     1      -7.113  25.833  20.107  1.00  0.00     0.293 HD
ENDBRANCH  17  20
ENDBRANCH   1  12
BRANCH   6  22
ATOM     22  O   UNL     1      -3.299  16.150  22.156  1.00  0.00    -0.507 OA
ATOM     23  H   UNL     1      -4.124  16.091  21.570  1.00  0.00     0.293 HD
ENDBRANCH   6  22
BRANCH   8  24
ATOM     24  O   UNL     1      -0.285  18.541  25.095  1.00  0.00    -0.508 OA
ATOM     25  H   UNL     1      -0.307  18.900  26.043  1.00  0.00     0.293 HD
ENDBRANCH   8  24
TORSDOF 5
ENDMDL
MODEL 5
REMARK VINA RESULT:    -5.807     17.804     19.974
REMARK INTER + INTRA:          -7.143
REMARK INTER:                  -6.877
REMARK INTRA:                  -0.265
REMARK UNBOUND:                -0.317
REMARK SMILES O=c1cc(-c2ccc(O)c(O)c2)oc2cc(O)cc(O)c12
REMARK SMILES IDX 4 1 3 2 2 3 1 4 21 5 19 6 18 7 16 8 15 9 14 10 13 11 5 12
REMARK SMILES IDX 6 13 7 14 8 15 12 16 10 17 9 18 11 20 20 22 17 24
REMARK H PARENT 9 19 11 21 20 23 17 25
REMARK Flexibility Score: inf
ROOT
ATOM      1  C   UNL     1       7.093  27.911   7.835  1.00  0.00     0.138 A 
ATOM      2  C   UNL     1       7.092  28.708   8.992  1.00  0.00     0.100 A 
ATOM      3  C   UNL     1       5.891  28.949   9.658  1.00  0.00     0.197 A 
ATOM      4  O   UNL     1       5.899  29.666  10.695  1.00  0.00    -0.289 OA
ATOM      5  C   UNL     1       4.695  28.394   9.160  1.00  0.00     0.107 A 
ATOM      6  C   UNL     1       3.436  28.587   9.775  1.00  0.00     0.134 A 
ATOM      7  C   UNL     1       2.290  28.004   9.213  1.00  0.00     0.093 A 
ATOM      8  C   UNL     1       2.383  27.231   8.048  1.00  0.00     0.123 A 
ATOM      9  C   UNL     1       3.623  27.038   7.439  1.00  0.00     0.094 A 
ATOM     10  C   UNL     1       4.776  27.610   7.984  1.00  0.00     0.146 A 
ATOM     11  O   UNL     1       5.946  27.409   7.385  1.00  0.00    -0.456 OA
ENDROOT
BRANCH   1  12
ATOM     12  C   UNL     1       8.342  27.622   7.085  1.00  0.00     0.021 A 
ATOM     13  C   UNL     1       8.533  28.194   5.814  1.00  0.00     0.016 A 
ATOM     14  C   UNL     1       9.694  27.932   5.085  1.00  0.00     0.051 A 
ATOM     15  C   UNL     1      10.681  27.087   5.606  1.00  0.00     0.157 A 
ATOM     16  C   UNL     1       9.332  26.762   7.598  1.00  0.00     0.062 A 
ATOM     17  C   UNL     1      10.497  26.497   6.868  1.00  0.00     0.158 A 
BRANCH  15  18
ATOM     18  O   UNL     1      11.841  26.829   4.876  1.00  0.00    -0.504 OA
ATOM     19  H   UNL     1      12.607  27.491   4.844  1.00  0.00     0.293 HD
ENDBRANCH  15  18
BRANCH  17  20
ATOM     20  O   UNL     1      11.456  25.641   7.409  1.00  0.00    -0.504 OA
ATOM     21  H   UNL     1      11.772  24.810   6.923  1.00  0.00     0.293 HD
ENDBRANCH  17  20
ENDBRANCH   1  12
BRANCH   6  22
ATOM     22  O   UNL     1       3.314  29.352  10.935  1.00  0.00    -0.507 OA
ATOM     23  H   UNL     1       2.773  29.032  11.732  1.00  0.00     0.293 HD
ENDBRANCH   6  22
BRANCH   8  24
ATOM     24  O   UNL     1       1.245  26.652   7.489  1.00  0.00    -0.508 OA
ATOM     25  H   UNL     1       0.322  27.041   7.643  1.00  0.00     0.293 HD
ENDBRANCH   8  24
TORSDOF 5
ENDMDL
MODEL 6
REMARK VINA RESULT:    -5.646      2.763      3.702
REMARK INTER + INTRA:          -6.953
REMARK INTER:                  -6.657
REMARK INTRA:                  -0.297
REMARK UNBOUND:                -0.317
REMARK SMILES O=c1cc(-c2ccc(O)c(O)c2)oc2cc(O)cc(O)c12
REMARK SMILES IDX 4 1 3 2 2 3 1 4 21 5 19 6 18 7 16 8 15 9 14 10 13 11 5 12
REMARK SMILES IDX 6 13 7 14 8 15 12 16 10 17 9 18 11 20 20 22 17 24
REMARK H PARENT 9 19 11 21 20 23 17 25
REMARK Flexibility Score: inf
ROOT
ATOM      1  C   UNL     1      -6.246  20.430  21.749  1.00  0.00     0.138 A 
ATOM      2  C   UNL     1      -5.908  20.492  23.111  1.00  0.00     0.100 A 
ATOM      3  C   UNL     1      -6.086  21.686  23.810  1.00  0.00     0.197 A 
ATOM      4  O   UNL     1      -5.779  21.733  25.031  1.00  0.00    -0.289 OA
ATOM      5  C   UNL     1      -6.598  22.814  23.139  1.00  0.00     0.107 A 
ATOM      6  C   UNL     1      -6.811  24.062  23.772  1.00  0.00     0.134 A 
ATOM      7  C   UNL     1      -7.320  25.140  23.031  1.00  0.00     0.093 A 
ATOM      8  C   UNL     1      -7.620  24.992  21.671  1.00  0.00     0.123 A 
ATOM      9  C   UNL     1      -7.412  23.763  21.043  1.00  0.00     0.094 A 
ATOM     10  C   UNL     1      -6.906  22.677  21.764  1.00  0.00     0.146 A 
ATOM     11  O   UNL     1      -6.719  21.516  21.143  1.00  0.00    -0.456 OA
ENDROOT
BRANCH   1  12
ATOM     12  C   UNL     1      -6.077  19.186  20.956  1.00  0.00     0.021 A 
ATOM     13  C   UNL     1      -6.313  19.213  19.570  1.00  0.00     0.016 A 
ATOM     14  C   UNL     1      -6.168  18.056  18.803  1.00  0.00     0.051 A 
ATOM     15  C   UNL     1      -5.795  16.849  19.406  1.00  0.00     0.157 A 
ATOM     16  C   UNL     1      -5.715  17.967  21.559  1.00  0.00     0.062 A 
ATOM     17  C   UNL     1      -5.571  16.804  20.792  1.00  0.00     0.158 A 
BRANCH  15  18
ATOM     18  O   UNL     1      -5.650  15.696  18.637  1.00  0.00    -0.504 OA
ATOM     19  H   UNL     1      -6.079  15.609  17.723  1.00  0.00     0.293 HD
ENDBRANCH  15  18
BRANCH  17  20
ATOM     20  O   UNL     1      -5.210  15.615  21.425  1.00  0.00    -0.504 OA
ATOM     21  H   UNL     1      -4.293  15.478  21.832  1.00  0.00     0.293 HD
ENDBRANCH  17  20
ENDBRANCH   1  12
BRANCH   6  22
ATOM     22  O   UNL     1      -6.521  24.239  25.125  1.00  0.00    -0.507 OA
ATOM     23  H   UNL     1      -6.536  25.155  25.559  1.00  0.00     0.293 HD
ENDBRANCH   6  22
BRANCH   8  24
ATOM     24  O   UNL     1      -8.125  26.062  20.936  1.00  0.00    -0.508 OA
ATOM     25  H   UNL     1      -8.128  27.005  21.306  1.00  0.00     0.293 HD
ENDBRANCH   8  24
TORSDOF 5
ENDMDL
MODEL 7
REMARK VINA RESULT:    -5.510     18.223     20.219
REMARK INTER + INTRA:          -6.794
REMARK INTER:                  -6.497
REMARK INTRA:                  -0.297
REMARK UNBOUND:                -0.317
REMARK SMILES O=c1cc(-c2ccc(O)c(O)c2)oc2cc(O)cc(O)c12
REMARK SMILES IDX 4 1 3 2 2 3 1 4 21 5 19 6 18 7 16 8 15 9 14 10 13 11 5 12
REMARK SMILES IDX 6 13 7 14 8 15 12 16 10 17 9 18 11 20 20 22 17 24
REMARK H PARENT 9 19 11 21 20 23 17 25
REMARK Flexibility Score: inf
ROOT
ATOM      1  C   UNL     1       6.719  27.777   6.562  1.00  0.00     0.138 A 
ATOM      2  C   UNL     1       6.304  28.747   5.633  1.00  0.00     0.100 A 
ATOM      3  C   UNL     1       5.011  29.265   5.712  1.00  0.00     0.197 A 
ATOM      4  O   UNL     1       4.648  30.134   4.875  1.00  0.00    -0.289 OA
ATOM      5  C   UNL     1       4.139  28.806   6.718  1.00  0.00     0.107 A 
ATOM      6  C   UNL     1       2.813  29.279   6.869  1.00  0.00     0.134 A 
ATOM      7  C   UNL     1       2.004  28.766   7.895  1.00  0.00     0.093 A 
ATOM      8  C   UNL     1       2.497  27.790   8.771  1.00  0.00     0.123 A 
ATOM      9  C   UNL     1       3.804  27.321   8.625  1.00  0.00     0.094 A 
ATOM     10  C   UNL     1       4.626  27.819   7.610  1.00  0.00     0.146 A 
ATOM     11  O   UNL     1       5.867  27.357   7.493  1.00  0.00    -0.456 OA
ENDROOT
BRANCH   1  12
ATOM     12  C   UNL     1       8.082  27.190   6.525  1.00  0.00     0.021 A 
ATOM     13  C   UNL     1       8.663  26.868   5.285  1.00  0.00     0.016 A 
ATOM     14  C   UNL     1       9.940  26.308   5.224  1.00  0.00     0.051 A 
ATOM     15  C   UNL     1      10.658  26.051   6.399  1.00  0.00     0.157 A 
ATOM     16  C   UNL     1       8.803  26.918   7.704  1.00  0.00     0.062 A 
ATOM     17  C   UNL     1      10.084  26.354   7.644  1.00  0.00     0.158 A 
BRANCH  15  18
ATOM     18  O   UNL     1      11.934  25.494   6.333  1.00  0.00    -0.504 OA
ATOM     19  H   UNL     1      12.268  24.849   7.039  1.00  0.00     0.293 HD
ENDBRANCH  15  18
BRANCH  17  20
ATOM     20  O   UNL     1      10.767  26.099   8.833  1.00  0.00    -0.504 OA
ATOM     21  H   UNL     1      11.662  26.526   9.042  1.00  0.00     0.293 HD
ENDBRANCH  17  20
ENDBRANCH   1  12
BRANCH   6  22
ATOM     22  O   UNL     1       2.296  30.250   6.012  1.00  0.00    -0.507 OA
ATOM     23  H   UNL     1       1.348  30.197   5.656  1.00  0.00     0.293 HD
ENDBRANCH   6  22
BRANCH   8  24
ATOM     24  O   UNL     1       1.694  27.280   9.789  1.00  0.00    -0.508 OA
ATOM     25  H   UNL     1       1.856  27.517  10.761  1.00  0.00     0.293 HD
ENDBRANCH   8  24
TORSDOF 5
ENDMDL
MODEL 8
REMARK VINA RESULT:    -5.394      1.976      6.980
REMARK INTER + INTRA:          -6.657
REMARK INTER:                  -6.370
REMARK INTRA:                  -0.287
REMARK UNBOUND:                -0.317
REMARK SMILES O=c1cc(-c2ccc(O)c(O)c2)oc2cc(O)cc(O)c12
REMARK SMILES IDX 4 1 3 2 2 3 1 4 21 5 19 6 18 7 16 8 15 9 14 10 13 11 5 12
REMARK SMILES IDX 6 13 7 14 8 15 12 16 10 17 9 18 11 20 20 22 17 24
REMARK H PARENT 9 19 11 21 20 23 17 25
REMARK Flexibility Score: inf
ROOT
ATOM      1  C   UNL     1      -5.410  20.609  22.793  1.00  0.00     0.138 A 
ATOM      2  C   UNL     1      -4.055  20.336  23.043  1.00  0.00     0.100 A 
ATOM      3  C   UNL     1      -3.700  19.144  23.674  1.00  0.00     0.197 A 
ATOM      4  O   UNL     1      -2.482  18.907  23.896  1.00  0.00    -0.289 OA
ATOM      5  C   UNL     1      -4.705  18.232  24.055  1.00  0.00     0.107 A 
ATOM      6  C   UNL     1      -4.432  17.001  24.697  1.00  0.00     0.134 A 
ATOM      7  C   UNL     1      -5.491  16.151  25.049  1.00  0.00     0.093 A 
ATOM      8  C   UNL     1      -6.816  16.509  24.770  1.00  0.00     0.123 A 
ATOM      9  C   UNL     1      -7.089  17.722  24.137  1.00  0.00     0.094 A 
ATOM     10  C   UNL     1      -6.048  18.583  23.777  1.00  0.00     0.146 A 
ATOM     11  O   UNL     1      -6.335  19.732  23.173  1.00  0.00    -0.456 OA
ENDROOT
BRANCH   1  12
ATOM     12  C   UNL     1      -5.846  21.862  22.125  1.00  0.00     0.021 A 
ATOM     13  C   UNL     1      -7.083  22.435  22.471  1.00  0.00     0.016 A 
ATOM     14  C   UNL     1      -7.519  23.609  21.853  1.00  0.00     0.051 A 
ATOM     15  C   UNL     1      -6.733  24.226  20.873  1.00  0.00     0.157 A 
ATOM     16  C   UNL     1      -5.066  22.481  21.129  1.00  0.00     0.062 A 
ATOM     17  C   UNL     1      -5.503  23.657  20.507  1.00  0.00     0.158 A 
BRANCH  15  18
ATOM     18  O   UNL     1      -7.171  25.399  20.259  1.00  0.00    -0.504 OA
ATOM     19  H   UNL     1      -7.195  26.281  20.756  1.00  0.00     0.293 HD
ENDBRANCH  15  18
BRANCH  17  20
ATOM     20  O   UNL     1      -4.703  24.241  19.526  1.00  0.00    -0.504 OA
ATOM     21  H   UNL     1      -3.856  23.799  19.187  1.00  0.00     0.293 HD
ENDBRANCH  17  20
ENDBRANCH   1  12
BRANCH   6  22
ATOM     22  O   UNL     1      -3.122  16.619  24.987  1.00  0.00    -0.507 OA
ATOM     23  H   UNL     1      -2.911  15.949  25.720  1.00  0.00     0.293 HD
ENDBRANCH   6  22
BRANCH   8  24
ATOM     24  O   UNL     1      -7.867  15.665  25.120  1.00  0.00    -0.508 OA
ATOM     25  H   UNL     1      -8.688  16.012  25.603  1.00  0.00     0.293 HD
ENDBRANCH   8  24
TORSDOF 5
ENDMDL
MODEL 9
REMARK VINA RESULT:    -5.379     18.593     20.745
REMARK INTER + INTRA:          -6.640
REMARK INTER:                  -6.349
REMARK INTRA:                  -0.291
REMARK UNBOUND:                -0.317
REMARK SMILES O=c1cc(-c2ccc(O)c(O)c2)oc2cc(O)cc(O)c12
REMARK SMILES IDX 4 1 3 2 2 3 1 4 21 5 19 6 18 7 16 8 15 9 14 10 13 11 5 12
REMARK SMILES IDX 6 13 7 14 8 15 12 16 10 17 9 18 11 20 20 22 17 24
REMARK H PARENT 9 19 11 21 20 23 17 25
REMARK Flexibility Score: inf
ROOT
ATOM      1  C   UNL     1       6.526  27.756   6.634  1.00  0.00     0.138 A 
ATOM      2  C   UNL     1       5.755  26.960   7.498  1.00  0.00     0.100 A 
ATOM      3  C   UNL     1       4.404  27.253   7.679  1.00  0.00     0.197 A 
ATOM      4  O   UNL     1       3.720  26.534   8.457  1.00  0.00    -0.289 OA
ATOM      5  C   UNL     1       3.831  28.345   6.997  1.00  0.00     0.107 A 
ATOM      6  C   UNL     1       2.470  28.710   7.123  1.00  0.00     0.134 A 
ATOM      7  C   UNL     1       1.978  29.816   6.413  1.00  0.00     0.093 A 
ATOM      8  C   UNL     1       2.822  30.561   5.580  1.00  0.00     0.123 A 
ATOM      9  C   UNL     1       4.165  30.205   5.453  1.00  0.00     0.094 A 
ATOM     10  C   UNL     1       4.675  29.106   6.152  1.00  0.00     0.146 A 
ATOM     11  O   UNL     1       5.958  28.785   6.012  1.00  0.00    -0.456 OA
ENDROOT
BRANCH   1  12
ATOM     12  C   UNL     1       7.969  27.491   6.404  1.00  0.00     0.021 A 
ATOM     13  C   UNL     1       8.569  27.924   5.208  1.00  0.00     0.016 A 
ATOM     14  C   UNL     1       9.922  27.681   4.964  1.00  0.00     0.051 A 
ATOM     15  C   UNL     1      10.698  26.993   5.904  1.00  0.00     0.157 A 
ATOM     16  C   UNL     1       8.752  26.788   7.340  1.00  0.00     0.062 A 
ATOM     17  C   UNL     1      10.108  26.542   7.096  1.00  0.00     0.158 A 
BRANCH  15  18
ATOM     18  O   UNL     1      12.049  26.754   5.658  1.00  0.00    -0.504 OA
ATOM     19  H   UNL     1      12.630  27.433   5.181  1.00  0.00     0.293 HD
ENDBRANCH  15  18
BRANCH  17  20
ATOM     20  O   UNL     1      10.851  25.843   8.047  1.00  0.00    -0.504 OA
ATOM     21  H   UNL     1      11.769  25.465   7.843  1.00  0.00     0.293 HD
ENDBRANCH  17  20
ENDBRANCH   1  12
BRANCH   6  22
ATOM     22  O   UNL     1       1.606  27.986   7.945  1.00  0.00    -0.507 OA
ATOM     23  H   UNL     1       1.792  27.021   8.196  1.00  0.00     0.293 HD
ENDBRANCH   6  22
BRANCH   8  24
ATOM     24  O   UNL     1       2.334  31.659   4.875  1.00  0.00    -0.508 OA
ATOM     25  H   UNL     1       2.920  32.181   4.234  1.00  0.00     0.293 HD
ENDBRANCH   8  24
TORSDOF 5
ENDMDL
