MODEL 1
REMARK VINA RESULT:    -4.224      0.000      0.000
REMARK INTER + INTRA:          -6.566
REMARK INTER:                  -6.446
REMARK INTRA:                  -0.120
REMARK UNBOUND:                -0.120
REMARK SMILES CC1=CCC[C@H](C)C(=O)C[C@H](C(C)C)C(=O)C1
REMARK SMILES IDX 8 1 9 2 6 3 7 4 5 5 4 6 3 7 2 8 1 9 10 11 11 12 15 13 16 14
REMARK SMILES IDX 17 15 12 17 13 18 14 19
REMARK H PARENT
REMARK Flexibility Score: 70.00
ROOT
ATOM      1  C   UNL     1     102.126 116.621 125.315  1.00  0.00     0.136 C 
ATOM      2  O   UNL     1     102.636 116.504 126.420  1.00  0.00    -0.299 OA
ENDROOT
BRANCH   1   3
ATOM      3  C   UNL     1     100.884 117.483 125.181  1.00  0.00     0.053 C 
ATOM      4  C   UNL     1     100.558 118.193 126.503  1.00  0.00     0.016 C 
BRANCH   3   5
ATOM      5  C   UNL     1     101.070 118.502 124.029  1.00  0.00     0.015 C 
BRANCH   5   6
ATOM      6  C   UNL     1      99.994 118.363 122.930  1.00  0.00     0.028 C 
BRANCH   6   7
ATOM      7  C   UNL     1     100.580 118.505 121.544  1.00  0.00    -0.028 C 
ATOM      8  C   UNL     1     100.937 117.475 120.740  1.00  0.00    -0.070 CG0
ATOM      9  C   UNL     1     101.538 117.800 119.397  1.00  0.00     0.039 C 
ATOM     10  G   UNL     1     100.770 116.015 121.130  1.00  0.00     0.000 G0
ENDBRANCH   6   7
ENDBRANCH   5   6
ENDBRANCH   3   5
ENDBRANCH   1   3
BRANCH   1  11
ATOM     11  C   UNL     1     102.812 115.925 124.150  1.00  0.00     0.087 C 
BRANCH  11  12
ATOM     12  C   UNL     1     101.942 115.001 123.254  1.00  0.00     0.066 C 
BRANCH  12  13
ATOM     13  C   UNL     1     101.991 115.422 121.791  1.00  0.00     0.140 C 
ATOM     14  O   UNL     1     103.008 115.229 121.140  1.00  0.00    -0.299 OA
BRANCH  13  15
ATOM     15  C   UNL     1     100.772 116.012 121.116  1.00  0.00     0.106 CG0
ATOM     16  G   UNL     1     100.957 117.476 120.749  1.00  0.00     0.000 G0
ENDBRANCH  13  15
ENDBRANCH  12  13
BRANCH  12  17
ATOM     17  C   UNL     1     102.311 113.496 123.452  1.00  0.00    -0.006 C 
ATOM     18  C   UNL     1     102.212 113.081 124.929  1.00  0.00     0.008 C 
ATOM     19  C   UNL     1     101.501 112.521 122.581  1.00  0.00     0.008 C 
ENDBRANCH  12  17
ENDBRANCH  11  12
ENDBRANCH   1  11
TORSDOF 1
ENDMDL
MODEL 2
REMARK VINA RESULT:    -4.086      1.930      4.263
REMARK INTER + INTRA:          -6.356
REMARK INTER:                  -6.086
REMARK INTRA:                  -0.270
REMARK UNBOUND:                -0.120
REMARK SMILES CC1=CCC[C@H](C)C(=O)C[C@H](C(C)C)C(=O)C1
REMARK SMILES IDX 8 1 9 2 6 3 7 4 5 5 4 6 3 7 2 8 1 9 10 11 11 12 15 13 16 14
REMARK SMILES IDX 17 15 12 17 13 18 14 19
REMARK H PARENT
REMARK Flexibility Score: 70.00
ROOT
ATOM      1  C   UNL     1     100.361 117.950 124.027  1.00  0.00     0.136 C 
ATOM      2  O   UNL     1      99.504 118.824 124.012  1.00  0.00    -0.299 OA
ENDROOT
BRANCH   1   3
ATOM      3  C   UNL     1     101.362 117.940 125.168  1.00  0.00     0.053 C 
ATOM      4  C   UNL     1     100.957 118.932 126.268  1.00  0.00     0.016 C 
BRANCH   3   5
ATOM      5  C   UNL     1     101.505 116.505 125.732  1.00  0.00     0.015 C 
BRANCH   5   6
ATOM      6  C   UNL     1     102.918 115.919 125.520  1.00  0.00     0.028 C 
BRANCH   6   7
ATOM      7  C   UNL     1     102.874 114.451 125.166  1.00  0.00    -0.028 C 
ATOM      8  C   UNL     1     103.013 113.946 123.917  1.00  0.00    -0.070 CG0
ATOM      9  C   UNL     1     102.909 112.453 123.739  1.00  0.00     0.039 C 
ATOM     10  G   UNL     1     103.259 114.810 122.690  1.00  0.00     0.000 G0
ENDBRANCH   6   7
ENDBRANCH   5   6
ENDBRANCH   3   5
ENDBRANCH   1   3
BRANCH   1  11
ATOM     11  C   UNL     1     100.321 116.913 122.917  1.00  0.00     0.087 C 
BRANCH  11  12
ATOM     12  C   UNL     1     101.601 116.737 122.053  1.00  0.00     0.066 C 
BRANCH  12  13
ATOM     13  C   UNL     1     102.026 115.278 121.961  1.00  0.00     0.140 C 
ATOM     14  O   UNL     1     101.376 114.500 121.275  1.00  0.00    -0.299 OA
BRANCH  13  15
ATOM     15  C   UNL     1     103.282 114.794 122.653  1.00  0.00     0.106 CG0
ATOM     16  G   UNL     1     102.985 113.973 123.898  1.00  0.00     0.000 G0
ENDBRANCH  13  15
ENDBRANCH  12  13
BRANCH  12  17
ATOM     17  C   UNL     1     101.440 117.399 120.647  1.00  0.00    -0.006 C 
ATOM     18  C   UNL     1     100.010 117.924 120.431  1.00  0.00     0.008 C 
ATOM     19  C   UNL     1     102.455 118.516 120.348  1.00  0.00     0.008 C 
ENDBRANCH  12  17
ENDBRANCH  11  12
ENDBRANCH   1  11
TORSDOF 1
ENDMDL
MODEL 3
REMARK VINA RESULT:    -3.996      1.931      4.002
REMARK INTER + INTRA:          -6.219
REMARK INTER:                  -5.868
REMARK INTRA:                  -0.351
REMARK UNBOUND:                -0.120
REMARK SMILES CC1=CCC[C@H](C)C(=O)C[C@H](C(C)C)C(=O)C1
REMARK SMILES IDX 8 1 9 2 6 3 7 4 5 5 4 6 3 7 2 8 1 9 10 11 11 12 15 13 16 14
REMARK SMILES IDX 17 15 12 17 13 18 14 19
REMARK H PARENT
REMARK Flexibility Score: 70.00
ROOT
ATOM      1  C   UNL     1     101.341 115.577 123.721  1.00  0.00     0.136 C 
ATOM      2  O   UNL     1     101.033 114.406 123.549  1.00  0.00    -0.299 OA
ENDROOT
BRANCH   1   3
ATOM      3  C   UNL     1     102.745 115.891 124.205  1.00  0.00     0.053 C 
ATOM      4  C   UNL     1     103.031 115.210 125.551  1.00  0.00     0.016 C 
BRANCH   3   5
ATOM      5  C   UNL     1     103.779 115.470 123.132  1.00  0.00     0.015 C 
BRANCH   5   6
ATOM      6  C   UNL     1     103.888 116.489 121.977  1.00  0.00     0.028 C 
BRANCH   6   7
ATOM      7  C   UNL     1     103.132 116.036 120.750  1.00  0.00    -0.028 C 
ATOM      8  C   UNL     1     102.207 116.771 120.089  1.00  0.00    -0.070 CG0
ATOM      9  C   UNL     1     101.524 116.149 118.899  1.00  0.00     0.039 C 
ATOM     10  G   UNL     1     101.818 118.184 120.495  1.00  0.00     0.000 G0
ENDBRANCH   6   7
ENDBRANCH   5   6
ENDBRANCH   3   5
ENDBRANCH   1   3
BRANCH   1  11
ATOM     11  C   UNL     1     100.297 116.631 123.387  1.00  0.00     0.087 C 
BRANCH  11  12
ATOM     12  C   UNL     1     100.806 118.025 122.928  1.00  0.00     0.066 C 
BRANCH  12  13
ATOM     13  C   UNL     1     100.613 118.234 121.431  1.00  0.00     0.140 C 
ATOM     14  O   UNL     1      99.499 118.487 120.995  1.00  0.00    -0.299 OA
BRANCH  13  15
ATOM     15  C   UNL     1     101.796 118.198 120.488  1.00  0.00     0.106 CG0
ATOM     16  G   UNL     1     102.207 116.782 120.117  1.00  0.00     0.000 G0
ENDBRANCH  13  15
ENDBRANCH  12  13
BRANCH  12  17
ATOM     17  C   UNL     1     100.173 119.175 123.774  1.00  0.00    -0.006 C 
ATOM     18  C   UNL     1     100.237 118.868 125.280  1.00  0.00     0.008 C 
ATOM     19  C   UNL     1     100.765 120.569 123.501  1.00  0.00     0.008 C 
ENDBRANCH  12  17
ENDBRANCH  11  12
ENDBRANCH   1  11
TORSDOF 1
ENDMDL
MODEL 4
REMARK VINA RESULT:    -3.818      2.061      2.732
REMARK INTER + INTRA:          -5.947
REMARK INTER:                  -5.752
REMARK INTRA:                  -0.195
REMARK UNBOUND:                -0.120
REMARK SMILES CC1=CCC[C@H](C)C(=O)C[C@H](C(C)C)C(=O)C1
REMARK SMILES IDX 8 1 9 2 6 3 7 4 5 5 4 6 3 7 2 8 1 9 10 11 11 12 15 13 16 14
REMARK SMILES IDX 17 15 12 17 13 18 14 19
REMARK H PARENT
REMARK Flexibility Score: 70.00
ROOT
ATOM      1  C   UNL     1     101.372 117.987 122.349  1.00  0.00     0.136 C 
ATOM      2  O   UNL     1     102.176 118.669 121.727  1.00  0.00    -0.299 OA
ENDROOT
BRANCH   1   3
ATOM      3  C   UNL     1      99.892 118.259 122.155  1.00  0.00     0.053 C 
ATOM      4  C   UNL     1      99.490 119.604 122.778  1.00  0.00     0.016 C 
BRANCH   3   5
ATOM      5  C   UNL     1      99.540 118.212 120.648  1.00  0.00     0.015 C 
BRANCH   5   6
ATOM      6  C   UNL     1      99.483 116.771 120.094  1.00  0.00     0.028 C 
BRANCH   6   7
ATOM      7  C   UNL     1     100.476 116.555 118.976  1.00  0.00    -0.028 C 
ATOM      8  C   UNL     1     101.484 115.651 118.993  1.00  0.00    -0.070 CG0
ATOM      9  C   UNL     1     102.405 115.592 117.802  1.00  0.00     0.039 C 
ATOM     10  G   UNL     1     101.735 114.702 120.155  1.00  0.00     0.000 G0
ENDBRANCH   6   7
ENDBRANCH   5   6
ENDBRANCH   3   5
ENDBRANCH   1   3
BRANCH   1  11
ATOM     11  C   UNL     1     101.929 116.885 123.236  1.00  0.00     0.087 C 
BRANCH  11  12
ATOM     12  C   UNL     1     101.864 115.429 122.698  1.00  0.00     0.066 C 
BRANCH  12  13
ATOM     13  C   UNL     1     102.494 115.307 121.316  1.00  0.00     0.140 C 
ATOM     14  O   UNL     1     103.650 115.670 121.144  1.00  0.00    -0.299 OA
BRANCH  13  15
ATOM     15  C   UNL     1     101.730 114.678 120.171  1.00  0.00     0.106 CG0
ATOM     16  G   UNL     1     101.486 115.649 119.027  1.00  0.00     0.000 G0
ENDBRANCH  13  15
ENDBRANCH  12  13
BRANCH  12  17
ATOM     17  C   UNL     1     102.468 114.412 123.718  1.00  0.00    -0.006 C 
ATOM     18  C   UNL     1     102.877 115.104 125.028  1.00  0.00     0.008 C 
ATOM     19  C   UNL     1     101.564 113.205 124.027  1.00  0.00     0.008 C 
ENDBRANCH  12  17
ENDBRANCH  11  12
ENDBRANCH   1  11
TORSDOF 1
ENDMDL
MODEL 5
REMARK VINA RESULT:    -3.793      1.777      4.236
REMARK INTER + INTRA:          -5.909
REMARK INTER:                  -5.815
REMARK INTRA:                  -0.094
REMARK UNBOUND:                -0.120
REMARK SMILES CC1=CCC[C@H](C)C(=O)C[C@H](C(C)C)C(=O)C1
REMARK SMILES IDX 8 1 9 2 6 3 7 4 5 5 4 6 3 7 2 8 1 9 10 11 11 12 15 13 16 14
REMARK SMILES IDX 17 15 12 17 13 18 14 19
REMARK H PARENT
REMARK Flexibility Score: 70.00
ROOT
ATOM      1  C   UNL     1     101.749 116.471 124.634  1.00  0.00     0.136 C 
ATOM      2  O   UNL     1     101.355 117.324 125.419  1.00  0.00    -0.299 OA
ENDROOT
BRANCH   1   3
ATOM      3  C   UNL     1     102.889 115.566 125.064  1.00  0.00     0.053 C 
ATOM      4  C   UNL     1     103.191 115.730 126.560  1.00  0.00     0.016 C 
BRANCH   3   5
ATOM      5  C   UNL     1     102.554 114.095 124.717  1.00  0.00     0.015 C 
BRANCH   5   6
ATOM      6  C   UNL     1     103.513 113.497 123.664  1.00  0.00     0.028 C 
BRANCH   6   7
ATOM      7  C   UNL     1     102.783 112.641 122.656  1.00  0.00    -0.028 C 
ATOM      8  C   UNL     1     102.449 113.029 121.402  1.00  0.00    -0.070 CG0
ATOM      9  C   UNL     1     101.690 112.056 120.537  1.00  0.00     0.039 C 
ATOM     10  G   UNL     1     102.792 114.396 120.831  1.00  0.00     0.000 G0
ENDBRANCH   6   7
ENDBRANCH   5   6
ENDBRANCH   3   5
ENDBRANCH   1   3
BRANCH   1  11
ATOM     11  C   UNL     1     101.025 116.360 123.302  1.00  0.00     0.087 C 
BRANCH  11  12
ATOM     12  C   UNL     1     101.864 116.571 122.011  1.00  0.00     0.066 C 
BRANCH  12  13
ATOM     13  C   UNL     1     101.683 115.424 121.025  1.00  0.00     0.140 C 
ATOM     14  O   UNL     1     100.663 115.357 120.354  1.00  0.00    -0.299 OA
BRANCH  13  15
ATOM     15  C   UNL     1     102.782 114.404 120.817  1.00  0.00     0.106 CG0
ATOM     16  G   UNL     1     102.440 113.046 121.410  1.00  0.00     0.000 G0
ENDBRANCH  13  15
ENDBRANCH  12  13
BRANCH  12  17
ATOM     17  C   UNL     1     101.577 117.962 121.361  1.00  0.00    -0.006 C 
ATOM     18  C   UNL     1     100.991 118.951 122.383  1.00  0.00     0.008 C 
ATOM     19  C   UNL     1     102.788 118.598 120.657  1.00  0.00     0.008 C 
ENDBRANCH  12  17
ENDBRANCH  11  12
ENDBRANCH   1  11
TORSDOF 1
ENDMDL
MODEL 6
REMARK VINA RESULT:    -3.661      2.045      4.323
REMARK INTER + INTRA:          -5.707
REMARK INTER:                  -5.738
REMARK INTRA:                   0.031
REMARK UNBOUND:                -0.120
REMARK SMILES CC1=CCC[C@H](C)C(=O)C[C@H](C(C)C)C(=O)C1
REMARK SMILES IDX 8 1 9 2 6 3 7 4 5 5 4 6 3 7 2 8 1 9 10 11 11 12 15 13 16 14
REMARK SMILES IDX 17 15 12 17 13 18 14 19
REMARK H PARENT
REMARK Flexibility Score: 70.00
ROOT
ATOM      1  C   UNL     1      99.853 118.844 122.076  1.00  0.00     0.136 C 
ATOM      2  O   UNL     1      98.901 119.609 121.999  1.00  0.00    -0.299 OA
ENDROOT
BRANCH   1   3
ATOM      3  C   UNL     1     100.800 118.986 123.253  1.00  0.00     0.053 C 
ATOM      4  C   UNL     1     100.586 120.324 123.977  1.00  0.00     0.016 C 
BRANCH   3   5
ATOM      5  C   UNL     1     100.621 117.791 124.221  1.00  0.00     0.015 C 
BRANCH   5   6
ATOM      6  C   UNL     1     101.925 116.988 124.424  1.00  0.00     0.028 C 
BRANCH   6   7
ATOM      7  C   UNL     1     101.704 115.502 124.264  1.00  0.00    -0.028 C 
ATOM      8  C   UNL     1     102.019 114.782 123.161  1.00  0.00    -0.070 CG0
ATOM      9  C   UNL     1     101.699 113.309 123.160  1.00  0.00     0.039 C 
ATOM     10  G   UNL     1     102.668 115.387 121.926  1.00  0.00     0.000 G0
ENDBRANCH   6   7
ENDBRANCH   5   6
ENDBRANCH   3   5
ENDBRANCH   1   3
BRANCH   1  11
ATOM     11  C   UNL     1      99.982 117.778 121.000  1.00  0.00     0.087 C 
BRANCH  11  12
ATOM     12  C   UNL     1     101.415 117.318 120.614  1.00  0.00     0.066 C 
BRANCH  12  13
ATOM     13  C   UNL     1     101.628 115.835 120.888  1.00  0.00     0.140 C 
ATOM     14  O   UNL     1     101.005 115.005 120.241  1.00  0.00    -0.299 OA
BRANCH  13  15
ATOM     15  C   UNL     1     102.651 115.377 121.904  1.00  0.00     0.106 CG0
ATOM     16  G   UNL     1     102.013 114.799 123.158  1.00  0.00     0.000 G0
ENDBRANCH  13  15
ENDBRANCH  12  13
BRANCH  12  17
ATOM     17  C   UNL     1     101.765 117.706 119.142  1.00  0.00    -0.006 C 
ATOM     18  C   UNL     1     103.112 117.108 118.706  1.00  0.00     0.008 C 
ATOM     19  C   UNL     1     100.679 117.347 118.112  1.00  0.00     0.008 C 
ENDBRANCH  12  17
ENDBRANCH  11  12
ENDBRANCH   1  11
TORSDOF 1
ENDMDL
MODEL 7
REMARK VINA RESULT:    -3.564      8.696     10.674
REMARK INTER + INTRA:          -5.560
REMARK INTER:                  -5.202
REMARK INTRA:                  -0.358
REMARK UNBOUND:                -0.120
REMARK SMILES CC1=CCC[C@H](C)C(=O)C[C@H](C(C)C)C(=O)C1
REMARK SMILES IDX 8 1 9 2 6 3 7 4 5 5 4 6 3 7 2 8 1 9 10 11 11 12 15 13 16 14
REMARK SMILES IDX 17 15 12 17 13 18 14 19
REMARK H PARENT
REMARK Flexibility Score: 70.00
ROOT
ATOM      1  C   UNL     1     101.157 107.798 117.886  1.00  0.00     0.136 C 
ATOM      2  O   UNL     1     100.877 107.483 119.035  1.00  0.00    -0.299 OA
ENDROOT
BRANCH   1   3
ATOM      3  C   UNL     1     101.282 106.700 116.845  1.00  0.00     0.053 C 
ATOM      4  C   UNL     1     101.715 105.375 117.489  1.00  0.00     0.016 C 
BRANCH   3   5
ATOM      5  C   UNL     1      99.943 106.541 116.084  1.00  0.00     0.015 C 
BRANCH   5   6
ATOM      6  C   UNL     1      99.954 107.240 114.706  1.00  0.00     0.028 C 
BRANCH   6   7
ATOM      7  C   UNL     1      98.956 108.372 114.638  1.00  0.00    -0.028 C 
ATOM      8  C   UNL     1      99.264 109.670 114.408  1.00  0.00    -0.070 CG0
ATOM      9  C   UNL     1      98.142 110.676 114.405  1.00  0.00     0.039 C 
ATOM     10  G   UNL     1     100.682 110.160 114.163  1.00  0.00     0.000 G0
ENDBRANCH   6   7
ENDBRANCH   5   6
ENDBRANCH   3   5
ENDBRANCH   1   3
BRANCH   1  11
ATOM     11  C   UNL     1     101.312 109.280 117.586  1.00  0.00     0.087 C 
BRANCH  11  12
ATOM     12  C   UNL     1     102.116 109.674 116.316  1.00  0.00     0.066 C 
BRANCH  12  13
ATOM     13  C   UNL     1     101.348 110.657 115.442  1.00  0.00     0.140 C 
ATOM     14  O   UNL     1     101.323 111.843 115.742  1.00  0.00    -0.299 OA
BRANCH  13  15
ATOM     15  C   UNL     1     100.672 110.194 114.170  1.00  0.00     0.106 CG0
ATOM     16  G   UNL     1      99.261 109.680 114.410  1.00  0.00     0.000 G0
ENDBRANCH  13  15
ENDBRANCH  12  13
BRANCH  12  17
ATOM     17  C   UNL     1     103.544 110.193 116.679  1.00  0.00    -0.006 C 
ATOM     18  C   UNL     1     103.684 110.451 118.188  1.00  0.00     0.008 C 
ATOM     19  C   UNL     1     104.692 109.290 116.196  1.00  0.00     0.008 C 
ENDBRANCH  12  17
ENDBRANCH  11  12
ENDBRANCH   1  11
TORSDOF 1
ENDMDL
MODEL 8
REMARK VINA RESULT:    -3.548      1.994      4.175
REMARK INTER + INTRA:          -5.536
REMARK INTER:                  -5.196
REMARK INTRA:                  -0.339
REMARK UNBOUND:                -0.120
REMARK SMILES CC1=CCC[C@H](C)C(=O)C[C@H](C(C)C)C(=O)C1
REMARK SMILES IDX 8 1 9 2 6 3 7 4 5 5 4 6 3 7 2 8 1 9 10 11 11 12 15 13 16 14
REMARK SMILES IDX 17 15 12 17 13 18 14 19
REMARK H PARENT
REMARK Flexibility Score: 70.00
ROOT
ATOM      1  C   UNL     1     102.539 112.833 122.871  1.00  0.00     0.136 C 
ATOM      2  O   UNL     1     102.214 111.656 122.799  1.00  0.00    -0.299 OA
ENDROOT
BRANCH   1   3
ATOM      3  C   UNL     1     103.733 113.304 122.060  1.00  0.00     0.053 C 
ATOM      4  C   UNL     1     104.843 112.243 122.044  1.00  0.00     0.016 C 
BRANCH   3   5
ATOM      5  C   UNL     1     103.284 113.668 120.623  1.00  0.00     0.015 C 
BRANCH   5   6
ATOM      6  C   UNL     1     103.300 115.189 120.361  1.00  0.00     0.028 C 
BRANCH   6   7
ATOM      7  C   UNL     1     101.906 115.750 120.201  1.00  0.00    -0.028 C 
ATOM      8  C   UNL     1     101.282 116.554 121.094  1.00  0.00    -0.070 CG0
ATOM      9  C   UNL     1      99.874 116.996 120.789  1.00  0.00     0.039 C 
ATOM     10  G   UNL     1     101.928 117.024 122.388  1.00  0.00     0.000 G0
ENDBRANCH   6   7
ENDBRANCH   5   6
ENDBRANCH   3   5
ENDBRANCH   1   3
BRANCH   1  11
ATOM     11  C   UNL     1     101.684 113.743 123.738  1.00  0.00     0.087 C 
BRANCH  11  12
ATOM     12  C   UNL     1     102.285 115.115 124.148  1.00  0.00     0.066 C 
BRANCH  12  13
ATOM     13  C   UNL     1     101.463 116.278 123.608  1.00  0.00     0.140 C 
ATOM     14  O   UNL     1     100.447 116.625 124.194  1.00  0.00    -0.299 OA
BRANCH  13  15
ATOM     15  C   UNL     1     101.927 117.053 122.394  1.00  0.00     0.106 CG0
ATOM     16  G   UNL     1     101.295 116.554 121.104  1.00  0.00     0.000 G0
ENDBRANCH  13  15
ENDBRANCH  12  13
BRANCH  12  17
ATOM     17  C   UNL     1     102.501 115.208 125.693  1.00  0.00    -0.006 C 
ATOM     18  C   UNL     1     102.829 113.834 126.300  1.00  0.00     0.008 C 
ATOM     19  C   UNL     1     103.561 116.235 126.128  1.00  0.00     0.008 C 
ENDBRANCH  12  17
ENDBRANCH  11  12
ENDBRANCH   1  11
TORSDOF 1
ENDMDL
MODEL 9
REMARK VINA RESULT:    -3.478      2.029      4.029
REMARK INTER + INTRA:          -5.429
REMARK INTER:                  -5.715
REMARK INTRA:                   0.287
REMARK UNBOUND:                -0.120
REMARK SMILES CC1=CCC[C@H](C)C(=O)C[C@H](C(C)C)C(=O)C1
REMARK SMILES IDX 8 1 9 2 6 3 7 4 5 5 4 6 3 7 2 8 1 9 10 11 11 12 15 13 16 14
REMARK SMILES IDX 17 15 12 17 13 18 14 19
REMARK H PARENT
REMARK Flexibility Score: 70.00
ROOT
ATOM      1  C   UNL     1     100.503 118.770 122.345  1.00  0.00     0.136 C 
ATOM      2  O   UNL     1      99.762 119.724 122.543  1.00  0.00    -0.299 OA
ENDROOT
BRANCH   1   3
ATOM      3  C   UNL     1     100.541 118.162 120.955  1.00  0.00     0.053 C 
ATOM      4  C   UNL     1      99.205 118.366 120.225  1.00  0.00     0.016 C 
BRANCH   3   5
ATOM      5  C   UNL     1     101.718 118.763 120.148  1.00  0.00     0.015 C 
BRANCH   5   6
ATOM      6  C   UNL     1     103.044 118.004 120.374  1.00  0.00     0.028 C 
BRANCH   6   7
ATOM      7  C   UNL     1     102.870 116.509 120.245  1.00  0.00    -0.028 C 
ATOM      8  C   UNL     1     102.867 115.633 121.278  1.00  0.00    -0.070 CG0
ATOM      9  C   UNL     1     102.713 114.167 120.964  1.00  0.00     0.039 C 
ATOM     10  G   UNL     1     103.020 116.055 122.731  1.00  0.00     0.000 G0
ENDBRANCH   6   7
ENDBRANCH   5   6
ENDBRANCH   3   5
ENDBRANCH   1   3
BRANCH   1  11
ATOM     11  C   UNL     1     101.364 118.301 123.507  1.00  0.00     0.087 C 
BRANCH  11  12
ATOM     12  C   UNL     1     100.995 116.947 124.172  1.00  0.00     0.066 C 
BRANCH  12  13
ATOM     13  C   UNL     1     101.782 115.788 123.574  1.00  0.00     0.140 C 
ATOM     14  O   UNL     1     101.378 114.643 123.719  1.00  0.00    -0.299 OA
BRANCH  13  15
ATOM     15  C   UNL     1     103.021 116.044 122.744  1.00  0.00     0.106 CG0
ATOM     16  G   UNL     1     102.849 115.629 121.291  1.00  0.00     0.000 G0
ENDBRANCH  13  15
ENDBRANCH  12  13
BRANCH  12  17
ATOM     17  C   UNL     1     101.129 117.016 125.727  1.00  0.00    -0.006 C 
ATOM     18  C   UNL     1     102.572 116.740 126.181  1.00  0.00     0.008 C 
ATOM     19  C   UNL     1     100.628 118.329 126.353  1.00  0.00     0.008 C 
ENDBRANCH  12  17
ENDBRANCH  11  12
ENDBRANCH   1  11
TORSDOF 1
ENDMDL
