MODEL 1
REMARK VINA RESULT:    -5.348      0.000      0.000
REMARK INTER + INTRA:          -8.367
REMARK INTER:                  -8.162
REMARK INTRA:                  -0.204
REMARK UNBOUND:                -0.204
REMARK SMILES CC1=CCC[C@H](C)C(=O)C[C@@H](C(C)C)C(=O)C1
REMARK SMILES IDX 8 1 9 2 6 3 7 4 5 5 4 6 3 7 2 8 1 9 10 11 11 12 15 13 16 14
REMARK SMILES IDX 17 15 12 17 13 18 14 19
REMARK H PARENT
REMARK Flexibility Score: 70.00
ROOT
ATOM      1  C   UNL     1      29.023  14.150  82.529  1.00  0.00     0.136 C 
ATOM      2  O   UNL     1      30.182  13.810  82.344  1.00  0.00    -0.299 OA
ENDROOT
BRANCH   1   3
ATOM      3  C   UNL     1      28.259  13.575  83.736  1.00  0.00     0.053 C 
ATOM      4  C   UNL     1      26.971  14.385  83.932  1.00  0.00     0.016 C 
BRANCH   3   5
ATOM      5  C   UNL     1      27.935  12.026  83.626  1.00  0.00     0.015 C 
BRANCH   5   6
ATOM      6  C   UNL     1      27.340  11.552  82.250  1.00  0.00     0.028 C 
BRANCH   6   7
ATOM      7  C   UNL     1      28.219  10.633  81.382  1.00  0.00    -0.028 C 
ATOM      8  C   UNL     1      28.654  10.940  80.130  1.00  0.00    -0.070 CG0
ATOM      9  C   UNL     1      29.544   9.986  79.382  1.00  0.00     0.039 C 
ATOM     10  G   UNL     1      27.994  12.108  79.482  1.00  0.00     0.000 G0
ENDBRANCH   6   7
ENDBRANCH   5   6
ENDBRANCH   3   5
ENDBRANCH   1   3
BRANCH   1  11
ATOM     11  C   UNL     1      28.371  15.118  81.532  1.00  0.00     0.087 C 
BRANCH  11  12
ATOM     12  C   UNL     1      27.530  14.446  80.373  1.00  0.00     0.066 C 
BRANCH  12  13
ATOM     13  C   UNL     1      28.377  13.538  79.458  1.00  0.00     0.140 C 
ATOM     14  O   UNL     1      29.290  13.959  78.766  1.00  0.00    -0.299 OA
BRANCH  13  15
ATOM     15  C   UNL     1      28.000  12.105  79.454  1.00  0.00     0.106 CG0
ATOM     16  G   UNL     1      28.651  10.943  80.121  1.00  0.00     0.000 G0
ENDBRANCH  13  15
ENDBRANCH  12  13
BRANCH  12  17
ATOM     17  C   UNL     1      26.704  15.529  79.604  1.00  0.00    -0.006 C 
ATOM     18  C   UNL     1      26.015  14.991  78.339  1.00  0.00     0.008 C 
ATOM     19  C   UNL     1      25.694  16.254  80.507  1.00  0.00     0.008 C 
ENDBRANCH  12  17
ENDBRANCH  11  12
ENDBRANCH   1  11
TORSDOF 1
ENDMDL
MODEL 2
REMARK VINA RESULT:    -5.226      1.650      3.637
REMARK INTER + INTRA:          -8.180
REMARK INTER:                  -8.286
REMARK INTRA:                   0.106
REMARK UNBOUND:                -0.204
REMARK SMILES CC1=CCC[C@H](C)C(=O)C[C@@H](C(C)C)C(=O)C1
REMARK SMILES IDX 8 1 9 2 6 3 7 4 5 5 4 6 3 7 2 8 1 9 10 11 11 12 15 13 16 14
REMARK SMILES IDX 17 15 12 17 13 18 14 19
REMARK H PARENT
REMARK Flexibility Score: 70.00
ROOT
ATOM      1  C   UNL     1      27.324  15.951  81.210  1.00  0.00     0.136 C 
ATOM      2  O   UNL     1      27.212  16.930  81.934  1.00  0.00    -0.299 OA
ENDROOT
BRANCH   1   3
ATOM      3  C   UNL     1      26.073  15.393  80.507  1.00  0.00     0.053 C 
ATOM      4  C   UNL     1      24.829  15.927  81.228  1.00  0.00     0.016 C 
BRANCH   3   5
ATOM      5  C   UNL     1      26.000  15.710  78.955  1.00  0.00     0.015 C 
BRANCH   5   6
ATOM      6  C   UNL     1      27.121  15.051  78.072  1.00  0.00     0.028 C 
BRANCH   6   7
ATOM      7  C   UNL     1      27.011  13.538  77.806  1.00  0.00    -0.028 C 
ATOM      8  C   UNL     1      27.741  12.588  78.450  1.00  0.00    -0.070 CG0
ATOM      9  C   UNL     1      27.526  11.131  78.142  1.00  0.00     0.039 C 
ATOM     10  G   UNL     1      28.901  13.085  79.241  1.00  0.00     0.000 G0
ENDBRANCH   6   7
ENDBRANCH   5   6
ENDBRANCH   3   5
ENDBRANCH   1   3
BRANCH   1  11
ATOM     11  C   UNL     1      28.708  15.305  81.056  1.00  0.00     0.087 C 
BRANCH  11  12
ATOM     12  C   UNL     1      28.866  13.861  81.684  1.00  0.00     0.066 C 
BRANCH  12  13
ATOM     13  C   UNL     1      29.290  12.796  80.652  1.00  0.00     0.140 C 
ATOM     14  O   UNL     1      29.914  11.791  80.953  1.00  0.00    -0.299 OA
BRANCH  13  15
ATOM     15  C   UNL     1      28.907  13.078  79.248  1.00  0.00     0.106 CG0
ATOM     16  G   UNL     1      27.735  12.599  78.462  1.00  0.00     0.000 G0
ENDBRANCH  13  15
ENDBRANCH  12  13
BRANCH  12  17
ATOM     17  C   UNL     1      27.587  13.482  82.500  1.00  0.00    -0.006 C 
ATOM     18  C   UNL     1      26.862  12.237  81.960  1.00  0.00     0.008 C 
ATOM     19  C   UNL     1      27.867  13.338  84.005  1.00  0.00     0.008 C 
ENDBRANCH  12  17
ENDBRANCH  11  12
ENDBRANCH   1  11
TORSDOF 1
ENDMDL
MODEL 3
REMARK VINA RESULT:    -5.213      1.507      2.141
REMARK INTER + INTRA:          -8.160
REMARK INTER:                  -8.189
REMARK INTRA:                   0.029
REMARK UNBOUND:                -0.204
REMARK SMILES CC1=CCC[C@H](C)C(=O)C[C@@H](C(C)C)C(=O)C1
REMARK SMILES IDX 8 1 9 2 6 3 7 4 5 5 4 6 3 7 2 8 1 9 10 11 11 12 15 13 16 14
REMARK SMILES IDX 17 15 12 17 13 18 14 19
REMARK H PARENT
REMARK Flexibility Score: 70.00
ROOT
ATOM      1  C   UNL     1      27.591  14.089  82.955  1.00  0.00     0.136 C 
ATOM      2  O   UNL     1      27.166  14.522  84.017  1.00  0.00    -0.299 OA
ENDROOT
BRANCH   1   3
ATOM      3  C   UNL     1      28.068  12.627  82.881  1.00  0.00     0.053 C 
ATOM      4  C   UNL     1      28.314  12.120  84.308  1.00  0.00     0.016 C 
BRANCH   3   5
ATOM      5  C   UNL     1      27.083  11.657  82.104  1.00  0.00     0.015 C 
BRANCH   5   6
ATOM      6  C   UNL     1      27.687  10.945  80.839  1.00  0.00     0.028 C 
BRANCH   6   7
ATOM      7  C   UNL     1      28.938  11.579  80.204  1.00  0.00    -0.028 C 
ATOM      8  C   UNL     1      28.938  12.738  79.493  1.00  0.00    -0.070 CG0
ATOM      9  C   UNL     1      30.226  13.293  78.947  1.00  0.00     0.039 C 
ATOM     10  G   UNL     1      27.600  13.248  79.081  1.00  0.00     0.000 G0
ENDBRANCH   6   7
ENDBRANCH   5   6
ENDBRANCH   3   5
ENDBRANCH   1   3
BRANCH   1  11
ATOM     11  C   UNL     1      27.655  15.035  81.748  1.00  0.00     0.087 C 
BRANCH  11  12
ATOM     12  C   UNL     1      26.483  14.887  80.697  1.00  0.00     0.066 C 
BRANCH  12  13
ATOM     13  C   UNL     1      26.984  14.590  79.268  1.00  0.00     0.140 C 
ATOM     14  O   UNL     1      26.873  15.383  78.347  1.00  0.00    -0.299 OA
BRANCH  13  15
ATOM     15  C   UNL     1      27.601  13.257  79.072  1.00  0.00     0.106 CG0
ATOM     16  G   UNL     1      28.932  12.746  79.506  1.00  0.00     0.000 G0
ENDBRANCH  13  15
ENDBRANCH  12  13
BRANCH  12  17
ATOM     17  C   UNL     1      25.514  16.112  80.788  1.00  0.00    -0.006 C 
ATOM     18  C   UNL     1      24.255  15.836  81.627  1.00  0.00     0.008 C 
ATOM     19  C   UNL     1      26.221  17.389  81.271  1.00  0.00     0.008 C 
ENDBRANCH  12  17
ENDBRANCH  11  12
ENDBRANCH   1  11
TORSDOF 1
ENDMDL
MODEL 4
REMARK VINA RESULT:    -5.211      1.817      4.241
REMARK INTER + INTRA:          -8.157
REMARK INTER:                  -8.317
REMARK INTRA:                   0.161
REMARK UNBOUND:                -0.204
REMARK SMILES CC1=CCC[C@H](C)C(=O)C[C@@H](C(C)C)C(=O)C1
REMARK SMILES IDX 8 1 9 2 6 3 7 4 5 5 4 6 3 7 2 8 1 9 10 11 11 12 15 13 16 14
REMARK SMILES IDX 17 15 12 17 13 18 14 19
REMARK H PARENT
REMARK Flexibility Score: 70.00
ROOT
ATOM      1  C   UNL     1      26.255  14.803  82.197  1.00  0.00     0.136 C 
ATOM      2  O   UNL     1      26.055  15.130  83.358  1.00  0.00    -0.299 OA
ENDROOT
BRANCH   1   3
ATOM      3  C   UNL     1      25.692  15.683  81.065  1.00  0.00     0.053 C 
ATOM      4  C   UNL     1      26.366  17.059  81.134  1.00  0.00     0.016 C 
BRANCH   3   5
ATOM      5  C   UNL     1      25.842  15.057  79.615  1.00  0.00     0.015 C 
BRANCH   5   6
ATOM      6  C   UNL     1      27.109  15.514  78.805  1.00  0.00     0.028 C 
BRANCH   6   7
ATOM      7  C   UNL     1      28.106  14.420  78.382  1.00  0.00    -0.028 C 
ATOM      8  C   UNL     1      29.024  13.852  79.210  1.00  0.00    -0.070 CG0
ATOM      9  C   UNL     1      29.927  12.760  78.705  1.00  0.00     0.039 C 
ATOM     10  G   UNL     1      29.243  14.546  80.510  1.00  0.00     0.000 G0
ENDBRANCH   6   7
ENDBRANCH   5   6
ENDBRANCH   3   5
ENDBRANCH   1   3
BRANCH   1  11
ATOM     11  C   UNL     1      27.037  13.512  81.920  1.00  0.00     0.087 C 
BRANCH  11  12
ATOM     12  C   UNL     1      28.430  13.380  82.660  1.00  0.00     0.066 C 
BRANCH  12  13
ATOM     13  C   UNL     1      29.605  13.955  81.843  1.00  0.00     0.140 C 
ATOM     14  O   UNL     1      30.756  13.961  82.249  1.00  0.00    -0.299 OA
BRANCH  13  15
ATOM     15  C   UNL     1      29.247  14.528  80.524  1.00  0.00     0.106 CG0
ATOM     16  G   UNL     1      29.035  13.852  79.214  1.00  0.00     0.000 G0
ENDBRANCH  13  15
ENDBRANCH  12  13
BRANCH  12  17
ATOM     17  C   UNL     1      28.651  11.909  83.142  1.00  0.00    -0.006 C 
ATOM     18  C   UNL     1      28.281  11.687  84.618  1.00  0.00     0.008 C 
ATOM     19  C   UNL     1      27.945  10.880  82.244  1.00  0.00     0.008 C 
ENDBRANCH  12  17
ENDBRANCH  11  12
ENDBRANCH   1  11
TORSDOF 1
ENDMDL
MODEL 5
REMARK VINA RESULT:    -5.202      2.171      4.075
REMARK INTER + INTRA:          -8.143
REMARK INTER:                  -8.347
REMARK INTRA:                   0.204
REMARK UNBOUND:                -0.204
REMARK SMILES CC1=CCC[C@H](C)C(=O)C[C@@H](C(C)C)C(=O)C1
REMARK SMILES IDX 8 1 9 2 6 3 7 4 5 5 4 6 3 7 2 8 1 9 10 11 11 12 15 13 16 14
REMARK SMILES IDX 17 15 12 17 13 18 14 19
REMARK H PARENT
REMARK Flexibility Score: 70.00
ROOT
ATOM      1  C   UNL     1      26.750  14.127  78.346  1.00  0.00     0.136 C 
ATOM      2  O   UNL     1      26.524  14.273  77.153  1.00  0.00    -0.299 OA
ENDROOT
BRANCH   1   3
ATOM      3  C   UNL     1      27.749  13.042  78.790  1.00  0.00     0.053 C 
ATOM      4  C   UNL     1      27.575  11.817  77.883  1.00  0.00     0.016 C 
BRANCH   3   5
ATOM      5  C   UNL     1      29.262  13.515  78.808  1.00  0.00     0.015 C 
BRANCH   5   6
ATOM      6  C   UNL     1      29.841  13.891  80.221  1.00  0.00     0.028 C 
BRANCH   6   7
ATOM      7  C   UNL     1      29.699  12.845  81.341  1.00  0.00    -0.028 C 
ATOM      8  C   UNL     1      28.751  12.884  82.316  1.00  0.00    -0.070 CG0
ATOM      9  C   UNL     1      28.676  11.787  83.343  1.00  0.00     0.039 C 
ATOM     10  G   UNL     1      28.006  14.167  82.447  1.00  0.00     0.000 G0
ENDBRANCH   6   7
ENDBRANCH   5   6
ENDBRANCH   3   5
ENDBRANCH   1   3
BRANCH   1  11
ATOM     11  C   UNL     1      26.005  15.016  79.350  1.00  0.00     0.087 C 
BRANCH  11  12
ATOM     12  C   UNL     1      26.848  15.497  80.600  1.00  0.00     0.066 C 
BRANCH  12  13
ATOM     13  C   UNL     1      26.716  14.558  81.816  1.00  0.00     0.140 C 
ATOM     14  O   UNL     1      25.640  14.180  82.250  1.00  0.00    -0.299 OA
BRANCH  13  15
ATOM     15  C   UNL     1      27.992  14.152  82.451  1.00  0.00     0.106 CG0
ATOM     16  G   UNL     1      28.761  12.882  82.325  1.00  0.00     0.000 G0
ENDBRANCH  13  15
ENDBRANCH  12  13
BRANCH  12  17
ATOM     17  C   UNL     1      26.540  16.997  80.918  1.00  0.00    -0.006 C 
ATOM     18  C   UNL     1      25.038  17.328  80.913  1.00  0.00     0.008 C 
ATOM     19  C   UNL     1      27.197  17.471  82.225  1.00  0.00     0.008 C 
ENDBRANCH  12  17
ENDBRANCH  11  12
ENDBRANCH   1  11
TORSDOF 1
ENDMDL
MODEL 6
REMARK VINA RESULT:    -5.167      2.057      4.098
REMARK INTER + INTRA:          -8.091
REMARK INTER:                  -8.019
REMARK INTRA:                  -0.072
REMARK UNBOUND:                -0.204
REMARK SMILES CC1=CCC[C@H](C)C(=O)C[C@@H](C(C)C)C(=O)C1
REMARK SMILES IDX 8 1 9 2 6 3 7 4 5 5 4 6 3 7 2 8 1 9 10 11 11 12 15 13 16 14
REMARK SMILES IDX 17 15 12 17 13 18 14 19
REMARK H PARENT
REMARK Flexibility Score: 70.00
ROOT
ATOM      1  C   UNL     1      27.420  13.563  79.393  1.00  0.00     0.136 C 
ATOM      2  O   UNL     1      27.657  14.597  78.784  1.00  0.00    -0.299 OA
ENDROOT
BRANCH   1   3
ATOM      3  C   UNL     1      27.764  12.213  78.737  1.00  0.00     0.053 C 
ATOM      4  C   UNL     1      27.043  12.128  77.386  1.00  0.00     0.016 C 
BRANCH   3   5
ATOM      5  C   UNL     1      29.319  11.951  78.561  1.00  0.00     0.015 C 
BRANCH   5   6
ATOM      6  C   UNL     1      30.109  11.629  79.881  1.00  0.00     0.028 C 
BRANCH   6   7
ATOM      7  C   UNL     1      30.894  12.784  80.531  1.00  0.00    -0.028 C 
ATOM      8  C   UNL     1      30.660  13.266  81.781  1.00  0.00    -0.070 CG0
ATOM      9  C   UNL     1      31.514  14.374  82.337  1.00  0.00     0.039 C 
ATOM     10  G   UNL     1      29.388  12.827  82.420  1.00  0.00     0.000 G0
ENDBRANCH   6   7
ENDBRANCH   5   6
ENDBRANCH   3   5
ENDBRANCH   1   3
BRANCH   1  11
ATOM     11  C   UNL     1      26.762  13.659  80.776  1.00  0.00     0.087 C 
BRANCH  11  12
ATOM     12  C   UNL     1      27.534  14.533  81.845  1.00  0.00     0.066 C 
BRANCH  12  13
ATOM     13  C   UNL     1      28.244  13.685  82.921  1.00  0.00     0.140 C 
ATOM     14  O   UNL     1      27.921  13.699  84.098  1.00  0.00    -0.299 OA
BRANCH  13  15
ATOM     15  C   UNL     1      29.372  12.854  82.437  1.00  0.00     0.106 CG0
ATOM     16  G   UNL     1      30.650  13.261  81.788  1.00  0.00     0.000 G0
ENDBRANCH  13  15
ENDBRANCH  12  13
BRANCH  12  17
ATOM     17  C   UNL     1      26.591  15.636  82.427  1.00  0.00    -0.006 C 
ATOM     18  C   UNL     1      26.867  17.039  81.860  1.00  0.00     0.008 C 
ATOM     19  C   UNL     1      25.103  15.276  82.287  1.00  0.00     0.008 C 
ENDBRANCH  12  17
ENDBRANCH  11  12
ENDBRANCH   1  11
TORSDOF 1
ENDMDL
MODEL 7
REMARK VINA RESULT:    -5.133      1.934      4.166
REMARK INTER + INTRA:          -8.038
REMARK INTER:                  -8.120
REMARK INTRA:                   0.082
REMARK UNBOUND:                -0.204
REMARK SMILES CC1=CCC[C@H](C)C(=O)C[C@@H](C(C)C)C(=O)C1
REMARK SMILES IDX 8 1 9 2 6 3 7 4 5 5 4 6 3 7 2 8 1 9 10 11 11 12 15 13 16 14
REMARK SMILES IDX 17 15 12 17 13 18 14 19
REMARK H PARENT
REMARK Flexibility Score: 70.00
ROOT
ATOM      1  C   UNL     1      28.251  12.312  82.022  1.00  0.00     0.136 C 
ATOM      2  O   UNL     1      29.453  12.087  82.052  1.00  0.00    -0.299 OA
ENDROOT
BRANCH   1   3
ATOM      3  C   UNL     1      27.506  12.570  83.344  1.00  0.00     0.053 C 
ATOM      4  C   UNL     1      28.300  11.926  84.487  1.00  0.00     0.016 C 
BRANCH   3   5
ATOM      5  C   UNL     1      27.227  14.102  83.649  1.00  0.00     0.015 C 
BRANCH   5   6
ATOM      6  C   UNL     1      27.980  15.127  82.724  1.00  0.00     0.028 C 
BRANCH   6   7
ATOM      7  C   UNL     1      27.159  16.302  82.162  1.00  0.00    -0.028 C 
ATOM      8  C   UNL     1      26.212  16.186  81.192  1.00  0.00    -0.070 CG0
ATOM      9  C   UNL     1      25.438  17.394  80.741  1.00  0.00     0.039 C 
ATOM     10  G   UNL     1      26.192  14.891  80.456  1.00  0.00     0.000 G0
ENDBRANCH   6   7
ENDBRANCH   5   6
ENDBRANCH   3   5
ENDBRANCH   1   3
BRANCH   1  11
ATOM     11  C   UNL     1      27.534  12.299  80.665  1.00  0.00     0.087 C 
BRANCH  11  12
ATOM     12  C   UNL     1      28.058  13.346  79.600  1.00  0.00     0.066 C 
BRANCH  12  13
ATOM     13  C   UNL     1      27.034  14.457  79.291  1.00  0.00     0.140 C 
ATOM     14  O   UNL     1      26.915  14.962  78.186  1.00  0.00    -0.299 OA
BRANCH  13  15
ATOM     15  C   UNL     1      26.204  14.899  80.437  1.00  0.00     0.106 CG0
ATOM     16  G   UNL     1      26.210  16.189  81.181  1.00  0.00     0.000 G0
ENDBRANCH  13  15
ENDBRANCH  12  13
BRANCH  12  17
ATOM     17  C   UNL     1      28.596  12.607  78.332  1.00  0.00    -0.006 C 
ATOM     18  C   UNL     1      30.038  12.096  78.485  1.00  0.00     0.008 C 
ATOM     19  C   UNL     1      27.664  11.475  77.867  1.00  0.00     0.008 C 
ENDBRANCH  12  17
ENDBRANCH  11  12
ENDBRANCH   1  11
TORSDOF 1
ENDMDL
MODEL 8
REMARK VINA RESULT:    -5.130      1.622      2.671
REMARK INTER + INTRA:          -8.034
REMARK INTER:                  -8.180
REMARK INTRA:                   0.146
REMARK UNBOUND:                -0.204
REMARK SMILES CC1=CCC[C@H](C)C(=O)C[C@@H](C(C)C)C(=O)C1
REMARK SMILES IDX 8 1 9 2 6 3 7 4 5 5 4 6 3 7 2 8 1 9 10 11 11 12 15 13 16 14
REMARK SMILES IDX 17 15 12 17 13 18 14 19
REMARK H PARENT
REMARK Flexibility Score: 70.00
ROOT
ATOM      1  C   UNL     1      26.903  16.025  81.018  1.00  0.00     0.136 C 
ATOM      2  O   UNL     1      27.956  16.546  81.357  1.00  0.00    -0.299 OA
ENDROOT
BRANCH   1   3
ATOM      3  C   UNL     1      25.783  15.854  82.061  1.00  0.00     0.053 C 
ATOM      4  C   UNL     1      24.478  16.406  81.472  1.00  0.00     0.016 C 
BRANCH   3   5
ATOM      5  C   UNL     1      25.583  14.365  82.568  1.00  0.00     0.015 C 
BRANCH   5   6
ATOM      6  C   UNL     1      26.894  13.610  82.995  1.00  0.00     0.028 C 
BRANCH   6   7
ATOM      7  C   UNL     1      27.160  12.238  82.349  1.00  0.00    -0.028 C 
ATOM      8  C   UNL     1      28.209  11.964  81.528  1.00  0.00    -0.070 CG0
ATOM      9  C   UNL     1      28.399  10.575  80.979  1.00  0.00     0.039 C 
ATOM     10  G   UNL     1      28.962  13.144  81.018  1.00  0.00     0.000 G0
ENDBRANCH   6   7
ENDBRANCH   5   6
ENDBRANCH   3   5
ENDBRANCH   1   3
BRANCH   1  11
ATOM     11  C   UNL     1      26.756  15.538  79.570  1.00  0.00     0.087 C 
BRANCH  11  12
ATOM     12  C   UNL     1      27.350  14.105  79.262  1.00  0.00     0.066 C 
BRANCH  12  13
ATOM     13  C   UNL     1      28.801  13.933  79.757  1.00  0.00     0.140 C 
ATOM     14  O   UNL     1      29.765  14.385  79.159  1.00  0.00    -0.299 OA
BRANCH  13  15
ATOM     15  C   UNL     1      28.962  13.158  81.010  1.00  0.00     0.106 CG0
ATOM     16  G   UNL     1      28.211  11.969  81.501  1.00  0.00     0.000 G0
ENDBRANCH  13  15
ENDBRANCH  12  13
BRANCH  12  17
ATOM     17  C   UNL     1      27.146  13.744  77.755  1.00  0.00    -0.006 C 
ATOM     18  C   UNL     1      27.170  12.232  77.477  1.00  0.00     0.008 C 
ATOM     19  C   UNL     1      25.882  14.387  77.159  1.00  0.00     0.008 C 
ENDBRANCH  12  17
ENDBRANCH  11  12
ENDBRANCH   1  11
TORSDOF 1
ENDMDL
MODEL 9
REMARK VINA RESULT:    -5.000      1.986      3.711
REMARK INTER + INTRA:          -7.834
REMARK INTER:                  -7.694
REMARK INTRA:                  -0.140
REMARK UNBOUND:                -0.204
REMARK SMILES CC1=CCC[C@H](C)C(=O)C[C@@H](C(C)C)C(=O)C1
REMARK SMILES IDX 8 1 9 2 6 3 7 4 5 5 4 6 3 7 2 8 1 9 10 11 11 12 15 13 16 14
REMARK SMILES IDX 17 15 12 17 13 18 14 19
REMARK H PARENT
REMARK Flexibility Score: 70.00
ROOT
ATOM      1  C   UNL     1      26.859  15.297  79.308  1.00  0.00     0.136 C 
ATOM      2  O   UNL     1      25.862  15.711  78.733  1.00  0.00    -0.299 OA
ENDROOT
BRANCH   1   3
ATOM      3  C   UNL     1      27.017  15.563  80.816  1.00  0.00     0.053 C 
ATOM      4  C   UNL     1      26.423  16.942  81.134  1.00  0.00     0.016 C 
BRANCH   3   5
ATOM      5  C   UNL     1      26.377  14.449  81.747  1.00  0.00     0.015 C 
BRANCH   5   6
ATOM      6  C   UNL     1      27.395  13.462  82.425  1.00  0.00     0.028 C 
BRANCH   6   7
ATOM      7  C   UNL     1      28.801  14.005  82.737  1.00  0.00    -0.028 C 
ATOM      8  C   UNL     1      29.899  13.791  81.963  1.00  0.00    -0.070 CG0
ATOM      9  C   UNL     1      31.222  14.402  82.339  1.00  0.00     0.039 C 
ATOM     10  G   UNL     1      29.763  12.736  80.920  1.00  0.00     0.000 G0
ENDBRANCH   6   7
ENDBRANCH   5   6
ENDBRANCH   3   5
ENDBRANCH   1   3
BRANCH   1  11
ATOM     11  C   UNL     1      27.924  14.553  78.491  1.00  0.00     0.087 C 
BRANCH  11  12
ATOM     12  C   UNL     1      28.206  13.059  78.929  1.00  0.00     0.066 C 
BRANCH  12  13
ATOM     13  C   UNL     1      29.642  12.843  79.452  1.00  0.00     0.140 C 
ATOM     14  O   UNL     1      30.610  12.751  78.715  1.00  0.00    -0.299 OA
BRANCH  13  15
ATOM     15  C   UNL     1      29.775  12.733  80.923  1.00  0.00     0.106 CG0
ATOM     16  G   UNL     1      29.894  13.800  81.956  1.00  0.00     0.000 G0
ENDBRANCH  13  15
ENDBRANCH  12  13
BRANCH  12  17
ATOM     17  C   UNL     1      27.790  12.072  77.790  1.00  0.00    -0.006 C 
ATOM     18  C   UNL     1      27.416  10.670  78.300  1.00  0.00     0.008 C 
ATOM     19  C   UNL     1      26.677  12.639  76.893  1.00  0.00     0.008 C 
ENDBRANCH  12  17
ENDBRANCH  11  12
ENDBRANCH   1  11
TORSDOF 1
ENDMDL
