MODEL 1
REMARK VINA RESULT:    -2.149      0.000      0.000
REMARK INTER + INTRA:          -2.149
REMARK INTER:                  -2.149
REMARK INTRA:                   0.000
REMARK UNBOUND:                 0.000
REMARK SMILES CC(=O)[O-]
REMARK SMILES IDX 1 1 2 2 3 3 4 4
REMARK H PARENT
REMARK Flexibility Score: inf
ROOT
ATOM      1  C   UNL     1      -1.914  11.751 -23.840  1.00  0.00     0.063 C 
ATOM      2  C   UNL     1      -1.727  11.978 -22.378  1.00  0.00     0.038 C 
ATOM      3  O   UNL     1      -2.135  13.045 -21.848  1.00  0.00    -0.550 OA
ATOM      4  O   UNL     1      -1.153  10.991 -21.588  1.00  0.00    -0.550 OA
ENDROOT
TORSDOF 0
ENDMDL
MODEL 2
REMARK VINA RESULT:    -2.087      1.402      2.039
REMARK INTER + INTRA:          -2.087
REMARK INTER:                  -2.087
REMARK INTRA:                   0.000
REMARK UNBOUND:                 0.000
REMARK SMILES CC(=O)[O-]
REMARK SMILES IDX 1 1 2 2 3 3 4 4
REMARK H PARENT
REMARK Flexibility Score: inf
ROOT
ATOM      1  C   UNL     1      -1.921  13.125 -21.928  1.00  0.00     0.063 C 
ATOM      2  C   UNL     1      -1.598  11.757 -22.425  1.00  0.00     0.038 C 
ATOM      3  O   UNL     1      -1.131  10.893 -21.638  1.00  0.00    -0.550 OA
ATOM      4  O   UNL     1      -1.864  11.416 -23.745  1.00  0.00    -0.550 OA
ENDROOT
TORSDOF 0
ENDMDL
MODEL 3
REMARK VINA RESULT:    -2.033      2.064      2.431
REMARK INTER + INTRA:          -2.033
REMARK INTER:                  -2.033
REMARK INTRA:                   0.000
REMARK UNBOUND:                 0.000
REMARK SMILES CC(=O)[O-]
REMARK SMILES IDX 1 1 2 2 3 3 4 4
REMARK H PARENT
REMARK Flexibility Score: inf
ROOT
ATOM      1  C   UNL     1      -1.588  11.720 -22.206  1.00  0.00     0.063 C 
ATOM      2  C   UNL     1      -2.145  12.155 -23.519  1.00  0.00     0.038 C 
ATOM      3  O   UNL     1      -1.372  12.448 -24.468  1.00  0.00    -0.550 OA
ATOM      4  O   UNL     1      -3.520  12.186 -23.715  1.00  0.00    -0.550 OA
ENDROOT
TORSDOF 0
ENDMDL
MODEL 4
REMARK VINA RESULT:    -1.940     17.756     18.235
REMARK INTER + INTRA:          -1.940
REMARK INTER:                  -1.940
REMARK INTRA:                   0.000
REMARK UNBOUND:                 0.000
REMARK SMILES CC(=O)[O-]
REMARK SMILES IDX 1 1 2 2 3 3 4 4
REMARK H PARENT
REMARK Flexibility Score: inf
ROOT
ATOM      1  C   UNL     1       7.126  -3.632 -29.107  1.00  0.00     0.063 C 
ATOM      2  C   UNL     1       6.716  -3.263 -27.722  1.00  0.00     0.038 C 
ATOM      3  O   UNL     1       7.006  -2.129 -27.259  1.00  0.00    -0.550 OA
ATOM      4  O   UNL     1       5.965  -4.148 -26.960  1.00  0.00    -0.550 OA
ENDROOT
TORSDOF 0
ENDMDL
MODEL 5
REMARK VINA RESULT:    -1.885     17.850     18.415
REMARK INTER + INTRA:          -1.885
REMARK INTER:                  -1.885
REMARK INTRA:                   0.000
REMARK UNBOUND:                 0.000
REMARK SMILES CC(=O)[O-]
REMARK SMILES IDX 1 1 2 2 3 3 4 4
REMARK H PARENT
REMARK Flexibility Score: inf
ROOT
ATOM      1  C   UNL     1       7.217  -3.713 -29.224  1.00  0.00     0.063 C 
ATOM      2  C   UNL     1       6.689  -3.406 -27.864  1.00  0.00     0.038 C 
ATOM      3  O   UNL     1       6.012  -4.265 -27.241  1.00  0.00    -0.550 OA
ATOM      4  O   UNL     1       6.989  -2.193 -27.258  1.00  0.00    -0.550 OA
ENDROOT
TORSDOF 0
ENDMDL
MODEL 6
REMARK VINA RESULT:    -1.859     17.794     18.358
REMARK INTER + INTRA:          -1.859
REMARK INTER:                  -1.859
REMARK INTRA:                   0.000
REMARK UNBOUND:                 0.000
REMARK SMILES CC(=O)[O-]
REMARK SMILES IDX 1 1 2 2 3 3 4 4
REMARK H PARENT
REMARK Flexibility Score: inf
ROOT
ATOM      1  C   UNL     1       6.039  -4.352 -27.229  1.00  0.00     0.063 C 
ATOM      2  C   UNL     1       6.780  -3.237 -27.888  1.00  0.00     0.038 C 
ATOM      3  O   UNL     1       6.993  -2.165 -27.264  1.00  0.00    -0.550 OA
ATOM      4  O   UNL     1       7.283  -3.400 -29.172  1.00  0.00    -0.550 OA
ENDROOT
TORSDOF 0
ENDMDL
MODEL 7
REMARK VINA RESULT:    -1.746      2.963      3.440
REMARK INTER + INTRA:          -1.746
REMARK INTER:                  -1.746
REMARK INTRA:                   0.000
REMARK UNBOUND:                 0.000
REMARK SMILES CC(=O)[O-]
REMARK SMILES IDX 1 1 2 2 3 3 4 4
REMARK H PARENT
REMARK Flexibility Score: inf
ROOT
ATOM      1  C   UNL     1      -1.329  12.782 -20.833  1.00  0.00     0.063 C 
ATOM      2  C   UNL     1      -0.822  12.509 -19.458  1.00  0.00     0.038 C 
ATOM      3  O   UNL     1       0.372  12.149 -19.285  1.00  0.00    -0.550 OA
ATOM      4  O   UNL     1      -1.649  12.704 -18.360  1.00  0.00    -0.550 OA
ENDROOT
TORSDOF 0
ENDMDL
MODEL 8
REMARK VINA RESULT:    -1.723     17.727     18.351
REMARK INTER + INTRA:          -1.723
REMARK INTER:                  -1.723
REMARK INTRA:                   0.000
REMARK UNBOUND:                 0.000
REMARK SMILES CC(=O)[O-]
REMARK SMILES IDX 1 1 2 2 3 3 4 4
REMARK H PARENT
REMARK Flexibility Score: inf
ROOT
ATOM      1  C   UNL     1       6.809  -2.988 -27.673  1.00  0.00     0.063 C 
ATOM      2  C   UNL     1       5.985  -4.013 -26.971  1.00  0.00     0.038 C 
ATOM      3  O   UNL     1       5.085  -3.657 -26.165  1.00  0.00    -0.550 OA
ATOM      4  O   UNL     1       6.171  -5.362 -27.244  1.00  0.00    -0.550 OA
ENDROOT
TORSDOF 0
ENDMDL
MODEL 9
REMARK VINA RESULT:    -1.685      7.777      8.148
REMARK INTER + INTRA:          -1.685
REMARK INTER:                  -1.685
REMARK INTRA:                   0.000
REMARK UNBOUND:                 0.000
REMARK SMILES CC(=O)[O-]
REMARK SMILES IDX 1 1 2 2 3 3 4 4
REMARK H PARENT
REMARK Flexibility Score: inf
ROOT
ATOM      1  C   UNL     1       4.521  11.656 -19.587  1.00  0.00     0.063 C 
ATOM      2  C   UNL     1       5.665  12.562 -19.284  1.00  0.00     0.038 C 
ATOM      3  O   UNL     1       6.290  13.125 -20.221  1.00  0.00    -0.550 OA
ATOM      4  O   UNL     1       6.011  12.830 -17.966  1.00  0.00    -0.550 OA
ENDROOT
TORSDOF 0
ENDMDL
