MODEL 1
REMARK VINA RESULT:    -6.535      0.000      0.000
REMARK INTER + INTRA:          -7.975
REMARK INTER:                  -7.681
REMARK INTRA:                  -0.295
REMARK UNBOUND:                -0.295
REMARK SMILES O=c1cc(-c2ccc(O)c(O)c2)oc2cc(O)cc(O)c12
REMARK SMILES IDX 4 1 3 2 2 3 1 4 21 5 19 6 18 7 16 8 15 9 14 10 13 11 5 12
REMARK SMILES IDX 6 13 7 14 8 15 12 16 10 17 9 18 11 20 20 22 17 24
REMARK H PARENT 9 19 11 21 20 23 17 25
REMARK Flexibility Score: inf
ROOT
ATOM      1  C   UNL     1      -1.810  51.465  10.372  1.00  0.00     0.138 A 
ATOM      2  C   UNL     1      -1.669  50.374   9.498  1.00  0.00     0.100 A 
ATOM      3  C   UNL     1      -2.385  50.358   8.299  1.00  0.00     0.197 A 
ATOM      4  O   UNL     1      -2.251  49.375   7.521  1.00  0.00    -0.289 OA
ATOM      5  C   UNL     1      -3.233  51.437   7.981  1.00  0.00     0.107 A 
ATOM      6  C   UNL     1      -3.994  51.498   6.790  1.00  0.00     0.134 A 
ATOM      7  C   UNL     1      -4.812  52.612   6.545  1.00  0.00     0.093 A 
ATOM      8  C   UNL     1      -4.884  53.660   7.465  1.00  0.00     0.123 A 
ATOM      9  C   UNL     1      -4.135  53.604   8.645  1.00  0.00     0.094 A 
ATOM     10  C   UNL     1      -3.314  52.503   8.909  1.00  0.00     0.146 A 
ATOM     11  O   UNL     1      -2.613  52.473  10.037  1.00  0.00    -0.456 OA
ENDROOT
BRANCH   1  12
ATOM     12  C   UNL     1      -1.073  51.537  11.658  1.00  0.00     0.021 A 
ATOM     13  C   UNL     1       0.285  51.177  11.699  1.00  0.00     0.016 A 
ATOM     14  C   UNL     1       1.002  51.244  12.895  1.00  0.00     0.051 A 
ATOM     15  C   UNL     1       0.383  51.680  14.068  1.00  0.00     0.157 A 
ATOM     16  C   UNL     1      -1.691  51.990  12.841  1.00  0.00     0.062 A 
ATOM     17  C   UNL     1      -0.970  52.058  14.043  1.00  0.00     0.158 A 
BRANCH  15  18
ATOM     18  O   UNL     1       1.125  51.734  15.248  1.00  0.00    -0.504 OA
ATOM     19  H   UNL     1       1.971  52.287  15.328  1.00  0.00     0.293 HD
ENDBRANCH  15  18
BRANCH  17  20
ATOM     20  O   UNL     1      -1.591  52.505  15.209  1.00  0.00    -0.504 OA
ATOM     21  H   UNL     1      -1.751  51.886  15.995  1.00  0.00     0.293 HD
ENDBRANCH  17  20
ENDBRANCH   1  12
BRANCH   6  22
ATOM     22  O   UNL     1      -3.943  50.467   5.852  1.00  0.00    -0.507 OA
ATOM     23  H   UNL     1      -4.101  49.500   6.113  1.00  0.00     0.293 HD
ENDBRANCH   6  22
BRANCH   8  24
ATOM     24  O   UNL     1      -5.705  54.754   7.197  1.00  0.00    -0.508 OA
ATOM     25  H   UNL     1      -5.585  55.313   6.359  1.00  0.00     0.293 HD
ENDBRANCH   8  24
TORSDOF 5
ENDMDL
MODEL 2
REMARK VINA RESULT:    -6.403      2.085      3.538
REMARK INTER + INTRA:          -7.820
REMARK INTER:                  -7.556
REMARK INTRA:                  -0.264
REMARK UNBOUND:                -0.295
REMARK SMILES O=c1cc(-c2ccc(O)c(O)c2)oc2cc(O)cc(O)c12
REMARK SMILES IDX 4 1 3 2 2 3 1 4 21 5 19 6 18 7 16 8 15 9 14 10 13 11 5 12
REMARK SMILES IDX 6 13 7 14 8 15 12 16 10 17 9 18 11 20 20 22 17 24
REMARK H PARENT 9 19 11 21 20 23 17 25
REMARK Flexibility Score: inf
ROOT
ATOM      1  C   UNL     1      -2.946  52.079  11.887  1.00  0.00     0.138 A 
ATOM      2  C   UNL     1      -3.262  53.406  11.547  1.00  0.00     0.100 A 
ATOM      3  C   UNL     1      -3.342  53.770  10.201  1.00  0.00     0.197 A 
ATOM      4  O   UNL     1      -3.627  54.962   9.907  1.00  0.00    -0.289 OA
ATOM      5  C   UNL     1      -3.109  52.802   9.204  1.00  0.00     0.107 A 
ATOM      6  C   UNL     1      -3.169  53.088   7.819  1.00  0.00     0.134 A 
ATOM      7  C   UNL     1      -2.929  52.065   6.889  1.00  0.00     0.093 A 
ATOM      8  C   UNL     1      -2.633  50.768   7.314  1.00  0.00     0.123 A 
ATOM      9  C   UNL     1      -2.571  50.481   8.682  1.00  0.00     0.094 A 
ATOM     10  C   UNL     1      -2.806  51.485   9.626  1.00  0.00     0.146 A 
ATOM     11  O   UNL     1      -2.742  51.188  10.920  1.00  0.00    -0.456 OA
ENDROOT
BRANCH   1  12
ATOM     12  C   UNL     1      -2.849  51.635  13.299  1.00  0.00     0.021 A 
ATOM     13  C   UNL     1      -1.583  51.471  13.887  1.00  0.00     0.016 A 
ATOM     14  C   UNL     1      -1.465  51.062  15.218  1.00  0.00     0.051 A 
ATOM     15  C   UNL     1      -2.605  50.819  15.987  1.00  0.00     0.157 A 
ATOM     16  C   UNL     1      -3.996  51.402  14.082  1.00  0.00     0.062 A 
ATOM     17  C   UNL     1      -3.878  50.992  15.419  1.00  0.00     0.158 A 
BRANCH  15  18
ATOM     18  O   UNL     1      -2.455  50.409  17.311  1.00  0.00    -0.504 OA
ATOM     19  H   UNL     1      -2.252  49.447  17.558  1.00  0.00     0.293 HD
ENDBRANCH  15  18
BRANCH  17  20
ATOM     20  O   UNL     1      -5.020  50.762  16.186  1.00  0.00    -0.504 OA
ATOM     21  H   UNL     1      -5.814  50.253  15.815  1.00  0.00     0.293 HD
ENDBRANCH  17  20
ENDBRANCH   1  12
BRANCH   6  22
ATOM     22  O   UNL     1      -3.463  54.372   7.364  1.00  0.00    -0.507 OA
ATOM     23  H   UNL     1      -3.744  55.112   7.999  1.00  0.00     0.293 HD
ENDBRANCH   6  22
BRANCH   8  24
ATOM     24  O   UNL     1      -2.399  49.772   6.369  1.00  0.00    -0.508 OA
ATOM     25  H   UNL     1      -1.816  48.969   6.578  1.00  0.00     0.293 HD
ENDBRANCH   8  24
TORSDOF 5
ENDMDL
MODEL 3
REMARK VINA RESULT:    -6.130      1.926      3.591
REMARK INTER + INTRA:          -7.500
REMARK INTER:                  -7.232
REMARK INTRA:                  -0.268
REMARK UNBOUND:                -0.295
REMARK SMILES O=c1cc(-c2ccc(O)c(O)c2)oc2cc(O)cc(O)c12
REMARK SMILES IDX 4 1 3 2 2 3 1 4 21 5 19 6 18 7 16 8 15 9 14 10 13 11 5 12
REMARK SMILES IDX 6 13 7 14 8 15 12 16 10 17 9 18 11 20 20 22 17 24
REMARK H PARENT 9 19 11 21 20 23 17 25
REMARK Flexibility Score: inf
ROOT
ATOM      1  C   UNL     1      -2.946  52.125  11.853  1.00  0.00     0.138 A 
ATOM      2  C   UNL     1      -3.270  53.446  11.500  1.00  0.00     0.100 A 
ATOM      3  C   UNL     1      -3.369  53.792  10.151  1.00  0.00     0.197 A 
ATOM      4  O   UNL     1      -3.661  54.979   9.844  1.00  0.00    -0.289 OA
ATOM      5  C   UNL     1      -3.146  52.812   9.164  1.00  0.00     0.107 A 
ATOM      6  C   UNL     1      -3.224  53.078   7.776  1.00  0.00     0.134 A 
ATOM      7  C   UNL     1      -2.993  52.044   6.857  1.00  0.00     0.093 A 
ATOM      8  C   UNL     1      -2.687  50.754   7.295  1.00  0.00     0.123 A 
ATOM      9  C   UNL     1      -2.608  50.485   8.666  1.00  0.00     0.094 A 
ATOM     10  C   UNL     1      -2.833  51.501   9.599  1.00  0.00     0.146 A 
ATOM     11  O   UNL     1      -2.751  51.221  10.896  1.00  0.00    -0.456 OA
ENDROOT
BRANCH   1  12
ATOM     12  C   UNL     1      -2.829  51.700  13.270  1.00  0.00     0.021 A 
ATOM     13  C   UNL     1      -3.994  51.451  14.015  1.00  0.00     0.016 A 
ATOM     14  C   UNL     1      -3.911  51.042  15.349  1.00  0.00     0.051 A 
ATOM     15  C   UNL     1      -2.668  50.865  15.958  1.00  0.00     0.157 A 
ATOM     16  C   UNL     1      -1.576  51.508  13.885  1.00  0.00     0.062 A 
ATOM     17  C   UNL     1      -1.493  51.096  15.224  1.00  0.00     0.158 A 
BRANCH  15  18
ATOM     18  O   UNL     1      -2.617  50.459  17.291  1.00  0.00    -0.504 OA
ATOM     19  H   UNL     1      -1.851  50.714  17.904  1.00  0.00     0.293 HD
ENDBRANCH  15  18
BRANCH  17  20
ATOM     20  O   UNL     1      -0.248  50.911  15.824  1.00  0.00    -0.504 OA
ATOM     21  H   UNL     1       0.614  51.034  15.306  1.00  0.00     0.293 HD
ENDBRANCH  17  20
ENDBRANCH   1  12
BRANCH   6  22
ATOM     22  O   UNL     1      -3.529  54.356   7.307  1.00  0.00    -0.507 OA
ATOM     23  H   UNL     1      -3.602  55.150   7.933  1.00  0.00     0.293 HD
ENDBRANCH   6  22
BRANCH   8  24
ATOM     24  O   UNL     1      -2.463  49.746   6.361  1.00  0.00    -0.508 OA
ATOM     25  H   UNL     1      -2.190  48.811   6.644  1.00  0.00     0.293 HD
ENDBRANCH   8  24
TORSDOF 5
ENDMDL
MODEL 4
REMARK VINA RESULT:    -6.093      1.718      7.147
REMARK INTER + INTRA:          -7.456
REMARK INTER:                  -7.181
REMARK INTRA:                  -0.275
REMARK UNBOUND:                -0.295
REMARK SMILES O=c1cc(-c2ccc(O)c(O)c2)oc2cc(O)cc(O)c12
REMARK SMILES IDX 4 1 3 2 2 3 1 4 21 5 19 6 18 7 16 8 15 9 14 10 13 11 5 12
REMARK SMILES IDX 6 13 7 14 8 15 12 16 10 17 9 18 11 20 20 22 17 24
REMARK H PARENT 9 19 11 21 20 23 17 25
REMARK Flexibility Score: inf
ROOT
ATOM      1  C   UNL     1      -2.423  51.438  11.000  1.00  0.00     0.138 A 
ATOM      2  C   UNL     1      -1.055  51.635  11.254  1.00  0.00     0.100 A 
ATOM      3  C   UNL     1      -0.603  51.697  12.573  1.00  0.00     0.197 A 
ATOM      4  O   UNL     1       0.627  51.873  12.789  1.00  0.00    -0.289 OA
ATOM      5  C   UNL     1      -1.522  51.556  13.631  1.00  0.00     0.107 A 
ATOM      6  C   UNL     1      -1.148  51.607  14.994  1.00  0.00     0.134 A 
ATOM      7  C   UNL     1      -2.125  51.452  15.989  1.00  0.00     0.093 A 
ATOM      8  C   UNL     1      -3.464  51.247  15.648  1.00  0.00     0.123 A 
ATOM      9  C   UNL     1      -3.840  51.197  14.301  1.00  0.00     0.094 A 
ATOM     10  C   UNL     1      -2.882  51.350  13.294  1.00  0.00     0.146 A 
ATOM     11  O   UNL     1      -3.264  51.299  12.023  1.00  0.00    -0.456 OA
ENDROOT
BRANCH   1  12
ATOM     12  C   UNL     1      -2.960  51.363   9.619  1.00  0.00     0.021 A 
ATOM     13  C   UNL     1      -4.076  52.141   9.267  1.00  0.00     0.016 A 
ATOM     14  C   UNL     1      -4.596  52.094   7.972  1.00  0.00     0.051 A 
ATOM     15  C   UNL     1      -4.007  51.280   7.002  1.00  0.00     0.157 A 
ATOM     16  C   UNL     1      -2.361  50.553   8.634  1.00  0.00     0.062 A 
ATOM     17  C   UNL     1      -2.882  50.506   7.332  1.00  0.00     0.158 A 
BRANCH  15  18
ATOM     18  O   UNL     1      -4.550  51.253   5.718  1.00  0.00    -0.504 OA
ATOM     19  H   UNL     1      -4.686  52.096   5.173  1.00  0.00     0.293 HD
ENDBRANCH  15  18
BRANCH  17  20
ATOM     20  O   UNL     1      -2.283  49.700   6.366  1.00  0.00    -0.504 OA
ATOM     21  H   UNL     1      -1.539  50.048   5.771  1.00  0.00     0.293 HD
ENDBRANCH  17  20
ENDBRANCH   1  12
BRANCH   6  22
ATOM     22  O   UNL     1       0.181  51.809  15.366  1.00  0.00    -0.507 OA
ATOM     23  H   UNL     1       0.928  51.217  15.019  1.00  0.00     0.293 HD
ENDBRANCH   6  22
BRANCH   8  24
ATOM     24  O   UNL     1      -4.414  51.096  16.656  1.00  0.00    -0.508 OA
ATOM     25  H   UNL     1      -4.258  50.476  17.442  1.00  0.00     0.293 HD
ENDBRANCH   8  24
TORSDOF 5
ENDMDL
MODEL 5
REMARK VINA RESULT:    -6.092      2.580      7.215
REMARK INTER + INTRA:          -7.455
REMARK INTER:                  -7.161
REMARK INTRA:                  -0.293
REMARK UNBOUND:                -0.295
REMARK SMILES O=c1cc(-c2ccc(O)c(O)c2)oc2cc(O)cc(O)c12
REMARK SMILES IDX 4 1 3 2 2 3 1 4 21 5 19 6 18 7 16 8 15 9 14 10 13 11 5 12
REMARK SMILES IDX 6 13 7 14 8 15 12 16 10 17 9 18 11 20 20 22 17 24
REMARK H PARENT 9 19 11 21 20 23 17 25
REMARK Flexibility Score: inf
ROOT
ATOM      1  C   UNL     1      -3.347  52.322  10.832  1.00  0.00     0.138 A 
ATOM      2  C   UNL     1      -3.218  53.696  11.100  1.00  0.00     0.100 A 
ATOM      3  C   UNL     1      -3.139  54.133  12.423  1.00  0.00     0.197 A 
ATOM      4  O   UNL     1      -3.022  55.367  12.652  1.00  0.00    -0.289 OA
ATOM      5  C   UNL     1      -3.185  53.192  13.470  1.00  0.00     0.107 A 
ATOM      6  C   UNL     1      -3.112  53.550  14.837  1.00  0.00     0.134 A 
ATOM      7  C   UNL     1      -3.160  52.550  15.820  1.00  0.00     0.093 A 
ATOM      8  C   UNL     1      -3.278  51.205  15.465  1.00  0.00     0.123 A 
ATOM      9  C   UNL     1      -3.351  50.845  14.115  1.00  0.00     0.094 A 
ATOM     10  C   UNL     1      -3.306  51.826  13.119  1.00  0.00     0.146 A 
ATOM     11  O   UNL     1      -3.378  51.459  11.844  1.00  0.00    -0.456 OA
ENDROOT
BRANCH   1  12
ATOM     12  C   UNL     1      -3.434  51.800   9.445  1.00  0.00     0.021 A 
ATOM     13  C   UNL     1      -4.255  52.454   8.510  1.00  0.00     0.016 A 
ATOM     14  C   UNL     1      -4.347  51.987   7.197  1.00  0.00     0.051 A 
ATOM     15  C   UNL     1      -3.617  50.868   6.791  1.00  0.00     0.157 A 
ATOM     16  C   UNL     1      -2.688  50.680   9.028  1.00  0.00     0.062 A 
ATOM     17  C   UNL     1      -2.780  50.211   7.708  1.00  0.00     0.158 A 
BRANCH  15  18
ATOM     18  O   UNL     1      -3.732  50.424   5.474  1.00  0.00    -0.504 OA
ATOM     19  H   UNL     1      -4.075  49.498   5.245  1.00  0.00     0.293 HD
ENDBRANCH  15  18
BRANCH  17  20
ATOM     20  O   UNL     1      -2.040  49.101   7.305  1.00  0.00    -0.504 OA
ATOM     21  H   UNL     1      -1.751  48.388   7.965  1.00  0.00     0.293 HD
ENDBRANCH  17  20
ENDBRANCH   1  12
BRANCH   6  22
ATOM     22  O   UNL     1      -2.994  54.885  15.223  1.00  0.00    -0.507 OA
ATOM     23  H   UNL     1      -3.097  55.172  16.190  1.00  0.00     0.293 HD
ENDBRANCH   6  22
BRANCH   8  24
ATOM     24  O   UNL     1      -3.323  50.233  16.462  1.00  0.00    -0.508 OA
ATOM     25  H   UNL     1      -2.517  49.654  16.674  1.00  0.00     0.293 HD
ENDBRANCH   8  24
TORSDOF 5
ENDMDL
MODEL 6
REMARK VINA RESULT:    -5.970      2.120      2.620
REMARK INTER + INTRA:          -7.312
REMARK INTER:                  -7.029
REMARK INTRA:                  -0.283
REMARK UNBOUND:                -0.295
REMARK SMILES O=c1cc(-c2ccc(O)c(O)c2)oc2cc(O)cc(O)c12
REMARK SMILES IDX 4 1 3 2 2 3 1 4 21 5 19 6 18 7 16 8 15 9 14 10 13 11 5 12
REMARK SMILES IDX 6 13 7 14 8 15 12 16 10 17 9 18 11 20 20 22 17 24
REMARK H PARENT 9 19 11 21 20 23 17 25
REMARK Flexibility Score: inf
ROOT
ATOM      1  C   UNL     1      -2.608  52.016  11.778  1.00  0.00     0.138 A 
ATOM      2  C   UNL     1      -1.826  51.296  10.859  1.00  0.00     0.100 A 
ATOM      3  C   UNL     1      -1.815  51.680   9.517  1.00  0.00     0.197 A 
ATOM      4  O   UNL     1      -1.109  51.027   8.702  1.00  0.00    -0.289 OA
ATOM      5  C   UNL     1      -2.584  52.785   9.104  1.00  0.00     0.107 A 
ATOM      6  C   UNL     1      -2.630  53.238   7.764  1.00  0.00     0.134 A 
ATOM      7  C   UNL     1      -3.418  54.352   7.434  1.00  0.00     0.093 A 
ATOM      8  C   UNL     1      -4.157  55.018   8.415  1.00  0.00     0.123 A 
ATOM      9  C   UNL     1      -4.115  54.573   9.740  1.00  0.00     0.094 A 
ATOM     10  C   UNL     1      -3.338  53.466  10.090  1.00  0.00     0.146 A 
ATOM     11  O   UNL     1      -3.316  53.062  11.356  1.00  0.00    -0.456 OA
ENDROOT
BRANCH   1  12
ATOM     12  C   UNL     1      -2.657  51.656  13.216  1.00  0.00     0.021 A 
ATOM     13  C   UNL     1      -1.462  51.581  13.952  1.00  0.00     0.016 A 
ATOM     14  C   UNL     1      -1.482  51.251  15.309  1.00  0.00     0.051 A 
ATOM     15  C   UNL     1      -2.693  51.001  15.959  1.00  0.00     0.157 A 
ATOM     16  C   UNL     1      -3.878  51.416  13.879  1.00  0.00     0.062 A 
ATOM     17  C   UNL     1      -3.898  51.086  15.243  1.00  0.00     0.158 A 
BRANCH  15  18
ATOM     18  O   UNL     1      -2.680  50.672  17.314  1.00  0.00    -0.504 OA
ATOM     19  H   UNL     1      -2.392  51.333  18.026  1.00  0.00     0.293 HD
ENDBRANCH  15  18
BRANCH  17  20
ATOM     20  O   UNL     1      -5.110  50.848  15.888  1.00  0.00    -0.504 OA
ATOM     21  H   UNL     1      -5.348  49.932  16.251  1.00  0.00     0.293 HD
ENDBRANCH  17  20
ENDBRANCH   1  12
BRANCH   6  22
ATOM     22  O   UNL     1      -1.903  52.594   6.763  1.00  0.00    -0.507 OA
ATOM     23  H   UNL     1      -1.978  52.867   5.789  1.00  0.00     0.293 HD
ENDBRANCH   6  22
BRANCH   8  24
ATOM     24  O   UNL     1      -4.931  56.121   8.060  1.00  0.00    -0.508 OA
ATOM     25  H   UNL     1      -5.869  56.248   8.422  1.00  0.00     0.293 HD
ENDBRANCH   8  24
TORSDOF 5
ENDMDL
MODEL 7
REMARK VINA RESULT:    -5.888      1.244      2.736
REMARK INTER + INTRA:          -7.215
REMARK INTER:                  -6.945
REMARK INTRA:                  -0.270
REMARK UNBOUND:                -0.295
REMARK SMILES O=c1cc(-c2ccc(O)c(O)c2)oc2cc(O)cc(O)c12
REMARK SMILES IDX 4 1 3 2 2 3 1 4 21 5 19 6 18 7 16 8 15 9 14 10 13 11 5 12
REMARK SMILES IDX 6 13 7 14 8 15 12 16 10 17 9 18 11 20 20 22 17 24
REMARK H PARENT 9 19 11 21 20 23 17 25
REMARK Flexibility Score: inf
ROOT
ATOM      1  C   UNL     1      -2.086  52.132  11.301  1.00  0.00     0.138 A 
ATOM      2  C   UNL     1      -2.724  53.384  11.292  1.00  0.00     0.100 A 
ATOM      3  C   UNL     1      -3.475  53.764  10.178  1.00  0.00     0.197 A 
ATOM      4  O   UNL     1      -4.044  54.889  10.181  1.00  0.00    -0.289 OA
ATOM      5  C   UNL     1      -3.587  52.886   9.083  1.00  0.00     0.107 A 
ATOM      6  C   UNL     1      -4.327  53.193   7.916  1.00  0.00     0.134 A 
ATOM      7  C   UNL     1      -4.393  52.261   6.870  1.00  0.00     0.093 A 
ATOM      8  C   UNL     1      -3.737  51.031   6.967  1.00  0.00     0.123 A 
ATOM      9  C   UNL     1      -3.004  50.723   8.118  1.00  0.00     0.094 A 
ATOM     10  C   UNL     1      -2.924  51.638   9.171  1.00  0.00     0.146 A 
ATOM     11  O   UNL     1      -2.221  51.322  10.253  1.00  0.00    -0.456 OA
ENDROOT
BRANCH   1  12
ATOM     12  C   UNL     1      -1.277  51.674  12.458  1.00  0.00     0.021 A 
ATOM     13  C   UNL     1       0.064  51.304  12.260  1.00  0.00     0.016 A 
ATOM     14  C   UNL     1       0.850  50.877  13.333  1.00  0.00     0.051 A 
ATOM     15  C   UNL     1       0.317  50.823  14.622  1.00  0.00     0.157 A 
ATOM     16  C   UNL     1      -1.807  51.631  13.762  1.00  0.00     0.062 A 
ATOM     17  C   UNL     1      -1.018  51.204  14.841  1.00  0.00     0.158 A 
BRANCH  15  18
ATOM     18  O   UNL     1       1.125  50.391  15.673  1.00  0.00    -0.504 OA
ATOM     19  H   UNL     1       1.864  49.710  15.540  1.00  0.00     0.293 HD
ENDBRANCH  15  18
BRANCH  17  20
ATOM     20  O   UNL     1      -1.552  51.162  16.128  1.00  0.00    -0.504 OA
ATOM     21  H   UNL     1      -1.694  50.285  16.615  1.00  0.00     0.293 HD
ENDBRANCH  17  20
ENDBRANCH   1  12
BRANCH   6  22
ATOM     22  O   UNL     1      -4.993  54.412   7.790  1.00  0.00    -0.507 OA
ATOM     23  H   UNL     1      -4.998  54.930   6.918  1.00  0.00     0.293 HD
ENDBRANCH   6  22
BRANCH   8  24
ATOM     24  O   UNL     1      -3.820  50.124   5.913  1.00  0.00    -0.508 OA
ATOM     25  H   UNL     1      -3.589  49.144   6.039  1.00  0.00     0.293 HD
ENDBRANCH   8  24
TORSDOF 5
ENDMDL
MODEL 8
REMARK VINA RESULT:    -5.804      1.765      7.160
REMARK INTER + INTRA:          -7.116
REMARK INTER:                  -6.851
REMARK INTRA:                  -0.265
REMARK UNBOUND:                -0.295
REMARK SMILES O=c1cc(-c2ccc(O)c(O)c2)oc2cc(O)cc(O)c12
REMARK SMILES IDX 4 1 3 2 2 3 1 4 21 5 19 6 18 7 16 8 15 9 14 10 13 11 5 12
REMARK SMILES IDX 6 13 7 14 8 15 12 16 10 17 9 18 11 20 20 22 17 24
REMARK H PARENT 9 19 11 21 20 23 17 25
REMARK Flexibility Score: inf
ROOT
ATOM      1  C   UNL     1      -2.563  52.737  10.891  1.00  0.00     0.138 A 
ATOM      2  C   UNL     1      -1.163  52.852  10.894  1.00  0.00     0.100 A 
ATOM      3  C   UNL     1      -0.438  52.393  11.995  1.00  0.00     0.197 A 
ATOM      4  O   UNL     1       0.818  52.501  11.987  1.00  0.00    -0.289 OA
ATOM      5  C   UNL     1      -1.120  51.818  13.086  1.00  0.00     0.107 A 
ATOM      6  C   UNL     1      -0.462  51.331  14.240  1.00  0.00     0.134 A 
ATOM      7  C   UNL     1      -1.215  50.767  15.281  1.00  0.00     0.093 A 
ATOM      8  C   UNL     1      -2.606  50.681  15.191  1.00  0.00     0.123 A 
ATOM      9  C   UNL     1      -3.261  51.162  14.053  1.00  0.00     0.094 A 
ATOM     10  C   UNL     1      -2.530  51.729  13.004  1.00  0.00     0.146 A 
ATOM     11  O   UNL     1      -3.176  52.179  11.933  1.00  0.00    -0.456 OA
ENDROOT
BRANCH   1  12
ATOM     12  C   UNL     1      -3.385  53.205   9.748  1.00  0.00     0.021 A 
ATOM     13  C   UNL     1      -3.802  54.546   9.698  1.00  0.00     0.016 A 
ATOM     14  C   UNL     1      -4.569  55.014   8.629  1.00  0.00     0.051 A 
ATOM     15  C   UNL     1      -4.925  54.156   7.586  1.00  0.00     0.157 A 
ATOM     16  C   UNL     1      -3.735  52.346   8.686  1.00  0.00     0.062 A 
ATOM     17  C   UNL     1      -4.505  52.816   7.611  1.00  0.00     0.158 A 
BRANCH  15  18
ATOM     18  O   UNL     1      -5.693  54.651   6.533  1.00  0.00    -0.504 OA
ATOM     19  H   UNL     1      -6.706  54.677   6.570  1.00  0.00     0.293 HD
ENDBRANCH  15  18
BRANCH  17  20
ATOM     20  O   UNL     1      -4.848  51.958   6.567  1.00  0.00    -0.504 OA
ATOM     21  H   UNL     1      -4.185  51.716   5.840  1.00  0.00     0.293 HD
ENDBRANCH  17  20
ENDBRANCH   1  12
BRANCH   6  22
ATOM     22  O   UNL     1       0.925  51.402  14.359  1.00  0.00    -0.507 OA
ATOM     23  H   UNL     1       1.437  50.807  15.001  1.00  0.00     0.293 HD
ENDBRANCH   6  22
BRANCH   8  24
ATOM     24  O   UNL     1      -3.328  50.116  16.240  1.00  0.00    -0.508 OA
ATOM     25  H   UNL     1      -4.306  50.339  16.390  1.00  0.00     0.293 HD
ENDBRANCH   8  24
TORSDOF 5
ENDMDL
MODEL 9
REMARK VINA RESULT:    -5.612      4.798      8.390
REMARK INTER + INTRA:          -6.891
REMARK INTER:                  -6.626
REMARK INTRA:                  -0.265
REMARK UNBOUND:                -0.295
REMARK SMILES O=c1cc(-c2ccc(O)c(O)c2)oc2cc(O)cc(O)c12
REMARK SMILES IDX 4 1 3 2 2 3 1 4 21 5 19 6 18 7 16 8 15 9 14 10 13 11 5 12
REMARK SMILES IDX 6 13 7 14 8 15 12 16 10 17 9 18 11 20 20 22 17 24
REMARK H PARENT 9 19 11 21 20 23 17 25
REMARK Flexibility Score: inf
ROOT
ATOM      1  C   UNL     1      -4.559  51.731  15.304  1.00  0.00     0.138 A 
ATOM      2  C   UNL     1      -4.106  51.743  13.974  1.00  0.00     0.100 A 
ATOM      3  C   UNL     1      -2.741  51.617  13.711  1.00  0.00     0.197 A 
ATOM      4  O   UNL     1      -2.346  51.628  12.514  1.00  0.00    -0.289 OA
ATOM      5  C   UNL     1      -1.837  51.475  14.782  1.00  0.00     0.107 A 
ATOM      6  C   UNL     1      -0.440  51.342  14.604  1.00  0.00     0.134 A 
ATOM      7  C   UNL     1       0.393  51.199  15.725  1.00  0.00     0.093 A 
ATOM      8  C   UNL     1      -0.143  51.186  17.014  1.00  0.00     0.123 A 
ATOM      9  C   UNL     1      -1.524  51.317  17.196  1.00  0.00     0.094 A 
ATOM     10  C   UNL     1      -2.371  51.461  16.094  1.00  0.00     0.146 A 
ATOM     11  O   UNL     1      -3.679  51.585  16.292  1.00  0.00    -0.456 OA
ENDROOT
BRANCH   1  12
ATOM     12  C   UNL     1      -5.998  51.860  15.642  1.00  0.00     0.021 A 
ATOM     13  C   UNL     1      -6.560  53.138  15.797  1.00  0.00     0.016 A 
ATOM     14  C   UNL     1      -7.914  53.286  16.108  1.00  0.00     0.051 A 
ATOM     15  C   UNL     1      -8.732  52.165  16.259  1.00  0.00     0.157 A 
ATOM     16  C   UNL     1      -6.829  50.731  15.783  1.00  0.00     0.062 A 
ATOM     17  C   UNL     1      -8.190  50.880  16.094  1.00  0.00     0.158 A 
BRANCH  15  18
ATOM     18  O   UNL     1     -10.079  52.345  16.572  1.00  0.00    -0.504 OA
ATOM     19  H   UNL     1     -10.395  52.502  17.522  1.00  0.00     0.293 HD
ENDBRANCH  15  18
BRANCH  17  20
ATOM     20  O   UNL     1      -9.004  49.757  16.233  1.00  0.00    -0.504 OA
ATOM     21  H   UNL     1      -9.075  49.259  17.113  1.00  0.00     0.293 HD
ENDBRANCH  17  20
ENDBRANCH   1  12
BRANCH   6  22
ATOM     22  O   UNL     1       0.125  51.352  13.329  1.00  0.00    -0.507 OA
ATOM     23  H   UNL     1      -0.163  52.021  12.623  1.00  0.00     0.293 HD
ENDBRANCH   6  22
BRANCH   8  24
ATOM     24  O   UNL     1       0.706  51.042  18.109  1.00  0.00    -0.508 OA
ATOM     25  H   UNL     1       0.649  51.663  18.909  1.00  0.00     0.293 HD
ENDBRANCH   8  24
TORSDOF 5
ENDMDL
