MODEL 1
REMARK VINA RESULT:    -7.579      0.000      0.000
REMARK INTER + INTRA:         -15.393
REMARK INTER:                 -12.453
REMARK INTRA:                  -2.940
REMARK UNBOUND:                -2.940
REMARK SMILES C[C@H]1O[C@H](OC[C@H]2O[C@@H](Oc3c(-c4ccc(O)c(O)c4)oc4cc(O)cc(O)c4c3=O)[C@@H](O)[C@@H](O)[C@H]2O)[C@H](O)[C@H](O)[C@@H]1O
REMARK SMILES IDX 7 1 36 2 34 3 32 4 9 5 8 6 6 7 5 8 4 9 1 10 2 11 42 12 3 13
REMARK SMILES IDX 40 14 38 15 43 16 41 18 39 20 37 22 35 24 10 26 11 27 12 28
REMARK SMILES IDX 30 29 21 30 29 31 31 32 22 33 27 34 23 35 26 36 24 37 13 38
REMARK SMILES IDX 20 39 14 40 18 41 15 42 16 43 19 44 17 46 28 48 25 50 33 52
REMARK H PARENT 43 17 41 19 39 21 37 23 35 25 19 45 17 47 28 49 25 51 33 53
REMARK Flexibility Score: inf
ROOT
ATOM      1  C   UNL     1     132.990 127.458 124.482  1.00  0.00     0.180 C 
ATOM      2  C   UNL     1     133.030 128.407 123.274  1.00  0.00     0.177 C 
ATOM      3  C   UNL     1     132.620 127.583 122.046  1.00  0.00     0.180 C 
ATOM      4  C   UNL     1     131.299 126.778 122.281  1.00  0.00     0.214 C 
ATOM      5  C   UNL     1     131.160 126.220 123.727  1.00  0.00     0.339 C 
ATOM      6  O   UNL     1     131.637 127.113 124.714  1.00  0.00    -0.332 OA
ENDROOT
BRANCH   1   7
ATOM      7  C   UNL     1     133.580 128.094 125.755  1.00  0.00     0.198 C 
BRANCH   7   8
ATOM      8  O   UNL     1     133.782 129.489 125.593  1.00  0.00    -0.347 OA
BRANCH   8   9
ATOM      9  C   UNL     1     133.435 130.206 126.767  1.00  0.00     0.281 C 
ATOM     10  C   UNL     1     136.700 131.811 127.425  1.00  0.00     0.041 C 
ATOM     11  C   UNL     1     135.417 131.478 126.657  1.00  0.00     0.150 C 
ATOM     12  C   UNL     1     134.669 132.779 126.267  1.00  0.00     0.174 C 
ATOM     13  O   UNL     1     134.596 130.638 127.470  1.00  0.00    -0.344 OA
ATOM     14  C   UNL     1     133.293 132.488 125.627  1.00  0.00     0.179 C 
ATOM     15  C   UNL     1     132.538 131.410 126.424  1.00  0.00     0.202 C 
BRANCH  12  16
ATOM     16  O   UNL     1     135.463 133.538 125.390  1.00  0.00    -0.388 OA
ATOM     17  H   UNL     1     136.371 133.623 125.789  1.00  0.00     0.211 HD
ENDBRANCH  12  16
BRANCH  14  18
ATOM     18  O   UNL     1     133.391 132.154 124.257  1.00  0.00    -0.387 OA
ATOM     19  H   UNL     1     133.624 131.202 124.181  1.00  0.00     0.211 HD
ENDBRANCH  14  18
BRANCH  15  20
ATOM     20  O   UNL     1     131.405 130.989 125.705  1.00  0.00    -0.385 OA
ATOM     21  H   UNL     1     130.849 131.789 125.524  1.00  0.00     0.211 HD
ENDBRANCH  15  20
ENDBRANCH   8   9
ENDBRANCH   7   8
ENDBRANCH   1   7
BRANCH   2  22
ATOM     22  O   UNL     1     132.137 129.471 123.486  1.00  0.00    -0.387 OA
ATOM     23  H   UNL     1     131.658 129.302 124.340  1.00  0.00     0.211 HD
ENDBRANCH   2  22
BRANCH   3  24
ATOM     24  O   UNL     1     132.562 128.369 120.878  1.00  0.00    -0.387 OA
ATOM     25  H   UNL     1     133.469 128.403 120.484  1.00  0.00     0.211 HD
ENDBRANCH   3  24
BRANCH   5  26
ATOM     26  O   UNL     1     129.767 125.938 123.966  1.00  0.00    -0.454 OA
BRANCH  26  27
ATOM     27  C   UNL     1     128.997 126.568 124.963  1.00  0.00     0.214 A 
ATOM     28  C   UNL     1     129.049 126.102 126.298  1.00  0.00     0.180 A 
ATOM     29  C   UNL     1     128.130 127.637 124.668  1.00  0.00     0.239 A 
ATOM     30  O   UNL     1     128.447 126.799 127.259  1.00  0.00    -0.452 OA
ATOM     31  C   UNL     1     127.505 128.343 125.718  1.00  0.00     0.111 A 
ATOM     32  O   UNL     1     127.870 127.928 123.469  1.00  0.00    -0.285 OA
ATOM     33  C   UNL     1     127.737 127.899 127.036  1.00  0.00     0.146 A 
ATOM     34  C   UNL     1     126.628 129.438 125.515  1.00  0.00     0.134 A 
ATOM     35  C   UNL     1     127.204 128.598 128.122  1.00  0.00     0.094 A 
ATOM     36  C   UNL     1     126.077 130.108 126.614  1.00  0.00     0.093 A 
ATOM     37  C   UNL     1     126.393 129.710 127.916  1.00  0.00     0.123 A 
BRANCH  28  38
ATOM     38  C   UNL     1     129.693 124.827 126.690  1.00  0.00     0.025 A 
ATOM     39  C   UNL     1     129.176 123.569 126.319  1.00  0.00     0.062 A 
ATOM     40  C   UNL     1     130.832 124.891 127.509  1.00  0.00     0.016 A 
ATOM     41  C   UNL     1     129.763 122.396 126.814  1.00  0.00     0.158 A 
ATOM     42  C   UNL     1     131.425 123.722 127.987  1.00  0.00     0.051 A 
ATOM     43  C   UNL     1     130.890 122.471 127.652  1.00  0.00     0.157 A 
BRANCH  41  44
ATOM     44  O   UNL     1     129.227 121.155 126.492  1.00  0.00    -0.504 OA
ATOM     45  H   UNL     1     129.688 120.290 126.739  1.00  0.00     0.293 HD
ENDBRANCH  41  44
BRANCH  43  46
ATOM     46  O   UNL     1     131.502 121.317 128.157  1.00  0.00    -0.504 OA
ATOM     47  H   UNL     1     131.177 120.839 128.987  1.00  0.00     0.293 HD
ENDBRANCH  43  46
ENDBRANCH  28  38
BRANCH  34  48
ATOM     48  O   UNL     1     126.298 129.870 124.229  1.00  0.00    -0.507 OA
ATOM     49  H   UNL     1     126.524 130.801 123.888  1.00  0.00     0.293 HD
ENDBRANCH  34  48
BRANCH  37  50
ATOM     50  O   UNL     1     125.875 130.403 129.009  1.00  0.00    -0.508 OA
ATOM     51  H   UNL     1     125.047 130.072 129.497  1.00  0.00     0.293 HD
ENDBRANCH  37  50
ENDBRANCH  26  27
ENDBRANCH   5  26
BRANCH   4  52
ATOM     52  O   UNL     1     130.178 127.557 121.965  1.00  0.00    -0.384 OA
ATOM     53  H   UNL     1     129.987 127.355 121.014  1.00  0.00     0.211 HD
ENDBRANCH   4  52
TORSDOF 16
ENDMDL
MODEL 2
REMARK VINA RESULT:    -7.556      2.287      7.827
REMARK INTER + INTRA:         -15.356
REMARK INTER:                 -12.158
REMARK INTRA:                  -3.198
REMARK UNBOUND:                -2.940
REMARK SMILES C[C@H]1O[C@H](OC[C@H]2O[C@@H](Oc3c(-c4ccc(O)c(O)c4)oc4cc(O)cc(O)c4c3=O)[C@@H](O)[C@@H](O)[C@H]2O)[C@H](O)[C@H](O)[C@@H]1O
REMARK SMILES IDX 7 1 36 2 34 3 32 4 9 5 8 6 6 7 5 8 4 9 1 10 2 11 42 12 3 13
REMARK SMILES IDX 40 14 38 15 43 16 41 18 39 20 37 22 35 24 10 26 11 27 12 28
REMARK SMILES IDX 30 29 21 30 29 31 31 32 22 33 27 34 23 35 26 36 24 37 13 38
REMARK SMILES IDX 20 39 14 40 18 41 15 42 16 43 19 44 17 46 28 48 25 50 33 52
REMARK H PARENT 43 17 41 19 39 21 37 23 35 25 19 45 17 47 28 49 25 51 33 53
REMARK Flexibility Score: inf
ROOT
ATOM      1  C   UNL     1     129.727 127.625 126.829  1.00  0.00     0.180 C 
ATOM      2  C   UNL     1     128.550 126.859 126.204  1.00  0.00     0.177 C 
ATOM      3  C   UNL     1     127.728 127.878 125.405  1.00  0.00     0.180 C 
ATOM      4  C   UNL     1     128.615 128.739 124.444  1.00  0.00     0.214 C 
ATOM      5  C   UNL     1     130.011 129.093 125.036  1.00  0.00     0.339 C 
ATOM      6  O   UNL     1     130.582 128.034 125.779  1.00  0.00    -0.332 OA
ENDROOT
BRANCH   1   7
ATOM      7  C   UNL     1     130.524 126.771 127.834  1.00  0.00     0.198 C 
BRANCH   7   8
ATOM      8  O   UNL     1     129.837 125.571 128.155  1.00  0.00    -0.347 OA
BRANCH   8   9
ATOM      9  C   UNL     1     130.737 124.528 128.492  1.00  0.00     0.281 C 
ATOM     10  C   UNL     1     128.999 123.236 131.488  1.00  0.00     0.041 C 
ATOM     11  C   UNL     1     129.195 123.596 130.013  1.00  0.00     0.150 C 
ATOM     12  C   UNL     1     128.917 122.362 129.115  1.00  0.00     0.174 C 
ATOM     13  O   UNL     1     130.528 124.076 129.826  1.00  0.00    -0.344 OA
ATOM     14  C   UNL     1     129.252 122.636 127.632  1.00  0.00     0.179 C 
ATOM     15  C   UNL     1     130.607 123.356 127.503  1.00  0.00     0.202 C 
BRANCH  12  16
ATOM     16  O   UNL     1     127.573 121.974 129.246  1.00  0.00    -0.388 OA
ATOM     17  H   UNL     1     127.133 122.593 129.891  1.00  0.00     0.211 HD
ENDBRANCH  12  16
BRANCH  14  18
ATOM     18  O   UNL     1     128.223 123.333 126.962  1.00  0.00    -0.387 OA
ATOM     19  H   UNL     1     127.374 123.172 127.432  1.00  0.00     0.211 HD
ENDBRANCH  14  18
BRANCH  15  20
ATOM     20  O   UNL     1     130.785 123.805 126.183  1.00  0.00    -0.385 OA
ATOM     21  H   UNL     1     130.793 124.797 126.201  1.00  0.00     0.211 HD
ENDBRANCH  15  20
ENDBRANCH   8   9
ENDBRANCH   7   8
ENDBRANCH   1   7
BRANCH   2  22
ATOM     22  O   UNL     1     129.046 125.846 125.366  1.00  0.00    -0.387 OA
ATOM     23  H   UNL     1     128.501 125.842 124.535  1.00  0.00     0.211 HD
ENDBRANCH   2  22
BRANCH   3  24
ATOM     24  O   UNL     1     126.648 127.275 124.731  1.00  0.00    -0.387 OA
ATOM     25  H   UNL     1     126.968 126.427 124.333  1.00  0.00     0.211 HD
ENDBRANCH   3  24
BRANCH   5  26
ATOM     26  O   UNL     1     130.884 129.442 123.945  1.00  0.00    -0.454 OA
BRANCH  26  27
ATOM     27  C   UNL     1     132.287 129.325 123.992  1.00  0.00     0.214 A 
ATOM     28  C   UNL     1     132.933 128.268 123.310  1.00  0.00     0.180 A 
ATOM     29  C   UNL     1     133.082 130.213 124.742  1.00  0.00     0.239 A 
ATOM     30  O   UNL     1     134.262 128.257 123.226  1.00  0.00    -0.452 OA
ATOM     31  C   UNL     1     134.488 130.160 124.631  1.00  0.00     0.111 A 
ATOM     32  O   UNL     1     132.543 131.015 125.552  1.00  0.00    -0.285 OA
ATOM     33  C   UNL     1     135.043 129.163 123.803  1.00  0.00     0.146 A 
ATOM     34  C   UNL     1     135.364 131.021 125.338  1.00  0.00     0.134 A 
ATOM     35  C   UNL     1     136.424 129.103 123.595  1.00  0.00     0.094 A 
ATOM     36  C   UNL     1     136.748 130.926 125.143  1.00  0.00     0.093 A 
ATOM     37  C   UNL     1     137.274 129.993 124.246  1.00  0.00     0.123 A 
BRANCH  28  38
ATOM     38  C   UNL     1     132.210 127.116 122.723  1.00  0.00     0.025 A 
ATOM     39  C   UNL     1     132.094 125.875 123.383  1.00  0.00     0.062 A 
ATOM     40  C   UNL     1     131.671 127.266 121.435  1.00  0.00     0.016 A 
ATOM     41  C   UNL     1     131.496 124.788 122.730  1.00  0.00     0.158 A 
ATOM     42  C   UNL     1     131.061 126.187 120.794  1.00  0.00     0.051 A 
ATOM     43  C   UNL     1     130.980 124.941 121.431  1.00  0.00     0.157 A 
BRANCH  41  44
ATOM     44  O   UNL     1     131.425 123.549 123.356  1.00  0.00    -0.504 OA
ATOM     45  H   UNL     1     130.548 123.153 123.665  1.00  0.00     0.293 HD
ENDBRANCH  41  44
BRANCH  43  46
ATOM     46  O   UNL     1     130.371 123.875 120.757  1.00  0.00    -0.504 OA
ATOM     47  H   UNL     1     130.535 122.906 120.997  1.00  0.00     0.293 HD
ENDBRANCH  43  46
ENDBRANCH  28  38
BRANCH  34  48
ATOM     48  O   UNL     1     134.875 131.972 126.234  1.00  0.00    -0.507 OA
ATOM     49  H   UNL     1     135.444 132.372 126.975  1.00  0.00     0.293 HD
ENDBRANCH  34  48
BRANCH  37  50
ATOM     50  O   UNL     1     138.648 129.926 124.023  1.00  0.00    -0.508 OA
ATOM     51  H   UNL     1     139.021 129.641 123.122  1.00  0.00     0.293 HD
ENDBRANCH  37  50
ENDBRANCH  26  27
ENDBRANCH   5  26
BRANCH   4  52
ATOM     52  O   UNL     1     128.775 128.100 123.207  1.00  0.00    -0.384 OA
ATOM     53  H   UNL     1     129.581 128.517 122.807  1.00  0.00     0.211 HD
ENDBRANCH   4  52
TORSDOF 16
ENDMDL
MODEL 3
REMARK VINA RESULT:    -7.555      2.784      8.653
REMARK INTER + INTRA:         -15.354
REMARK INTER:                 -12.542
REMARK INTRA:                  -2.811
REMARK UNBOUND:                -2.940
REMARK SMILES C[C@H]1O[C@H](OC[C@H]2O[C@@H](Oc3c(-c4ccc(O)c(O)c4)oc4cc(O)cc(O)c4c3=O)[C@@H](O)[C@@H](O)[C@H]2O)[C@H](O)[C@H](O)[C@@H]1O
REMARK SMILES IDX 7 1 36 2 34 3 32 4 9 5 8 6 6 7 5 8 4 9 1 10 2 11 42 12 3 13
REMARK SMILES IDX 40 14 38 15 43 16 41 18 39 20 37 22 35 24 10 26 11 27 12 28
REMARK SMILES IDX 30 29 21 30 29 31 31 32 22 33 27 34 23 35 26 36 24 37 13 38
REMARK SMILES IDX 20 39 14 40 18 41 15 42 16 43 19 44 17 46 28 48 25 50 33 52
REMARK H PARENT 43 17 41 19 39 21 37 23 35 25 19 45 17 47 28 49 25 51 33 53
REMARK Flexibility Score: inf
ROOT
ATOM      1  C   UNL     1     129.586 126.836 128.556  1.00  0.00     0.180 C 
ATOM      2  C   UNL     1     128.127 126.704 128.091  1.00  0.00     0.177 C 
ATOM      3  C   UNL     1     127.964 127.617 126.868  1.00  0.00     0.180 C 
ATOM      4  C   UNL     1     129.082 127.385 125.797  1.00  0.00     0.214 C 
ATOM      5  C   UNL     1     130.478 127.077 126.412  1.00  0.00     0.339 C 
ATOM      6  O   UNL     1     130.409 126.256 127.561  1.00  0.00    -0.332 OA
ENDROOT
BRANCH   1   7
ATOM      7  C   UNL     1     129.843 126.135 129.904  1.00  0.00     0.198 C 
BRANCH   7   8
ATOM      8  O   UNL     1     129.210 124.866 129.958  1.00  0.00    -0.347 OA
BRANCH   8   9
ATOM      9  C   UNL     1     130.146 123.825 130.193  1.00  0.00     0.281 C 
ATOM     10  C   UNL     1     128.347 122.057 132.896  1.00  0.00     0.041 C 
ATOM     11  C   UNL     1     128.588 122.626 131.494  1.00  0.00     0.150 C 
ATOM     12  C   UNL     1     128.409 121.518 130.424  1.00  0.00     0.174 C 
ATOM     13  O   UNL     1     129.902 123.184 131.441  1.00  0.00    -0.344 OA
ATOM     14  C   UNL     1     128.794 122.009 129.011  1.00  0.00     0.179 C 
ATOM     15  C   UNL     1     130.115 122.797 129.047  1.00  0.00     0.202 C 
BRANCH  12  16
ATOM     16  O   UNL     1     127.082 121.058 130.435  1.00  0.00    -0.388 OA
ATOM     17  H   UNL     1     126.635 121.419 131.249  1.00  0.00     0.211 HD
ENDBRANCH  12  16
BRANCH  14  18
ATOM     18  O   UNL     1     127.760 122.748 128.392  1.00  0.00    -0.387 OA
ATOM     19  H   UNL     1     127.891 122.718 127.418  1.00  0.00     0.211 HD
ENDBRANCH  14  18
BRANCH  15  20
ATOM     20  O   UNL     1     130.327 123.433 127.812  1.00  0.00    -0.385 OA
ATOM     21  H   UNL     1     131.237 123.827 127.828  1.00  0.00     0.211 HD
ENDBRANCH  15  20
ENDBRANCH   8   9
ENDBRANCH   7   8
ENDBRANCH   1   7
BRANCH   2  22
ATOM     22  O   UNL     1     127.862 125.365 127.756  1.00  0.00    -0.387 OA
ATOM     23  H   UNL     1     127.528 124.906 128.573  1.00  0.00     0.211 HD
ENDBRANCH   2  22
BRANCH   3  24
ATOM     24  O   UNL     1     126.672 127.533 126.313  1.00  0.00    -0.387 OA
ATOM     25  H   UNL     1     126.483 126.581 126.117  1.00  0.00     0.211 HD
ENDBRANCH   3  24
BRANCH   5  26
ATOM     26  O   UNL     1     131.278 126.429 125.404  1.00  0.00    -0.454 OA
BRANCH  26  27
ATOM     27  C   UNL     1     132.470 126.966 124.880  1.00  0.00     0.214 A 
ATOM     28  C   UNL     1     132.494 127.488 123.565  1.00  0.00     0.180 A 
ATOM     29  C   UNL     1     133.672 126.965 125.615  1.00  0.00     0.239 A 
ATOM     30  O   UNL     1     133.574 128.138 123.137  1.00  0.00    -0.452 OA
ATOM     31  C   UNL     1     134.797 127.658 125.118  1.00  0.00     0.111 A 
ATOM     32  O   UNL     1     133.759 126.303 126.683  1.00  0.00    -0.285 OA
ATOM     33  C   UNL     1     134.680 128.282 123.860  1.00  0.00     0.146 A 
ATOM     34  C   UNL     1     136.041 127.720 125.795  1.00  0.00     0.134 A 
ATOM     35  C   UNL     1     135.734 129.043 123.346  1.00  0.00     0.094 A 
ATOM     36  C   UNL     1     137.097 128.461 125.251  1.00  0.00     0.093 A 
ATOM     37  C   UNL     1     136.932 129.149 124.046  1.00  0.00     0.123 A 
BRANCH  28  38
ATOM     38  C   UNL     1     131.391 127.300 122.595  1.00  0.00     0.025 A 
ATOM     39  C   UNL     1     130.279 128.166 122.531  1.00  0.00     0.062 A 
ATOM     40  C   UNL     1     131.442 126.179 121.751  1.00  0.00     0.016 A 
ATOM     41  C   UNL     1     129.212 127.873 121.671  1.00  0.00     0.158 A 
ATOM     42  C   UNL     1     130.386 125.899 120.883  1.00  0.00     0.051 A 
ATOM     43  C   UNL     1     129.262 126.736 120.845  1.00  0.00     0.157 A 
BRANCH  41  44
ATOM     44  O   UNL     1     128.092 128.696 121.640  1.00  0.00    -0.504 OA
ATOM     45  H   UNL     1     128.109 129.610 121.210  1.00  0.00     0.293 HD
ENDBRANCH  41  44
BRANCH  43  46
ATOM     46  O   UNL     1     128.214 126.421 119.971  1.00  0.00    -0.504 OA
ATOM     47  H   UNL     1     128.284 126.527 118.967  1.00  0.00     0.293 HD
ENDBRANCH  43  46
ENDBRANCH  28  38
BRANCH  34  48
ATOM     48  O   UNL     1     136.239 127.054 127.005  1.00  0.00    -0.507 OA
ATOM     49  H   UNL     1     135.541 127.039 127.744  1.00  0.00     0.293 HD
ENDBRANCH  34  48
BRANCH  37  50
ATOM     50  O   UNL     1     137.972 129.919 123.525  1.00  0.00    -0.508 OA
ATOM     51  H   UNL     1     138.406 130.657 124.073  1.00  0.00     0.293 HD
ENDBRANCH  37  50
ENDBRANCH  26  27
ENDBRANCH   5  26
BRANCH   4  52
ATOM     52  O   UNL     1     128.719 126.361 124.912  1.00  0.00    -0.384 OA
ATOM     53  H   UNL     1     128.538 126.820 124.052  1.00  0.00     0.211 HD
ENDBRANCH   4  52
TORSDOF 16
ENDMDL
MODEL 4
REMARK VINA RESULT:    -7.553      2.553      5.129
REMARK INTER + INTRA:         -15.351
REMARK INTER:                 -12.830
REMARK INTRA:                  -2.521
REMARK UNBOUND:                -2.940
REMARK SMILES C[C@H]1O[C@H](OC[C@H]2O[C@@H](Oc3c(-c4ccc(O)c(O)c4)oc4cc(O)cc(O)c4c3=O)[C@@H](O)[C@@H](O)[C@H]2O)[C@H](O)[C@H](O)[C@@H]1O
REMARK SMILES IDX 7 1 36 2 34 3 32 4 9 5 8 6 6 7 5 8 4 9 1 10 2 11 42 12 3 13
REMARK SMILES IDX 40 14 38 15 43 16 41 18 39 20 37 22 35 24 10 26 11 27 12 28
REMARK SMILES IDX 30 29 21 30 29 31 31 32 22 33 27 34 23 35 26 36 24 37 13 38
REMARK SMILES IDX 20 39 14 40 18 41 15 42 16 43 19 44 17 46 28 48 25 50 33 52
REMARK H PARENT 43 17 41 19 39 21 37 23 35 25 19 45 17 47 28 49 25 51 33 53
REMARK Flexibility Score: inf
ROOT
ATOM      1  C   UNL     1     134.720 129.266 126.435  1.00  0.00     0.180 C 
ATOM      2  C   UNL     1     135.222 129.632 125.029  1.00  0.00     0.177 C 
ATOM      3  C   UNL     1     135.104 128.367 124.169  1.00  0.00     0.180 C 
ATOM      4  C   UNL     1     133.690 127.704 124.275  1.00  0.00     0.214 C 
ATOM      5  C   UNL     1     133.068 127.789 125.699  1.00  0.00     0.339 C 
ATOM      6  O   UNL     1     133.329 129.020 126.345  1.00  0.00    -0.332 OA
ENDROOT
BRANCH   1   7
ATOM      7  C   UNL     1     134.975 130.382 127.465  1.00  0.00     0.198 C 
BRANCH   7   8
ATOM      8  O   UNL     1     134.322 131.587 127.098  1.00  0.00    -0.347 OA
BRANCH   8   9
ATOM      9  C   UNL     1     133.104 131.757 127.805  1.00  0.00     0.281 C 
ATOM     10  C   UNL     1     134.071 134.651 129.893  1.00  0.00     0.041 C 
ATOM     11  C   UNL     1     133.786 133.865 128.609  1.00  0.00     0.150 C 
ATOM     12  C   UNL     1     132.775 134.635 127.720  1.00  0.00     0.174 C 
ATOM     13  O   UNL     1     133.286 132.574 128.958  1.00  0.00    -0.344 OA
ATOM     14  C   UNL     1     132.340 133.809 126.489  1.00  0.00     0.179 C 
ATOM     15  C   UNL     1     132.021 132.357 126.889  1.00  0.00     0.202 C 
BRANCH  12  16
ATOM     16  O   UNL     1     133.333 135.857 127.314  1.00  0.00    -0.388 OA
ATOM     17  H   UNL     1     133.291 135.902 126.320  1.00  0.00     0.211 HD
ENDBRANCH  12  16
BRANCH  14  18
ATOM     18  O   UNL     1     133.281 133.867 125.436  1.00  0.00    -0.387 OA
ATOM     19  H   UNL     1     134.105 133.414 125.725  1.00  0.00     0.211 HD
ENDBRANCH  14  18
BRANCH  15  20
ATOM     20  O   UNL     1     131.860 131.568 125.737  1.00  0.00    -0.385 OA
ATOM     21  H   UNL     1     131.438 130.715 126.014  1.00  0.00     0.211 HD
ENDBRANCH  15  20
ENDBRANCH   8   9
ENDBRANCH   7   8
ENDBRANCH   1   7
BRANCH   2  22
ATOM     22  O   UNL     1     134.432 130.670 124.507  1.00  0.00    -0.387 OA
ATOM     23  H   UNL     1     134.416 130.575 123.518  1.00  0.00     0.211 HD
ENDBRANCH   2  22
BRANCH   3  24
ATOM     24  O   UNL     1     135.482 128.600 122.832  1.00  0.00    -0.387 OA
ATOM     25  H   UNL     1     134.801 128.189 122.244  1.00  0.00     0.211 HD
ENDBRANCH   3  24
BRANCH   5  26
ATOM     26  O   UNL     1     131.645 127.602 125.577  1.00  0.00    -0.454 OA
BRANCH  26  27
ATOM     27  C   UNL     1     130.971 126.426 125.963  1.00  0.00     0.214 A 
ATOM     28  C   UNL     1     130.281 125.656 124.997  1.00  0.00     0.180 A 
ATOM     29  C   UNL     1     130.922 126.004 127.305  1.00  0.00     0.239 A 
ATOM     30  O   UNL     1     129.786 124.468 125.338  1.00  0.00    -0.452 OA
ATOM     31  C   UNL     1     130.378 124.740 127.623  1.00  0.00     0.111 A 
ATOM     32  O   UNL     1     131.310 126.774 128.225  1.00  0.00    -0.285 OA
ATOM     33  C   UNL     1     129.848 123.970 126.569  1.00  0.00     0.146 A 
ATOM     34  C   UNL     1     130.299 124.230 128.943  1.00  0.00     0.134 A 
ATOM     35  C   UNL     1     129.361 122.683 126.807  1.00  0.00     0.094 A 
ATOM     36  C   UNL     1     129.779 122.950 129.169  1.00  0.00     0.093 A 
ATOM     37  C   UNL     1     129.343 122.165 128.099  1.00  0.00     0.123 A 
BRANCH  28  38
ATOM     38  C   UNL     1     130.018 126.127 123.618  1.00  0.00     0.025 A 
ATOM     39  C   UNL     1     129.033 127.091 123.319  1.00  0.00     0.062 A 
ATOM     40  C   UNL     1     130.749 125.539 122.572  1.00  0.00     0.016 A 
ATOM     41  C   UNL     1     128.752 127.413 121.984  1.00  0.00     0.158 A 
ATOM     42  C   UNL     1     130.479 125.875 121.246  1.00  0.00     0.051 A 
ATOM     43  C   UNL     1     129.473 126.804 120.943  1.00  0.00     0.157 A 
BRANCH  41  44
ATOM     44  O   UNL     1     127.747 128.326 121.682  1.00  0.00    -0.504 OA
ATOM     45  H   UNL     1     127.484 128.539 120.729  1.00  0.00     0.293 HD
ENDBRANCH  41  44
BRANCH  43  46
ATOM     46  O   UNL     1     129.219 127.111 119.600  1.00  0.00    -0.504 OA
ATOM     47  H   UNL     1     128.976 126.410 118.912  1.00  0.00     0.293 HD
ENDBRANCH  43  46
ENDBRANCH  28  38
BRANCH  34  48
ATOM     48  O   UNL     1     130.734 124.982 130.036  1.00  0.00    -0.507 OA
ATOM     49  H   UNL     1     130.969 124.563 130.932  1.00  0.00     0.293 HD
ENDBRANCH  34  48
BRANCH  37  50
ATOM     50  O   UNL     1     128.862 120.875 128.322  1.00  0.00    -0.508 OA
ATOM     51  H   UNL     1     129.414 120.058 128.076  1.00  0.00     0.293 HD
ENDBRANCH  37  50
ENDBRANCH  26  27
ENDBRANCH   5  26
BRANCH   4  52
ATOM     52  O   UNL     1     132.808 128.259 123.339  1.00  0.00    -0.384 OA
ATOM     53  H   UNL     1     132.896 127.687 122.534  1.00  0.00     0.211 HD
ENDBRANCH   4  52
TORSDOF 16
ENDMDL
MODEL 5
REMARK VINA RESULT:    -7.530      6.083     11.220
REMARK INTER + INTRA:         -15.312
REMARK INTER:                 -11.654
REMARK INTRA:                  -3.658
REMARK UNBOUND:                -2.940
REMARK SMILES C[C@H]1O[C@H](OC[C@H]2O[C@@H](Oc3c(-c4ccc(O)c(O)c4)oc4cc(O)cc(O)c4c3=O)[C@@H](O)[C@@H](O)[C@H]2O)[C@H](O)[C@H](O)[C@@H]1O
REMARK SMILES IDX 7 1 36 2 34 3 32 4 9 5 8 6 6 7 5 8 4 9 1 10 2 11 42 12 3 13
REMARK SMILES IDX 40 14 38 15 43 16 41 18 39 20 37 22 35 24 10 26 11 27 12 28
REMARK SMILES IDX 30 29 21 30 29 31 31 32 22 33 27 34 23 35 26 36 24 37 13 38
REMARK SMILES IDX 20 39 14 40 18 41 15 42 16 43 19 44 17 46 28 48 25 50 33 52
REMARK H PARENT 43 17 41 19 39 21 37 23 35 25 19 45 17 47 28 49 25 51 33 53
REMARK Flexibility Score: inf
ROOT
ATOM      1  C   UNL     1     130.399 132.955 133.245  1.00  0.00     0.180 C 
ATOM      2  C   UNL     1     129.048 132.223 133.221  1.00  0.00     0.177 C 
ATOM      3  C   UNL     1     127.998 133.238 132.752  1.00  0.00     0.180 C 
ATOM      4  C   UNL     1     128.432 133.987 131.447  1.00  0.00     0.214 C 
ATOM      5  C   UNL     1     129.957 134.294 131.384  1.00  0.00     0.339 C 
ATOM      6  O   UNL     1     130.754 133.249 131.907  1.00  0.00    -0.332 OA
ENDROOT
BRANCH   1   7
ATOM      7  C   UNL     1     131.515 132.117 133.897  1.00  0.00     0.198 C 
BRANCH   7   8
ATOM      8  O   UNL     1     132.515 131.761 132.954  1.00  0.00    -0.347 OA
BRANCH   8   9
ATOM      9  C   UNL     1     132.736 130.359 132.933  1.00  0.00     0.281 C 
ATOM     10  C   UNL     1     130.959 129.562 129.791  1.00  0.00     0.041 C 
ATOM     11  C   UNL     1     132.011 130.211 130.694  1.00  0.00     0.150 C 
ATOM     12  C   UNL     1     133.437 129.920 130.156  1.00  0.00     0.174 C 
ATOM     13  O   UNL     1     131.853 129.711 132.023  1.00  0.00    -0.344 OA
ATOM     14  C   UNL     1     134.534 130.424 131.120  1.00  0.00     0.179 C 
ATOM     15  C   UNL     1     134.200 130.045 132.574  1.00  0.00     0.202 C 
BRANCH  12  16
ATOM     16  O   UNL     1     133.595 130.507 128.890  1.00  0.00    -0.388 OA
ATOM     17  H   UNL     1     132.701 130.543 128.451  1.00  0.00     0.211 HD
ENDBRANCH  12  16
BRANCH  14  18
ATOM     18  O   UNL     1     134.785 131.808 130.984  1.00  0.00    -0.387 OA
ATOM     19  H   UNL     1     135.525 131.933 130.348  1.00  0.00     0.211 HD
ENDBRANCH  14  18
BRANCH  15  20
ATOM     20  O   UNL     1     135.074 130.707 133.454  1.00  0.00    -0.385 OA
ATOM     21  H   UNL     1     135.947 130.238 133.421  1.00  0.00     0.211 HD
ENDBRANCH  15  20
ENDBRANCH   8   9
ENDBRANCH   7   8
ENDBRANCH   1   7
BRANCH   2  22
ATOM     22  O   UNL     1     129.123 131.134 132.336  1.00  0.00    -0.387 OA
ATOM     23  H   UNL     1     129.435 131.476 131.456  1.00  0.00     0.211 HD
ENDBRANCH   2  22
BRANCH   3  24
ATOM     24  O   UNL     1     126.719 132.660 132.631  1.00  0.00    -0.387 OA
ATOM     25  H   UNL     1     126.070 133.251 133.088  1.00  0.00     0.211 HD
ENDBRANCH   3  24
BRANCH   5  26
ATOM     26  O   UNL     1     130.309 134.525 130.007  1.00  0.00    -0.454 OA
BRANCH  26  27
ATOM     27  C   UNL     1     131.501 135.154 129.595  1.00  0.00     0.214 A 
ATOM     28  C   UNL     1     131.567 136.565 129.518  1.00  0.00     0.180 A 
ATOM     29  C   UNL     1     132.637 134.415 129.211  1.00  0.00     0.239 A 
ATOM     30  O   UNL     1     132.738 137.155 129.287  1.00  0.00    -0.452 OA
ATOM     31  C   UNL     1     133.856 135.083 128.964  1.00  0.00     0.111 A 
ATOM     32  O   UNL     1     132.551 133.170 129.033  1.00  0.00    -0.285 OA
ATOM     33  C   UNL     1     133.866 136.489 129.061  1.00  0.00     0.146 A 
ATOM     34  C   UNL     1     135.050 134.420 128.585  1.00  0.00     0.134 A 
ATOM     35  C   UNL     1     135.057 137.202 128.898  1.00  0.00     0.094 A 
ATOM     36  C   UNL     1     136.228 135.153 128.395  1.00  0.00     0.093 A 
ATOM     37  C   UNL     1     136.239 136.537 128.586  1.00  0.00     0.123 A 
BRANCH  28  38
ATOM     38  C   UNL     1     130.378 137.442 129.622  1.00  0.00     0.025 A 
ATOM     39  C   UNL     1     129.549 137.731 128.518  1.00  0.00     0.062 A 
ATOM     40  C   UNL     1     130.112 138.044 130.862  1.00  0.00     0.016 A 
ATOM     41  C   UNL     1     128.505 138.657 128.650  1.00  0.00     0.158 A 
ATOM     42  C   UNL     1     129.061 138.952 130.996  1.00  0.00     0.051 A 
ATOM     43  C   UNL     1     128.260 139.273 129.891  1.00  0.00     0.157 A 
BRANCH  41  44
ATOM     44  O   UNL     1     127.717 138.984 127.553  1.00  0.00    -0.504 OA
ATOM     45  H   UNL     1     128.026 138.827 126.604  1.00  0.00     0.293 HD
ENDBRANCH  41  44
BRANCH  43  46
ATOM     46  O   UNL     1     127.220 140.196 130.055  1.00  0.00    -0.504 OA
ATOM     47  H   UNL     1     127.343 141.086 130.522  1.00  0.00     0.293 HD
ENDBRANCH  43  46
ENDBRANCH  28  38
BRANCH  34  48
ATOM     48  O   UNL     1     135.080 133.037 128.395  1.00  0.00    -0.507 OA
ATOM     49  H   UNL     1     135.874 132.463 128.668  1.00  0.00     0.293 HD
ENDBRANCH  34  48
BRANCH  37  50
ATOM     50  O   UNL     1     137.421 137.260 128.435  1.00  0.00    -0.508 OA
ATOM     51  H   UNL     1     138.314 136.790 128.318  1.00  0.00     0.293 HD
ENDBRANCH  37  50
ENDBRANCH  26  27
ENDBRANCH   5  26
BRANCH   4  52
ATOM     52  O   UNL     1     128.047 133.267 130.308  1.00  0.00    -0.384 OA
ATOM     53  H   UNL     1     128.754 132.581 130.190  1.00  0.00     0.211 HD
ENDBRANCH   4  52
TORSDOF 16
ENDMDL
MODEL 6
REMARK VINA RESULT:    -7.352      2.581      8.676
REMARK INTER + INTRA:         -15.020
REMARK INTER:                 -11.661
REMARK INTRA:                  -3.359
REMARK UNBOUND:                -2.940
REMARK SMILES C[C@H]1O[C@H](OC[C@H]2O[C@@H](Oc3c(-c4ccc(O)c(O)c4)oc4cc(O)cc(O)c4c3=O)[C@@H](O)[C@@H](O)[C@H]2O)[C@H](O)[C@H](O)[C@@H]1O
REMARK SMILES IDX 7 1 36 2 34 3 32 4 9 5 8 6 6 7 5 8 4 9 1 10 2 11 42 12 3 13
REMARK SMILES IDX 40 14 38 15 43 16 41 18 39 20 37 22 35 24 10 26 11 27 12 28
REMARK SMILES IDX 30 29 21 30 29 31 31 32 22 33 27 34 23 35 26 36 24 37 13 38
REMARK SMILES IDX 20 39 14 40 18 41 15 42 16 43 19 44 17 46 28 48 25 50 33 52
REMARK H PARENT 43 17 41 19 39 21 37 23 35 25 19 45 17 47 28 49 25 51 33 53
REMARK Flexibility Score: inf
ROOT
ATOM      1  C   UNL     1     130.569 129.395 127.872  1.00  0.00     0.180 C 
ATOM      2  C   UNL     1     129.175 129.836 128.344  1.00  0.00     0.177 C 
ATOM      3  C   UNL     1     129.382 130.998 129.325  1.00  0.00     0.180 C 
ATOM      4  C   UNL     1     130.327 132.105 128.747  1.00  0.00     0.214 C 
ATOM      5  C   UNL     1     131.494 131.539 127.886  1.00  0.00     0.339 C 
ATOM      6  O   UNL     1     131.107 130.440 127.084  1.00  0.00    -0.332 OA
ENDROOT
BRANCH   1   7
ATOM      7  C   UNL     1     130.530 128.098 127.042  1.00  0.00     0.198 C 
BRANCH   7   8
ATOM      8  O   UNL     1     129.776 128.265 125.852  1.00  0.00    -0.347 OA
BRANCH   8   9
ATOM      9  C   UNL     1     128.853 127.204 125.665  1.00  0.00     0.281 C 
ATOM     10  C   UNL     1     126.006 129.165 124.355  1.00  0.00     0.041 C 
ATOM     11  C   UNL     1     127.421 128.582 124.397  1.00  0.00     0.150 C 
ATOM     12  C   UNL     1     127.740 127.846 123.069  1.00  0.00     0.174 C 
ATOM     13  O   UNL     1     127.525 127.695 125.512  1.00  0.00    -0.344 OA
ATOM     14  C   UNL     1     129.097 127.110 123.124  1.00  0.00     0.179 C 
ATOM     15  C   UNL     1     129.249 126.344 124.451  1.00  0.00     0.202 C 
BRANCH  12  16
ATOM     16  O   UNL     1     127.726 128.761 122.004  1.00  0.00    -0.388 OA
ATOM     17  H   UNL     1     128.418 129.456 122.182  1.00  0.00     0.211 HD
ENDBRANCH  12  16
BRANCH  14  18
ATOM     18  O   UNL     1     130.192 127.972 122.889  1.00  0.00    -0.387 OA
ATOM     19  H   UNL     1     129.849 128.848 122.604  1.00  0.00     0.211 HD
ENDBRANCH  14  18
BRANCH  15  20
ATOM     20  O   UNL     1     130.570 125.882 124.587  1.00  0.00    -0.385 OA
ATOM     21  H   UNL     1     130.735 125.724 125.552  1.00  0.00     0.211 HD
ENDBRANCH  15  20
ENDBRANCH   8   9
ENDBRANCH   7   8
ENDBRANCH   1   7
BRANCH   2  22
ATOM     22  O   UNL     1     128.414 130.245 127.236  1.00  0.00    -0.387 OA
ATOM     23  H   UNL     1     128.299 131.231 127.290  1.00  0.00     0.211 HD
ENDBRANCH   2  22
BRANCH   3  24
ATOM     24  O   UNL     1     128.160 131.530 129.781  1.00  0.00    -0.387 OA
ATOM     25  H   UNL     1     127.884 131.021 130.584  1.00  0.00     0.211 HD
ENDBRANCH   3  24
BRANCH   5  26
ATOM     26  O   UNL     1     131.983 132.601 127.044  1.00  0.00    -0.454 OA
BRANCH  26  27
ATOM     27  C   UNL     1     133.324 133.033 127.025  1.00  0.00     0.214 A 
ATOM     28  C   UNL     1     134.264 132.391 126.184  1.00  0.00     0.180 A 
ATOM     29  C   UNL     1     133.782 134.073 127.857  1.00  0.00     0.239 A 
ATOM     30  O   UNL     1     135.484 132.906 126.051  1.00  0.00    -0.452 OA
ATOM     31  C   UNL     1     135.088 134.582 127.689  1.00  0.00     0.111 A 
ATOM     32  O   UNL     1     133.049 134.509 128.786  1.00  0.00    -0.285 OA
ATOM     33  C   UNL     1     135.907 133.977 126.715  1.00  0.00     0.146 A 
ATOM     34  C   UNL     1     135.627 135.633 128.472  1.00  0.00     0.134 A 
ATOM     35  C   UNL     1     137.184 134.480 126.451  1.00  0.00     0.094 A 
ATOM     36  C   UNL     1     136.920 136.105 128.216  1.00  0.00     0.093 A 
ATOM     37  C   UNL     1     137.683 135.553 127.184  1.00  0.00     0.123 A 
BRANCH  28  38
ATOM     38  C   UNL     1     133.986 131.121 125.475  1.00  0.00     0.025 A 
ATOM     39  C   UNL     1     133.346 131.076 124.219  1.00  0.00     0.062 A 
ATOM     40  C   UNL     1     134.330 129.920 126.118  1.00  0.00     0.016 A 
ATOM     41  C   UNL     1     133.007 129.840 123.649  1.00  0.00     0.158 A 
ATOM     42  C   UNL     1     134.007 128.692 125.541  1.00  0.00     0.051 A 
ATOM     43  C   UNL     1     133.336 128.644 124.311  1.00  0.00     0.157 A 
BRANCH  41  44
ATOM     44  O   UNL     1     132.332 129.791 122.436  1.00  0.00    -0.504 OA
ATOM     45  H   UNL     1     131.997 128.923 122.042  1.00  0.00     0.293 HD
ENDBRANCH  41  44
BRANCH  43  46
ATOM     46  O   UNL     1     133.016 127.395 123.764  1.00  0.00    -0.504 OA
ATOM     47  H   UNL     1     133.575 126.949 123.048  1.00  0.00     0.293 HD
ENDBRANCH  43  46
ENDBRANCH  28  38
BRANCH  34  48
ATOM     48  O   UNL     1     134.890 136.216 129.504  1.00  0.00    -0.507 OA
ATOM     49  H   UNL     1     133.965 136.614 129.362  1.00  0.00     0.293 HD
ENDBRANCH  34  48
BRANCH  37  50
ATOM     50  O   UNL     1     138.955 136.051 126.904  1.00  0.00    -0.508 OA
ATOM     51  H   UNL     1     139.444 135.795 126.050  1.00  0.00     0.293 HD
ENDBRANCH  37  50
ENDBRANCH  26  27
ENDBRANCH   5  26
BRANCH   4  52
ATOM     52  O   UNL     1     129.600 133.042 128.001  1.00  0.00    -0.384 OA
ATOM     53  H   UNL     1     130.205 133.822 127.913  1.00  0.00     0.211 HD
ENDBRANCH   4  52
TORSDOF 16
ENDMDL
MODEL 7
REMARK VINA RESULT:    -7.308      5.542     10.264
REMARK INTER + INTRA:         -14.947
REMARK INTER:                 -11.954
REMARK INTRA:                  -2.994
REMARK UNBOUND:                -2.940
REMARK SMILES C[C@H]1O[C@H](OC[C@H]2O[C@@H](Oc3c(-c4ccc(O)c(O)c4)oc4cc(O)cc(O)c4c3=O)[C@@H](O)[C@@H](O)[C@H]2O)[C@H](O)[C@H](O)[C@@H]1O
REMARK SMILES IDX 7 1 36 2 34 3 32 4 9 5 8 6 6 7 5 8 4 9 1 10 2 11 42 12 3 13
REMARK SMILES IDX 40 14 38 15 43 16 41 18 39 20 37 22 35 24 10 26 11 27 12 28
REMARK SMILES IDX 30 29 21 30 29 31 31 32 22 33 27 34 23 35 26 36 24 37 13 38
REMARK SMILES IDX 20 39 14 40 18 41 15 42 16 43 19 44 17 46 28 48 25 50 33 52
REMARK H PARENT 43 17 41 19 39 21 37 23 35 25 19 45 17 47 28 49 25 51 33 53
REMARK Flexibility Score: inf
ROOT
ATOM      1  C   UNL     1     138.552 135.602 127.862  1.00  0.00     0.180 C 
ATOM      2  C   UNL     1     137.847 136.635 128.754  1.00  0.00     0.177 C 
ATOM      3  C   UNL     1     136.392 136.720 128.276  1.00  0.00     0.180 C 
ATOM      4  C   UNL     1     135.724 135.311 128.144  1.00  0.00     0.214 C 
ATOM      5  C   UNL     1     136.694 134.208 127.630  1.00  0.00     0.339 C 
ATOM      6  O   UNL     1     138.002 134.331 128.155  1.00  0.00    -0.332 OA
ENDROOT
BRANCH   1   7
ATOM      7  C   UNL     1     140.076 135.562 128.090  1.00  0.00     0.198 C 
BRANCH   7   8
ATOM      8  O   UNL     1     140.395 135.621 129.471  1.00  0.00    -0.347 OA
BRANCH   8   9
ATOM      9  C   UNL     1     141.082 134.456 129.899  1.00  0.00     0.281 C 
ATOM     10  C   UNL     1     143.959 136.080 131.559  1.00  0.00     0.041 C 
ATOM     11  C   UNL     1     142.492 135.719 131.303  1.00  0.00     0.150 C 
ATOM     12  C   UNL     1     141.837 135.179 132.601  1.00  0.00     0.174 C 
ATOM     13  O   UNL     1     142.429 134.751 130.255  1.00  0.00    -0.344 OA
ATOM     14  C   UNL     1     140.403 134.658 132.353  1.00  0.00     0.179 C 
ATOM     15  C   UNL     1     140.349 133.794 131.080  1.00  0.00     0.202 C 
BRANCH  12  16
ATOM     16  O   UNL     1     141.826 136.184 133.582  1.00  0.00    -0.388 OA
ATOM     17  H   UNL     1     142.525 135.966 134.257  1.00  0.00     0.211 HD
ENDBRANCH  12  16
BRANCH  14  18
ATOM     18  O   UNL     1     139.445 135.696 132.323  1.00  0.00    -0.387 OA
ATOM     19  H   UNL     1     139.864 136.500 131.942  1.00  0.00     0.211 HD
ENDBRANCH  14  18
BRANCH  15  20
ATOM     20  O   UNL     1     139.011 133.528 130.740  1.00  0.00    -0.385 OA
ATOM     21  H   UNL     1     138.999 132.707 130.184  1.00  0.00     0.211 HD
ENDBRANCH  15  20
ENDBRANCH   8   9
ENDBRANCH   7   8
ENDBRANCH   1   7
BRANCH   2  22
ATOM     22  O   UNL     1     137.911 136.215 130.094  1.00  0.00    -0.387 OA
ATOM     23  H   UNL     1     138.834 136.384 130.424  1.00  0.00     0.211 HD
ENDBRANCH   2  22
BRANCH   3  24
ATOM     24  O   UNL     1     135.626 137.600 129.066  1.00  0.00    -0.387 OA
ATOM     25  H   UNL     1     135.448 138.415 128.534  1.00  0.00     0.211 HD
ENDBRANCH   3  24
BRANCH   5  26
ATOM     26  O   UNL     1     136.147 132.926 127.997  1.00  0.00    -0.454 OA
BRANCH  26  27
ATOM     27  C   UNL     1     135.651 131.989 127.069  1.00  0.00     0.214 A 
ATOM     28  C   UNL     1     134.256 131.857 126.874  1.00  0.00     0.180 A 
ATOM     29  C   UNL     1     136.505 131.133 126.347  1.00  0.00     0.239 A 
ATOM     30  O   UNL     1     133.802 131.089 125.885  1.00  0.00    -0.452 OA
ATOM     31  C   UNL     1     135.980 130.328 125.314  1.00  0.00     0.111 A 
ATOM     32  O   UNL     1     137.723 131.046 126.659  1.00  0.00    -0.285 OA
ATOM     33  C   UNL     1     134.590 130.376 125.087  1.00  0.00     0.146 A 
ATOM     34  C   UNL     1     136.766 129.448 124.529  1.00  0.00     0.134 A 
ATOM     35  C   UNL     1     134.019 129.657 124.033  1.00  0.00     0.094 A 
ATOM     36  C   UNL     1     136.173 128.710 123.497  1.00  0.00     0.093 A 
ATOM     37  C   UNL     1     134.809 128.841 123.228  1.00  0.00     0.123 A 
BRANCH  28  38
ATOM     38  C   UNL     1     133.247 132.486 127.757  1.00  0.00     0.025 A 
ATOM     39  C   UNL     1     132.506 133.623 127.375  1.00  0.00     0.062 A 
ATOM     40  C   UNL     1     133.074 131.950 129.044  1.00  0.00     0.016 A 
ATOM     41  C   UNL     1     131.648 134.242 128.295  1.00  0.00     0.158 A 
ATOM     42  C   UNL     1     132.208 132.558 129.952  1.00  0.00     0.051 A 
ATOM     43  C   UNL     1     131.499 133.711 129.588  1.00  0.00     0.157 A 
BRANCH  41  44
ATOM     44  O   UNL     1     130.953 135.392 127.939  1.00  0.00    -0.504 OA
ATOM     45  H   UNL     1     131.180 136.298 128.326  1.00  0.00     0.293 HD
ENDBRANCH  41  44
BRANCH  43  46
ATOM     46  O   UNL     1     130.645 134.304 130.527  1.00  0.00    -0.504 OA
ATOM     47  H   UNL     1     129.637 134.298 130.435  1.00  0.00     0.293 HD
ENDBRANCH  43  46
ENDBRANCH  28  38
BRANCH  34  48
ATOM     48  O   UNL     1     138.134 129.298 124.762  1.00  0.00    -0.507 OA
ATOM     49  H   UNL     1     138.816 129.241 124.010  1.00  0.00     0.293 HD
ENDBRANCH  34  48
BRANCH  37  50
ATOM     50  O   UNL     1     134.227 128.136 122.175  1.00  0.00    -0.508 OA
ATOM     51  H   UNL     1     134.154 127.123 122.197  1.00  0.00     0.293 HD
ENDBRANCH  37  50
ENDBRANCH  26  27
ENDBRANCH   5  26
BRANCH   4  52
ATOM     52  O   UNL     1     135.157 134.913 129.363  1.00  0.00    -0.384 OA
ATOM     53  H   UNL     1     135.612 134.061 129.588  1.00  0.00     0.211 HD
ENDBRANCH   4  52
TORSDOF 16
ENDMDL
MODEL 8
REMARK VINA RESULT:    -7.283      3.757      9.004
REMARK INTER + INTRA:         -14.906
REMARK INTER:                 -12.921
REMARK INTRA:                  -1.985
REMARK UNBOUND:                -2.940
REMARK SMILES C[C@H]1O[C@H](OC[C@H]2O[C@@H](Oc3c(-c4ccc(O)c(O)c4)oc4cc(O)cc(O)c4c3=O)[C@@H](O)[C@@H](O)[C@H]2O)[C@H](O)[C@H](O)[C@@H]1O
REMARK SMILES IDX 7 1 36 2 34 3 32 4 9 5 8 6 6 7 5 8 4 9 1 10 2 11 42 12 3 13
REMARK SMILES IDX 40 14 38 15 43 16 41 18 39 20 37 22 35 24 10 26 11 27 12 28
REMARK SMILES IDX 30 29 21 30 29 31 31 32 22 33 27 34 23 35 26 36 24 37 13 38
REMARK SMILES IDX 20 39 14 40 18 41 15 42 16 43 19 44 17 46 28 48 25 50 33 52
REMARK H PARENT 43 17 41 19 39 21 37 23 35 25 19 45 17 47 28 49 25 51 33 53
REMARK Flexibility Score: inf
ROOT
ATOM      1  C   UNL     1     132.949 129.530 123.916  1.00  0.00     0.180 C 
ATOM      2  C   UNL     1     133.856 128.425 123.353  1.00  0.00     0.177 C 
ATOM      3  C   UNL     1     135.252 129.038 123.181  1.00  0.00     0.180 C 
ATOM      4  C   UNL     1     135.742 129.780 124.469  1.00  0.00     0.214 C 
ATOM      5  C   UNL     1     134.605 130.526 125.226  1.00  0.00     0.339 C 
ATOM      6  O   UNL     1     133.383 129.814 125.233  1.00  0.00    -0.332 OA
ENDROOT
BRANCH   1   7
ATOM      7  C   UNL     1     131.464 129.120 123.946  1.00  0.00     0.198 C 
BRANCH   7   8
ATOM      8  O   UNL     1     131.138 128.272 122.855  1.00  0.00    -0.347 OA
BRANCH   8   9
ATOM      9  C   UNL     1     130.473 127.096 123.289  1.00  0.00     0.281 C 
ATOM     10  C   UNL     1     127.093 127.856 122.000  1.00  0.00     0.041 C 
ATOM     11  C   UNL     1     128.598 127.577 121.944  1.00  0.00     0.150 C 
ATOM     12  C   UNL     1     128.895 126.420 120.955  1.00  0.00     0.174 C 
ATOM     13  O   UNL     1     129.059 127.260 123.259  1.00  0.00    -0.344 OA
ATOM     14  C   UNL     1     130.382 126.001 120.983  1.00  0.00     0.179 C 
ATOM     15  C   UNL     1     130.891 125.887 122.432  1.00  0.00     0.202 C 
BRANCH  12  16
ATOM     16  O   UNL     1     128.521 126.799 119.656  1.00  0.00    -0.388 OA
ATOM     17  H   UNL     1     129.309 127.222 119.216  1.00  0.00     0.211 HD
ENDBRANCH  12  16
BRANCH  14  18
ATOM     18  O   UNL     1     131.201 126.852 120.206  1.00  0.00    -0.387 OA
ATOM     19  H   UNL     1     131.593 127.536 120.794  1.00  0.00     0.211 HD
ENDBRANCH  14  18
BRANCH  15  20
ATOM     20  O   UNL     1     132.289 125.740 122.437  1.00  0.00    -0.385 OA
ATOM     21  H   UNL     1     132.655 126.318 121.720  1.00  0.00     0.211 HD
ENDBRANCH  15  20
ENDBRANCH   8   9
ENDBRANCH   7   8
ENDBRANCH   1   7
BRANCH   2  22
ATOM     22  O   UNL     1     133.890 127.345 124.251  1.00  0.00    -0.387 OA
ATOM     23  H   UNL     1     134.322 126.577 123.791  1.00  0.00     0.211 HD
ENDBRANCH   2  22
BRANCH   3  24
ATOM     24  O   UNL     1     136.192 128.093 122.723  1.00  0.00    -0.387 OA
ATOM     25  H   UNL     1     136.522 128.390 121.839  1.00  0.00     0.211 HD
ENDBRANCH   3  24
BRANCH   5  26
ATOM     26  O   UNL     1     135.041 130.747 126.582  1.00  0.00    -0.454 OA
BRANCH  26  27
ATOM     27  C   UNL     1     135.463 131.996 127.078  1.00  0.00     0.214 A 
ATOM     28  C   UNL     1     136.843 132.292 127.171  1.00  0.00     0.180 A 
ATOM     29  C   UNL     1     134.546 132.964 127.533  1.00  0.00     0.239 A 
ATOM     30  O   UNL     1     137.230 133.526 127.486  1.00  0.00    -0.452 OA
ATOM     31  C   UNL     1     135.001 134.258 127.867  1.00  0.00     0.111 A 
ATOM     32  O   UNL     1     133.334 132.660 127.694  1.00  0.00    -0.285 OA
ATOM     33  C   UNL     1     136.386 134.508 127.782  1.00  0.00     0.146 A 
ATOM     34  C   UNL     1     134.149 135.295 128.321  1.00  0.00     0.134 A 
ATOM     35  C   UNL     1     136.890 135.788 128.031  1.00  0.00     0.094 A 
ATOM     36  C   UNL     1     134.676 136.563 128.596  1.00  0.00     0.093 A 
ATOM     37  C   UNL     1     136.038 136.818 128.418  1.00  0.00     0.123 A 
BRANCH  28  38
ATOM     38  C   UNL     1     137.906 131.275 126.994  1.00  0.00     0.025 A 
ATOM     39  C   UNL     1     138.745 131.243 125.861  1.00  0.00     0.062 A 
ATOM     40  C   UNL     1     138.034 130.280 127.976  1.00  0.00     0.016 A 
ATOM     41  C   UNL     1     139.657 130.191 125.694  1.00  0.00     0.158 A 
ATOM     42  C   UNL     1     138.954 129.244 127.817  1.00  0.00     0.051 A 
ATOM     43  C   UNL     1     139.762 129.186 126.672  1.00  0.00     0.157 A 
BRANCH  41  44
ATOM     44  O   UNL     1     140.450 130.126 124.555  1.00  0.00    -0.504 OA
ATOM     45  H   UNL     1     140.254 129.485 123.799  1.00  0.00     0.293 HD
ENDBRANCH  41  44
BRANCH  43  46
ATOM     46  O   UNL     1     140.668 128.127 126.537  1.00  0.00    -0.504 OA
ATOM     47  H   UNL     1     140.894 127.495 127.295  1.00  0.00     0.293 HD
ENDBRANCH  43  46
ENDBRANCH  28  38
BRANCH  34  48
ATOM     48  O   UNL     1     132.782 135.081 128.501  1.00  0.00    -0.507 OA
ATOM     49  H   UNL     1     132.294 134.284 128.101  1.00  0.00     0.293 HD
ENDBRANCH  34  48
BRANCH  37  50
ATOM     50  O   UNL     1     136.554 138.091 128.654  1.00  0.00    -0.508 OA
ATOM     51  H   UNL     1     135.975 138.921 128.554  1.00  0.00     0.293 HD
ENDBRANCH  37  50
ENDBRANCH  26  27
ENDBRANCH   5  26
BRANCH   4  52
ATOM     52  O   UNL     1     136.387 128.892 125.341  1.00  0.00    -0.384 OA
ATOM     53  H   UNL     1     137.023 128.390 124.769  1.00  0.00     0.211 HD
ENDBRANCH   4  52
TORSDOF 16
ENDMDL
MODEL 9
REMARK VINA RESULT:    -7.281      2.687      7.643
REMARK INTER + INTRA:         -14.903
REMARK INTER:                 -12.047
REMARK INTRA:                  -2.856
REMARK UNBOUND:                -2.940
REMARK SMILES C[C@H]1O[C@H](OC[C@H]2O[C@@H](Oc3c(-c4ccc(O)c(O)c4)oc4cc(O)cc(O)c4c3=O)[C@@H](O)[C@@H](O)[C@H]2O)[C@H](O)[C@H](O)[C@@H]1O
REMARK SMILES IDX 7 1 36 2 34 3 32 4 9 5 8 6 6 7 5 8 4 9 1 10 2 11 42 12 3 13
REMARK SMILES IDX 40 14 38 15 43 16 41 18 39 20 37 22 35 24 10 26 11 27 12 28
REMARK SMILES IDX 30 29 21 30 29 31 31 32 22 33 27 34 23 35 26 36 24 37 13 38
REMARK SMILES IDX 20 39 14 40 18 41 15 42 16 43 19 44 17 46 28 48 25 50 33 52
REMARK H PARENT 43 17 41 19 39 21 37 23 35 25 19 45 17 47 28 49 25 51 33 53
REMARK Flexibility Score: inf
ROOT
ATOM      1  C   UNL     1     130.582 125.071 128.070  1.00  0.00     0.180 C 
ATOM      2  C   UNL     1     130.140 123.628 127.781  1.00  0.00     0.177 C 
ATOM      3  C   UNL     1     129.261 123.673 126.525  1.00  0.00     0.180 C 
ATOM      4  C   UNL     1     129.933 124.465 125.353  1.00  0.00     0.214 C 
ATOM      5  C   UNL     1     130.751 125.701 125.828  1.00  0.00     0.339 C 
ATOM      6  O   UNL     1     131.457 125.470 127.032  1.00  0.00    -0.332 OA
ENDROOT
BRANCH   1   7
ATOM      7  C   UNL     1     131.301 125.211 129.425  1.00  0.00     0.198 C 
BRANCH   7   8
ATOM      8  O   UNL     1     132.256 124.178 129.615  1.00  0.00    -0.347 OA
BRANCH   8   9
ATOM      9  C   UNL     1     133.531 124.701 129.953  1.00  0.00     0.281 C 
ATOM     10  C   UNL     1     134.384 122.366 132.690  1.00  0.00     0.041 C 
ATOM     11  C   UNL     1     134.034 122.808 131.265  1.00  0.00     0.150 C 
ATOM     12  C   UNL     1     135.092 122.280 130.262  1.00  0.00     0.174 C 
ATOM     13  O   UNL     1     133.959 124.234 131.228  1.00  0.00    -0.344 OA
ATOM     14  C   UNL     1     134.865 122.830 128.836  1.00  0.00     0.179 C 
ATOM     15  C   UNL     1     134.569 124.341 128.875  1.00  0.00     0.202 C 
BRANCH  12  16
ATOM     16  O   UNL     1     135.075 120.876 130.250  1.00  0.00    -0.388 OA
ATOM     17  H   UNL     1     135.831 120.561 129.682  1.00  0.00     0.211 HD
ENDBRANCH  12  16
BRANCH  14  18
ATOM     18  O   UNL     1     133.868 122.119 128.132  1.00  0.00    -0.387 OA
ATOM     19  H   UNL     1     134.296 121.390 127.630  1.00  0.00     0.211 HD
ENDBRANCH  14  18
BRANCH  15  20
ATOM     20  O   UNL     1     134.135 124.775 127.610  1.00  0.00    -0.385 OA
ATOM     21  H   UNL     1     133.439 125.466 127.752  1.00  0.00     0.211 HD
ENDBRANCH  15  20
ENDBRANCH   8   9
ENDBRANCH   7   8
ENDBRANCH   1   7
BRANCH   2  22
ATOM     22  O   UNL     1     131.274 122.826 127.571  1.00  0.00    -0.387 OA
ATOM     23  H   UNL     1     132.026 123.216 128.091  1.00  0.00     0.211 HD
ENDBRANCH   2  22
BRANCH   3  24
ATOM     24  O   UNL     1     128.843 122.388 126.125  1.00  0.00    -0.387 OA
ATOM     25  H   UNL     1     129.050 121.756 126.857  1.00  0.00     0.211 HD
ENDBRANCH   3  24
BRANCH   5  26
ATOM     26  O   UNL     1     131.681 126.050 124.784  1.00  0.00    -0.454 OA
BRANCH  26  27
ATOM     27  C   UNL     1     132.228 127.337 124.616  1.00  0.00     0.214 A 
ATOM     28  C   UNL     1     131.654 128.235 123.685  1.00  0.00     0.180 A 
ATOM     29  C   UNL     1     133.372 127.756 125.322  1.00  0.00     0.239 A 
ATOM     30  O   UNL     1     132.073 129.498 123.648  1.00  0.00    -0.452 OA
ATOM     31  C   UNL     1     133.787 129.104 125.246  1.00  0.00     0.111 A 
ATOM     32  O   UNL     1     134.054 126.921 125.974  1.00  0.00    -0.285 OA
ATOM     33  C   UNL     1     133.058 129.969 124.406  1.00  0.00     0.146 A 
ATOM     34  C   UNL     1     134.918 129.615 125.931  1.00  0.00     0.134 A 
ATOM     35  C   UNL     1     133.375 131.328 124.342  1.00  0.00     0.094 A 
ATOM     36  C   UNL     1     135.241 130.974 125.831  1.00  0.00     0.093 A 
ATOM     37  C   UNL     1     134.450 131.835 125.066  1.00  0.00     0.123 A 
BRANCH  28  38
ATOM     38  C   UNL     1     130.636 127.832 122.688  1.00  0.00     0.025 A 
ATOM     39  C   UNL     1     129.252 127.857 122.961  1.00  0.00     0.062 A 
ATOM     40  C   UNL     1     131.085 127.356 121.445  1.00  0.00     0.016 A 
ATOM     41  C   UNL     1     128.343 127.357 122.019  1.00  0.00     0.158 A 
ATOM     42  C   UNL     1     130.177 126.874 120.502  1.00  0.00     0.051 A 
ATOM     43  C   UNL     1     128.804 126.862 120.786  1.00  0.00     0.157 A 
BRANCH  41  44
ATOM     44  O   UNL     1     126.982 127.333 122.304  1.00  0.00    -0.504 OA
ATOM     45  H   UNL     1     126.611 127.675 123.180  1.00  0.00     0.293 HD
ENDBRANCH  41  44
BRANCH  43  46
ATOM     46  O   UNL     1     127.919 126.361 119.823  1.00  0.00    -0.504 OA
ATOM     47  H   UNL     1     127.375 125.520 119.960  1.00  0.00     0.293 HD
ENDBRANCH  43  46
ENDBRANCH  28  38
BRANCH  34  48
ATOM     48  O   UNL     1     135.725 128.787 126.712  1.00  0.00    -0.507 OA
ATOM     49  H   UNL     1     136.553 128.324 126.347  1.00  0.00     0.293 HD
ENDBRANCH  34  48
BRANCH  37  50
ATOM     50  O   UNL     1     134.750 133.195 125.000  1.00  0.00    -0.508 OA
ATOM     51  H   UNL     1     135.346 133.637 125.694  1.00  0.00     0.293 HD
ENDBRANCH  37  50
ENDBRANCH  26  27
ENDBRANCH   5  26
BRANCH   4  52
ATOM     52  O   UNL     1     130.750 123.623 124.587  1.00  0.00    -0.384 OA
ATOM     53  H   UNL     1     130.669 123.964 123.660  1.00  0.00     0.211 HD
ENDBRANCH   4  52
TORSDOF 16
ENDMDL
