MODEL 1
REMARK VINA RESULT:    -4.042      0.000      0.000
REMARK INTER + INTRA:          -5.004
REMARK INTER:                  -4.869
REMARK INTRA:                  -0.135
REMARK UNBOUND:                -0.135
REMARK SMILES CC[C@H](C)[C@H]([NH3+])C(=O)[O-]
REMARK SMILES IDX 3 1 4 2 5 3 6 4 7 8 8 9 9 10 2 11 1 12
REMARK H PARENT 6 5 6 6 6 7
REMARK Flexibility Score: inf
ROOT
ATOM      1  C   UNL     1       4.660  47.537   8.564  1.00  0.00     0.050 C 
ATOM      2  C   UNL     1       3.798  48.269   7.513  1.00  0.00     0.014 C 
ENDROOT
BRANCH   1   3
ATOM      3  C   UNL     1       3.776  47.083   9.771  1.00  0.00     0.230 C 
BRANCH   3   4
ATOM      4  N   UNL     1       3.954  47.947  10.950  1.00  0.00    -0.350 N 
ATOM      5  H   UNL     1       3.029  48.211  11.359  1.00  0.00     0.345 HD
ATOM      6  H   UNL     1       4.535  47.460  11.670  1.00  0.00     0.345 HD
ATOM      7  H   UNL     1       4.469  48.818  10.686  1.00  0.00     0.345 HD
ENDBRANCH   3   4
BRANCH   3   8
ATOM      8  C   UNL     1       4.076  45.654  10.154  1.00  0.00     0.099 C 
ATOM      9  O   UNL     1       4.358  44.802   9.268  1.00  0.00    -0.544 OA
ATOM     10  O   UNL     1       4.041  45.269  11.488  1.00  0.00    -0.544 OA
ENDBRANCH   3   8
ENDBRANCH   1   3
BRANCH   1  11
ATOM     11  C   UNL     1       5.837  48.436   9.025  1.00  0.00     0.006 C 
ATOM     12  C   UNL     1       7.125  47.660   9.314  1.00  0.00     0.004 C 
ENDBRANCH   1  11
TORSDOF 4
ENDMDL
MODEL 2
REMARK VINA RESULT:    -3.997      1.694      2.147
REMARK INTER + INTRA:          -4.950
REMARK INTER:                  -4.860
REMARK INTRA:                  -0.090
REMARK UNBOUND:                -0.135
REMARK SMILES CC[C@H](C)[C@H]([NH3+])C(=O)[O-]
REMARK SMILES IDX 3 1 4 2 5 3 6 4 7 8 8 9 9 10 2 11 1 12
REMARK H PARENT 6 5 6 6 6 7
REMARK Flexibility Score: inf
ROOT
ATOM      1  C   UNL     1       5.081  46.974  10.040  1.00  0.00     0.050 C 
ATOM      2  C   UNL     1       6.323  47.539   9.317  1.00  0.00     0.014 C 
ENDROOT
BRANCH   1   3
ATOM      3  C   UNL     1       4.322  45.970   9.112  1.00  0.00     0.230 C 
BRANCH   3   4
ATOM      4  N   UNL     1       3.012  46.486   8.683  1.00  0.00    -0.350 N 
ATOM      5  H   UNL     1       2.812  47.410   9.132  1.00  0.00     0.345 HD
ATOM      6  H   UNL     1       2.986  46.585   7.642  1.00  0.00     0.345 HD
ATOM      7  H   UNL     1       2.255  45.813   8.941  1.00  0.00     0.345 HD
ENDBRANCH   3   4
BRANCH   3   8
ATOM      8  C   UNL     1       4.130  44.639   9.799  1.00  0.00     0.099 C 
ATOM      9  O   UNL     1       4.103  43.573   9.128  1.00  0.00    -0.544 OA
ATOM     10  O   UNL     1       3.980  44.584  11.179  1.00  0.00    -0.544 OA
ENDBRANCH   3   8
ENDBRANCH   1   3
BRANCH   1  11
ATOM     11  C   UNL     1       4.154  48.126  10.512  1.00  0.00     0.006 C 
ATOM     12  C   UNL     1       4.813  49.506  10.456  1.00  0.00     0.004 C 
ENDBRANCH   1  11
TORSDOF 4
ENDMDL
MODEL 3
REMARK VINA RESULT:    -3.935      2.853      4.724
REMARK INTER + INTRA:          -4.875
REMARK INTER:                  -4.818
REMARK INTRA:                  -0.057
REMARK UNBOUND:                -0.135
REMARK SMILES CC[C@H](C)[C@H]([NH3+])C(=O)[O-]
REMARK SMILES IDX 3 1 4 2 5 3 6 4 7 8 8 9 9 10 2 11 1 12
REMARK H PARENT 6 5 6 6 6 7
REMARK Flexibility Score: inf
ROOT
ATOM      1  C   UNL     1       2.602  43.783  10.748  1.00  0.00     0.050 C 
ATOM      2  C   UNL     1       2.518  42.967   9.439  1.00  0.00     0.014 C 
ENDROOT
BRANCH   1   3
ATOM      3  C   UNL     1       4.045  44.351  10.943  1.00  0.00     0.230 C 
BRANCH   3   4
ATOM      4  N   UNL     1       4.390  44.526  12.363  1.00  0.00    -0.350 N 
ATOM      5  H   UNL     1       5.095  45.289  12.482  1.00  0.00     0.345 HD
ATOM      6  H   UNL     1       3.532  44.747  12.918  1.00  0.00     0.345 HD
ATOM      7  H   UNL     1       4.781  43.639  12.753  1.00  0.00     0.345 HD
ENDBRANCH   3   4
BRANCH   3   8
ATOM      8  C   UNL     1       4.208  45.670  10.226  1.00  0.00     0.099 C 
ATOM      9  O   UNL     1       4.627  45.703   9.038  1.00  0.00    -0.544 OA
ATOM     10  O   UNL     1       3.895  46.857  10.875  1.00  0.00    -0.544 OA
ENDBRANCH   3   8
ENDBRANCH   1   3
BRANCH   1  11
ATOM     11  C   UNL     1       2.161  42.917  11.958  1.00  0.00     0.006 C 
ATOM     12  C   UNL     1       2.648  41.468  11.886  1.00  0.00     0.004 C 
ENDBRANCH   1  11
TORSDOF 4
ENDMDL
MODEL 4
REMARK VINA RESULT:    -3.855      3.659      5.418
REMARK INTER + INTRA:          -4.779
REMARK INTER:                  -4.676
REMARK INTRA:                  -0.103
REMARK UNBOUND:                -0.135
REMARK SMILES CC[C@H](C)[C@H]([NH3+])C(=O)[O-]
REMARK SMILES IDX 3 1 4 2 5 3 6 4 7 8 8 9 9 10 2 11 1 12
REMARK H PARENT 6 5 6 6 6 7
REMARK Flexibility Score: inf
ROOT
ATOM      1  C   UNL     1       2.700  42.396  11.354  1.00  0.00     0.050 C 
ATOM      2  C   UNL     1       2.893  41.014  12.013  1.00  0.00     0.014 C 
ENDROOT
BRANCH   1   3
ATOM      3  C   UNL     1       4.065  43.156  11.275  1.00  0.00     0.230 C 
BRANCH   3   4
ATOM      4  N   UNL     1       4.271  44.056  12.421  1.00  0.00    -0.350 N 
ATOM      5  H   UNL     1       4.877  43.604  13.143  1.00  0.00     0.345 HD
ATOM      6  H   UNL     1       4.706  44.952  12.103  1.00  0.00     0.345 HD
ATOM      7  H   UNL     1       3.352  44.304  12.856  1.00  0.00     0.345 HD
ENDBRANCH   3   4
BRANCH   3   8
ATOM      8  C   UNL     1       4.168  43.950   9.995  1.00  0.00     0.099 C 
ATOM      9  O   UNL     1       3.940  43.401   8.883  1.00  0.00    -0.544 OA
ATOM     10  O   UNL     1       4.516  45.294  10.036  1.00  0.00    -0.544 OA
ENDBRANCH   3   8
ENDBRANCH   1   3
BRANCH   1  11
ATOM     11  C   UNL     1       1.632  43.222  12.120  1.00  0.00     0.006 C 
ATOM     12  C   UNL     1       0.841  44.180  11.227  1.00  0.00     0.004 C 
ENDBRANCH   1  11
TORSDOF 4
ENDMDL
MODEL 5
REMARK VINA RESULT:    -3.838      3.280      4.056
REMARK INTER + INTRA:          -4.758
REMARK INTER:                  -4.669
REMARK INTRA:                  -0.089
REMARK UNBOUND:                -0.135
REMARK SMILES CC[C@H](C)[C@H]([NH3+])C(=O)[O-]
REMARK SMILES IDX 3 1 4 2 5 3 6 4 7 8 8 9 9 10 2 11 1 12
REMARK H PARENT 6 5 6 6 6 7
REMARK Flexibility Score: inf
ROOT
ATOM      1  C   UNL     1       4.921  47.799  10.032  1.00  0.00     0.050 C 
ATOM      2  C   UNL     1       3.499  48.377  10.198  1.00  0.00     0.014 C 
ENDROOT
BRANCH   1   3
ATOM      3  C   UNL     1       5.684  48.553   8.894  1.00  0.00     0.230 C 
BRANCH   3   4
ATOM      4  N   UNL     1       6.986  47.937   8.592  1.00  0.00    -0.350 N 
ATOM      5  H   UNL     1       6.866  47.094   7.985  1.00  0.00     0.345 HD
ATOM      6  H   UNL     1       7.612  48.628   8.118  1.00  0.00     0.345 HD
ATOM      7  H   UNL     1       7.466  47.651   9.476  1.00  0.00     0.345 HD
ENDBRANCH   3   4
BRANCH   3   8
ATOM      8  C   UNL     1       5.893  50.004   9.254  1.00  0.00     0.099 C 
ATOM      9  O   UNL     1       5.599  50.914   8.432  1.00  0.00    -0.544 OA
ATOM     10  O   UNL     1       6.414  50.345  10.495  1.00  0.00    -0.544 OA
ENDBRANCH   3   8
ENDBRANCH   1   3
BRANCH   1  11
ATOM     11  C   UNL     1       4.861  46.272   9.764  1.00  0.00     0.006 C 
ATOM     12  C   UNL     1       4.178  45.480  10.881  1.00  0.00     0.004 C 
ENDBRANCH   1  11
TORSDOF 4
ENDMDL
MODEL 6
REMARK VINA RESULT:    -3.820      2.518      3.527
REMARK INTER + INTRA:          -4.737
REMARK INTER:                  -4.626
REMARK INTRA:                  -0.111
REMARK UNBOUND:                -0.135
REMARK SMILES CC[C@H](C)[C@H]([NH3+])C(=O)[O-]
REMARK SMILES IDX 3 1 4 2 5 3 6 4 7 8 8 9 9 10 2 11 1 12
REMARK H PARENT 6 5 6 6 6 7
REMARK Flexibility Score: inf
ROOT
ATOM      1  C   UNL     1       5.322  47.544   9.352  1.00  0.00     0.050 C 
ATOM      2  C   UNL     1       6.852  47.749   9.389  1.00  0.00     0.014 C 
ENDROOT
BRANCH   1   3
ATOM      3  C   UNL     1       4.589  48.845   9.813  1.00  0.00     0.230 C 
BRANCH   3   4
ATOM      4  N   UNL     1       4.060  48.734  11.182  1.00  0.00    -0.350 N 
ATOM      5  H   UNL     1       4.813  48.913  11.886  1.00  0.00     0.345 HD
ATOM      6  H   UNL     1       3.275  49.410  11.323  1.00  0.00     0.345 HD
ATOM      7  H   UNL     1       3.668  47.777  11.342  1.00  0.00     0.345 HD
ENDBRANCH   3   4
BRANCH   3   8
ATOM      8  C   UNL     1       3.459  49.190   8.872  1.00  0.00     0.099 C 
ATOM      9  O   UNL     1       2.321  49.488   9.324  1.00  0.00    -0.544 OA
ATOM     10  O   UNL     1       3.670  49.181   7.499  1.00  0.00    -0.544 OA
ENDBRANCH   3   8
ENDBRANCH   1   3
BRANCH   1  11
ATOM     11  C   UNL     1       4.915  46.322  10.218  1.00  0.00     0.006 C 
ATOM     12  C   UNL     1       4.184  45.230   9.432  1.00  0.00     0.004 C 
ENDBRANCH   1  11
TORSDOF 4
ENDMDL
MODEL 7
REMARK VINA RESULT:    -3.773      2.486      3.583
REMARK INTER + INTRA:          -4.680
REMARK INTER:                  -4.698
REMARK INTRA:                   0.017
REMARK UNBOUND:                -0.135
REMARK SMILES CC[C@H](C)[C@H]([NH3+])C(=O)[O-]
REMARK SMILES IDX 3 1 4 2 5 3 6 4 7 8 8 9 9 10 2 11 1 12
REMARK H PARENT 6 5 6 6 6 7
REMARK Flexibility Score: inf
ROOT
ATOM      1  C   UNL     1       4.749  47.155  10.243  1.00  0.00     0.050 C 
ATOM      2  C   UNL     1       4.040  48.419  10.775  1.00  0.00     0.014 C 
ENDROOT
BRANCH   1   3
ATOM      3  C   UNL     1       5.180  47.359   8.753  1.00  0.00     0.230 C 
BRANCH   3   4
ATOM      4  N   UNL     1       6.527  47.940   8.636  1.00  0.00    -0.350 N 
ATOM      5  H   UNL     1       6.953  48.083   9.581  1.00  0.00     0.345 HD
ATOM      6  H   UNL     1       7.140  47.318   8.062  1.00  0.00     0.345 HD
ATOM      7  H   UNL     1       6.483  48.861   8.142  1.00  0.00     0.345 HD
ENDBRANCH   3   4
BRANCH   3   8
ATOM      8  C   UNL     1       4.195  48.240   8.022  1.00  0.00     0.099 C 
ATOM      9  O   UNL     1       4.452  49.457   7.824  1.00  0.00    -0.544 OA
ATOM     10  O   UNL     1       2.996  47.709   7.564  1.00  0.00    -0.544 OA
ENDBRANCH   3   8
ENDBRANCH   1   3
BRANCH   1  11
ATOM     11  C   UNL     1       3.839  45.909  10.407  1.00  0.00     0.006 C 
ATOM     12  C   UNL     1       4.185  44.765   9.450  1.00  0.00     0.004 C 
ENDBRANCH   1  11
TORSDOF 4
ENDMDL
MODEL 8
REMARK VINA RESULT:    -3.711      2.977      4.037
REMARK INTER + INTRA:          -4.605
REMARK INTER:                  -4.481
REMARK INTRA:                  -0.125
REMARK UNBOUND:                -0.135
REMARK SMILES CC[C@H](C)[C@H]([NH3+])C(=O)[O-]
REMARK SMILES IDX 3 1 4 2 5 3 6 4 7 8 8 9 9 10 2 11 1 12
REMARK H PARENT 6 5 6 6 6 7
REMARK Flexibility Score: inf
ROOT
ATOM      1  C   UNL     1       3.487  44.794  11.133  1.00  0.00     0.050 C 
ATOM      2  C   UNL     1       4.097  44.099  12.370  1.00  0.00     0.014 C 
ENDROOT
BRANCH   1   3
ATOM      3  C   UNL     1       3.022  43.730  10.086  1.00  0.00     0.230 C 
BRANCH   3   4
ATOM      4  N   UNL     1       3.885  43.706   8.893  1.00  0.00    -0.350 N 
ATOM      5  H   UNL     1       4.880  43.521   9.159  1.00  0.00     0.345 HD
ATOM      6  H   UNL     1       3.556  42.974   8.223  1.00  0.00     0.345 HD
ATOM      7  H   UNL     1       3.833  44.622   8.390  1.00  0.00     0.345 HD
ENDBRANCH   3   4
BRANCH   3   8
ATOM      8  C   UNL     1       1.595  43.978   9.660  1.00  0.00     0.099 C 
ATOM      9  O   UNL     1       1.196  43.614   8.522  1.00  0.00    -0.544 OA
ATOM     10  O   UNL     1       0.711  44.610  10.525  1.00  0.00    -0.544 OA
ENDBRANCH   3   8
ENDBRANCH   1   3
BRANCH   1  11
ATOM     11  C   UNL     1       4.498  45.797  10.517  1.00  0.00     0.006 C 
ATOM     12  C   UNL     1       3.976  47.235  10.457  1.00  0.00     0.004 C 
ENDBRANCH   1  11
TORSDOF 4
ENDMDL
MODEL 9
REMARK VINA RESULT:    -3.689      2.491      3.215
REMARK INTER + INTRA:          -4.578
REMARK INTER:                  -4.508
REMARK INTRA:                  -0.071
REMARK UNBOUND:                -0.135
REMARK SMILES CC[C@H](C)[C@H]([NH3+])C(=O)[O-]
REMARK SMILES IDX 3 1 4 2 5 3 6 4 7 8 8 9 9 10 2 11 1 12
REMARK H PARENT 6 5 6 6 6 7
REMARK Flexibility Score: inf
ROOT
ATOM      1  C   UNL     1       3.620  45.077  10.162  1.00  0.00     0.050 C 
ATOM      2  C   UNL     1       2.394  45.931   9.775  1.00  0.00     0.014 C 
ENDROOT
BRANCH   1   3
ATOM      3  C   UNL     1       3.337  44.284  11.479  1.00  0.00     0.230 C 
BRANCH   3   4
ATOM      4  N   UNL     1       4.380  44.496  12.495  1.00  0.00    -0.350 N 
ATOM      5  H   UNL     1       4.122  45.283  13.132  1.00  0.00     0.345 HD
ATOM      6  H   UNL     1       4.526  43.623  13.051  1.00  0.00     0.345 HD
ATOM      7  H   UNL     1       5.293  44.718  12.035  1.00  0.00     0.345 HD
ENDBRANCH   3   4
BRANCH   3   8
ATOM      8  C   UNL     1       3.208  42.805  11.201  1.00  0.00     0.099 C 
ATOM      9  O   UNL     1       2.474  42.394  10.262  1.00  0.00    -0.544 OA
ATOM     10  O   UNL     1       3.898  41.888  11.982  1.00  0.00    -0.544 OA
ENDBRANCH   3   8
ENDBRANCH   1   3
BRANCH   1  11
ATOM     11  C   UNL     1       4.884  45.968  10.293  1.00  0.00     0.006 C 
ATOM     12  C   UNL     1       5.060  46.959   9.140  1.00  0.00     0.004 C 
ENDBRANCH   1  11
TORSDOF 4
ENDMDL
