MODEL 1
REMARK VINA RESULT:    -6.418      0.000      0.000
REMARK INTER + INTRA:         -11.646
REMARK INTER:                  -9.608
REMARK INTRA:                  -2.038
REMARK UNBOUND:                -2.038
REMARK SMILES C=C(CC[C@@H](C(=O)[O-])[C@@H]1[C@@H](O)C[C@@]2(C)C3=C(CC[C@@]12C)[C@]1(C)CC[C@H](OC(C)=O)C(C)(C)[C@H]1CC3)C(C)C
REMARK SMILES IDX 4 1 5 2 6 3 7 4 8 5 9 6 10 7 19 8 12 9 13 10 18 11 20 12
REMARK SMILES IDX 14 13 15 14 17 15 16 16 35 17 21 18 34 19 33 20 23 21 22 22
REMARK SMILES IDX 30 23 24 24 25 25 31 26 32 27 11 28 26 30 27 31 29 32 28 33
REMARK SMILES IDX 3 34 2 35 1 36 36 37 37 38 38 39
REMARK H PARENT 11 29
REMARK Flexibility Score: inf
ROOT
ATOM      1  C   UNL     1     -13.446 -48.603 109.016  1.00  0.00     0.014 C 
ENDROOT
BRANCH   1   2
ATOM      2  C   UNL     1     -13.619 -47.134 108.548  1.00  0.00     0.042 C 
BRANCH   2   3
ATOM      3  C   UNL     1     -12.264 -46.547 108.223  1.00  0.00     0.045 C 
ATOM      4  O   UNL     1     -11.995 -45.370 108.575  1.00  0.00    -0.550 OA
ATOM      5  O   UNL     1     -11.265 -47.320 107.635  1.00  0.00    -0.550 OA
ENDBRANCH   2   3
BRANCH   2   6
ATOM      6  C   UNL     1     -14.686 -47.024 107.393  1.00  0.00     0.033 C 
ATOM      7  C   UNL     1     -14.148 -46.351 106.117  1.00  0.00     0.119 C 
ATOM      8  C   UNL     1     -16.069 -46.318 107.677  1.00  0.00    -0.017 C 
ATOM      9  C   UNL     1     -14.733 -44.943 106.090  1.00  0.00     0.043 C 
ATOM     10  C   UNL     1     -15.962 -44.865 107.045  1.00  0.00    -0.003 C 
ATOM     11  C   UNL     1     -17.161 -47.146 106.933  1.00  0.00     0.012 C 
ATOM     12  C   UNL     1     -16.442 -46.332 109.193  1.00  0.00     0.013 C 
ATOM     13  C   UNL     1     -15.702 -43.772 108.123  1.00  0.00     0.017 C 
ATOM     14  C   UNL     1     -17.193 -44.385 106.222  1.00  0.00    -0.064 C 
ATOM     15  C   UNL     1     -18.490 -46.419 106.840  1.00  0.00     0.032 C 
ATOM     16  C   UNL     1     -18.336 -45.131 106.063  1.00  0.00    -0.064 C 
ATOM     17  C   UNL     1     -17.091 -43.000 105.546  1.00  0.00     0.032 C 
ATOM     18  C   UNL     1     -19.415 -44.636 105.060  1.00  0.00    -0.008 C 
ATOM     19  C   UNL     1     -17.766 -42.884 104.163  1.00  0.00     0.009 C 
ATOM     20  C   UNL     1     -18.593 -44.137 103.813  1.00  0.00     0.009 C 
ATOM     21  C   UNL     1     -20.465 -45.703 104.594  1.00  0.00     0.015 C 
ATOM     22  C   UNL     1     -20.234 -43.522 105.778  1.00  0.00     0.016 C 
ATOM     23  C   UNL     1     -19.336 -44.150 102.423  1.00  0.00     0.005 C 
ATOM     24  C   UNL     1     -19.981 -46.512 103.392  1.00  0.00     0.047 C 
ATOM     25  C   UNL     1     -19.860 -45.618 102.127  1.00  0.00     0.182 C 
ATOM     26  C   UNL     1     -18.349 -43.714 101.307  1.00  0.00     0.015 C 
ATOM     27  C   UNL     1     -20.514 -43.144 102.368  1.00  0.00     0.015 C 
BRANCH   7  28
ATOM     28  O   UNL     1     -14.571 -47.053 104.971  1.00  0.00    -0.393 OA
ATOM     29  H   UNL     1     -13.793 -47.597 104.672  1.00  0.00     0.210 HD
ENDBRANCH   7  28
BRANCH  25  30
ATOM     30  O   UNL     1     -19.014 -46.292 101.183  1.00  0.00    -0.462 OA
BRANCH  30  31
ATOM     31  C   UNL     1     -19.421 -46.679  99.905  1.00  0.00     0.302 C 
ATOM     32  O   UNL     1     -18.808 -47.583  99.277  1.00  0.00    -0.253 OA
ATOM     33  C   UNL     1     -20.646 -46.067  99.319  1.00  0.00     0.139 C 
ENDBRANCH  30  31
ENDBRANCH  25  30
ENDBRANCH   2   6
ENDBRANCH   1   2
BRANCH   1  34
ATOM     34  C   UNL     1     -12.832 -48.699 110.426  1.00  0.00     0.031 C 
BRANCH  34  35
ATOM     35  C   UNL     1     -13.775 -48.157 111.484  1.00  0.00    -0.075 C 
ATOM     36  C   UNL     1     -14.978 -48.728 111.658  1.00  0.00     0.008 C 
BRANCH  35  37
ATOM     37  C   UNL     1     -13.358 -46.950 112.321  1.00  0.00     0.008 C 
ATOM     38  C   UNL     1     -11.941 -46.471 111.972  1.00  0.00     0.012 C 
ATOM     39  C   UNL     1     -14.372 -45.813 112.192  1.00  0.00     0.012 C 
ENDBRANCH  35  37
ENDBRANCH  34  35
ENDBRANCH   1  34
TORSDOF 9
ENDMDL
MODEL 2
REMARK VINA RESULT:    -6.386      2.310      8.358
REMARK INTER + INTRA:         -11.597
REMARK INTER:                 -10.483
REMARK INTRA:                  -1.114
REMARK UNBOUND:                -2.038
REMARK SMILES C=C(CC[C@@H](C(=O)[O-])[C@@H]1[C@@H](O)C[C@@]2(C)C3=C(CC[C@@]12C)[C@]1(C)CC[C@H](OC(C)=O)C(C)(C)[C@H]1CC3)C(C)C
REMARK SMILES IDX 4 1 5 2 6 3 7 4 8 5 9 6 10 7 19 8 12 9 13 10 18 11 20 12
REMARK SMILES IDX 14 13 15 14 17 15 16 16 35 17 21 18 34 19 33 20 23 21 22 22
REMARK SMILES IDX 30 23 24 24 25 25 31 26 32 27 11 28 26 30 27 31 29 32 28 33
REMARK SMILES IDX 3 34 2 35 1 36 36 37 37 38 38 39
REMARK H PARENT 11 29
REMARK Flexibility Score: inf
ROOT
ATOM      1  C   UNL     1     -21.735 -46.614 101.603  1.00  0.00     0.014 C 
ENDROOT
BRANCH   1   2
ATOM      2  C   UNL     1     -20.423 -46.763 100.788  1.00  0.00     0.042 C 
BRANCH   2   3
ATOM      3  C   UNL     1     -20.574 -46.055  99.460  1.00  0.00     0.045 C 
ATOM      4  O   UNL     1     -19.857 -46.401  98.486  1.00  0.00    -0.550 OA
ATOM      5  O   UNL     1     -21.568 -45.100  99.260  1.00  0.00    -0.550 OA
ENDBRANCH   2   3
BRANCH   2   6
ATOM      6  C   UNL     1     -19.171 -46.323 101.637  1.00  0.00     0.033 C 
ATOM      7  C   UNL     1     -18.608 -47.442 102.534  1.00  0.00     0.119 C 
ATOM      8  C   UNL     1     -19.274 -45.057 102.576  1.00  0.00    -0.017 C 
ATOM      9  C   UNL     1     -19.043 -47.114 103.959  1.00  0.00     0.043 C 
ATOM     10  C   UNL     1     -19.460 -45.615 104.051  1.00  0.00    -0.003 C 
ATOM     11  C   UNL     1     -17.918 -44.296 102.459  1.00  0.00     0.012 C 
ATOM     12  C   UNL     1     -20.392 -44.069 102.118  1.00  0.00     0.013 C 
ATOM     13  C   UNL     1     -20.938 -45.524 104.532  1.00  0.00     0.017 C 
ATOM     14  C   UNL     1     -18.597 -44.933 105.154  1.00  0.00    -0.064 C 
ATOM     15  C   UNL     1     -17.738 -43.244 103.538  1.00  0.00     0.032 C 
ATOM     16  C   UNL     1     -17.745 -43.884 104.908  1.00  0.00    -0.064 C 
ATOM     17  C   UNL     1     -18.714 -45.496 106.587  1.00  0.00     0.032 C 
ATOM     18  C   UNL     1     -16.791 -43.417 106.044  1.00  0.00    -0.008 C 
ATOM     19  C   UNL     1     -17.407 -45.505 107.407  1.00  0.00     0.009 C 
ATOM     20  C   UNL     1     -16.267 -44.755 106.690  1.00  0.00     0.009 C 
ATOM     21  C   UNL     1     -15.568 -42.543 105.601  1.00  0.00     0.015 C 
ATOM     22  C   UNL     1     -17.627 -42.522 107.006  1.00  0.00     0.016 C 
ATOM     23  C   UNL     1     -14.871 -44.689 107.419  1.00  0.00     0.005 C 
ATOM     24  C   UNL     1     -14.364 -43.387 105.187  1.00  0.00     0.047 C 
ATOM     25  C   UNL     1     -13.776 -44.157 106.401  1.00  0.00     0.182 C 
ATOM     26  C   UNL     1     -14.480 -46.108 107.912  1.00  0.00     0.015 C 
ATOM     27  C   UNL     1     -14.902 -43.791 108.683  1.00  0.00     0.015 C 
BRANCH   7  28
ATOM     28  O   UNL     1     -17.202 -47.466 102.471  1.00  0.00    -0.393 OA
ATOM     29  H   UNL     1     -16.959 -47.281 101.524  1.00  0.00     0.210 HD
ENDBRANCH   7  28
BRANCH  25  30
ATOM     30  O   UNL     1     -12.968 -45.232 105.900  1.00  0.00    -0.462 OA
BRANCH  30  31
ATOM     31  C   UNL     1     -13.039 -45.720 104.593  1.00  0.00     0.302 C 
ATOM     32  O   UNL     1     -12.121 -45.482 103.763  1.00  0.00    -0.253 OA
ATOM     33  C   UNL     1     -14.177 -46.601 104.211  1.00  0.00     0.139 C 
ENDBRANCH  30  31
ENDBRANCH  25  30
ENDBRANCH   2   6
ENDBRANCH   1   2
BRANCH   1  34
ATOM     34  C   UNL     1     -22.492 -47.949 101.740  1.00  0.00     0.031 C 
BRANCH  34  35
ATOM     35  C   UNL     1     -22.833 -48.253 103.187  1.00  0.00    -0.075 C 
ATOM     36  C   UNL     1     -23.737 -47.495 103.829  1.00  0.00     0.008 C 
BRANCH  35  37
ATOM     37  C   UNL     1     -22.126 -49.398 103.906  1.00  0.00     0.008 C 
ATOM     38  C   UNL     1     -21.910 -49.095 105.396  1.00  0.00     0.012 C 
ATOM     39  C   UNL     1     -22.875 -50.717 103.715  1.00  0.00     0.012 C 
ENDBRANCH  35  37
ENDBRANCH  34  35
ENDBRANCH   1  34
TORSDOF 9
ENDMDL
MODEL 3
REMARK VINA RESULT:    -6.362      2.455      8.521
REMARK INTER + INTRA:         -11.562
REMARK INTER:                  -9.374
REMARK INTRA:                  -2.188
REMARK UNBOUND:                -2.038
REMARK SMILES C=C(CC[C@@H](C(=O)[O-])[C@@H]1[C@@H](O)C[C@@]2(C)C3=C(CC[C@@]12C)[C@]1(C)CC[C@H](OC(C)=O)C(C)(C)[C@H]1CC3)C(C)C
REMARK SMILES IDX 4 1 5 2 6 3 7 4 8 5 9 6 10 7 19 8 12 9 13 10 18 11 20 12
REMARK SMILES IDX 14 13 15 14 17 15 16 16 35 17 21 18 34 19 33 20 23 21 22 22
REMARK SMILES IDX 30 23 24 24 25 25 31 26 32 27 11 28 26 30 27 31 29 32 28 33
REMARK SMILES IDX 3 34 2 35 1 36 36 37 37 38 38 39
REMARK H PARENT 11 29
REMARK Flexibility Score: inf
ROOT
ATOM      1  C   UNL     1     -21.384 -47.064 102.047  1.00  0.00     0.014 C 
ENDROOT
BRANCH   1   2
ATOM      2  C   UNL     1     -21.118 -46.712 103.534  1.00  0.00     0.042 C 
BRANCH   2   3
ATOM      3  C   UNL     1     -21.833 -47.707 104.421  1.00  0.00     0.045 C 
ATOM      4  O   UNL     1     -22.670 -47.298 105.266  1.00  0.00    -0.550 OA
ATOM      5  O   UNL     1     -21.666 -49.079 104.247  1.00  0.00    -0.550 OA
ENDBRANCH   2   3
BRANCH   2   6
ATOM      6  C   UNL     1     -19.576 -46.557 103.818  1.00  0.00     0.033 C 
ATOM      7  C   UNL     1     -19.092 -47.344 105.050  1.00  0.00     0.119 C 
ATOM      8  C   UNL     1     -18.958 -45.114 103.984  1.00  0.00    -0.017 C 
ATOM      9  C   UNL     1     -18.874 -46.321 106.160  1.00  0.00     0.043 C 
ATOM     10  C   UNL     1     -18.765 -44.893 105.545  1.00  0.00    -0.003 C 
ATOM     11  C   UNL     1     -17.571 -45.131 103.272  1.00  0.00     0.012 C 
ATOM     12  C   UNL     1     -19.817 -44.016 103.283  1.00  0.00     0.013 C 
ATOM     13  C   UNL     1     -19.877 -43.989 106.154  1.00  0.00     0.017 C 
ATOM     14  C   UNL     1     -17.406 -44.273 105.985  1.00  0.00    -0.064 C 
ATOM     15  C   UNL     1     -16.716 -43.926 103.618  1.00  0.00     0.032 C 
ATOM     16  C   UNL     1     -16.426 -43.892 105.101  1.00  0.00    -0.064 C 
ATOM     17  C   UNL     1     -17.168 -44.103 107.502  1.00  0.00     0.032 C 
ATOM     18  C   UNL     1     -15.038 -43.471 105.663  1.00  0.00    -0.008 C 
ATOM     19  C   UNL     1     -15.721 -44.346 107.979  1.00  0.00     0.009 C 
ATOM     20  C   UNL     1     -14.742 -44.519 106.802  1.00  0.00     0.009 C 
ATOM     21  C   UNL     1     -13.852 -43.470 104.640  1.00  0.00     0.015 C 
ATOM     22  C   UNL     1     -15.171 -42.001 106.161  1.00  0.00     0.016 C 
ATOM     23  C   UNL     1     -13.226 -44.777 107.150  1.00  0.00     0.005 C 
ATOM     24  C   UNL     1     -13.183 -44.838 104.517  1.00  0.00     0.047 C 
ATOM     25  C   UNL     1     -12.460 -45.227 105.836  1.00  0.00     0.182 C 
ATOM     26  C   UNL     1     -13.127 -45.895 108.222  1.00  0.00     0.015 C 
ATOM     27  C   UNL     1     -12.537 -43.532 107.766  1.00  0.00     0.015 C 
BRANCH   7  28
ATOM     28  O   UNL     1     -17.875 -47.997 104.774  1.00  0.00    -0.393 OA
ATOM     29  H   UNL     1     -17.695 -48.596 105.548  1.00  0.00     0.210 HD
ENDBRANCH   7  28
BRANCH  25  30
ATOM     30  O   UNL     1     -12.241 -46.646 105.823  1.00  0.00    -0.462 OA
BRANCH  30  31
ATOM     31  C   UNL     1     -12.895 -47.531 104.963  1.00  0.00     0.302 C 
ATOM     32  O   UNL     1     -12.273 -48.103 104.028  1.00  0.00    -0.253 OA
ATOM     33  C   UNL     1     -14.326 -47.857 105.212  1.00  0.00     0.139 C 
ENDBRANCH  30  31
ENDBRANCH  25  30
ENDBRANCH   2   6
ENDBRANCH   1   2
BRANCH   1  34
ATOM     34  C   UNL     1     -22.112 -45.930 101.299  1.00  0.00     0.031 C 
BRANCH  34  35
ATOM     35  C   UNL     1     -21.266 -45.371 100.170  1.00  0.00    -0.075 C 
ATOM     36  C   UNL     1     -21.823 -44.543  99.271  1.00  0.00     0.008 C 
BRANCH  35  37
ATOM     37  C   UNL     1     -19.799 -45.776 100.051  1.00  0.00     0.008 C 
ATOM     38  C   UNL     1     -19.559 -46.717  98.861  1.00  0.00     0.012 C 
ATOM     39  C   UNL     1     -18.892 -44.549  99.976  1.00  0.00     0.012 C 
ENDBRANCH  35  37
ENDBRANCH  34  35
ENDBRANCH   1  34
TORSDOF 9
ENDMDL
MODEL 4
REMARK VINA RESULT:    -6.358      1.459      2.210
REMARK INTER + INTRA:         -11.555
REMARK INTER:                  -9.210
REMARK INTRA:                  -2.345
REMARK UNBOUND:                -2.038
REMARK SMILES C=C(CC[C@@H](C(=O)[O-])[C@@H]1[C@@H](O)C[C@@]2(C)C3=C(CC[C@@]12C)[C@]1(C)CC[C@H](OC(C)=O)C(C)(C)[C@H]1CC3)C(C)C
REMARK SMILES IDX 4 1 5 2 6 3 7 4 8 5 9 6 10 7 19 8 12 9 13 10 18 11 20 12
REMARK SMILES IDX 14 13 15 14 17 15 16 16 35 17 21 18 34 19 33 20 23 21 22 22
REMARK SMILES IDX 30 23 24 24 25 25 31 26 32 27 11 28 26 30 27 31 29 32 28 33
REMARK SMILES IDX 3 34 2 35 1 36 36 37 37 38 38 39
REMARK H PARENT 11 29
REMARK Flexibility Score: inf
ROOT
ATOM      1  C   UNL     1     -13.902 -48.226 109.309  1.00  0.00     0.014 C 
ENDROOT
BRANCH   1   2
ATOM      2  C   UNL     1     -13.666 -47.178 108.188  1.00  0.00     0.042 C 
BRANCH   2   3
ATOM      3  C   UNL     1     -12.432 -47.555 107.400  1.00  0.00     0.045 C 
ATOM      4  O   UNL     1     -11.695 -46.652 106.928  1.00  0.00    -0.550 OA
ATOM      5  O   UNL     1     -12.032 -48.884 107.277  1.00  0.00    -0.550 OA
ENDBRANCH   2   3
BRANCH   2   6
ATOM      6  C   UNL     1     -14.967 -46.964 107.325  1.00  0.00     0.033 C 
ATOM      7  C   UNL     1     -14.770 -47.261 105.827  1.00  0.00     0.119 C 
ATOM      8  C   UNL     1     -15.711 -45.573 107.373  1.00  0.00    -0.017 C 
ATOM      9  C   UNL     1     -14.702 -45.910 105.123  1.00  0.00     0.043 C 
ATOM     10  C   UNL     1     -15.299 -44.805 106.046  1.00  0.00    -0.003 C 
ATOM     11  C   UNL     1     -17.241 -45.878 107.362  1.00  0.00     0.012 C 
ATOM     12  C   UNL     1     -15.414 -44.786 108.688  1.00  0.00     0.013 C 
ATOM     13  C   UNL     1     -14.215 -43.718 106.307  1.00  0.00     0.017 C 
ATOM     14  C   UNL     1     -16.455 -44.097 105.279  1.00  0.00    -0.064 C 
ATOM     15  C   UNL     1     -18.084 -44.648 107.079  1.00  0.00     0.032 C 
ATOM     16  C   UNL     1     -17.757 -44.084 105.715  1.00  0.00    -0.064 C 
ATOM     17  C   UNL     1     -16.091 -43.393 103.953  1.00  0.00     0.032 C 
ATOM     18  C   UNL     1     -18.854 -43.518 104.770  1.00  0.00    -0.008 C 
ATOM     19  C   UNL     1     -17.159 -43.478 102.841  1.00  0.00     0.009 C 
ATOM     20  C   UNL     1     -18.480 -44.088 103.349  1.00  0.00     0.009 C 
ATOM     21  C   UNL     1     -20.331 -43.914 105.113  1.00  0.00     0.015 C 
ATOM     22  C   UNL     1     -18.796 -41.965 104.876  1.00  0.00     0.016 C 
ATOM     23  C   UNL     1     -19.658 -44.234 102.312  1.00  0.00     0.005 C 
ATOM     24  C   UNL     1     -20.740 -45.248 104.489  1.00  0.00     0.047 C 
ATOM     25  C   UNL     1     -20.793 -45.147 102.939  1.00  0.00     0.182 C 
ATOM     26  C   UNL     1     -19.120 -44.888 101.011  1.00  0.00     0.015 C 
ATOM     27  C   UNL     1     -20.250 -42.865 101.888  1.00  0.00     0.015 C 
BRANCH   7  28
ATOM     28  O   UNL     1     -15.859 -47.996 105.320  1.00  0.00    -0.393 OA
ATOM     29  H   UNL     1     -16.520 -47.328 104.992  1.00  0.00     0.210 HD
ENDBRANCH   7  28
BRANCH  25  30
ATOM     30  O   UNL     1     -20.744 -46.478 102.404  1.00  0.00    -0.462 OA
BRANCH  30  31
ATOM     31  C   UNL     1     -20.323 -47.597 103.126  1.00  0.00     0.302 C 
ATOM     32  O   UNL     1     -21.138 -48.500 103.453  1.00  0.00    -0.253 OA
ATOM     33  C   UNL     1     -18.875 -47.755 103.436  1.00  0.00     0.139 C 
ENDBRANCH  30  31
ENDBRANCH  25  30
ENDBRANCH   2   6
ENDBRANCH   1   2
BRANCH   1  34
ATOM     34  C   UNL     1     -13.642 -47.647 110.713  1.00  0.00     0.031 C 
BRANCH  34  35
ATOM     35  C   UNL     1     -14.934 -47.256 111.405  1.00  0.00    -0.075 C 
ATOM     36  C   UNL     1     -14.992 -46.112 112.107  1.00  0.00     0.008 C 
BRANCH  35  37
ATOM     37  C   UNL     1     -16.146 -48.181 111.322  1.00  0.00     0.008 C 
ATOM     38  C   UNL     1     -16.596 -48.664 112.709  1.00  0.00     0.012 C 
ATOM     39  C   UNL     1     -17.298 -47.514 110.571  1.00  0.00     0.012 C 
ENDBRANCH  35  37
ENDBRANCH  34  35
ENDBRANCH   1  34
TORSDOF 9
ENDMDL
MODEL 5
REMARK VINA RESULT:    -6.329      1.703      8.744
REMARK INTER + INTRA:         -11.512
REMARK INTER:                  -9.751
REMARK INTRA:                  -1.761
REMARK UNBOUND:                -2.038
REMARK SMILES C=C(CC[C@@H](C(=O)[O-])[C@@H]1[C@@H](O)C[C@@]2(C)C3=C(CC[C@@]12C)[C@]1(C)CC[C@H](OC(C)=O)C(C)(C)[C@H]1CC3)C(C)C
REMARK SMILES IDX 4 1 5 2 6 3 7 4 8 5 9 6 10 7 19 8 12 9 13 10 18 11 20 12
REMARK SMILES IDX 14 13 15 14 17 15 16 16 35 17 21 18 34 19 33 20 23 21 22 22
REMARK SMILES IDX 30 23 24 24 25 25 31 26 32 27 11 28 26 30 27 31 29 32 28 33
REMARK SMILES IDX 3 34 2 35 1 36 36 37 37 38 38 39
REMARK H PARENT 11 29
REMARK Flexibility Score: inf
ROOT
ATOM      1  C   UNL     1     -20.147 -45.364 103.335  1.00  0.00     0.014 C 
ENDROOT
BRANCH   1   2
ATOM      2  C   UNL     1     -19.937 -46.236 104.601  1.00  0.00     0.042 C 
BRANCH   2   3
ATOM      3  C   UNL     1     -20.457 -47.632 104.340  1.00  0.00     0.045 C 
ATOM      4  O   UNL     1     -21.113 -48.229 105.232  1.00  0.00    -0.550 OA
ATOM      5  O   UNL     1     -20.317 -48.233 103.090  1.00  0.00    -0.550 OA
ENDBRANCH   2   3
BRANCH   2   6
ATOM      6  C   UNL     1     -18.445 -46.165 105.103  1.00  0.00     0.033 C 
ATOM      7  C   UNL     1     -17.787 -47.546 105.281  1.00  0.00     0.119 C 
ATOM      8  C   UNL     1     -18.109 -45.376 106.428  1.00  0.00    -0.017 C 
ATOM      9  C   UNL     1     -17.737 -47.812 106.782  1.00  0.00     0.043 C 
ATOM     10  C   UNL     1     -17.918 -46.474 107.560  1.00  0.00    -0.003 C 
ATOM     11  C   UNL     1     -16.764 -44.626 106.179  1.00  0.00     0.012 C 
ATOM     12  C   UNL     1     -19.180 -44.291 106.762  1.00  0.00     0.013 C 
ATOM     13  C   UNL     1     -19.165 -46.587 108.486  1.00  0.00     0.017 C 
ATOM     14  C   UNL     1     -16.690 -46.283 108.498  1.00  0.00    -0.064 C 
ATOM     15  C   UNL     1     -16.145 -44.088 107.456  1.00  0.00     0.032 C 
ATOM     16  C   UNL     1     -15.826 -45.219 108.407  1.00  0.00    -0.064 C 
ATOM     17  C   UNL     1     -16.447 -47.368 109.569  1.00  0.00     0.032 C 
ATOM     18  C   UNL     1     -14.528 -45.238 109.264  1.00  0.00    -0.008 C 
ATOM     19  C   UNL     1     -14.967 -47.697 109.859  1.00  0.00     0.009 C 
ATOM     20  C   UNL     1     -14.006 -46.720 109.154  1.00  0.00     0.009 C 
ATOM     21  C   UNL     1     -13.392 -44.255 108.816  1.00  0.00     0.015 C 
ATOM     22  C   UNL     1     -14.924 -44.801 110.706  1.00  0.00     0.016 C 
ATOM     23  C   UNL     1     -12.460 -46.944 109.364  1.00  0.00     0.005 C 
ATOM     24  C   UNL     1     -12.479 -44.861 107.752  1.00  0.00     0.047 C 
ATOM     25  C   UNL     1     -11.659 -46.048 108.329  1.00  0.00     0.182 C 
ATOM     26  C   UNL     1     -12.120 -48.440 109.133  1.00  0.00     0.015 C 
ATOM     27  C   UNL     1     -12.004 -46.621 110.811  1.00  0.00     0.015 C 
BRANCH   7  28
ATOM     28  O   UNL     1     -16.476 -47.539 104.766  1.00  0.00    -0.393 OA
ATOM     29  H   UNL     1     -16.411 -48.319 104.151  1.00  0.00     0.210 HD
ENDBRANCH   7  28
BRANCH  25  30
ATOM     30  O   UNL     1     -11.174 -46.832 107.229  1.00  0.00    -0.462 OA
BRANCH  30  31
ATOM     31  C   UNL     1     -11.700 -46.775 105.936  1.00  0.00     0.302 C 
ATOM     32  O   UNL     1     -11.071 -46.200 105.008  1.00  0.00    -0.253 OA
ATOM     33  C   UNL     1     -12.981 -47.476 105.644  1.00  0.00     0.139 C 
ENDBRANCH  30  31
ENDBRANCH  25  30
ENDBRANCH   2   6
ENDBRANCH   1   2
BRANCH   1  34
ATOM     34  C   UNL     1     -18.864 -45.242 102.491  1.00  0.00     0.031 C 
BRANCH  34  35
ATOM     35  C   UNL     1     -19.178 -45.005 101.026  1.00  0.00    -0.075 C 
ATOM     36  C   UNL     1     -18.644 -43.946 100.395  1.00  0.00     0.008 C 
BRANCH  35  37
ATOM     37  C   UNL     1     -20.120 -45.956 100.291  1.00  0.00     0.008 C 
ATOM     38  C   UNL     1     -21.296 -45.211  99.643  1.00  0.00     0.012 C 
ATOM     39  C   UNL     1     -19.364 -46.794  99.261  1.00  0.00     0.012 C 
ENDBRANCH  35  37
ENDBRANCH  34  35
ENDBRANCH   1  34
TORSDOF 9
ENDMDL
MODEL 6
REMARK VINA RESULT:    -6.233      3.385      6.617
REMARK INTER + INTRA:         -11.368
REMARK INTER:                  -8.933
REMARK INTRA:                  -2.435
REMARK UNBOUND:                -2.038
REMARK SMILES C=C(CC[C@@H](C(=O)[O-])[C@@H]1[C@@H](O)C[C@@]2(C)C3=C(CC[C@@]12C)[C@]1(C)CC[C@H](OC(C)=O)C(C)(C)[C@H]1CC3)C(C)C
REMARK SMILES IDX 4 1 5 2 6 3 7 4 8 5 9 6 10 7 19 8 12 9 13 10 18 11 20 12
REMARK SMILES IDX 14 13 15 14 17 15 16 16 35 17 21 18 34 19 33 20 23 21 22 22
REMARK SMILES IDX 30 23 24 24 25 25 31 26 32 27 11 28 26 30 27 31 29 32 28 33
REMARK SMILES IDX 3 34 2 35 1 36 36 37 37 38 38 39
REMARK H PARENT 11 29
REMARK Flexibility Score: inf
ROOT
ATOM      1  C   UNL     1     -14.955 -52.786 113.826  1.00  0.00     0.014 C 
ENDROOT
BRANCH   1   2
ATOM      2  C   UNL     1     -13.898 -51.697 113.500  1.00  0.00     0.042 C 
BRANCH   2   3
ATOM      3  C   UNL     1     -12.521 -52.320 113.499  1.00  0.00     0.045 C 
ATOM      4  O   UNL     1     -11.534 -51.648 113.895  1.00  0.00    -0.550 OA
ATOM      5  O   UNL     1     -12.334 -53.661 113.169  1.00  0.00    -0.550 OA
ENDBRANCH   2   3
BRANCH   2   6
ATOM      6  C   UNL     1     -14.274 -50.911 112.187  1.00  0.00     0.033 C 
ATOM      7  C   UNL     1     -13.168 -50.933 111.116  1.00  0.00     0.119 C 
ATOM      8  C   UNL     1     -14.720 -49.400 112.286  1.00  0.00    -0.017 C 
ATOM      9  C   UNL     1     -12.516 -49.554 111.138  1.00  0.00     0.043 C 
ATOM     10  C   UNL     1     -13.459 -48.538 111.851  1.00  0.00    -0.003 C 
ATOM     11  C   UNL     1     -15.881 -49.203 111.264  1.00  0.00     0.012 C 
ATOM     12  C   UNL     1     -15.288 -49.041 113.695  1.00  0.00     0.013 C 
ATOM     13  C   UNL     1     -12.716 -47.924 113.074  1.00  0.00     0.017 C 
ATOM     14  C   UNL     1     -13.741 -47.360 110.872  1.00  0.00    -0.064 C 
ATOM     15  C   UNL     1     -16.198 -47.741 111.008  1.00  0.00     0.032 C 
ATOM     16  C   UNL     1     -14.997 -47.034 110.422  1.00  0.00    -0.064 C 
ATOM     17  C   UNL     1     -12.524 -46.543 110.386  1.00  0.00     0.032 C 
ATOM     18  C   UNL     1     -15.132 -45.968 109.298  1.00  0.00    -0.008 C 
ATOM     19  C   UNL     1     -12.592 -46.055 108.924  1.00  0.00     0.009 C 
ATOM     20  C   UNL     1     -13.972 -46.314 108.288  1.00  0.00     0.009 C 
ATOM     21  C   UNL     1     -16.497 -45.947 108.529  1.00  0.00     0.015 C 
ATOM     22  C   UNL     1     -15.002 -44.570 109.972  1.00  0.00     0.016 C 
ATOM     23  C   UNL     1     -14.178 -45.864 106.792  1.00  0.00     0.005 C 
ATOM     24  C   UNL     1     -16.523 -46.924 107.354  1.00  0.00     0.047 C 
ATOM     25  C   UNL     1     -15.529 -46.488 106.242  1.00  0.00     0.182 C 
ATOM     26  C   UNL     1     -12.985 -46.365 105.935  1.00  0.00     0.015 C 
ATOM     27  C   UNL     1     -14.201 -44.322 106.632  1.00  0.00     0.015 C 
BRANCH   7  28
ATOM     28  O   UNL     1     -13.717 -51.167 109.841  1.00  0.00    -0.393 OA
ATOM     29  H   UNL     1     -14.542 -50.613 109.784  1.00  0.00     0.210 HD
ENDBRANCH   7  28
BRANCH  25  30
ATOM     30  O   UNL     1     -15.273 -47.624 105.402  1.00  0.00    -0.462 OA
BRANCH  30  31
ATOM     31  C   UNL     1     -15.882 -47.834 104.163  1.00  0.00     0.302 C 
ATOM     32  O   UNL     1     -16.124 -49.000 103.751  1.00  0.00    -0.253 OA
ATOM     33  C   UNL     1     -16.322 -46.657 103.364  1.00  0.00     0.139 C 
ENDBRANCH  30  31
ENDBRANCH  25  30
ENDBRANCH   2   6
ENDBRANCH   1   2
BRANCH   1  34
ATOM     34  C   UNL     1     -16.102 -52.813 112.797  1.00  0.00     0.031 C 
BRANCH  34  35
ATOM     35  C   UNL     1     -17.457 -52.677 113.466  1.00  0.00    -0.075 C 
ATOM     36  C   UNL     1     -17.664 -53.241 114.667  1.00  0.00     0.008 C 
BRANCH  35  37
ATOM     37  C   UNL     1     -18.580 -51.927 112.754  1.00  0.00     0.008 C 
ATOM     38  C   UNL     1     -18.750 -50.500 113.296  1.00  0.00     0.012 C 
ATOM     39  C   UNL     1     -18.366 -51.920 111.240  1.00  0.00     0.012 C 
ENDBRANCH  35  37
ENDBRANCH  34  35
ENDBRANCH   1  34
TORSDOF 9
ENDMDL
MODEL 7
REMARK VINA RESULT:    -6.221      2.370      9.002
REMARK INTER + INTRA:         -11.350
REMARK INTER:                  -9.530
REMARK INTRA:                  -1.820
REMARK UNBOUND:                -2.038
REMARK SMILES C=C(CC[C@@H](C(=O)[O-])[C@@H]1[C@@H](O)C[C@@]2(C)C3=C(CC[C@@]12C)[C@]1(C)CC[C@H](OC(C)=O)C(C)(C)[C@H]1CC3)C(C)C
REMARK SMILES IDX 4 1 5 2 6 3 7 4 8 5 9 6 10 7 19 8 12 9 13 10 18 11 20 12
REMARK SMILES IDX 14 13 15 14 17 15 16 16 35 17 21 18 34 19 33 20 23 21 22 22
REMARK SMILES IDX 30 23 24 24 25 25 31 26 32 27 11 28 26 30 27 31 29 32 28 33
REMARK SMILES IDX 3 34 2 35 1 36 36 37 37 38 38 39
REMARK H PARENT 11 29
REMARK Flexibility Score: inf
ROOT
ATOM      1  C   UNL     1     -19.315 -46.964 103.618  1.00  0.00     0.014 C 
ENDROOT
BRANCH   1   2
ATOM      2  C   UNL     1     -18.889 -45.563 104.132  1.00  0.00     0.042 C 
BRANCH   2   3
ATOM      3  C   UNL     1     -20.118 -44.708 104.337  1.00  0.00     0.045 C 
ATOM      4  O   UNL     1     -20.051 -43.466 104.146  1.00  0.00    -0.550 OA
ATOM      5  O   UNL     1     -21.355 -45.279 104.630  1.00  0.00    -0.550 OA
ENDBRANCH   2   3
BRANCH   2   6
ATOM      6  C   UNL     1     -17.942 -45.679 105.387  1.00  0.00     0.033 C 
ATOM      7  C   UNL     1     -18.642 -45.356 106.720  1.00  0.00     0.119 C 
ATOM      8  C   UNL     1     -16.594 -44.859 105.421  1.00  0.00    -0.017 C 
ATOM      9  C   UNL     1     -18.165 -43.968 107.134  1.00  0.00     0.043 C 
ATOM     10  C   UNL     1     -16.863 -43.605 106.358  1.00  0.00    -0.003 C 
ATOM     11  C   UNL     1     -15.518 -45.786 106.065  1.00  0.00     0.012 C 
ATOM     12  C   UNL     1     -16.084 -44.495 103.992  1.00  0.00     0.013 C 
ATOM     13  C   UNL     1     -17.102 -42.301 105.541  1.00  0.00     0.017 C 
ATOM     14  C   UNL     1     -15.750 -43.275 107.396  1.00  0.00    -0.064 C 
ATOM     15  C   UNL     1     -14.258 -45.038 106.464  1.00  0.00     0.032 C 
ATOM     16  C   UNL     1     -14.576 -43.981 107.496  1.00  0.00    -0.064 C 
ATOM     17  C   UNL     1     -16.013 -42.097 108.359  1.00  0.00     0.032 C 
ATOM     18  C   UNL     1     -13.630 -43.686 108.695  1.00  0.00    -0.008 C 
ATOM     19  C   UNL     1     -15.477 -42.280 109.795  1.00  0.00     0.009 C 
ATOM     20  C   UNL     1     -14.597 -43.538 109.930  1.00  0.00     0.009 C 
ATOM     21  C   UNL     1     -12.553 -44.781 109.010  1.00  0.00     0.015 C 
ATOM     22  C   UNL     1     -12.832 -42.395 108.345  1.00  0.00     0.016 C 
ATOM     23  C   UNL     1     -13.985 -43.845 111.350  1.00  0.00     0.005 C 
ATOM     24  C   UNL     1     -13.085 -45.875 109.934  1.00  0.00     0.047 C 
ATOM     25  C   UNL     1     -13.385 -45.314 111.351  1.00  0.00     0.182 C 
ATOM     26  C   UNL     1     -15.098 -43.735 112.426  1.00  0.00     0.015 C 
ATOM     27  C   UNL     1     -12.892 -42.825 111.760  1.00  0.00     0.015 C 
BRANCH   7  28
ATOM     28  O   UNL     1     -18.276 -46.288 107.710  1.00  0.00    -0.393 OA
ATOM     29  H   UNL     1     -17.282 -46.339 107.694  1.00  0.00     0.210 HD
ENDBRANCH   7  28
BRANCH  25  30
ATOM     30  O   UNL     1     -14.263 -46.233 112.019  1.00  0.00    -0.462 OA
BRANCH  30  31
ATOM     31  C   UNL     1     -14.939 -47.274 111.379  1.00  0.00     0.302 C 
ATOM     32  O   UNL     1     -14.531 -48.462 111.470  1.00  0.00    -0.253 OA
ATOM     33  C   UNL     1     -16.203 -46.975 110.650  1.00  0.00     0.139 C 
ENDBRANCH  30  31
ENDBRANCH  25  30
ENDBRANCH   2   6
ENDBRANCH   1   2
BRANCH   1  34
ATOM     34  C   UNL     1     -19.046 -47.140 102.111  1.00  0.00     0.031 C 
BRANCH  34  35
ATOM     35  C   UNL     1     -20.249 -46.742 101.277  1.00  0.00    -0.075 C 
ATOM     36  C   UNL     1     -21.476 -47.141 101.649  1.00  0.00     0.008 C 
BRANCH  35  37
ATOM     37  C   UNL     1     -20.050 -45.915 100.009  1.00  0.00     0.008 C 
ATOM     38  C   UNL     1     -19.195 -44.666 100.267  1.00  0.00     0.012 C 
ATOM     39  C   UNL     1     -19.459 -46.765  98.884  1.00  0.00     0.012 C 
ENDBRANCH  35  37
ENDBRANCH  34  35
ENDBRANCH   1  34
TORSDOF 9
ENDMDL
MODEL 8
REMARK VINA RESULT:    -6.216      4.871      8.207
REMARK INTER + INTRA:         -11.342
REMARK INTER:                  -8.631
REMARK INTRA:                  -2.712
REMARK UNBOUND:                -2.038
REMARK SMILES C=C(CC[C@@H](C(=O)[O-])[C@@H]1[C@@H](O)C[C@@]2(C)C3=C(CC[C@@]12C)[C@]1(C)CC[C@H](OC(C)=O)C(C)(C)[C@H]1CC3)C(C)C
REMARK SMILES IDX 4 1 5 2 6 3 7 4 8 5 9 6 10 7 19 8 12 9 13 10 18 11 20 12
REMARK SMILES IDX 14 13 15 14 17 15 16 16 35 17 21 18 34 19 33 20 23 21 22 22
REMARK SMILES IDX 30 23 24 24 25 25 31 26 32 27 11 28 26 30 27 31 29 32 28 33
REMARK SMILES IDX 3 34 2 35 1 36 36 37 37 38 38 39
REMARK H PARENT 11 29
REMARK Flexibility Score: inf
ROOT
ATOM      1  C   UNL     1     -15.352 -53.669 112.985  1.00  0.00     0.014 C 
ENDROOT
BRANCH   1   2
ATOM      2  C   UNL     1     -14.101 -52.764 113.148  1.00  0.00     0.042 C 
BRANCH   2   3
ATOM      3  C   UNL     1     -12.856 -53.575 112.869  1.00  0.00     0.045 C 
ATOM      4  O   UNL     1     -11.808 -53.352 113.529  1.00  0.00    -0.550 OA
ATOM      5  O   UNL     1     -12.873 -54.639 111.970  1.00  0.00    -0.550 OA
ENDBRANCH   2   3
BRANCH   2   6
ATOM      6  C   UNL     1     -14.238 -51.443 112.300  1.00  0.00     0.033 C 
ATOM      7  C   UNL     1     -13.058 -51.199 111.341  1.00  0.00     0.119 C 
ATOM      8  C   UNL     1     -14.458 -50.065 113.039  1.00  0.00    -0.017 C 
ATOM      9  C   UNL     1     -12.211 -50.096 111.968  1.00  0.00     0.043 C 
ATOM     10  C   UNL     1     -13.049 -49.333 113.039  1.00  0.00    -0.003 C 
ATOM     11  C   UNL     1     -15.482 -49.254 112.188  1.00  0.00     0.012 C 
ATOM     12  C   UNL     1     -15.087 -50.246 114.457  1.00  0.00     0.013 C 
ATOM     13  C   UNL     1     -12.331 -49.436 114.417  1.00  0.00     0.017 C 
ATOM     14  C   UNL     1     -13.063 -47.822 112.663  1.00  0.00    -0.064 C 
ATOM     15  C   UNL     1     -15.552 -47.791 112.587  1.00  0.00     0.032 C 
ATOM     16  C   UNL     1     -14.212 -47.123 112.382  1.00  0.00    -0.064 C 
ATOM     17  C   UNL     1     -11.699 -47.101 112.596  1.00  0.00     0.032 C 
ATOM     18  C   UNL     1     -14.085 -45.675 111.829  1.00  0.00    -0.008 C 
ATOM     19  C   UNL     1     -11.565 -46.033 111.490  1.00  0.00     0.009 C 
ATOM     20  C   UNL     1     -12.908 -45.755 110.786  1.00  0.00     0.009 C 
ATOM     21  C   UNL     1     -15.360 -45.091 111.127  1.00  0.00     0.015 C 
ATOM     22  C   UNL     1     -13.806 -44.741 113.045  1.00  0.00     0.016 C 
ATOM     23  C   UNL     1     -12.912 -44.683 109.630  1.00  0.00     0.005 C 
ATOM     24  C   UNL     1     -15.430 -45.456 109.645  1.00  0.00     0.047 C 
ATOM     25  C   UNL     1     -14.288 -44.769 108.845  1.00  0.00     0.182 C 
ATOM     26  C   UNL     1     -11.738 -44.971 108.657  1.00  0.00     0.015 C 
ATOM     27  C   UNL     1     -12.689 -43.241 110.154  1.00  0.00     0.015 C 
BRANCH   7  28
ATOM     28  O   UNL     1     -13.524 -50.770 110.083  1.00  0.00    -0.393 OA
ATOM     29  H   UNL     1     -14.482 -51.035 110.032  1.00  0.00     0.210 HD
ENDBRANCH   7  28
BRANCH  25  30
ATOM     30  O   UNL     1     -14.134 -45.466 107.600  1.00  0.00    -0.462 OA
BRANCH  30  31
ATOM     31  C   UNL     1     -14.569 -46.774 107.376  1.00  0.00     0.302 C 
ATOM     32  O   UNL     1     -15.497 -47.015 106.559  1.00  0.00    -0.253 OA
ATOM     33  C   UNL     1     -13.866 -47.897 108.055  1.00  0.00     0.139 C 
ENDBRANCH  30  31
ENDBRANCH  25  30
ENDBRANCH   2   6
ENDBRANCH   1   2
BRANCH   1  34
ATOM     34  C   UNL     1     -16.518 -52.934 112.297  1.00  0.00     0.031 C 
BRANCH  34  35
ATOM     35  C   UNL     1     -17.607 -52.562 113.286  1.00  0.00    -0.075 C 
ATOM     36  C   UNL     1     -17.634 -53.148 114.494  1.00  0.00     0.008 C 
BRANCH  35  37
ATOM     37  C   UNL     1     -18.676 -51.548 112.888  1.00  0.00     0.008 C 
ATOM     38  C   UNL     1     -18.752 -50.376 113.878  1.00  0.00     0.012 C 
ATOM     39  C   UNL     1     -18.459 -51.049 111.459  1.00  0.00     0.012 C 
ENDBRANCH  35  37
ENDBRANCH  34  35
ENDBRANCH   1  34
TORSDOF 9
ENDMDL
MODEL 9
REMARK VINA RESULT:    -6.150      2.786      8.713
REMARK INTER + INTRA:         -11.244
REMARK INTER:                  -9.458
REMARK INTRA:                  -1.786
REMARK UNBOUND:                -2.038
REMARK SMILES C=C(CC[C@@H](C(=O)[O-])[C@@H]1[C@@H](O)C[C@@]2(C)C3=C(CC[C@@]12C)[C@]1(C)CC[C@H](OC(C)=O)C(C)(C)[C@H]1CC3)C(C)C
REMARK SMILES IDX 4 1 5 2 6 3 7 4 8 5 9 6 10 7 19 8 12 9 13 10 18 11 20 12
REMARK SMILES IDX 14 13 15 14 17 15 16 16 35 17 21 18 34 19 33 20 23 21 22 22
REMARK SMILES IDX 30 23 24 24 25 25 31 26 32 27 11 28 26 30 27 31 29 32 28 33
REMARK SMILES IDX 3 34 2 35 1 36 36 37 37 38 38 39
REMARK H PARENT 11 29
REMARK Flexibility Score: inf
ROOT
ATOM      1  C   UNL     1     -19.758 -47.682 104.517  1.00  0.00     0.014 C 
ENDROOT
BRANCH   1   2
ATOM      2  C   UNL     1     -18.772 -46.493 104.662  1.00  0.00     0.042 C 
BRANCH   2   3
ATOM      3  C   UNL     1     -19.532 -45.192 104.530  1.00  0.00     0.045 C 
ATOM      4  O   UNL     1     -18.963 -44.186 104.034  1.00  0.00    -0.550 OA
ATOM      5  O   UNL     1     -20.887 -45.112 104.848  1.00  0.00    -0.550 OA
ENDBRANCH   2   3
BRANCH   2   6
ATOM      6  C   UNL     1     -17.904 -46.626 105.971  1.00  0.00     0.033 C 
ATOM      7  C   UNL     1     -18.365 -45.703 107.114  1.00  0.00     0.119 C 
ATOM      8  C   UNL     1     -16.340 -46.430 105.889  1.00  0.00    -0.017 C 
ATOM      9  C   UNL     1     -17.356 -44.561 107.181  1.00  0.00     0.043 C 
ATOM     10  C   UNL     1     -16.049 -44.968 106.437  1.00  0.00    -0.003 C 
ATOM     11  C   UNL     1     -15.701 -47.493 106.834  1.00  0.00     0.012 C 
ATOM     12  C   UNL     1     -15.782 -46.701 104.456  1.00  0.00     0.013 C 
ATOM     13  C   UNL     1     -15.777 -43.953 105.288  1.00  0.00     0.017 C 
ATOM     14  C   UNL     1     -14.858 -44.836 107.431  1.00  0.00    -0.064 C 
ATOM     15  C   UNL     1     -14.234 -47.225 107.115  1.00  0.00     0.032 C 
ATOM     16  C   UNL     1     -14.061 -45.891 107.804  1.00  0.00    -0.064 C 
ATOM     17  C   UNL     1     -14.591 -43.436 108.026  1.00  0.00     0.032 C 
ATOM     18  C   UNL     1     -13.032 -45.679 108.950  1.00  0.00    -0.008 C 
ATOM     19  C   UNL     1     -14.118 -43.416 109.495  1.00  0.00     0.009 C 
ATOM     20  C   UNL     1     -13.811 -44.831 110.025  1.00  0.00     0.009 C 
ATOM     21  C   UNL     1     -12.472 -46.979 109.623  1.00  0.00     0.015 C 
ATOM     22  C   UNL     1     -11.798 -44.957 108.331  1.00  0.00     0.016 C 
ATOM     23  C   UNL     1     -13.319 -44.955 111.517  1.00  0.00     0.005 C 
ATOM     24  C   UNL     1     -13.362 -47.478 110.761  1.00  0.00     0.047 C 
ATOM     25  C   UNL     1     -13.357 -46.480 111.952  1.00  0.00     0.182 C 
ATOM     26  C   UNL     1     -14.253 -44.126 112.438  1.00  0.00     0.015 C 
ATOM     27  C   UNL     1     -11.894 -44.380 111.724  1.00  0.00     0.015 C 
BRANCH   7  28
ATOM     28  O   UNL     1     -18.365 -46.396 108.340  1.00  0.00    -0.393 OA
ATOM     29  H   UNL     1     -17.424 -46.392 108.665  1.00  0.00     0.210 HD
ENDBRANCH   7  28
BRANCH  25  30
ATOM     30  O   UNL     1     -14.504 -46.758 112.771  1.00  0.00    -0.462 OA
BRANCH  30  31
ATOM     31  C   UNL     1     -14.666 -47.926 113.520  1.00  0.00     0.302 C 
ATOM     32  O   UNL     1     -15.694 -48.642 113.386  1.00  0.00    -0.253 OA
ATOM     33  C   UNL     1     -13.566 -48.365 114.423  1.00  0.00     0.139 C 
ENDBRANCH  30  31
ENDBRANCH  25  30
ENDBRANCH   2   6
ENDBRANCH   1   2
BRANCH   1  34
ATOM     34  C   UNL     1     -19.667 -48.664 105.702  1.00  0.00     0.031 C 
BRANCH  34  35
ATOM     35  C   UNL     1     -21.039 -49.005 106.252  1.00  0.00    -0.075 C 
ATOM     36  C   UNL     1     -22.138 -48.629 105.578  1.00  0.00     0.008 C 
BRANCH  35  37
ATOM     37  C   UNL     1     -21.157 -49.748 107.581  1.00  0.00     0.008 C 
ATOM     38  C   UNL     1     -21.468 -51.238 107.380  1.00  0.00     0.012 C 
ATOM     39  C   UNL     1     -19.903 -49.556 108.433  1.00  0.00     0.012 C 
ENDBRANCH  35  37
ENDBRANCH  34  35
ENDBRANCH   1  34
TORSDOF 9
ENDMDL
