MODEL 1
REMARK VINA RESULT:    -4.400      0.000      0.000
REMARK INTER + INTRA:          -6.926
REMARK INTER:                  -6.715
REMARK INTRA:                  -0.211
REMARK UNBOUND:                -0.211
REMARK SMILES CCCCCCCCCCC(=O)[O-]
REMARK SMILES IDX 7 1 8 2 9 3 10 4 11 5 12 6 13 7 6 8 5 9 4 10 3 11 2 12 1 13
REMARK H PARENT
REMARK Flexibility Score: inf
ROOT
ATOM      1  C   UNL     1       1.219   2.502   8.199  1.00  0.00     0.000 C 
ENDROOT
BRANCH   1   2
ATOM      2  C   UNL     1       0.323   3.736   7.988  1.00  0.00     0.000 C 
BRANCH   2   3
ATOM      3  C   UNL     1       0.632   4.482   6.679  1.00  0.00     0.006 C 
BRANCH   3   4
ATOM      4  C   UNL     1      -0.351   5.632   6.424  1.00  0.00     0.053 C 
BRANCH   4   5
ATOM      5  C   UNL     1      -0.475   5.944   4.963  1.00  0.00     0.041 C 
ATOM      6  O   UNL     1       0.037   5.177   4.107  1.00  0.00    -0.550 OA
ATOM      7  O   UNL     1      -1.131   7.096   4.552  1.00  0.00    -0.550 OA
ENDBRANCH   4   5
ENDBRANCH   3   4
ENDBRANCH   2   3
ENDBRANCH   1   2
BRANCH   1   8
ATOM      8  C   UNL     1       1.697   1.813   6.904  1.00  0.00     0.000 C 
BRANCH   8   9
ATOM      9  C   UNL     1       1.866   0.284   7.002  1.00  0.00    -0.000 C 
BRANCH   9  10
ATOM     10  C   UNL     1       1.233  -0.519   5.847  1.00  0.00    -0.000 C 
BRANCH  10  11
ATOM     11  C   UNL     1       1.678  -1.989   5.761  1.00  0.00    -0.000 C 
BRANCH  11  12
ATOM     12  C   UNL     1       3.000  -2.170   5.002  1.00  0.00    -0.003 C 
ATOM     13  C   UNL     1       4.197  -1.926   5.916  1.00  0.00     0.004 C 
ENDBRANCH  11  12
ENDBRANCH  10  11
ENDBRANCH   9  10
ENDBRANCH   8   9
ENDBRANCH   1   8
TORSDOF 9
ENDMDL
MODEL 2
REMARK VINA RESULT:    -4.237      5.636      7.980
REMARK INTER + INTRA:          -6.677
REMARK INTER:                  -6.264
REMARK INTRA:                  -0.414
REMARK UNBOUND:                -0.211
REMARK SMILES CCCCCCCCCCC(=O)[O-]
REMARK SMILES IDX 7 1 8 2 9 3 10 4 11 5 12 6 13 7 6 8 5 9 4 10 3 11 2 12 1 13
REMARK H PARENT
REMARK Flexibility Score: inf
ROOT
ATOM      1  C   UNL     1      -1.561  -2.924   4.922  1.00  0.00     0.000 C 
ENDROOT
BRANCH   1   2
ATOM      2  C   UNL     1      -0.450  -2.383   5.841  1.00  0.00     0.000 C 
BRANCH   2   3
ATOM      3  C   UNL     1       0.396  -1.285   5.174  1.00  0.00     0.006 C 
BRANCH   3   4
ATOM      4  C   UNL     1       1.779  -1.146   5.824  1.00  0.00     0.053 C 
BRANCH   4   5
ATOM      5  C   UNL     1       2.680  -2.288   5.463  1.00  0.00     0.041 C 
ATOM      6  O   UNL     1       3.284  -2.293   4.358  1.00  0.00    -0.550 OA
ATOM      7  O   UNL     1       2.829  -3.358   6.335  1.00  0.00    -0.550 OA
ENDBRANCH   4   5
ENDBRANCH   3   4
ENDBRANCH   2   3
ENDBRANCH   1   2
BRANCH   1   8
ATOM      8  C   UNL     1      -2.150  -1.894   3.936  1.00  0.00     0.000 C 
BRANCH   8   9
ATOM      9  C   UNL     1      -3.688  -1.890   3.839  1.00  0.00    -0.000 C 
BRANCH   9  10
ATOM     10  C   UNL     1      -4.390  -0.763   4.623  1.00  0.00    -0.000 C 
BRANCH  10  11
ATOM     11  C   UNL     1      -5.008  -1.195   5.964  1.00  0.00    -0.000 C 
BRANCH  11  12
ATOM     12  C   UNL     1      -5.723  -0.047   6.690  1.00  0.00    -0.003 C 
ATOM     13  C   UNL     1      -7.211  -0.340   6.852  1.00  0.00     0.004 C 
ENDBRANCH  11  12
ENDBRANCH  10  11
ENDBRANCH   9  10
ENDBRANCH   8   9
ENDBRANCH   1   8
TORSDOF 9
ENDMDL
MODEL 3
REMARK VINA RESULT:    -4.214      5.487      7.601
REMARK INTER + INTRA:          -6.642
REMARK INTER:                  -5.777
REMARK INTRA:                  -0.865
REMARK UNBOUND:                -0.211
REMARK SMILES CCCCCCCCCCC(=O)[O-]
REMARK SMILES IDX 7 1 8 2 9 3 10 4 11 5 12 6 13 7 6 8 5 9 4 10 3 11 2 12 1 13
REMARK H PARENT
REMARK Flexibility Score: inf
ROOT
ATOM      1  C   UNL     1      -2.016  -3.438   6.103  1.00  0.00     0.000 C 
ENDROOT
BRANCH   1   2
ATOM      2  C   UNL     1      -0.526  -3.491   6.490  1.00  0.00     0.000 C 
BRANCH   2   3
ATOM      3  C   UNL     1       0.138  -2.104   6.499  1.00  0.00     0.006 C 
BRANCH   3   4
ATOM      4  C   UNL     1       0.888  -1.814   5.192  1.00  0.00     0.053 C 
BRANCH   4   5
ATOM      5  C   UNL     1       2.368  -1.726   5.408  1.00  0.00     0.041 C 
ATOM      6  O   UNL     1       2.828  -1.077   6.383  1.00  0.00    -0.550 OA
ATOM      7  O   UNL     1       3.238  -2.336   4.514  1.00  0.00    -0.550 OA
ENDBRANCH   4   5
ENDBRANCH   3   4
ENDBRANCH   2   3
ENDBRANCH   1   2
BRANCH   1   8
ATOM      8  C   UNL     1      -2.354  -4.045   4.725  1.00  0.00     0.000 C 
BRANCH   8   9
ATOM      9  C   UNL     1      -2.273  -3.061   3.542  1.00  0.00    -0.000 C 
BRANCH   9  10
ATOM     10  C   UNL     1      -2.640  -1.601   3.879  1.00  0.00    -0.000 C 
BRANCH  10  11
ATOM     11  C   UNL     1      -4.150  -1.321   3.983  1.00  0.00    -0.000 C 
BRANCH  11  12
ATOM     12  C   UNL     1      -4.577  -0.861   5.383  1.00  0.00    -0.003 C 
ATOM     13  C   UNL     1      -5.971  -1.374   5.730  1.00  0.00     0.004 C 
ENDBRANCH  11  12
ENDBRANCH  10  11
ENDBRANCH   9  10
ENDBRANCH   8   9
ENDBRANCH   1   8
TORSDOF 9
ENDMDL
MODEL 4
REMARK VINA RESULT:    -4.201      1.153      1.558
REMARK INTER + INTRA:          -6.622
REMARK INTER:                  -6.180
REMARK INTRA:                  -0.442
REMARK UNBOUND:                -0.211
REMARK SMILES CCCCCCCCCCC(=O)[O-]
REMARK SMILES IDX 7 1 8 2 9 3 10 4 11 5 12 6 13 7 6 8 5 9 4 10 3 11 2 12 1 13
REMARK H PARENT
REMARK Flexibility Score: inf
ROOT
ATOM      1  C   UNL     1       0.879   2.696   8.517  1.00  0.00     0.000 C 
ENDROOT
BRANCH   1   2
ATOM      2  C   UNL     1       0.339   4.118   8.273  1.00  0.00     0.000 C 
BRANCH   2   3
ATOM      3  C   UNL     1       0.464   4.561   6.806  1.00  0.00     0.006 C 
BRANCH   3   4
ATOM      4  C   UNL     1      -0.451   5.749   6.481  1.00  0.00     0.053 C 
BRANCH   4   5
ATOM      5  C   UNL     1      -0.557   5.982   5.005  1.00  0.00     0.041 C 
ATOM      6  O   UNL     1       0.073   5.247   4.201  1.00  0.00    -0.550 OA
ATOM      7  O   UNL     1      -1.329   7.030   4.520  1.00  0.00    -0.550 OA
ENDBRANCH   4   5
ENDBRANCH   3   4
ENDBRANCH   2   3
ENDBRANCH   1   2
BRANCH   1   8
ATOM      8  C   UNL     1       1.466   2.000   7.272  1.00  0.00     0.000 C 
BRANCH   8   9
ATOM      9  C   UNL     1       2.460   0.860   7.571  1.00  0.00    -0.000 C 
BRANCH   9  10
ATOM     10  C   UNL     1       2.151  -0.478   6.868  1.00  0.00    -0.000 C 
BRANCH  10  11
ATOM     11  C   UNL     1       1.246  -0.364   5.629  1.00  0.00    -0.000 C 
BRANCH  11  12
ATOM     12  C   UNL     1       0.471  -1.657   5.334  1.00  0.00    -0.003 C 
ATOM     13  C   UNL     1       0.007  -2.327   6.624  1.00  0.00     0.004 C 
ENDBRANCH  11  12
ENDBRANCH  10  11
ENDBRANCH   9  10
ENDBRANCH   8   9
ENDBRANCH   1   8
TORSDOF 9
ENDMDL
MODEL 5
REMARK VINA RESULT:    -4.123      8.072     10.748
REMARK INTER + INTRA:          -6.503
REMARK INTER:                  -6.144
REMARK INTRA:                  -0.359
REMARK UNBOUND:                -0.211
REMARK SMILES CCCCCCCCCCC(=O)[O-]
REMARK SMILES IDX 7 1 8 2 9 3 10 4 11 5 12 6 13 7 6 8 5 9 4 10 3 11 2 12 1 13
REMARK H PARENT
REMARK Flexibility Score: inf
ROOT
ATOM      1  C   UNL     1      -2.857  -5.423   0.641  1.00  0.00     0.000 C 
ENDROOT
BRANCH   1   2
ATOM      2  C   UNL     1      -1.892  -4.501  -0.127  1.00  0.00     0.000 C 
BRANCH   2   3
ATOM      3  C   UNL     1      -1.794  -4.852  -1.621  1.00  0.00     0.006 C 
BRANCH   3   4
ATOM      4  C   UNL     1      -0.618  -4.143  -2.305  1.00  0.00     0.053 C 
BRANCH   4   5
ATOM      5  C   UNL     1       0.470  -5.104  -2.677  1.00  0.00     0.041 C 
ATOM      6  O   UNL     1       0.378  -5.789  -3.729  1.00  0.00    -0.550 OA
ATOM      7  O   UNL     1       1.571  -5.263  -1.846  1.00  0.00    -0.550 OA
ENDBRANCH   4   5
ENDBRANCH   3   4
ENDBRANCH   2   3
ENDBRANCH   1   2
BRANCH   1   8
ATOM      8  C   UNL     1      -2.892  -5.204   2.168  1.00  0.00     0.000 C 
BRANCH   8   9
ATOM      9  C   UNL     1      -3.212  -3.764   2.613  1.00  0.00    -0.000 C 
BRANCH   9  10
ATOM     10  C   UNL     1      -2.172  -3.125   3.557  1.00  0.00    -0.000 C 
BRANCH  10  11
ATOM     11  C   UNL     1      -2.537  -1.720   4.067  1.00  0.00    -0.000 C 
BRANCH  11  12
ATOM     12  C   UNL     1      -4.031  -1.400   3.920  1.00  0.00    -0.003 C 
ATOM     13  C   UNL     1      -4.618  -0.894   5.234  1.00  0.00     0.004 C 
ENDBRANCH  11  12
ENDBRANCH  10  11
ENDBRANCH   9  10
ENDBRANCH   8   9
ENDBRANCH   1   8
TORSDOF 9
ENDMDL
MODEL 6
REMARK VINA RESULT:    -4.115      5.421      7.595
REMARK INTER + INTRA:          -6.491
REMARK INTER:                  -5.875
REMARK INTRA:                  -0.616
REMARK UNBOUND:                -0.211
REMARK SMILES CCCCCCCCCCC(=O)[O-]
REMARK SMILES IDX 7 1 8 2 9 3 10 4 11 5 12 6 13 7 6 8 5 9 4 10 3 11 2 12 1 13
REMARK H PARENT
REMARK Flexibility Score: inf
ROOT
ATOM      1  C   UNL     1      -1.422  -2.609   5.691  1.00  0.00     0.000 C 
ENDROOT
BRANCH   1   2
ATOM      2  C   UNL     1       0.066  -2.490   6.066  1.00  0.00     0.000 C 
BRANCH   2   3
ATOM      3  C   UNL     1       0.799  -1.402   5.262  1.00  0.00     0.006 C 
BRANCH   3   4
ATOM      4  C   UNL     1       2.135  -1.009   5.906  1.00  0.00     0.053 C 
BRANCH   4   5
ATOM      5  C   UNL     1       3.209  -2.014   5.616  1.00  0.00     0.041 C 
ATOM      6  O   UNL     1       3.806  -2.593   6.561  1.00  0.00    -0.550 OA
ATOM      7  O   UNL     1       3.567  -2.288   4.303  1.00  0.00    -0.550 OA
ENDBRANCH   4   5
ENDBRANCH   3   4
ENDBRANCH   2   3
ENDBRANCH   1   2
BRANCH   1   8
ATOM      8  C   UNL     1      -1.847  -1.809   4.443  1.00  0.00     0.000 C 
BRANCH   8   9
ATOM      9  C   UNL     1      -2.943  -2.471   3.585  1.00  0.00    -0.000 C 
BRANCH   9  10
ATOM     10  C   UNL     1      -4.386  -2.042   3.922  1.00  0.00    -0.000 C 
BRANCH  10  11
ATOM     11  C   UNL     1      -4.498  -0.796   4.818  1.00  0.00    -0.000 C 
BRANCH  11  12
ATOM     12  C   UNL     1      -5.546  -0.952   5.929  1.00  0.00    -0.003 C 
ATOM     13  C   UNL     1      -4.930  -1.563   7.184  1.00  0.00     0.004 C 
ENDBRANCH  11  12
ENDBRANCH  10  11
ENDBRANCH   9  10
ENDBRANCH   8   9
ENDBRANCH   1   8
TORSDOF 9
ENDMDL
MODEL 7
REMARK VINA RESULT:    -4.051      5.282      7.571
REMARK INTER + INTRA:          -6.393
REMARK INTER:                  -5.549
REMARK INTRA:                  -0.843
REMARK UNBOUND:                -0.211
REMARK SMILES CCCCCCCCCCC(=O)[O-]
REMARK SMILES IDX 7 1 8 2 9 3 10 4 11 5 12 6 13 7 6 8 5 9 4 10 3 11 2 12 1 13
REMARK H PARENT
REMARK Flexibility Score: inf
ROOT
ATOM      1  C   UNL     1      -2.108  -3.393   5.090  1.00  0.00     0.000 C 
ENDROOT
BRANCH   1   2
ATOM      2  C   UNL     1      -1.096  -2.546   5.884  1.00  0.00     0.000 C 
BRANCH   2   3
ATOM      3  C   UNL     1       0.099  -2.088   5.031  1.00  0.00     0.006 C 
BRANCH   3   4
ATOM      4  C   UNL     1       1.006  -1.108   5.787  1.00  0.00     0.053 C 
BRANCH   4   5
ATOM      5  C   UNL     1       2.456  -1.440   5.604  1.00  0.00     0.041 C 
ATOM      6  O   UNL     1       2.825  -2.160   4.640  1.00  0.00    -0.550 OA
ATOM      7  O   UNL     1       3.395  -0.976   6.516  1.00  0.00    -0.550 OA
ENDBRANCH   4   5
ENDBRANCH   3   4
ENDBRANCH   2   3
ENDBRANCH   1   2
BRANCH   1   8
ATOM      8  C   UNL     1      -2.486  -2.829   3.705  1.00  0.00     0.000 C 
BRANCH   8   9
ATOM      9  C   UNL     1      -3.306  -1.524   3.735  1.00  0.00    -0.000 C 
BRANCH   9  10
ATOM     10  C   UNL     1      -4.707  -1.645   4.368  1.00  0.00    -0.000 C 
BRANCH  10  11
ATOM     11  C   UNL     1      -4.922  -0.793   5.631  1.00  0.00    -0.000 C 
BRANCH  11  12
ATOM     12  C   UNL     1      -4.860  -1.616   6.925  1.00  0.00    -0.003 C 
ATOM     13  C   UNL     1      -5.489  -2.992   6.733  1.00  0.00     0.004 C 
ENDBRANCH  11  12
ENDBRANCH  10  11
ENDBRANCH   9  10
ENDBRANCH   8   9
ENDBRANCH   1   8
TORSDOF 9
ENDMDL
MODEL 8
REMARK VINA RESULT:    -4.041      5.760      6.852
REMARK INTER + INTRA:          -6.378
REMARK INTER:                  -5.586
REMARK INTRA:                  -0.792
REMARK UNBOUND:                -0.211
REMARK SMILES CCCCCCCCCCC(=O)[O-]
REMARK SMILES IDX 7 1 8 2 9 3 10 4 11 5 12 6 13 7 6 8 5 9 4 10 3 11 2 12 1 13
REMARK H PARENT
REMARK Flexibility Score: inf
ROOT
ATOM      1  C   UNL     1      -2.600  -3.011   3.766  1.00  0.00     0.000 C 
ENDROOT
BRANCH   1   2
ATOM      2  C   UNL     1      -2.907  -1.509   3.915  1.00  0.00     0.000 C 
BRANCH   2   3
ATOM      3  C   UNL     1      -4.408  -1.221   4.088  1.00  0.00     0.006 C 
BRANCH   3   4
ATOM      4  C   UNL     1      -4.738  -0.691   5.489  1.00  0.00     0.053 C 
BRANCH   4   5
ATOM      5  C   UNL     1      -5.066  -1.801   6.441  1.00  0.00     0.041 C 
ATOM      6  O   UNL     1      -4.992  -1.613   7.683  1.00  0.00    -0.550 OA
ATOM      7  O   UNL     1      -5.427  -3.050   5.953  1.00  0.00    -0.550 OA
ENDBRANCH   4   5
ENDBRANCH   3   4
ENDBRANCH   2   3
ENDBRANCH   1   2
BRANCH   1   8
ATOM      8  C   UNL     1      -1.627  -3.585   4.816  1.00  0.00     0.000 C 
BRANCH   8   9
ATOM      9  C   UNL     1      -1.490  -2.749   6.104  1.00  0.00    -0.000 C 
BRANCH   9  10
ATOM     10  C   UNL     1      -0.054  -2.298   6.441  1.00  0.00    -0.000 C 
BRANCH  10  11
ATOM     11  C   UNL     1       0.791  -1.869   5.229  1.00  0.00    -0.000 C 
BRANCH  11  12
ATOM     12  C   UNL     1       2.244  -1.541   5.600  1.00  0.00    -0.003 C 
ATOM     13  C   UNL     1       3.218  -2.483   4.899  1.00  0.00     0.004 C 
ENDBRANCH  11  12
ENDBRANCH  10  11
ENDBRANCH   9  10
ENDBRANCH   8   9
ENDBRANCH   1   8
TORSDOF 9
ENDMDL
MODEL 9
REMARK VINA RESULT:    -3.904      5.117      7.084
REMARK INTER + INTRA:          -6.169
REMARK INTER:                  -5.428
REMARK INTRA:                  -0.741
REMARK UNBOUND:                -0.211
REMARK SMILES CCCCCCCCCCC(=O)[O-]
REMARK SMILES IDX 7 1 8 2 9 3 10 4 11 5 12 6 13 7 6 8 5 9 4 10 3 11 2 12 1 13
REMARK H PARENT
REMARK Flexibility Score: inf
ROOT
ATOM      1  C   UNL     1      -1.398  -3.575   6.767  1.00  0.00     0.000 C 
ENDROOT
BRANCH   1   2
ATOM      2  C   UNL     1      -0.016  -2.906   6.642  1.00  0.00     0.000 C 
BRANCH   2   3
ATOM      3  C   UNL     1       0.093  -1.987   5.414  1.00  0.00     0.006 C 
BRANCH   3   4
ATOM      4  C   UNL     1       1.154  -0.895   5.602  1.00  0.00     0.053 C 
BRANCH   4   5
ATOM      5  C   UNL     1       2.541  -1.462   5.616  1.00  0.00     0.041 C 
ATOM      6  O   UNL     1       3.326  -1.193   6.562  1.00  0.00    -0.550 OA
ATOM      7  O   UNL     1       2.974  -2.265   4.569  1.00  0.00    -0.550 OA
ENDBRANCH   4   5
ENDBRANCH   3   4
ENDBRANCH   2   3
ENDBRANCH   1   2
BRANCH   1   8
ATOM      8  C   UNL     1      -2.559  -2.616   7.102  1.00  0.00     0.000 C 
BRANCH   8   9
ATOM      9  C   UNL     1      -3.773  -2.707   6.157  1.00  0.00    -0.000 C 
BRANCH   9  10
ATOM     10  C   UNL     1      -4.101  -1.411   5.388  1.00  0.00    -0.000 C 
BRANCH  10  11
ATOM     11  C   UNL     1      -3.876  -1.485   3.867  1.00  0.00    -0.000 C 
BRANCH  11  12
ATOM     12  C   UNL     1      -2.688  -2.378   3.482  1.00  0.00    -0.003 C 
ATOM     13  C   UNL     1      -3.158  -3.642   2.770  1.00  0.00     0.004 C 
ENDBRANCH  11  12
ENDBRANCH  10  11
ENDBRANCH   9  10
ENDBRANCH   8   9
ENDBRANCH   1   8
TORSDOF 9
ENDMDL
