MODEL 1
REMARK VINA RESULT:    -7.821      0.000      0.000
REMARK INTER + INTRA:          -9.450
REMARK INTER:                  -9.193
REMARK INTRA:                  -0.257
REMARK UNBOUND:                -0.257
REMARK SMILES O=c1c(O)c(-c2ccc(O)cc2)oc2cc(O)cc(O)c12
REMARK SMILES IDX 5 1 3 2 2 3 1 4 21 5 19 6 18 7 16 8 15 9 14 10 13 11 6 12
REMARK SMILES IDX 7 13 8 14 9 15 12 16 11 17 10 18 4 20 20 22 17 24
REMARK H PARENT 10 19 4 21 20 23 17 25
REMARK Flexibility Score: inf
ROOT
ATOM      1  C   UNL     1     -13.583 -29.475 -12.590  1.00  0.00     0.180 A 
ATOM      2  C   UNL     1     -12.630 -29.875 -11.637  1.00  0.00     0.208 A 
ATOM      3  C   UNL     1     -12.423 -31.246 -11.415  1.00  0.00     0.238 A 
ATOM      4  O   UNL     1     -11.608 -31.598 -10.524  1.00  0.00    -0.285 OA
ATOM      5  C   UNL     1     -13.159 -32.199 -12.160  1.00  0.00     0.111 A 
ATOM      6  C   UNL     1     -13.002 -33.613 -12.046  1.00  0.00     0.134 A 
ATOM      7  C   UNL     1     -13.876 -34.463 -12.736  1.00  0.00     0.093 A 
ATOM      8  C   UNL     1     -14.855 -33.952 -13.585  1.00  0.00     0.123 A 
ATOM      9  C   UNL     1     -14.979 -32.572 -13.751  1.00  0.00     0.094 A 
ATOM     10  C   UNL     1     -14.146 -31.698 -13.047  1.00  0.00     0.146 A 
ATOM     11  O   UNL     1     -14.304 -30.392 -13.224  1.00  0.00    -0.452 OA
ENDROOT
BRANCH   1  12
ATOM     12  C   UNL     1     -13.839 -28.049 -12.897  1.00  0.00     0.021 A 
ATOM     13  C   UNL     1     -14.677 -27.299 -12.052  1.00  0.00     0.016 A 
ATOM     14  C   UNL     1     -14.951 -25.958 -12.336  1.00  0.00     0.047 A 
ATOM     15  C   UNL     1     -14.406 -25.354 -13.472  1.00  0.00     0.115 A 
ATOM     16  C   UNL     1     -13.310 -27.440 -14.049  1.00  0.00     0.016 A 
ATOM     17  C   UNL     1     -13.587 -26.099 -14.330  1.00  0.00     0.047 A 
BRANCH  15  18
ATOM     18  O   UNL     1     -14.686 -24.016 -13.742  1.00  0.00    -0.508 OA
ATOM     19  H   UNL     1     -14.596 -23.634 -14.676  1.00  0.00     0.293 HD
ENDBRANCH  15  18
ENDBRANCH   1  12
BRANCH   2  20
ATOM     20  O   UNL     1     -11.930 -28.917 -10.898  1.00  0.00    -0.502 OA
ATOM     21  H   UNL     1     -11.004 -28.600 -11.158  1.00  0.00     0.293 HD
ENDBRANCH   2  20
BRANCH   6  22
ATOM     22  O   UNL     1     -11.995 -34.229 -11.296  1.00  0.00    -0.507 OA
ATOM     23  H   UNL     1     -12.128 -35.041 -10.712  1.00  0.00     0.293 HD
ENDBRANCH   6  22
BRANCH   8  24
ATOM     24  O   UNL     1     -15.697 -34.827 -14.269  1.00  0.00    -0.508 OA
ATOM     25  H   UNL     1     -16.370 -35.406 -13.781  1.00  0.00     0.293 HD
ENDBRANCH   8  24
TORSDOF 5
ENDMDL
MODEL 2
REMARK VINA RESULT:    -7.750      0.072      1.059
REMARK INTER + INTRA:          -9.367
REMARK INTER:                  -9.122
REMARK INTRA:                  -0.245
REMARK UNBOUND:                -0.257
REMARK SMILES O=c1c(O)c(-c2ccc(O)cc2)oc2cc(O)cc(O)c12
REMARK SMILES IDX 5 1 3 2 2 3 1 4 21 5 19 6 18 7 16 8 15 9 14 10 13 11 6 12
REMARK SMILES IDX 7 13 8 14 9 15 12 16 11 17 10 18 4 20 20 22 17 24
REMARK H PARENT 10 19 4 21 20 23 17 25
REMARK Flexibility Score: inf
ROOT
ATOM      1  C   UNL     1     -13.615 -29.486 -12.620  1.00  0.00     0.180 A 
ATOM      2  C   UNL     1     -12.634 -29.878 -11.693  1.00  0.00     0.208 A 
ATOM      3  C   UNL     1     -12.397 -31.247 -11.490  1.00  0.00     0.238 A 
ATOM      4  O   UNL     1     -11.556 -31.593 -10.620  1.00  0.00    -0.285 OA
ATOM      5  C   UNL     1     -13.132 -32.206 -12.228  1.00  0.00     0.111 A 
ATOM      6  C   UNL     1     -12.946 -33.618 -12.133  1.00  0.00     0.134 A 
ATOM      7  C   UNL     1     -13.819 -34.477 -12.814  1.00  0.00     0.093 A 
ATOM      8  C   UNL     1     -14.826 -33.976 -13.635  1.00  0.00     0.123 A 
ATOM      9  C   UNL     1     -14.979 -32.596 -13.783  1.00  0.00     0.094 A 
ATOM     10  C   UNL     1     -14.147 -31.714 -13.089  1.00  0.00     0.146 A 
ATOM     11  O   UNL     1     -14.333 -30.409 -13.248  1.00  0.00    -0.452 OA
ENDROOT
BRANCH   1  12
ATOM     12  C   UNL     1     -13.904 -28.062 -12.906  1.00  0.00     0.021 A 
ATOM     13  C   UNL     1     -13.361 -27.463 -14.056  1.00  0.00     0.016 A 
ATOM     14  C   UNL     1     -13.602 -26.114 -14.333  1.00  0.00     0.047 A 
ATOM     15  C   UNL     1     -14.374 -25.343 -13.459  1.00  0.00     0.115 A 
ATOM     16  C   UNL     1     -14.663 -27.276 -12.020  1.00  0.00     0.016 A 
ATOM     17  C   UNL     1     -14.901 -25.927 -12.299  1.00  0.00     0.047 A 
BRANCH  15  18
ATOM     18  O   UNL     1     -14.607 -24.001 -13.748  1.00  0.00    -0.508 OA
ATOM     19  H   UNL     1     -14.887 -23.699 -14.674  1.00  0.00     0.293 HD
ENDBRANCH  15  18
ENDBRANCH   1  12
BRANCH   2  20
ATOM     20  O   UNL     1     -11.935 -28.915 -10.959  1.00  0.00    -0.502 OA
ATOM     21  H   UNL     1     -11.206 -28.343 -11.368  1.00  0.00     0.293 HD
ENDBRANCH   2  20
BRANCH   6  22
ATOM     22  O   UNL     1     -11.912 -34.222 -11.412  1.00  0.00    -0.507 OA
ATOM     23  H   UNL     1     -10.954 -34.283 -11.722  1.00  0.00     0.293 HD
ENDBRANCH   6  22
BRANCH   8  24
ATOM     24  O   UNL     1     -15.667 -34.859 -14.310  1.00  0.00    -0.508 OA
ATOM     25  H   UNL     1     -16.057 -34.632 -15.217  1.00  0.00     0.293 HD
ENDBRANCH   8  24
TORSDOF 5
ENDMDL
MODEL 3
REMARK VINA RESULT:    -7.553      1.688      3.619
REMARK INTER + INTRA:          -9.135
REMARK INTER:                  -8.971
REMARK INTRA:                  -0.164
REMARK UNBOUND:                -0.257
REMARK SMILES O=c1c(O)c(-c2ccc(O)cc2)oc2cc(O)cc(O)c12
REMARK SMILES IDX 5 1 3 2 2 3 1 4 21 5 19 6 18 7 16 8 15 9 14 10 13 11 6 12
REMARK SMILES IDX 7 13 8 14 9 15 12 16 11 17 10 18 4 20 20 22 17 24
REMARK H PARENT 10 19 4 21 20 23 17 25
REMARK Flexibility Score: inf
ROOT
ATOM      1  C   UNL     1     -13.252 -29.115 -11.858  1.00  0.00     0.180 A 
ATOM      2  C   UNL     1     -13.732 -30.316 -12.408  1.00  0.00     0.208 A 
ATOM      3  C   UNL     1     -13.334 -31.535 -11.835  1.00  0.00     0.238 A 
ATOM      4  O   UNL     1     -13.723 -32.608 -12.364  1.00  0.00    -0.285 OA
ATOM      5  C   UNL     1     -12.474 -31.536 -10.710  1.00  0.00     0.111 A 
ATOM      6  C   UNL     1     -12.039 -32.710 -10.024  1.00  0.00     0.134 A 
ATOM      7  C   UNL     1     -11.085 -32.600  -9.004  1.00  0.00     0.093 A 
ATOM      8  C   UNL     1     -10.601 -31.357  -8.603  1.00  0.00     0.123 A 
ATOM      9  C   UNL     1     -11.064 -30.198  -9.226  1.00  0.00     0.094 A 
ATOM     10  C   UNL     1     -11.988 -30.278 -10.271  1.00  0.00     0.146 A 
ATOM     11  O   UNL     1     -12.395 -29.152 -10.845  1.00  0.00    -0.452 OA
ENDROOT
BRANCH   1  12
ATOM     12  C   UNL     1     -13.647 -27.792 -12.392  1.00  0.00     0.021 A 
ATOM     13  C   UNL     1     -14.505 -26.970 -11.640  1.00  0.00     0.016 A 
ATOM     14  C   UNL     1     -14.909 -25.727 -12.136  1.00  0.00     0.047 A 
ATOM     15  C   UNL     1     -14.475 -25.295 -13.392  1.00  0.00     0.115 A 
ATOM     16  C   UNL     1     -13.229 -27.360 -13.664  1.00  0.00     0.016 A 
ATOM     17  C   UNL     1     -13.636 -26.116 -14.157  1.00  0.00     0.047 A 
BRANCH  15  18
ATOM     18  O   UNL     1     -14.884 -24.053 -13.873  1.00  0.00    -0.508 OA
ATOM     19  H   UNL     1     -15.401 -23.966 -14.741  1.00  0.00     0.293 HD
ENDBRANCH  15  18
ENDBRANCH   1  12
BRANCH   2  20
ATOM     20  O   UNL     1     -14.562 -30.293 -13.532  1.00  0.00    -0.502 OA
ATOM     21  H   UNL     1     -14.201 -30.189 -14.473  1.00  0.00     0.293 HD
ENDBRANCH   2  20
BRANCH   6  22
ATOM     22  O   UNL     1     -12.530 -33.993 -10.285  1.00  0.00    -0.507 OA
ATOM     23  H   UNL     1     -12.792 -34.334 -11.197  1.00  0.00     0.293 HD
ENDBRANCH   6  22
BRANCH   8  24
ATOM     24  O   UNL     1      -9.664 -31.284  -7.574  1.00  0.00    -0.508 OA
ATOM     25  H   UNL     1      -8.816 -30.736  -7.666  1.00  0.00     0.293 HD
ENDBRANCH   8  24
TORSDOF 5
ENDMDL
MODEL 4
REMARK VINA RESULT:    -7.456      4.745      7.571
REMARK INTER + INTRA:          -9.020
REMARK INTER:                  -8.728
REMARK INTRA:                  -0.292
REMARK UNBOUND:                -0.257
REMARK SMILES O=c1c(O)c(-c2ccc(O)cc2)oc2cc(O)cc(O)c12
REMARK SMILES IDX 5 1 3 2 2 3 1 4 21 5 19 6 18 7 16 8 15 9 14 10 13 11 6 12
REMARK SMILES IDX 7 13 8 14 9 15 12 16 11 17 10 18 4 20 20 22 17 24
REMARK H PARENT 10 19 4 21 20 23 17 25
REMARK Flexibility Score: inf
ROOT
ATOM      1  C   UNL     1     -15.973 -35.017 -13.168  1.00  0.00     0.180 A 
ATOM      2  C   UNL     1     -15.434 -35.195 -14.454  1.00  0.00     0.208 A 
ATOM      3  C   UNL     1     -14.106 -34.811 -14.695  1.00  0.00     0.238 A 
ATOM      4  O   UNL     1     -13.646 -34.923 -15.861  1.00  0.00    -0.285 OA
ATOM      5  C   UNL     1     -13.329 -34.267 -13.645  1.00  0.00     0.111 A 
ATOM      6  C   UNL     1     -11.960 -33.880 -13.766  1.00  0.00     0.134 A 
ATOM      7  C   UNL     1     -11.328 -33.232 -12.696  1.00  0.00     0.093 A 
ATOM      8  C   UNL     1     -11.993 -33.016 -11.491  1.00  0.00     0.123 A 
ATOM      9  C   UNL     1     -13.313 -33.445 -11.341  1.00  0.00     0.094 A 
ATOM     10  C   UNL     1     -13.981 -34.061 -12.402  1.00  0.00     0.146 A 
ATOM     11  O   UNL     1     -15.240 -34.443 -12.222  1.00  0.00    -0.452 OA
ENDROOT
BRANCH   1  12
ATOM     12  C   UNL     1     -17.357 -35.421 -12.832  1.00  0.00     0.021 A 
ATOM     13  C   UNL     1     -18.406 -34.498 -12.991  1.00  0.00     0.016 A 
ATOM     14  C   UNL     1     -19.717 -34.851 -12.657  1.00  0.00     0.047 A 
ATOM     15  C   UNL     1     -19.995 -36.122 -12.146  1.00  0.00     0.115 A 
ATOM     16  C   UNL     1     -17.641 -36.692 -12.299  1.00  0.00     0.016 A 
ATOM     17  C   UNL     1     -18.953 -37.041 -11.965  1.00  0.00     0.047 A 
BRANCH  15  18
ATOM     18  O   UNL     1     -21.306 -36.461 -11.819  1.00  0.00    -0.508 OA
ATOM     19  H   UNL     1     -21.622 -36.486 -10.856  1.00  0.00     0.293 HD
ENDBRANCH  15  18
ENDBRANCH   1  12
BRANCH   2  20
ATOM     20  O   UNL     1     -16.226 -35.714 -15.482  1.00  0.00    -0.502 OA
ATOM     21  H   UNL     1     -16.586 -35.140 -16.235  1.00  0.00     0.293 HD
ENDBRANCH   2  20
BRANCH   6  22
ATOM     22  O   UNL     1     -11.174 -34.132 -14.895  1.00  0.00    -0.507 OA
ATOM     23  H   UNL     1     -10.663 -33.429 -15.408  1.00  0.00     0.293 HD
ENDBRANCH   6  22
BRANCH   8  24
ATOM     24  O   UNL     1     -11.329 -32.383 -10.443  1.00  0.00    -0.508 OA
ATOM     25  H   UNL     1     -11.664 -32.444  -9.489  1.00  0.00     0.293 HD
ENDBRANCH   8  24
TORSDOF 5
ENDMDL
MODEL 5
REMARK VINA RESULT:    -7.403      1.494      3.430
REMARK INTER + INTRA:          -8.958
REMARK INTER:                  -8.714
REMARK INTRA:                  -0.245
REMARK UNBOUND:                -0.257
REMARK SMILES O=c1c(O)c(-c2ccc(O)cc2)oc2cc(O)cc(O)c12
REMARK SMILES IDX 5 1 3 2 2 3 1 4 21 5 19 6 18 7 16 8 15 9 14 10 13 11 6 12
REMARK SMILES IDX 7 13 8 14 9 15 12 16 11 17 10 18 4 20 20 22 17 24
REMARK H PARENT 10 19 4 21 20 23 17 25
REMARK Flexibility Score: inf
ROOT
ATOM      1  C   UNL     1     -13.545 -29.852 -12.169  1.00  0.00     0.180 A 
ATOM      2  C   UNL     1     -14.057 -30.961 -12.863  1.00  0.00     0.208 A 
ATOM      3  C   UNL     1     -13.718 -32.253 -12.428  1.00  0.00     0.238 A 
ATOM      4  O   UNL     1     -14.136 -33.241 -13.086  1.00  0.00    -0.285 OA
ATOM      5  C   UNL     1     -12.884 -32.418 -11.297  1.00  0.00     0.111 A 
ATOM      6  C   UNL     1     -12.509 -33.680 -10.745  1.00  0.00     0.134 A 
ATOM      7  C   UNL     1     -11.574 -33.728  -9.702  1.00  0.00     0.093 A 
ATOM      8  C   UNL     1     -11.052 -32.560  -9.151  1.00  0.00     0.123 A 
ATOM      9  C   UNL     1     -11.457 -31.318  -9.643  1.00  0.00     0.094 A 
ATOM     10  C   UNL     1     -12.361 -31.240 -10.706  1.00  0.00     0.146 A 
ATOM     11  O   UNL     1     -12.712 -30.039 -11.152  1.00  0.00    -0.452 OA
ENDROOT
BRANCH   1  12
ATOM     12  C   UNL     1     -13.877 -28.461 -12.552  1.00  0.00     0.021 A 
ATOM     13  C   UNL     1     -13.214 -27.865 -13.639  1.00  0.00     0.016 A 
ATOM     14  C   UNL     1     -13.496 -26.545 -14.003  1.00  0.00     0.047 A 
ATOM     15  C   UNL     1     -14.430 -25.799 -13.279  1.00  0.00     0.115 A 
ATOM     16  C   UNL     1     -14.802 -27.698 -11.815  1.00  0.00     0.016 A 
ATOM     17  C   UNL     1     -15.080 -26.378 -12.181  1.00  0.00     0.047 A 
BRANCH  15  18
ATOM     18  O   UNL     1     -14.702 -24.485 -13.654  1.00  0.00    -0.508 OA
ATOM     19  H   UNL     1     -14.675 -24.196 -14.625  1.00  0.00     0.293 HD
ENDBRANCH  15  18
ENDBRANCH   1  12
BRANCH   2  20
ATOM     20  O   UNL     1     -14.862 -30.774 -13.991  1.00  0.00    -0.502 OA
ATOM     21  H   UNL     1     -15.736 -30.264 -13.956  1.00  0.00     0.293 HD
ENDBRANCH   2  20
BRANCH   6  22
ATOM     22  O   UNL     1     -13.042 -34.904 -11.161  1.00  0.00    -0.507 OA
ATOM     23  H   UNL     1     -12.684 -35.808 -10.892  1.00  0.00     0.293 HD
ENDBRANCH   6  22
BRANCH   8  24
ATOM     24  O   UNL     1     -10.135 -32.644  -8.104  1.00  0.00    -0.508 OA
ATOM     25  H   UNL     1     -10.435 -32.793  -7.148  1.00  0.00     0.293 HD
ENDBRANCH   8  24
TORSDOF 5
ENDMDL
MODEL 6
REMARK VINA RESULT:    -6.964      2.265      3.870
REMARK INTER + INTRA:          -8.442
REMARK INTER:                  -8.207
REMARK INTRA:                  -0.236
REMARK UNBOUND:                -0.257
REMARK SMILES O=c1c(O)c(-c2ccc(O)cc2)oc2cc(O)cc(O)c12
REMARK SMILES IDX 5 1 3 2 2 3 1 4 21 5 19 6 18 7 16 8 15 9 14 10 13 11 6 12
REMARK SMILES IDX 7 13 8 14 9 15 12 16 11 17 10 18 4 20 20 22 17 24
REMARK H PARENT 10 19 4 21 20 23 17 25
REMARK Flexibility Score: inf
ROOT
ATOM      1  C   UNL     1     -13.770 -32.438 -13.294  1.00  0.00     0.180 A 
ATOM      2  C   UNL     1     -12.730 -33.150 -13.916  1.00  0.00     0.208 A 
ATOM      3  C   UNL     1     -12.978 -34.453 -14.378  1.00  0.00     0.238 A 
ATOM      4  O   UNL     1     -12.029 -35.106 -14.885  1.00  0.00    -0.285 OA
ATOM      5  C   UNL     1     -14.266 -35.020 -14.226  1.00  0.00     0.111 A 
ATOM      6  C   UNL     1     -14.640 -36.317 -14.692  1.00  0.00     0.134 A 
ATOM      7  C   UNL     1     -15.904 -36.828 -14.371  1.00  0.00     0.093 A 
ATOM      8  C   UNL     1     -16.829 -36.066 -13.659  1.00  0.00     0.123 A 
ATOM      9  C   UNL     1     -16.495 -34.774 -13.250  1.00  0.00     0.094 A 
ATOM     10  C   UNL     1     -15.229 -34.251 -13.524  1.00  0.00     0.146 A 
ATOM     11  O   UNL     1     -14.947 -33.022 -13.107  1.00  0.00    -0.452 OA
ENDROOT
BRANCH   1  12
ATOM     12  C   UNL     1     -13.592 -31.052 -12.804  1.00  0.00     0.021 A 
ATOM     13  C   UNL     1     -13.556 -29.991 -13.726  1.00  0.00     0.016 A 
ATOM     14  C   UNL     1     -13.365 -28.678 -13.288  1.00  0.00     0.047 A 
ATOM     15  C   UNL     1     -13.193 -28.408 -11.927  1.00  0.00     0.115 A 
ATOM     16  C   UNL     1     -13.398 -30.776 -11.439  1.00  0.00     0.016 A 
ATOM     17  C   UNL     1     -13.207 -29.461 -11.003  1.00  0.00     0.047 A 
BRANCH  15  18
ATOM     18  O   UNL     1     -13.006 -27.094 -11.504  1.00  0.00    -0.508 OA
ATOM     19  H   UNL     1     -13.790 -26.472 -11.346  1.00  0.00     0.293 HD
ENDBRANCH  15  18
ENDBRANCH   1  12
BRANCH   2  20
ATOM     20  O   UNL     1     -11.460 -32.579 -14.037  1.00  0.00    -0.502 OA
ATOM     21  H   UNL     1     -11.277 -31.608 -13.813  1.00  0.00     0.293 HD
ENDBRANCH   2  20
BRANCH   6  22
ATOM     22  O   UNL     1     -13.824 -37.125 -15.491  1.00  0.00    -0.507 OA
ATOM     23  H   UNL     1     -13.332 -37.943 -15.166  1.00  0.00     0.293 HD
ENDBRANCH   6  22
BRANCH   8  24
ATOM     24  O   UNL     1     -18.083 -36.600 -13.371  1.00  0.00    -0.508 OA
ATOM     25  H   UNL     1     -18.881 -36.006 -13.177  1.00  0.00     0.293 HD
ENDBRANCH   8  24
TORSDOF 5
ENDMDL
MODEL 7
REMARK VINA RESULT:    -6.731      4.038      7.181
REMARK INTER + INTRA:          -8.168
REMARK INTER:                  -7.869
REMARK INTRA:                  -0.299
REMARK UNBOUND:                -0.257
REMARK SMILES O=c1c(O)c(-c2ccc(O)cc2)oc2cc(O)cc(O)c12
REMARK SMILES IDX 5 1 3 2 2 3 1 4 21 5 19 6 18 7 16 8 15 9 14 10 13 11 6 12
REMARK SMILES IDX 7 13 8 14 9 15 12 16 11 17 10 18 4 20 20 22 17 24
REMARK H PARENT 10 19 4 21 20 23 17 25
REMARK Flexibility Score: inf
ROOT
ATOM      1  C   UNL     1     -14.140 -34.402 -12.637  1.00  0.00     0.180 A 
ATOM      2  C   UNL     1     -13.225 -34.596 -13.686  1.00  0.00     0.208 A 
ATOM      3  C   UNL     1     -12.016 -33.882 -13.677  1.00  0.00     0.238 A 
ATOM      4  O   UNL     1     -11.225 -34.019 -14.645  1.00  0.00    -0.285 OA
ATOM      5  C   UNL     1     -11.732 -32.994 -12.611  1.00  0.00     0.111 A 
ATOM      6  C   UNL     1     -10.522 -32.249 -12.479  1.00  0.00     0.134 A 
ATOM      7  C   UNL     1     -10.402 -31.302 -11.454  1.00  0.00     0.093 A 
ATOM      8  C   UNL     1     -11.420 -31.120 -10.520  1.00  0.00     0.123 A 
ATOM      9  C   UNL     1     -12.583 -31.886 -10.604  1.00  0.00     0.094 A 
ATOM     10  C   UNL     1     -12.747 -32.813 -11.637  1.00  0.00     0.146 A 
ATOM     11  O   UNL     1     -13.874 -33.513 -11.688  1.00  0.00    -0.452 OA
ENDROOT
BRANCH   1  12
ATOM     12  C   UNL     1     -15.423 -35.138 -12.566  1.00  0.00     0.021 A 
ATOM     13  C   UNL     1     -16.591 -34.545 -13.077  1.00  0.00     0.016 A 
ATOM     14  C   UNL     1     -17.817 -35.212 -12.999  1.00  0.00     0.047 A 
ATOM     15  C   UNL     1     -17.896 -36.470 -12.396  1.00  0.00     0.115 A 
ATOM     16  C   UNL     1     -15.513 -36.396 -11.943  1.00  0.00     0.016 A 
ATOM     17  C   UNL     1     -16.741 -37.060 -11.865  1.00  0.00     0.047 A 
BRANCH  15  18
ATOM     18  O   UNL     1     -19.124 -37.124 -12.326  1.00  0.00    -0.508 OA
ATOM     19  H   UNL     1     -19.666 -37.323 -13.159  1.00  0.00     0.293 HD
ENDBRANCH  15  18
ENDBRANCH   1  12
BRANCH   2  20
ATOM     20  O   UNL     1     -13.536 -35.462 -14.739  1.00  0.00    -0.502 OA
ATOM     21  H   UNL     1     -14.484 -35.758 -14.938  1.00  0.00     0.293 HD
ENDBRANCH   2  20
BRANCH   6  22
ATOM     22  O   UNL     1      -9.406 -32.419 -13.305  1.00  0.00    -0.507 OA
ATOM     23  H   UNL     1      -8.768 -33.199 -13.256  1.00  0.00     0.293 HD
ENDBRANCH   6  22
BRANCH   8  24
ATOM     24  O   UNL     1     -11.261 -30.181  -9.503  1.00  0.00    -0.508 OA
ATOM     25  H   UNL     1     -11.867 -30.169  -8.691  1.00  0.00     0.293 HD
ENDBRANCH   8  24
TORSDOF 5
ENDMDL
MODEL 8
REMARK VINA RESULT:    -6.719      1.544      6.562
REMARK INTER + INTRA:          -8.155
REMARK INTER:                  -7.943
REMARK INTRA:                  -0.212
REMARK UNBOUND:                -0.257
REMARK SMILES O=c1c(O)c(-c2ccc(O)cc2)oc2cc(O)cc(O)c12
REMARK SMILES IDX 5 1 3 2 2 3 1 4 21 5 19 6 18 7 16 8 15 9 14 10 13 11 6 12
REMARK SMILES IDX 7 13 8 14 9 15 12 16 11 17 10 18 4 20 20 22 17 24
REMARK H PARENT 10 19 4 21 20 23 17 25
REMARK Flexibility Score: inf
ROOT
ATOM      1  C   UNL     1     -13.386 -31.932 -12.495  1.00  0.00     0.180 A 
ATOM      2  C   UNL     1     -12.053 -31.709 -12.109  1.00  0.00     0.208 A 
ATOM      3  C   UNL     1     -11.637 -30.400 -11.818  1.00  0.00     0.238 A 
ATOM      4  O   UNL     1     -10.430 -30.199 -11.525  1.00  0.00    -0.285 OA
ATOM      5  C   UNL     1     -12.564 -29.333 -11.901  1.00  0.00     0.111 A 
ATOM      6  C   UNL     1     -12.263 -27.973 -11.589  1.00  0.00     0.134 A 
ATOM      7  C   UNL     1     -13.221 -26.980 -11.832  1.00  0.00     0.093 A 
ATOM      8  C   UNL     1     -14.488 -27.305 -12.313  1.00  0.00     0.123 A 
ATOM      9  C   UNL     1     -14.814 -28.639 -12.563  1.00  0.00     0.094 A 
ATOM     10  C   UNL     1     -13.867 -29.647 -12.366  1.00  0.00     0.146 A 
ATOM     11  O   UNL     1     -14.213 -30.902 -12.627  1.00  0.00    -0.452 OA
ENDROOT
BRANCH   1  12
ATOM     12  C   UNL     1     -13.903 -33.287 -12.793  1.00  0.00     0.021 A 
ATOM     13  C   UNL     1     -14.277 -33.610 -14.109  1.00  0.00     0.016 A 
ATOM     14  C   UNL     1     -14.790 -34.876 -14.409  1.00  0.00     0.047 A 
ATOM     15  C   UNL     1     -14.950 -35.828 -13.398  1.00  0.00     0.115 A 
ATOM     16  C   UNL     1     -14.086 -34.242 -11.777  1.00  0.00     0.016 A 
ATOM     17  C   UNL     1     -14.600 -35.507 -12.080  1.00  0.00     0.047 A 
BRANCH  15  18
ATOM     18  O   UNL     1     -15.461 -37.085 -13.712  1.00  0.00    -0.508 OA
ATOM     19  H   UNL     1     -15.003 -37.691 -14.382  1.00  0.00     0.293 HD
ENDBRANCH  15  18
ENDBRANCH   1  12
BRANCH   2  20
ATOM     20  O   UNL     1     -11.149 -32.775 -12.055  1.00  0.00    -0.502 OA
ATOM     21  H   UNL     1     -10.430 -32.842 -11.345  1.00  0.00     0.293 HD
ENDBRANCH   2  20
BRANCH   6  22
ATOM     22  O   UNL     1     -11.058 -27.550 -11.018  1.00  0.00    -0.507 OA
ATOM     23  H   UNL     1     -10.976 -26.831 -10.316  1.00  0.00     0.293 HD
ENDBRANCH   6  22
BRANCH   8  24
ATOM     24  O   UNL     1     -15.422 -26.294 -12.528  1.00  0.00    -0.508 OA
ATOM     25  H   UNL     1     -16.413 -26.446 -12.378  1.00  0.00     0.293 HD
ENDBRANCH   8  24
TORSDOF 5
ENDMDL
