MODEL 1
REMARK VINA RESULT:    -6.239      0.000      0.000
REMARK INTER + INTRA:          -7.119
REMARK INTER:                  -6.786
REMARK INTRA:                  -0.333
REMARK UNBOUND:                -0.333
REMARK SMILES C=C1C[C@]2(O)O[C@@]3(C[C@@H]2C(C)C)[C@@H]1CC[C@@H]3C
REMARK SMILES IDX 17 1 16 2 15 3 14 4 13 5 7 6 8 7 9 8 4 9 6 10 3 11 2 12 1 13
REMARK SMILES IDX 10 14 11 15 12 16 5 17
REMARK H PARENT 5 18
REMARK Flexibility Score: inf
ROOT
ATOM      1  C   UNL     1       7.185  28.599  33.056  1.00  0.00     0.011 C 
ATOM      2  C   UNL     1       6.497  27.515  32.201  1.00  0.00     0.019 C 
ATOM      3  C   UNL     1       4.976  27.583  32.385  1.00  0.00     0.007 C 
ATOM      4  C   UNL     1       4.427  28.441  31.241  1.00  0.00     0.011 C 
ATOM      5  C   UNL     1       5.599  28.721  30.289  1.00  0.00     0.047 C 
ATOM      6  C   UNL     1       6.688  27.702  30.685  1.00  0.00     0.081 C 
ATOM      7  C   UNL     1       8.097  28.128  30.233  1.00  0.00     0.046 C 
ATOM      8  C   UNL     1       8.254  27.407  28.898  1.00  0.00     0.054 C 
ATOM      9  C   UNL     1       6.888  26.696  28.712  1.00  0.00     0.173 C 
ATOM     10  O   UNL     1       6.418  26.484  30.021  1.00  0.00    -0.342 OA
ATOM     11  C   UNL     1       5.796  27.501  27.957  1.00  0.00     0.096 C 
ATOM     12  C   UNL     1       5.205  28.597  28.824  1.00  0.00    -0.066 C 
ATOM     13  C   UNL     1       4.334  29.464  28.289  1.00  0.00     0.008 C 
ENDROOT
BRANCH   8  14
ATOM     14  C   UNL     1       8.823  28.234  27.693  1.00  0.00    -0.009 C 
ATOM     15  C   UNL     1      10.330  27.977  27.530  1.00  0.00     0.008 C 
ATOM     16  C   UNL     1       8.584  29.756  27.754  1.00  0.00     0.008 C 
ENDBRANCH   8  14
BRANCH   9  17
ATOM     17  O   UNL     1       7.069  25.446  28.093  1.00  0.00    -0.365 OA
ATOM     18  H   UNL     1       6.232  24.928  28.224  1.00  0.00     0.214 HD
ENDBRANCH   9  17
TORSDOF 2
ENDMDL
MODEL 2
REMARK VINA RESULT:    -5.834      2.788      5.438
REMARK INTER + INTRA:          -6.679
REMARK INTER:                  -6.352
REMARK INTRA:                  -0.327
REMARK UNBOUND:                -0.333
REMARK SMILES C=C1C[C@]2(O)O[C@@]3(C[C@@H]2C(C)C)[C@@H]1CC[C@@H]3C
REMARK SMILES IDX 17 1 16 2 15 3 14 4 13 5 7 6 8 7 9 8 4 9 6 10 3 11 2 12 1 13
REMARK SMILES IDX 10 14 11 15 12 16 5 17
REMARK H PARENT 5 18
REMARK Flexibility Score: inf
ROOT
ATOM      1  C   UNL     1      10.169  28.570  25.614  1.00  0.00     0.011 C 
ATOM      2  C   UNL     1       8.832  29.282  25.325  1.00  0.00     0.019 C 
ATOM      3  C   UNL     1       8.448  29.110  23.851  1.00  0.00     0.007 C 
ATOM      4  C   UNL     1       7.505  27.905  23.773  1.00  0.00     0.011 C 
ATOM      5  C   UNL     1       7.193  27.487  25.218  1.00  0.00     0.047 C 
ATOM      6  C   UNL     1       7.632  28.686  26.084  1.00  0.00     0.081 C 
ATOM      7  C   UNL     1       7.891  28.299  27.552  1.00  0.00     0.046 C 
ATOM      8  C   UNL     1       6.558  28.617  28.223  1.00  0.00     0.054 C 
ATOM      9  C   UNL     1       5.669  29.096  27.046  1.00  0.00     0.173 C 
ATOM     10  O   UNL     1       6.577  29.625  26.110  1.00  0.00    -0.342 OA
ATOM     11  C   UNL     1       4.849  27.996  26.318  1.00  0.00     0.096 C 
ATOM     12  C   UNL     1       5.725  27.141  25.422  1.00  0.00    -0.066 C 
ATOM     13  C   UNL     1       5.199  26.070  24.813  1.00  0.00     0.008 C 
ENDROOT
BRANCH   8  14
ATOM     14  C   UNL     1       5.968  27.542  29.201  1.00  0.00    -0.009 C 
ATOM     15  C   UNL     1       5.594  28.188  30.545  1.00  0.00     0.008 C 
ATOM     16  C   UNL     1       6.867  26.318  29.471  1.00  0.00     0.008 C 
ENDBRANCH   8  14
BRANCH   9  17
ATOM     17  O   UNL     1       4.810  30.125  27.470  1.00  0.00    -0.365 OA
ATOM     18  H   UNL     1       5.158  30.975  27.092  1.00  0.00     0.214 HD
ENDBRANCH   9  17
TORSDOF 2
ENDMDL
MODEL 3
REMARK VINA RESULT:    -5.681      1.363      4.623
REMARK INTER + INTRA:          -6.512
REMARK INTER:                  -6.146
REMARK INTRA:                  -0.366
REMARK UNBOUND:                -0.333
REMARK SMILES C=C1C[C@]2(O)O[C@@]3(C[C@@H]2C(C)C)[C@@H]1CC[C@@H]3C
REMARK SMILES IDX 17 1 16 2 15 3 14 4 13 5 7 6 8 7 9 8 4 9 6 10 3 11 2 12 1 13
REMARK SMILES IDX 10 14 11 15 12 16 5 17
REMARK H PARENT 5 18
REMARK Flexibility Score: inf
ROOT
ATOM      1  C   UNL     1       4.855  29.204  26.353  1.00  0.00     0.011 C 
ATOM      2  C   UNL     1       5.668  27.898  26.462  1.00  0.00     0.019 C 
ATOM      3  C   UNL     1       6.810  27.898  25.439  1.00  0.00     0.007 C 
ATOM      4  C   UNL     1       8.058  28.408  26.165  1.00  0.00     0.011 C 
ATOM      5  C   UNL     1       7.692  28.532  27.652  1.00  0.00     0.047 C 
ATOM      6  C   UNL     1       6.388  27.723  27.811  1.00  0.00     0.081 C 
ATOM      7  C   UNL     1       5.584  28.127  29.060  1.00  0.00     0.046 C 
ATOM      8  C   UNL     1       6.050  27.115  30.102  1.00  0.00     0.054 C 
ATOM      9  C   UNL     1       7.116  26.283  29.342  1.00  0.00     0.173 C 
ATOM     10  O   UNL     1       6.730  26.364  27.991  1.00  0.00    -0.342 OA
ATOM     11  C   UNL     1       8.578  26.798  29.433  1.00  0.00     0.096 C 
ATOM     12  C   UNL     1       8.796  28.026  28.570  1.00  0.00    -0.066 C 
ATOM     13  C   UNL     1       9.970  28.671  28.624  1.00  0.00     0.008 C 
ENDROOT
BRANCH   8  14
ATOM     14  C   UNL     1       6.421  27.662  31.524  1.00  0.00    -0.009 C 
ATOM     15  C   UNL     1       5.364  27.236  32.556  1.00  0.00     0.008 C 
ATOM     16  C   UNL     1       6.623  29.188  31.623  1.00  0.00     0.008 C 
ENDBRANCH   8  14
BRANCH   9  17
ATOM     17  O   UNL     1       7.062  24.936  29.744  1.00  0.00    -0.365 OA
ATOM     18  H   UNL     1       7.230  24.913  30.722  1.00  0.00     0.214 HD
ENDBRANCH   9  17
TORSDOF 2
ENDMDL
MODEL 4
REMARK VINA RESULT:    -5.601      2.511      4.079
REMARK INTER + INTRA:          -6.426
REMARK INTER:                  -6.142
REMARK INTRA:                  -0.284
REMARK UNBOUND:                -0.333
REMARK SMILES C=C1C[C@]2(O)O[C@@]3(C[C@@H]2C(C)C)[C@@H]1CC[C@@H]3C
REMARK SMILES IDX 17 1 16 2 15 3 14 4 13 5 7 6 8 7 9 8 4 9 6 10 3 11 2 12 1 13
REMARK SMILES IDX 10 14 11 15 12 16 5 17
REMARK H PARENT 5 18
REMARK Flexibility Score: inf
ROOT
ATOM      1  C   UNL     1       2.464  28.629  28.249  1.00  0.00     0.011 C 
ATOM      2  C   UNL     1       3.779  29.404  28.469  1.00  0.00     0.019 C 
ATOM      3  C   UNL     1       4.119  29.457  29.963  1.00  0.00     0.007 C 
ATOM      4  C   UNL     1       5.080  28.297  30.242  1.00  0.00     0.011 C 
ATOM      5  C   UNL     1       5.444  27.681  28.884  1.00  0.00     0.047 C 
ATOM      6  C   UNL     1       5.012  28.731  27.840  1.00  0.00     0.081 C 
ATOM      7  C   UNL     1       4.807  28.129  26.438  1.00  0.00     0.046 C 
ATOM      8  C   UNL     1       6.154  28.375  25.766  1.00  0.00     0.054 C 
ATOM      9  C   UNL     1       6.998  29.039  26.886  1.00  0.00     0.173 C 
ATOM     10  O   UNL     1       6.052  29.679  27.708  1.00  0.00    -0.342 OA
ATOM     11  C   UNL     1       7.813  28.075  27.789  1.00  0.00     0.096 C 
ATOM     12  C   UNL     1       6.924  27.340  28.774  1.00  0.00    -0.066 C 
ATOM     13  C   UNL     1       7.449  26.380  29.549  1.00  0.00     0.008 C 
ENDROOT
BRANCH   8  14
ATOM     14  C   UNL     1       6.793  27.183  24.972  1.00  0.00    -0.009 C 
ATOM     15  C   UNL     1       7.496  27.698  23.705  1.00  0.00     0.008 C 
ATOM     16  C   UNL     1       5.828  26.048  24.578  1.00  0.00     0.008 C 
ENDBRANCH   8  14
BRANCH   9  17
ATOM     17  O   UNL     1       7.851  30.015  26.341  1.00  0.00    -0.365 OA
ATOM     18  H   UNL     1       7.286  30.782  26.064  1.00  0.00     0.214 HD
ENDBRANCH   9  17
TORSDOF 2
ENDMDL
MODEL 5
REMARK VINA RESULT:    -5.266      2.404      3.759
REMARK INTER + INTRA:          -6.061
REMARK INTER:                  -5.718
REMARK INTRA:                  -0.344
REMARK UNBOUND:                -0.333
REMARK SMILES C=C1C[C@]2(O)O[C@@]3(C[C@@H]2C(C)C)[C@@H]1CC[C@@H]3C
REMARK SMILES IDX 17 1 16 2 15 3 14 4 13 5 7 6 8 7 9 8 4 9 6 10 3 11 2 12 1 13
REMARK SMILES IDX 10 14 11 15 12 16 5 17
REMARK H PARENT 5 18
REMARK Flexibility Score: inf
ROOT
ATOM      1  C   UNL     1       7.117  25.643  30.082  1.00  0.00     0.011 C 
ATOM      2  C   UNL     1       6.366  26.941  29.722  1.00  0.00     0.019 C 
ATOM      3  C   UNL     1       6.816  28.085  30.638  1.00  0.00     0.007 C 
ATOM      4  C   UNL     1       7.918  28.845  29.893  1.00  0.00     0.011 C 
ATOM      5  C   UNL     1       7.983  28.260  28.474  1.00  0.00     0.047 C 
ATOM      6  C   UNL     1       6.671  27.466  28.308  1.00  0.00     0.081 C 
ATOM      7  C   UNL     1       6.754  26.402  27.199  1.00  0.00     0.046 C 
ATOM      8  C   UNL     1       6.179  27.131  25.989  1.00  0.00     0.054 C 
ATOM      9  C   UNL     1       5.886  28.554  26.534  1.00  0.00     0.173 C 
ATOM     10  O   UNL     1       5.656  28.366  27.909  1.00  0.00    -0.342 OA
ATOM     11  C   UNL     1       7.037  29.587  26.398  1.00  0.00     0.096 C 
ATOM     12  C   UNL     1       8.142  29.334  27.406  1.00  0.00    -0.066 C 
ATOM     13  C   UNL     1       9.267  30.060  27.349  1.00  0.00     0.008 C 
ENDROOT
BRANCH   8  14
ATOM     14  C   UNL     1       6.958  27.008  24.634  1.00  0.00    -0.009 C 
ATOM     15  C   UNL     1       6.305  25.947  23.734  1.00  0.00     0.008 C 
ATOM     16  C   UNL     1       8.464  26.699  24.753  1.00  0.00     0.008 C 
ENDBRANCH   8  14
BRANCH   9  17
ATOM     17  O   UNL     1       4.715  29.069  25.950  1.00  0.00    -0.365 OA
ATOM     18  H   UNL     1       3.983  28.426  26.137  1.00  0.00     0.214 HD
ENDBRANCH   9  17
TORSDOF 2
ENDMDL
MODEL 6
REMARK VINA RESULT:    -5.254      2.353      3.253
REMARK INTER + INTRA:          -6.048
REMARK INTER:                  -5.726
REMARK INTRA:                  -0.322
REMARK UNBOUND:                -0.333
REMARK SMILES C=C1C[C@]2(O)O[C@@]3(C[C@@H]2C(C)C)[C@@H]1CC[C@@H]3C
REMARK SMILES IDX 17 1 16 2 15 3 14 4 13 5 7 6 8 7 9 8 4 9 6 10 3 11 2 12 1 13
REMARK SMILES IDX 10 14 11 15 12 16 5 17
REMARK H PARENT 5 18
REMARK Flexibility Score: inf
ROOT
ATOM      1  C   UNL     1       9.083  27.547  29.391  1.00  0.00     0.011 C 
ATOM      2  C   UNL     1       7.870  26.738  28.887  1.00  0.00     0.019 C 
ATOM      3  C   UNL     1       6.781  26.689  29.966  1.00  0.00     0.007 C 
ATOM      4  C   UNL     1       5.800  27.825  29.660  1.00  0.00     0.011 C 
ATOM      5  C   UNL     1       6.212  28.419  28.305  1.00  0.00     0.047 C 
ATOM      6  C   UNL     1       7.156  27.372  27.680  1.00  0.00     0.081 C 
ATOM      7  C   UNL     1       8.072  27.967  26.594  1.00  0.00     0.046 C 
ATOM      8  C   UNL     1       7.302  27.679  25.310  1.00  0.00     0.054 C 
ATOM      9  C   UNL     1       6.001  27.002  25.815  1.00  0.00     0.173 C 
ATOM     10  O   UNL     1       6.368  26.395  27.031  1.00  0.00    -0.342 OA
ATOM     11  C   UNL     1       4.810  27.952  26.118  1.00  0.00     0.096 C 
ATOM     12  C   UNL     1       5.017  28.719  27.410  1.00  0.00    -0.066 C 
ATOM     13  C   UNL     1       4.140  29.671  27.760  1.00  0.00     0.008 C 
ENDROOT
BRANCH   8  14
ATOM     14  C   UNL     1       7.168  28.846  24.271  1.00  0.00    -0.009 C 
ATOM     15  C   UNL     1       7.554  28.361  22.865  1.00  0.00     0.008 C 
ATOM     16  C   UNL     1       7.970  30.124  24.592  1.00  0.00     0.008 C 
ENDBRANCH   8  14
BRANCH   9  17
ATOM     17  O   UNL     1       5.591  26.000  24.919  1.00  0.00    -0.365 OA
ATOM     18  H   UNL     1       4.787  25.566  25.307  1.00  0.00     0.214 HD
ENDBRANCH   9  17
TORSDOF 2
ENDMDL
MODEL 7
REMARK VINA RESULT:    -5.232      2.929      5.223
REMARK INTER + INTRA:          -6.024
REMARK INTER:                  -5.917
REMARK INTRA:                  -0.106
REMARK UNBOUND:                -0.333
REMARK SMILES C=C1C[C@]2(O)O[C@@]3(C[C@@H]2C(C)C)[C@@H]1CC[C@@H]3C
REMARK SMILES IDX 17 1 16 2 15 3 14 4 13 5 7 6 8 7 9 8 4 9 6 10 3 11 2 12 1 13
REMARK SMILES IDX 10 14 11 15 12 16 5 17
REMARK H PARENT 5 18
REMARK Flexibility Score: inf
ROOT
ATOM      1  C   UNL     1       6.001  26.052  24.507  1.00  0.00     0.011 C 
ATOM      2  C   UNL     1       6.337  27.491  24.950  1.00  0.00     0.019 C 
ATOM      3  C   UNL     1       5.333  27.968  26.006  1.00  0.00     0.007 C 
ATOM      4  C   UNL     1       5.963  27.695  27.375  1.00  0.00     0.011 C 
ATOM      5  C   UNL     1       7.404  27.231  27.120  1.00  0.00     0.047 C 
ATOM      6  C   UNL     1       7.698  27.624  25.658  1.00  0.00     0.081 C 
ATOM      7  C   UNL     1       8.856  26.816  25.044  1.00  0.00     0.046 C 
ATOM      8  C   UNL     1      10.058  27.726  25.272  1.00  0.00     0.054 C 
ATOM      9  C   UNL     1       9.457  28.928  26.046  1.00  0.00     0.173 C 
ATOM     10  O   UNL     1       8.111  28.975  25.636  1.00  0.00    -0.342 OA
ATOM     11  C   UNL     1       9.461  28.815  27.594  1.00  0.00     0.096 C 
ATOM     12  C   UNL     1       8.399  27.852  28.091  1.00  0.00    -0.066 C 
ATOM     13  C   UNL     1       8.344  27.545  29.394  1.00  0.00     0.008 C 
ENDROOT
BRANCH   8  14
ATOM     14  C   UNL     1      11.365  27.068  25.836  1.00  0.00    -0.009 C 
ATOM     15  C   UNL     1      12.548  28.043  25.724  1.00  0.00     0.008 C 
ATOM     16  C   UNL     1      11.768  25.724  25.196  1.00  0.00     0.008 C 
ENDBRANCH   8  14
BRANCH   9  17
ATOM     17  O   UNL     1      10.086  30.124  25.656  1.00  0.00    -0.365 OA
ATOM     18  H   UNL     1      10.897  30.229  26.219  1.00  0.00     0.214 HD
ENDBRANCH   9  17
TORSDOF 2
ENDMDL
MODEL 8
REMARK VINA RESULT:    -5.149      1.968      4.693
REMARK INTER + INTRA:          -5.933
REMARK INTER:                  -6.296
REMARK INTRA:                   0.363
REMARK UNBOUND:                -0.333
REMARK SMILES C=C1C[C@]2(O)O[C@@]3(C[C@@H]2C(C)C)[C@@H]1CC[C@@H]3C
REMARK SMILES IDX 17 1 16 2 15 3 14 4 13 5 7 6 8 7 9 8 4 9 6 10 3 11 2 12 1 13
REMARK SMILES IDX 10 14 11 15 12 16 5 17
REMARK H PARENT 5 18
REMARK Flexibility Score: inf
ROOT
ATOM      1  C   UNL     1      11.468  27.628  27.149  1.00  0.00     0.011 C 
ATOM      2  C   UNL     1      10.439  28.739  27.438  1.00  0.00     0.019 C 
ATOM      3  C   UNL     1       9.968  29.380  26.127  1.00  0.00     0.007 C 
ATOM      4  C   UNL     1       8.674  28.669  25.723  1.00  0.00     0.011 C 
ATOM      5  C   UNL     1       8.290  27.743  26.886  1.00  0.00     0.047 C 
ATOM      6  C   UNL     1       9.136  28.229  28.081  1.00  0.00     0.081 C 
ATOM      7  C   UNL     1       9.300  27.156  29.172  1.00  0.00     0.046 C 
ATOM      8  C   UNL     1       8.176  27.493  30.147  1.00  0.00     0.054 C 
ATOM      9  C   UNL     1       7.458  28.689  29.467  1.00  0.00     0.173 C 
ATOM     10  O   UNL     1       8.458  29.308  28.694  1.00  0.00    -0.342 OA
ATOM     11  C   UNL     1       6.292  28.330  28.507  1.00  0.00     0.096 C 
ATOM     12  C   UNL     1       6.798  27.773  27.191  1.00  0.00    -0.066 C 
ATOM     13  C   UNL     1       5.922  27.300  26.293  1.00  0.00     0.008 C 
ENDROOT
BRANCH   8  14
ATOM     14  C   UNL     1       7.293  26.307  30.669  1.00  0.00    -0.009 C 
ATOM     15  C   UNL     1       6.882  25.391  29.505  1.00  0.00     0.008 C 
ATOM     16  C   UNL     1       6.028  26.709  31.455  1.00  0.00     0.008 C 
ENDBRANCH   8  14
BRANCH   9  17
ATOM     17  O   UNL     1       7.010  29.605  30.436  1.00  0.00    -0.365 OA
ATOM     18  H   UNL     1       6.953  29.118  31.299  1.00  0.00     0.214 HD
ENDBRANCH   9  17
TORSDOF 2
ENDMDL
MODEL 9
REMARK VINA RESULT:    -5.127      3.261      4.832
REMARK INTER + INTRA:          -5.910
REMARK INTER:                  -5.580
REMARK INTRA:                  -0.330
REMARK UNBOUND:                -0.333
REMARK SMILES C=C1C[C@]2(O)O[C@@]3(C[C@@H]2C(C)C)[C@@H]1CC[C@@H]3C
REMARK SMILES IDX 17 1 16 2 15 3 14 4 13 5 7 6 8 7 9 8 4 9 6 10 3 11 2 12 1 13
REMARK SMILES IDX 10 14 11 15 12 16 5 17
REMARK H PARENT 5 18
REMARK Flexibility Score: inf
ROOT
ATOM      1  C   UNL     1      10.780  28.987  27.182  1.00  0.00     0.011 C 
ATOM      2  C   UNL     1       9.697  27.892  27.269  1.00  0.00     0.019 C 
ATOM      3  C   UNL     1       8.906  28.033  28.575  1.00  0.00     0.007 C 
ATOM      4  C   UNL     1       7.655  28.855  28.251  1.00  0.00     0.011 C 
ATOM      5  C   UNL     1       7.621  29.038  26.727  1.00  0.00     0.047 C 
ATOM      6  C   UNL     1       8.617  27.995  26.177  1.00  0.00     0.081 C 
ATOM      7  C   UNL     1       9.121  28.338  24.764  1.00  0.00     0.046 C 
ATOM      8  C   UNL     1       8.175  27.545  23.868  1.00  0.00     0.054 C 
ATOM      9  C   UNL     1       7.198  26.884  24.874  1.00  0.00     0.173 C 
ATOM     10  O   UNL     1       7.944  26.758  26.061  1.00  0.00    -0.342 OA
ATOM     11  C   UNL     1       5.920  27.696  25.220  1.00  0.00     0.096 C 
ATOM     12  C   UNL     1       6.226  28.858  26.146  1.00  0.00    -0.066 C 
ATOM     13  C   UNL     1       5.257  29.733  26.449  1.00  0.00     0.008 C 
ENDROOT
BRANCH   8  14
ATOM     14  C   UNL     1       7.564  28.286  22.628  1.00  0.00    -0.009 C 
ATOM     15  C   UNL     1       7.808  27.475  21.345  1.00  0.00     0.008 C 
ATOM     16  C   UNL     1       8.055  29.731  22.403  1.00  0.00     0.008 C 
ENDBRANCH   8  14
BRANCH   9  17
ATOM     17  O   UNL     1       6.837  25.598  24.433  1.00  0.00    -0.365 OA
ATOM     18  H   UNL     1       6.216  25.712  23.667  1.00  0.00     0.214 HD
ENDBRANCH   9  17
TORSDOF 2
ENDMDL
