MODEL 1
REMARK VINA RESULT:    -4.093      0.000      0.000
REMARK INTER + INTRA:         -10.498
REMARK INTER:                  -7.921
REMARK INTRA:                  -2.576
REMARK UNBOUND:                -2.576
REMARK SMILES CCCCCCCCCCCCCCCCCC(=O)[O-]
REMARK SMILES IDX 10 1 11 2 12 3 13 4 14 5 15 6 16 7 17 8 18 9 19 10 20 11
REMARK SMILES IDX 9 12 8 13 7 14 6 15 5 16 4 17 3 18 2 19 1 20
REMARK H PARENT
REMARK Flexibility Score: inf
ROOT
ATOM      1  C   UNL     1      47.814  -7.518 -54.575  1.00  0.00     0.000 C 
ENDROOT
BRANCH   1   2
ATOM      2  C   UNL     1      48.284  -8.357 -55.773  1.00  0.00     0.000 C 
BRANCH   2   3
ATOM      3  C   UNL     1      47.955  -7.701 -57.127  1.00  0.00     0.000 C 
BRANCH   3   4
ATOM      4  C   UNL     1      48.511  -8.438 -58.362  1.00  0.00     0.000 C 
BRANCH   4   5
ATOM      5  C   UNL     1      47.492  -9.307 -59.119  1.00  0.00     0.000 C 
BRANCH   5   6
ATOM      6  C   UNL     1      47.655 -10.807 -58.831  1.00  0.00     0.000 C 
BRANCH   6   7
ATOM      7  C   UNL     1      46.897 -11.205 -57.555  1.00  0.00     0.006 C 
BRANCH   7   8
ATOM      8  C   UNL     1      47.055 -12.695 -57.228  1.00  0.00     0.053 C 
BRANCH   8   9
ATOM      9  C   UNL     1      48.179 -12.939 -56.268  1.00  0.00     0.041 C 
ATOM     10  O   UNL     1      48.538 -14.115 -55.999  1.00  0.00    -0.550 OA
ATOM     11  O   UNL     1      48.855 -11.866 -55.699  1.00  0.00    -0.550 OA
ENDBRANCH   8   9
ENDBRANCH   7   8
ENDBRANCH   6   7
ENDBRANCH   5   6
ENDBRANCH   4   5
ENDBRANCH   3   4
ENDBRANCH   2   3
ENDBRANCH   1   2
BRANCH   1  12
ATOM     12  C   UNL     1      48.991  -7.178 -53.648  1.00  0.00     0.000 C 
BRANCH  12  13
ATOM     13  C   UNL     1      50.363  -7.398 -54.310  1.00  0.00    -0.000 C 
BRANCH  13  14
ATOM     14  C   UNL     1      51.032  -6.130 -54.873  1.00  0.00    -0.000 C 
BRANCH  14  15
ATOM     15  C   UNL     1      51.388  -6.252 -56.365  1.00  0.00    -0.000 C 
BRANCH  15  16
ATOM     16  C   UNL     1      50.837  -5.091 -57.212  1.00  0.00    -0.000 C 
BRANCH  16  17
ATOM     17  C   UNL     1      49.981  -4.064 -56.447  1.00  0.00    -0.000 C 
BRANCH  17  18
ATOM     18  C   UNL     1      48.495  -4.109 -56.841  1.00  0.00    -0.000 C 
BRANCH  18  19
ATOM     19  C   UNL     1      47.562  -4.116 -55.620  1.00  0.00    -0.003 C 
ATOM     20  C   UNL     1      48.253  -3.638 -54.342  1.00  0.00     0.004 C 
ENDBRANCH  18  19
ENDBRANCH  17  18
ENDBRANCH  16  17
ENDBRANCH  15  16
ENDBRANCH  14  15
ENDBRANCH  13  14
ENDBRANCH  12  13
ENDBRANCH   1  12
TORSDOF 16
ENDMDL
MODEL 2
REMARK VINA RESULT:    -4.079      1.467      2.715
REMARK INTER + INTRA:         -10.471
REMARK INTER:                  -8.547
REMARK INTRA:                  -1.924
REMARK UNBOUND:                -2.576
REMARK SMILES CCCCCCCCCCCCCCCCCC(=O)[O-]
REMARK SMILES IDX 10 1 11 2 12 3 13 4 14 5 15 6 16 7 17 8 18 9 19 10 20 11
REMARK SMILES IDX 9 12 8 13 7 14 6 15 5 16 4 17 3 18 2 19 1 20
REMARK H PARENT
REMARK Flexibility Score: inf
ROOT
ATOM      1  C   UNL     1      48.087  -8.573 -55.768  1.00  0.00     0.000 C 
ENDROOT
BRANCH   1   2
ATOM      2  C   UNL     1      47.183  -8.408 -56.999  1.00  0.00     0.000 C 
BRANCH   2   3
ATOM      3  C   UNL     1      47.879  -8.816 -58.310  1.00  0.00     0.000 C 
BRANCH   3   4
ATOM      4  C   UNL     1      47.705 -10.295 -58.710  1.00  0.00     0.000 C 
BRANCH   4   5
ATOM      5  C   UNL     1      46.569 -11.039 -57.986  1.00  0.00     0.000 C 
BRANCH   5   6
ATOM      6  C   UNL     1      47.028 -12.365 -57.361  1.00  0.00     0.000 C 
BRANCH   6   7
ATOM      7  C   UNL     1      48.238 -12.147 -56.441  1.00  0.00     0.006 C 
BRANCH   7   8
ATOM      8  C   UNL     1      48.945 -13.462 -56.090  1.00  0.00     0.053 C 
BRANCH   8   9
ATOM      9  C   UNL     1      47.967 -14.553 -55.775  1.00  0.00     0.041 C 
ATOM     10  O   UNL     1      47.913 -15.582 -56.497  1.00  0.00    -0.550 OA
ATOM     11  O   UNL     1      47.140 -14.448 -54.663  1.00  0.00    -0.550 OA
ENDBRANCH   8   9
ENDBRANCH   7   8
ENDBRANCH   6   7
ENDBRANCH   5   6
ENDBRANCH   4   5
ENDBRANCH   3   4
ENDBRANCH   2   3
ENDBRANCH   1   2
BRANCH   1  12
ATOM     12  C   UNL     1      47.620  -7.666 -54.619  1.00  0.00     0.000 C 
BRANCH  12  13
ATOM     13  C   UNL     1      48.786  -7.022 -53.846  1.00  0.00    -0.000 C 
BRANCH  13  14
ATOM     14  C   UNL     1      50.190  -7.515 -54.245  1.00  0.00    -0.000 C 
BRANCH  14  15
ATOM     15  C   UNL     1      51.098  -6.385 -54.761  1.00  0.00    -0.000 C 
BRANCH  15  16
ATOM     16  C   UNL     1      50.313  -5.228 -55.404  1.00  0.00    -0.000 C 
BRANCH  16  17
ATOM     17  C   UNL     1      50.079  -5.352 -56.921  1.00  0.00    -0.000 C 
BRANCH  17  18
ATOM     18  C   UNL     1      50.968  -6.420 -57.581  1.00  0.00    -0.000 C 
BRANCH  18  19
ATOM     19  C   UNL     1      51.881  -5.835 -58.671  1.00  0.00    -0.003 C 
ATOM     20  C   UNL     1      53.077  -5.073 -58.098  1.00  0.00     0.004 C 
ENDBRANCH  18  19
ENDBRANCH  17  18
ENDBRANCH  16  17
ENDBRANCH  15  16
ENDBRANCH  14  15
ENDBRANCH  13  14
ENDBRANCH  12  13
ENDBRANCH   1  12
TORSDOF 16
ENDMDL
MODEL 3
REMARK VINA RESULT:    -4.070      1.728      2.969
REMARK INTER + INTRA:         -10.452
REMARK INTER:                  -8.310
REMARK INTRA:                  -2.142
REMARK UNBOUND:                -2.576
REMARK SMILES CCCCCCCCCCCCCCCCCC(=O)[O-]
REMARK SMILES IDX 10 1 11 2 12 3 13 4 14 5 15 6 16 7 17 8 18 9 19 10 20 11
REMARK SMILES IDX 9 12 8 13 7 14 6 15 5 16 4 17 3 18 2 19 1 20
REMARK H PARENT
REMARK Flexibility Score: inf
ROOT
ATOM      1  C   UNL     1      48.683  -7.715 -57.753  1.00  0.00     0.000 C 
ENDROOT
BRANCH   1   2
ATOM      2  C   UNL     1      47.210  -7.283 -57.790  1.00  0.00     0.000 C 
BRANCH   2   3
ATOM      3  C   UNL     1      46.295  -8.206 -56.965  1.00  0.00     0.000 C 
BRANCH   3   4
ATOM      4  C   UNL     1      46.856  -9.618 -56.701  1.00  0.00     0.000 C 
BRANCH   4   5
ATOM      5  C   UNL     1      46.464 -10.682 -57.741  1.00  0.00     0.000 C 
BRANCH   5   6
ATOM      6  C   UNL     1      47.366 -11.925 -57.691  1.00  0.00     0.000 C 
BRANCH   6   7
ATOM      7  C   UNL     1      48.149 -11.981 -56.371  1.00  0.00     0.006 C 
BRANCH   7   8
ATOM      8  C   UNL     1      48.815 -13.344 -56.148  1.00  0.00     0.053 C 
BRANCH   8   9
ATOM      9  C   UNL     1      47.811 -14.409 -55.829  1.00  0.00     0.041 C 
ATOM     10  O   UNL     1      47.573 -15.324 -56.659  1.00  0.00    -0.550 OA
ATOM     11  O   UNL     1      47.164 -14.410 -54.598  1.00  0.00    -0.550 OA
ENDBRANCH   8   9
ENDBRANCH   7   8
ENDBRANCH   6   7
ENDBRANCH   5   6
ENDBRANCH   4   5
ENDBRANCH   3   4
ENDBRANCH   2   3
ENDBRANCH   1   2
BRANCH   1  12
ATOM     12  C   UNL     1      49.414  -7.287 -59.035  1.00  0.00     0.000 C 
BRANCH  12  13
ATOM     13  C   UNL     1      50.335  -6.071 -58.826  1.00  0.00    -0.000 C 
BRANCH  13  14
ATOM     14  C   UNL     1      51.748  -6.398 -58.307  1.00  0.00    -0.000 C 
BRANCH  14  15
ATOM     15  C   UNL     1      52.042  -5.773 -56.932  1.00  0.00    -0.000 C 
BRANCH  15  16
ATOM     16  C   UNL     1      50.851  -4.981 -56.364  1.00  0.00    -0.000 C 
BRANCH  16  17
ATOM     17  C   UNL     1      50.324  -5.467 -55.002  1.00  0.00    -0.000 C 
BRANCH  17  18
ATOM     18  C   UNL     1      50.724  -6.919 -54.686  1.00  0.00    -0.000 C 
BRANCH  18  19
ATOM     19  C   UNL     1      49.553  -7.743 -54.127  1.00  0.00    -0.003 C 
ATOM     20  C   UNL     1      48.259  -6.937 -54.017  1.00  0.00     0.004 C 
ENDBRANCH  18  19
ENDBRANCH  17  18
ENDBRANCH  16  17
ENDBRANCH  15  16
ENDBRANCH  14  15
ENDBRANCH  13  14
ENDBRANCH  12  13
ENDBRANCH   1  12
TORSDOF 16
ENDMDL
MODEL 4
REMARK VINA RESULT:    -3.970      3.087      6.834
REMARK INTER + INTRA:         -10.260
REMARK INTER:                  -7.636
REMARK INTRA:                  -2.623
REMARK UNBOUND:                -2.576
REMARK SMILES CCCCCCCCCCCCCCCCCC(=O)[O-]
REMARK SMILES IDX 10 1 11 2 12 3 13 4 14 5 15 6 16 7 17 8 18 9 19 10 20 11
REMARK SMILES IDX 9 12 8 13 7 14 6 15 5 16 4 17 3 18 2 19 1 20
REMARK H PARENT
REMARK Flexibility Score: inf
ROOT
ATOM      1  C   UNL     1      48.165  -8.223 -55.133  1.00  0.00     0.000 C 
ENDROOT
BRANCH   1   2
ATOM      2  C   UNL     1      48.908  -7.370 -54.094  1.00  0.00     0.000 C 
BRANCH   2   3
ATOM      3  C   UNL     1      50.437  -7.410 -54.270  1.00  0.00     0.000 C 
BRANCH   3   4
ATOM      4  C   UNL     1      51.035  -6.229 -55.061  1.00  0.00     0.000 C 
BRANCH   4   5
ATOM      5  C   UNL     1      50.324  -4.879 -54.856  1.00  0.00     0.000 C 
BRANCH   5   6
ATOM      6  C   UNL     1      49.506  -4.444 -56.081  1.00  0.00     0.000 C 
BRANCH   6   7
ATOM      7  C   UNL     1      48.255  -3.661 -55.654  1.00  0.00     0.006 C 
BRANCH   7   8
ATOM      8  C   UNL     1      47.987  -3.769 -54.148  1.00  0.00     0.053 C 
BRANCH   8   9
ATOM      9  C   UNL     1      46.521  -3.755 -53.840  1.00  0.00     0.041 C 
ATOM     10  O   UNL     1      45.697  -4.235 -54.661  1.00  0.00    -0.550 OA
ATOM     11  O   UNL     1      46.069  -3.242 -52.630  1.00  0.00    -0.550 OA
ENDBRANCH   8   9
ENDBRANCH   7   8
ENDBRANCH   6   7
ENDBRANCH   5   6
ENDBRANCH   4   5
ENDBRANCH   3   4
ENDBRANCH   2   3
ENDBRANCH   1   2
BRANCH   1  12
ATOM     12  C   UNL     1      47.026  -7.426 -55.786  1.00  0.00     0.000 C 
BRANCH  12  13
ATOM     13  C   UNL     1      47.203  -7.256 -57.306  1.00  0.00    -0.000 C 
BRANCH  13  14
ATOM     14  C   UNL     1      48.644  -7.424 -57.823  1.00  0.00    -0.000 C 
BRANCH  14  15
ATOM     15  C   UNL     1      48.752  -8.424 -58.987  1.00  0.00    -0.000 C 
BRANCH  15  16
ATOM     16  C   UNL     1      47.512  -9.327 -59.120  1.00  0.00    -0.000 C 
BRANCH  16  17
ATOM     17  C   UNL     1      47.720 -10.798 -58.715  1.00  0.00    -0.000 C 
BRANCH  17  18
ATOM     18  C   UNL     1      47.160 -11.122 -57.319  1.00  0.00    -0.000 C 
BRANCH  18  19
ATOM     19  C   UNL     1      48.251 -11.584 -56.340  1.00  0.00    -0.003 C 
ATOM     20  C   UNL     1      48.225 -13.092 -56.089  1.00  0.00     0.004 C 
ENDBRANCH  18  19
ENDBRANCH  17  18
ENDBRANCH  16  17
ENDBRANCH  15  16
ENDBRANCH  14  15
ENDBRANCH  13  14
ENDBRANCH  12  13
ENDBRANCH   1  12
TORSDOF 16
ENDMDL
MODEL 5
REMARK VINA RESULT:    -3.958      4.045      5.909
REMARK INTER + INTRA:         -10.236
REMARK INTER:                  -7.146
REMARK INTRA:                  -3.090
REMARK UNBOUND:                -2.576
REMARK SMILES CCCCCCCCCCCCCCCCCC(=O)[O-]
REMARK SMILES IDX 10 1 11 2 12 3 13 4 14 5 15 6 16 7 17 8 18 9 19 10 20 11
REMARK SMILES IDX 9 12 8 13 7 14 6 15 5 16 4 17 3 18 2 19 1 20
REMARK H PARENT
REMARK Flexibility Score: inf
ROOT
ATOM      1  C   UNL     1      50.193  -4.184 -55.972  1.00  0.00     0.000 C 
ENDROOT
BRANCH   1   2
ATOM      2  C   UNL     1      50.308  -5.019 -54.688  1.00  0.00     0.000 C 
BRANCH   2   3
ATOM      3  C   UNL     1      50.870  -6.430 -54.941  1.00  0.00     0.000 C 
BRANCH   3   4
ATOM      4  C   UNL     1      49.977  -7.587 -54.450  1.00  0.00     0.000 C 
BRANCH   4   5
ATOM      5  C   UNL     1      48.671  -7.157 -53.760  1.00  0.00     0.000 C 
BRANCH   5   6
ATOM      6  C   UNL     1      47.418  -7.549 -54.558  1.00  0.00     0.000 C 
BRANCH   6   7
ATOM      7  C   UNL     1      46.418  -6.384 -54.615  1.00  0.00     0.006 C 
BRANCH   7   8
ATOM      8  C   UNL     1      45.970  -5.934 -53.218  1.00  0.00     0.053 C 
BRANCH   8   9
ATOM      9  C   UNL     1      46.004  -4.444 -53.075  1.00  0.00     0.041 C 
ATOM     10  O   UNL     1      45.060  -3.842 -52.499  1.00  0.00    -0.550 OA
ATOM     11  O   UNL     1      47.094  -3.723 -53.547  1.00  0.00    -0.550 OA
ENDBRANCH   8   9
ENDBRANCH   7   8
ENDBRANCH   6   7
ENDBRANCH   5   6
ENDBRANCH   4   5
ENDBRANCH   3   4
ENDBRANCH   2   3
ENDBRANCH   1   2
BRANCH   1  12
ATOM     12  C   UNL     1      48.748  -4.174 -56.493  1.00  0.00     0.000 C 
BRANCH  12  13
ATOM     13  C   UNL     1      48.599  -4.848 -57.869  1.00  0.00    -0.000 C 
BRANCH  13  14
ATOM     14  C   UNL     1      48.381  -6.372 -57.834  1.00  0.00    -0.000 C 
BRANCH  14  15
ATOM     15  C   UNL     1      49.577  -7.162 -58.394  1.00  0.00    -0.000 C 
BRANCH  15  16
ATOM     16  C   UNL     1      50.647  -6.260 -59.034  1.00  0.00    -0.000 C 
BRANCH  16  17
ATOM     17  C   UNL     1      52.105  -6.636 -58.713  1.00  0.00    -0.000 C 
BRANCH  17  18
ATOM     18  C   UNL     1      52.904  -5.474 -58.097  1.00  0.00    -0.000 C 
BRANCH  18  19
ATOM     19  C   UNL     1      52.482  -4.107 -58.659  1.00  0.00    -0.003 C 
ATOM     20  C   UNL     1      53.280  -2.948 -58.061  1.00  0.00     0.004 C 
ENDBRANCH  18  19
ENDBRANCH  17  18
ENDBRANCH  16  17
ENDBRANCH  15  16
ENDBRANCH  14  15
ENDBRANCH  13  14
ENDBRANCH  12  13
ENDBRANCH   1  12
TORSDOF 16
ENDMDL
MODEL 6
REMARK VINA RESULT:    -3.944      1.854      3.703
REMARK INTER + INTRA:         -10.210
REMARK INTER:                  -8.457
REMARK INTRA:                  -1.753
REMARK UNBOUND:                -2.576
REMARK SMILES CCCCCCCCCCCCCCCCCC(=O)[O-]
REMARK SMILES IDX 10 1 11 2 12 3 13 4 14 5 15 6 16 7 17 8 18 9 19 10 20 11
REMARK SMILES IDX 9 12 8 13 7 14 6 15 5 16 4 17 3 18 2 19 1 20
REMARK H PARENT
REMARK Flexibility Score: inf
ROOT
ATOM      1  C   UNL     1      47.224  -8.913 -57.826  1.00  0.00     0.000 C 
ENDROOT
BRANCH   1   2
ATOM      2  C   UNL     1      47.762  -9.762 -58.987  1.00  0.00     0.000 C 
BRANCH   2   3
ATOM      3  C   UNL     1      47.816 -11.264 -58.656  1.00  0.00     0.000 C 
BRANCH   3   4
ATOM      4  C   UNL     1      47.273 -11.646 -57.264  1.00  0.00     0.000 C 
BRANCH   4   5
ATOM      5  C   UNL     1      48.346 -11.898 -56.190  1.00  0.00     0.000 C 
BRANCH   5   6
ATOM      6  C   UNL     1      48.809 -13.363 -56.142  1.00  0.00     0.000 C 
BRANCH   6   7
ATOM      7  C   UNL     1      47.759 -14.246 -55.451  1.00  0.00     0.006 C 
BRANCH   7   8
ATOM      8  C   UNL     1      47.930 -15.730 -55.798  1.00  0.00     0.053 C 
BRANCH   8   9
ATOM      9  C   UNL     1      47.177 -16.104 -57.038  1.00  0.00     0.041 C 
ATOM     10  O   UNL     1      47.484 -17.144 -57.676  1.00  0.00    -0.550 OA
ATOM     11  O   UNL     1      46.113 -15.320 -57.469  1.00  0.00    -0.550 OA
ENDBRANCH   8   9
ENDBRANCH   7   8
ENDBRANCH   6   7
ENDBRANCH   5   6
ENDBRANCH   4   5
ENDBRANCH   3   4
ENDBRANCH   2   3
ENDBRANCH   1   2
BRANCH   1  12
ATOM     12  C   UNL     1      47.890  -7.529 -57.801  1.00  0.00     0.000 C 
BRANCH  12  13
ATOM     13  C   UNL     1      49.226  -7.490 -58.566  1.00  0.00    -0.000 C 
BRANCH  13  14
ATOM     14  C   UNL     1      49.906  -6.109 -58.631  1.00  0.00    -0.000 C 
BRANCH  14  15
ATOM     15  C   UNL     1      50.129  -5.484 -57.243  1.00  0.00    -0.000 C 
BRANCH  15  16
ATOM     16  C   UNL     1      51.352  -6.066 -56.511  1.00  0.00    -0.000 C 
BRANCH  16  17
ATOM     17  C   UNL     1      51.127  -6.420 -55.029  1.00  0.00    -0.000 C 
BRANCH  17  18
ATOM     18  C   UNL     1      49.754  -5.965 -54.504  1.00  0.00    -0.000 C 
BRANCH  18  19
ATOM     19  C   UNL     1      48.898  -7.138 -54.001  1.00  0.00    -0.003 C 
ATOM     20  C   UNL     1      49.385  -8.492 -54.516  1.00  0.00     0.004 C 
ENDBRANCH  18  19
ENDBRANCH  17  18
ENDBRANCH  16  17
ENDBRANCH  15  16
ENDBRANCH  14  15
ENDBRANCH  13  14
ENDBRANCH  12  13
ENDBRANCH   1  12
TORSDOF 16
ENDMDL
MODEL 7
REMARK VINA RESULT:    -3.934      1.307      2.483
REMARK INTER + INTRA:         -10.190
REMARK INTER:                  -7.803
REMARK INTRA:                  -2.387
REMARK UNBOUND:                -2.576
REMARK SMILES CCCCCCCCCCCCCCCCCC(=O)[O-]
REMARK SMILES IDX 10 1 11 2 12 3 13 4 14 5 15 6 16 7 17 8 18 9 19 10 20 11
REMARK SMILES IDX 9 12 8 13 7 14 6 15 5 16 4 17 3 18 2 19 1 20
REMARK H PARENT
REMARK Flexibility Score: inf
ROOT
ATOM      1  C   UNL     1      48.433  -8.083 -55.258  1.00  0.00     0.000 C 
ENDROOT
BRANCH   1   2
ATOM      2  C   UNL     1      48.809  -7.622 -56.674  1.00  0.00     0.000 C 
BRANCH   2   3
ATOM      3  C   UNL     1      47.580  -7.304 -57.545  1.00  0.00     0.000 C 
BRANCH   3   4
ATOM      4  C   UNL     1      47.547  -8.015 -58.913  1.00  0.00     0.000 C 
BRANCH   4   5
ATOM      5  C   UNL     1      48.301  -9.356 -58.971  1.00  0.00     0.000 C 
BRANCH   5   6
ATOM      6  C   UNL     1      47.358 -10.569 -58.984  1.00  0.00     0.000 C 
BRANCH   6   7
ATOM      7  C   UNL     1      46.862 -10.892 -57.566  1.00  0.00     0.006 C 
BRANCH   7   8
ATOM      8  C   UNL     1      48.001 -11.336 -56.639  1.00  0.00     0.053 C 
BRANCH   8   9
ATOM      9  C   UNL     1      48.066 -12.827 -56.510  1.00  0.00     0.041 C 
ATOM     10  O   UNL     1      49.125 -13.382 -56.117  1.00  0.00    -0.550 OA
ATOM     11  O   UNL     1      46.946 -13.600 -56.791  1.00  0.00    -0.550 OA
ENDBRANCH   8   9
ENDBRANCH   7   8
ENDBRANCH   6   7
ENDBRANCH   5   6
ENDBRANCH   4   5
ENDBRANCH   3   4
ENDBRANCH   2   3
ENDBRANCH   1   2
BRANCH   1  12
ATOM     12  C   UNL     1      49.577  -7.809 -54.269  1.00  0.00     0.000 C 
BRANCH  12  13
ATOM     13  C   UNL     1      50.600  -6.787 -54.798  1.00  0.00    -0.000 C 
BRANCH  13  14
ATOM     14  C   UNL     1      50.410  -5.345 -54.292  1.00  0.00    -0.000 C 
BRANCH  14  15
ATOM     15  C   UNL     1      50.000  -4.366 -55.406  1.00  0.00    -0.000 C 
BRANCH  15  16
ATOM     16  C   UNL     1      50.842  -4.523 -56.685  1.00  0.00    -0.000 C 
BRANCH  16  17
ATOM     17  C   UNL     1      50.054  -4.470 -58.006  1.00  0.00    -0.000 C 
BRANCH  17  18
ATOM     18  C   UNL     1      50.697  -5.307 -59.125  1.00  0.00    -0.000 C 
BRANCH  18  19
ATOM     19  C   UNL     1      51.535  -6.474 -58.579  1.00  0.00    -0.003 C 
ATOM     20  C   UNL     1      53.013  -6.373 -58.958  1.00  0.00     0.004 C 
ENDBRANCH  18  19
ENDBRANCH  17  18
ENDBRANCH  16  17
ENDBRANCH  15  16
ENDBRANCH  14  15
ENDBRANCH  13  14
ENDBRANCH  12  13
ENDBRANCH   1  12
TORSDOF 16
ENDMDL
MODEL 8
REMARK VINA RESULT:    -3.883      3.301      5.862
REMARK INTER + INTRA:         -10.092
REMARK INTER:                  -6.935
REMARK INTRA:                  -3.157
REMARK UNBOUND:                -2.576
REMARK SMILES CCCCCCCCCCCCCCCCCC(=O)[O-]
REMARK SMILES IDX 10 1 11 2 12 3 13 4 14 5 15 6 16 7 17 8 18 9 19 10 20 11
REMARK SMILES IDX 9 12 8 13 7 14 6 15 5 16 4 17 3 18 2 19 1 20
REMARK H PARENT
REMARK Flexibility Score: inf
ROOT
ATOM      1  C   UNL     1      48.433  -8.640 -55.361  1.00  0.00     0.000 C 
ENDROOT
BRANCH   1   2
ATOM      2  C   UNL     1      49.347  -7.745 -54.512  1.00  0.00     0.000 C 
BRANCH   2   3
ATOM      3  C   UNL     1      50.291  -6.875 -55.363  1.00  0.00     0.000 C 
BRANCH   3   4
ATOM      4  C   UNL     1      50.917  -5.675 -54.624  1.00  0.00     0.000 C 
BRANCH   4   5
ATOM      5  C   UNL     1      50.076  -4.387 -54.637  1.00  0.00     0.000 C 
BRANCH   5   6
ATOM      6  C   UNL     1      49.163  -4.284 -55.868  1.00  0.00     0.000 C 
BRANCH   6   7
ATOM      7  C   UNL     1      47.752  -3.829 -55.468  1.00  0.00     0.006 C 
BRANCH   7   8
ATOM      8  C   UNL     1      47.417  -4.187 -54.015  1.00  0.00     0.053 C 
BRANCH   8   9
ATOM      9  C   UNL     1      46.131  -4.950 -53.911  1.00  0.00     0.041 C 
ATOM     10  O   UNL     1      45.841  -5.559 -52.849  1.00  0.00    -0.550 OA
ATOM     11  O   UNL     1      45.238  -4.957 -54.975  1.00  0.00    -0.550 OA
ENDBRANCH   8   9
ENDBRANCH   7   8
ENDBRANCH   6   7
ENDBRANCH   5   6
ENDBRANCH   4   5
ENDBRANCH   3   4
ENDBRANCH   2   3
ENDBRANCH   1   2
BRANCH   1  12
ATOM     12  C   UNL     1      47.188  -7.869 -55.827  1.00  0.00     0.000 C 
BRANCH  12  13
ATOM     13  C   UNL     1      47.210  -7.540 -57.331  1.00  0.00    -0.000 C 
BRANCH  13  14
ATOM     14  C   UNL     1      47.998  -8.531 -58.209  1.00  0.00    -0.000 C 
BRANCH  14  15
ATOM     15  C   UNL     1      49.073  -7.846 -59.071  1.00  0.00    -0.000 C 
BRANCH  15  16
ATOM     16  C   UNL     1      49.045  -6.311 -58.961  1.00  0.00    -0.000 C 
BRANCH  16  17
ATOM     17  C   UNL     1      50.423  -5.624 -58.957  1.00  0.00    -0.000 C 
BRANCH  17  18
ATOM     18  C   UNL     1      51.587  -6.613 -58.772  1.00  0.00    -0.000 C 
BRANCH  18  19
ATOM     19  C   UNL     1      52.777  -5.988 -58.027  1.00  0.00    -0.003 C 
ATOM     20  C   UNL     1      52.599  -4.490 -57.775  1.00  0.00     0.004 C 
ENDBRANCH  18  19
ENDBRANCH  17  18
ENDBRANCH  16  17
ENDBRANCH  15  16
ENDBRANCH  14  15
ENDBRANCH  13  14
ENDBRANCH  12  13
ENDBRANCH   1  12
TORSDOF 16
ENDMDL
MODEL 9
REMARK VINA RESULT:    -3.863      3.133      5.764
REMARK INTER + INTRA:         -10.052
REMARK INTER:                  -6.865
REMARK INTRA:                  -3.188
REMARK UNBOUND:                -2.576
REMARK SMILES CCCCCCCCCCCCCCCCCC(=O)[O-]
REMARK SMILES IDX 10 1 11 2 12 3 13 4 14 5 15 6 16 7 17 8 18 9 19 10 20 11
REMARK SMILES IDX 9 12 8 13 7 14 6 15 5 16 4 17 3 18 2 19 1 20
REMARK H PARENT
REMARK Flexibility Score: inf
ROOT
ATOM      1  C   UNL     1      50.390  -6.967 -54.968  1.00  0.00     0.000 C 
ENDROOT
BRANCH   1   2
ATOM      2  C   UNL     1      51.040  -5.605 -54.683  1.00  0.00     0.000 C 
BRANCH   2   3
ATOM      3  C   UNL     1      50.009  -4.480 -54.480  1.00  0.00     0.000 C 
BRANCH   3   4
ATOM      4  C   UNL     1      49.096  -4.204 -55.692  1.00  0.00     0.000 C 
BRANCH   4   5
ATOM      5  C   UNL     1      47.598  -4.073 -55.365  1.00  0.00     0.000 C 
BRANCH   5   6
ATOM      6  C   UNL     1      47.340  -3.614 -53.921  1.00  0.00     0.000 C 
BRANCH   6   7
ATOM      7  C   UNL     1      46.139  -4.356 -53.316  1.00  0.00     0.006 C 
BRANCH   7   8
ATOM      8  C   UNL     1      45.436  -5.256 -54.340  1.00  0.00     0.053 C 
BRANCH   8   9
ATOM      9  C   UNL     1      44.654  -6.349 -53.678  1.00  0.00     0.041 C 
ATOM     10  O   UNL     1      44.152  -6.166 -52.538  1.00  0.00    -0.550 OA
ATOM     11  O   UNL     1      44.451  -7.556 -54.335  1.00  0.00    -0.550 OA
ENDBRANCH   8   9
ENDBRANCH   7   8
ENDBRANCH   6   7
ENDBRANCH   5   6
ENDBRANCH   4   5
ENDBRANCH   3   4
ENDBRANCH   2   3
ENDBRANCH   1   2
BRANCH   1  12
ATOM     12  C   UNL     1      49.361  -7.321 -53.884  1.00  0.00     0.000 C 
BRANCH  12  13
ATOM     13  C   UNL     1      47.996  -7.737 -54.461  1.00  0.00    -0.000 C 
BRANCH  13  14
ATOM     14  C   UNL     1      48.030  -8.284 -55.901  1.00  0.00    -0.000 C 
BRANCH  14  15
ATOM     15  C   UNL     1      47.044  -7.566 -56.839  1.00  0.00    -0.000 C 
BRANCH  15  16
ATOM     16  C   UNL     1      47.746  -6.763 -57.949  1.00  0.00    -0.000 C 
BRANCH  16  17
ATOM     17  C   UNL     1      49.135  -7.283 -58.362  1.00  0.00    -0.000 C 
BRANCH  17  18
ATOM     18  C   UNL     1      50.132  -6.154 -58.674  1.00  0.00    -0.000 C 
BRANCH  18  19
ATOM     19  C   UNL     1      51.581  -6.657 -58.768  1.00  0.00    -0.003 C 
ATOM     20  C   UNL     1      52.558  -5.809 -57.952  1.00  0.00     0.004 C 
ENDBRANCH  18  19
ENDBRANCH  17  18
ENDBRANCH  16  17
ENDBRANCH  15  16
ENDBRANCH  14  15
ENDBRANCH  13  14
ENDBRANCH  12  13
ENDBRANCH   1  12
TORSDOF 16
ENDMDL
