MODEL 1
REMARK VINA RESULT:    -5.088      0.000      0.000
REMARK INTER + INTRA:          -5.482
REMARK INTER:                  -5.385
REMARK INTRA:                  -0.097
REMARK UNBOUND:                -0.097
REMARK SMILES C=C(C)[C@@H]1CC=C(C)C(=O)C1
REMARK SMILES IDX 8 1 7 2 6 3 5 4 4 5 11 6 9 7 10 8 2 9 1 10 3 11
REMARK H PARENT
REMARK Flexibility Score: inf
ROOT
ATOM      1  C   UNL     1      12.326 -28.400  24.638  1.00  0.00     0.048 C 
ATOM      2  C   UNL     1      12.718 -29.656  23.910  1.00  0.00    -0.012 C 
ATOM      3  C   UNL     1      13.853 -30.295  24.242  1.00  0.00    -0.019 C 
ATOM      4  C   UNL     1      14.284 -31.566  23.558  1.00  0.00     0.036 C 
ATOM      5  C   UNL     1      13.840 -31.579  22.083  1.00  0.00     0.025 C 
ATOM      6  C   UNL     1      12.320 -31.349  21.982  1.00  0.00     0.089 C 
ATOM      7  C   UNL     1      11.920 -30.116  22.746  1.00  0.00     0.158 C 
ATOM      8  O   UNL     1      10.875 -29.498  22.410  1.00  0.00    -0.295 OA
ENDROOT
BRANCH   5   9
ATOM      9  C   UNL     1      14.262 -32.863  21.380  1.00  0.00    -0.077 C 
ATOM     10  C   UNL     1      13.911 -33.109  20.106  1.00  0.00     0.008 C 
ATOM     11  C   UNL     1      15.088 -33.889  22.111  1.00  0.00     0.039 C 
ENDBRANCH   5   9
TORSDOF 1
ENDMDL
MODEL 2
REMARK VINA RESULT:    -5.019      1.921      4.400
REMARK INTER + INTRA:          -5.409
REMARK INTER:                  -5.313
REMARK INTRA:                  -0.097
REMARK UNBOUND:                -0.097
REMARK SMILES C=C(C)[C@@H]1CC=C(C)C(=O)C1
REMARK SMILES IDX 8 1 7 2 6 3 5 4 4 5 11 6 9 7 10 8 2 9 1 10 3 11
REMARK H PARENT
REMARK Flexibility Score: inf
ROOT
ATOM      1  C   UNL     1      15.851 -34.875  22.063  1.00  0.00     0.048 C 
ATOM      2  C   UNL     1      15.121 -33.583  22.305  1.00  0.00    -0.012 C 
ATOM      3  C   UNL     1      15.168 -33.006  23.517  1.00  0.00    -0.019 C 
ATOM      4  C   UNL     1      14.471 -31.703  23.810  1.00  0.00     0.036 C 
ATOM      5  C   UNL     1      13.178 -31.570  22.984  1.00  0.00     0.025 C 
ATOM      6  C   UNL     1      13.482 -31.745  21.484  1.00  0.00     0.089 C 
ATOM      7  C   UNL     1      14.251 -33.016  21.245  1.00  0.00     0.158 C 
ATOM      8  O   UNL     1      14.177 -33.575  20.119  1.00  0.00    -0.295 OA
ENDROOT
BRANCH   5   9
ATOM      9  C   UNL     1      12.465 -30.253  23.263  1.00  0.00    -0.077 C 
ATOM     10  C   UNL     1      11.378 -29.885  22.562  1.00  0.00     0.008 C 
ATOM     11  C   UNL     1      12.974 -29.331  24.340  1.00  0.00     0.039 C 
ENDBRANCH   5   9
TORSDOF 1
ENDMDL
MODEL 3
REMARK VINA RESULT:    -4.951      2.135      4.780
REMARK INTER + INTRA:          -5.337
REMARK INTER:                  -5.241
REMARK INTRA:                  -0.095
REMARK UNBOUND:                -0.097
REMARK SMILES C=C(C)[C@@H]1CC=C(C)C(=O)C1
REMARK SMILES IDX 8 1 7 2 6 3 5 4 4 5 11 6 9 7 10 8 2 9 1 10 3 11
REMARK H PARENT
REMARK Flexibility Score: inf
ROOT
ATOM      1  C   UNL     1      15.783 -34.413  21.775  1.00  0.00     0.048 C 
ATOM      2  C   UNL     1      14.822 -33.355  22.243  1.00  0.00    -0.012 C 
ATOM      3  C   UNL     1      14.126 -32.639  21.344  1.00  0.00    -0.019 C 
ATOM      4  C   UNL     1      13.138 -31.581  21.758  1.00  0.00     0.036 C 
ATOM      5  C   UNL     1      13.579 -30.891  23.062  1.00  0.00     0.025 C 
ATOM      6  C   UNL     1      13.810 -31.938  24.169  1.00  0.00     0.089 C 
ATOM      7  C   UNL     1      14.737 -33.020  23.686  1.00  0.00     0.158 C 
ATOM      8  O   UNL     1      15.416 -33.666  24.528  1.00  0.00    -0.295 OA
ENDROOT
BRANCH   5   9
ATOM      9  C   UNL     1      12.583 -29.823  23.498  1.00  0.00    -0.077 C 
ATOM     10  C   UNL     1      12.824 -29.037  24.562  1.00  0.00     0.008 C 
ATOM     11  C   UNL     1      11.299 -29.630  22.735  1.00  0.00     0.039 C 
ENDBRANCH   5   9
TORSDOF 1
ENDMDL
MODEL 4
REMARK VINA RESULT:    -4.787      9.314      9.815
REMARK INTER + INTRA:          -5.163
REMARK INTER:                  -5.068
REMARK INTRA:                  -0.095
REMARK UNBOUND:                -0.097
REMARK SMILES C=C(C)[C@@H]1CC=C(C)C(=O)C1
REMARK SMILES IDX 8 1 7 2 6 3 5 4 4 5 11 6 9 7 10 8 2 9 1 10 3 11
REMARK H PARENT
REMARK Flexibility Score: inf
ROOT
ATOM      1  C   UNL     1      23.523 -24.700  20.371  1.00  0.00     0.048 C 
ATOM      2  C   UNL     1      22.572 -25.864  20.402  1.00  0.00    -0.012 C 
ATOM      3  C   UNL     1      21.246 -25.645  20.429  1.00  0.00    -0.019 C 
ATOM      4  C   UNL     1      20.249 -26.773  20.443  1.00  0.00     0.036 C 
ATOM      5  C   UNL     1      20.806 -27.994  21.200  1.00  0.00     0.025 C 
ATOM      6  C   UNL     1      22.161 -28.420  20.604  1.00  0.00     0.089 C 
ATOM      7  C   UNL     1      23.099 -27.246  20.531  1.00  0.00     0.158 C 
ATOM      8  O   UNL     1      24.342 -27.452  20.543  1.00  0.00    -0.295 OA
ENDROOT
BRANCH   5   9
ATOM      9  C   UNL     1      19.811 -29.148  21.216  1.00  0.00    -0.077 C 
ATOM     10  C   UNL     1      18.487 -28.929  21.146  1.00  0.00     0.008 C 
ATOM     11  C   UNL     1      20.303 -30.569  21.311  1.00  0.00     0.039 C 
ENDBRANCH   5   9
TORSDOF 1
ENDMDL
MODEL 5
REMARK VINA RESULT:    -4.766      9.661     10.397
REMARK INTER + INTRA:          -5.141
REMARK INTER:                  -5.052
REMARK INTRA:                  -0.089
REMARK UNBOUND:                -0.097
REMARK SMILES C=C(C)[C@@H]1CC=C(C)C(=O)C1
REMARK SMILES IDX 8 1 7 2 6 3 5 4 4 5 11 6 9 7 10 8 2 9 1 10 3 11
REMARK H PARENT
REMARK Flexibility Score: inf
ROOT
ATOM      1  C   UNL     1      19.434 -29.549  21.234  1.00  0.00     0.048 C 
ATOM      2  C   UNL     1      20.309 -28.328  21.161  1.00  0.00    -0.012 C 
ATOM      3  C   UNL     1      19.913 -27.264  20.443  1.00  0.00    -0.019 C 
ATOM      4  C   UNL     1      20.741 -26.009  20.350  1.00  0.00     0.036 C 
ATOM      5  C   UNL     1      22.246 -26.334  20.412  1.00  0.00     0.025 C 
ATOM      6  C   UNL     1      22.564 -27.150  21.680  1.00  0.00     0.089 C 
ATOM      7  C   UNL     1      21.659 -28.348  21.777  1.00  0.00     0.158 C 
ATOM      8  O   UNL     1      22.047 -29.359  22.421  1.00  0.00    -0.295 OA
ENDROOT
BRANCH   5   9
ATOM      9  C   UNL     1      23.097 -25.073  20.328  1.00  0.00    -0.077 C 
ATOM     10  C   UNL     1      23.670 -24.693  19.173  1.00  0.00     0.008 C 
ATOM     11  C   UNL     1      23.313 -24.223  21.554  1.00  0.00     0.039 C 
ENDBRANCH   5   9
TORSDOF 1
ENDMDL
MODEL 6
REMARK VINA RESULT:    -4.750      7.780      9.579
REMARK INTER + INTRA:          -5.124
REMARK INTER:                  -5.032
REMARK INTRA:                  -0.093
REMARK UNBOUND:                -0.097
REMARK SMILES C=C(C)[C@@H]1CC=C(C)C(=O)C1
REMARK SMILES IDX 8 1 7 2 6 3 5 4 4 5 11 6 9 7 10 8 2 9 1 10 3 11
REMARK H PARENT
REMARK Flexibility Score: inf
ROOT
ATOM      1  C   UNL     1      17.543 -39.089  30.544  1.00  0.00     0.048 C 
ATOM      2  C   UNL     1      17.605 -38.590  29.127  1.00  0.00    -0.012 C 
ATOM      3  C   UNL     1      18.737 -38.034  28.663  1.00  0.00    -0.019 C 
ATOM      4  C   UNL     1      18.860 -37.534  27.248  1.00  0.00     0.036 C 
ATOM      5  C   UNL     1      17.512 -36.993  26.733  1.00  0.00     0.025 C 
ATOM      6  C   UNL     1      16.415 -38.065  26.880  1.00  0.00     0.089 C 
ATOM      7  C   UNL     1      16.382 -38.597  28.287  1.00  0.00     0.158 C 
ATOM      8  O   UNL     1      15.309 -39.085  28.733  1.00  0.00    -0.295 OA
ENDROOT
BRANCH   5   9
ATOM      9  C   UNL     1      17.619 -36.492  25.298  1.00  0.00    -0.077 C 
ATOM     10  C   UNL     1      16.798 -35.536  24.831  1.00  0.00     0.008 C 
ATOM     11  C   UNL     1      18.658 -37.066  24.372  1.00  0.00     0.039 C 
ENDBRANCH   5   9
TORSDOF 1
ENDMDL
MODEL 7
REMARK VINA RESULT:    -4.715      2.725      5.424
REMARK INTER + INTRA:          -5.088
REMARK INTER:                  -4.994
REMARK INTRA:                  -0.094
REMARK UNBOUND:                -0.097
REMARK SMILES C=C(C)[C@@H]1CC=C(C)C(=O)C1
REMARK SMILES IDX 8 1 7 2 6 3 5 4 4 5 11 6 9 7 10 8 2 9 1 10 3 11
REMARK H PARENT
REMARK Flexibility Score: inf
ROOT
ATOM      1  C   UNL     1      16.167 -35.818  20.128  1.00  0.00     0.048 C 
ATOM      2  C   UNL     1      15.415 -34.723  20.831  1.00  0.00    -0.012 C 
ATOM      3  C   UNL     1      14.629 -33.891  20.126  1.00  0.00    -0.019 C 
ATOM      4  C   UNL     1      13.840 -32.789  20.781  1.00  0.00     0.036 C 
ATOM      5  C   UNL     1      14.584 -32.230  22.009  1.00  0.00     0.025 C 
ATOM      6  C   UNL     1      14.924 -33.367  22.991  1.00  0.00     0.089 C 
ATOM      7  C   UNL     1      15.638 -34.484  22.279  1.00  0.00     0.158 C 
ATOM      8  O   UNL     1      16.402 -35.240  22.936  1.00  0.00    -0.295 OA
ENDROOT
BRANCH   5   9
ATOM      9  C   UNL     1      13.793 -31.119  22.689  1.00  0.00    -0.077 C 
ATOM     10  C   UNL     1      14.384 -30.258  23.535  1.00  0.00     0.008 C 
ATOM     11  C   UNL     1      12.319 -30.967  22.419  1.00  0.00     0.039 C 
ENDBRANCH   5   9
TORSDOF 1
ENDMDL
MODEL 8
REMARK VINA RESULT:    -4.697      7.137      9.048
REMARK INTER + INTRA:          -5.068
REMARK INTER:                  -4.978
REMARK INTRA:                  -0.089
REMARK UNBOUND:                -0.097
REMARK SMILES C=C(C)[C@@H]1CC=C(C)C(=O)C1
REMARK SMILES IDX 8 1 7 2 6 3 5 4 4 5 11 6 9 7 10 8 2 9 1 10 3 11
REMARK H PARENT
REMARK Flexibility Score: inf
ROOT
ATOM      1  C   UNL     1      18.639 -36.473  23.045  1.00  0.00     0.048 C 
ATOM      2  C   UNL     1      18.278 -36.868  24.450  1.00  0.00    -0.012 C 
ATOM      3  C   UNL     1      18.806 -37.979  24.990  1.00  0.00    -0.019 C 
ATOM      4  C   UNL     1      18.493 -38.412  26.398  1.00  0.00     0.036 C 
ATOM      5  C   UNL     1      17.057 -38.017  26.791  1.00  0.00     0.025 C 
ATOM      6  C   UNL     1      16.842 -36.506  26.583  1.00  0.00     0.089 C 
ATOM      7  C   UNL     1      17.245 -36.102  25.191  1.00  0.00     0.158 C 
ATOM      8  O   UNL     1      16.721 -35.080  24.674  1.00  0.00    -0.295 OA
ENDROOT
BRANCH   5   9
ATOM      9  C   UNL     1      16.727 -38.441  28.217  1.00  0.00    -0.077 C 
ATOM     10  C   UNL     1      15.606 -39.125  28.501  1.00  0.00     0.008 C 
ATOM     11  C   UNL     1      17.665 -38.095  29.344  1.00  0.00     0.039 C 
ENDBRANCH   5   9
TORSDOF 1
ENDMDL
