MODEL 1
REMARK VINA RESULT:     0.699      0.000      0.000
REMARK INTER + INTRA:           1.909
REMARK INTER:                   0.883
REMARK INTRA:                   1.026
REMARK UNBOUND:                 1.026
REMARK SMILES O=C(C=Cc1ccc(O)cc1)c1ccc(O)cc1O
REMARK SMILES IDX 4 1 3 2 5 3 6 4 7 5 8 6 11 7 10 8 9 9 2 11 1 12 12 13 18 14
REMARK SMILES IDX 13 15 17 16 14 17 15 18 19 19 16 21
REMARK H PARENT 9 10 19 20 16 22
REMARK Flexibility Score: inf
ROOT
ATOM      1  C   UNL     1      -3.777  15.010   8.277  1.00  0.00     0.012 C 
ATOM      2  C   UNL     1      -3.925  13.773   8.778  1.00  0.00     0.053 C 
ENDROOT
BRANCH   1   3
ATOM      3  C   UNL     1      -3.084  15.346   7.016  1.00  0.00    -0.025 A 
ATOM      4  C   UNL     1      -3.746  15.150   5.795  1.00  0.00     0.012 A 
ATOM      5  C   UNL     1      -3.092  15.416   4.587  1.00  0.00     0.047 A 
ATOM      6  C   UNL     1      -1.766  15.858   4.587  1.00  0.00     0.115 A 
ATOM      7  C   UNL     1      -1.740  15.762   7.011  1.00  0.00     0.012 A 
ATOM      8  C   UNL     1      -1.090  16.028   5.803  1.00  0.00     0.047 A 
BRANCH   6   9
ATOM      9  O   UNL     1      -1.128  16.122   3.377  1.00  0.00    -0.508 OA
ATOM     10  H   UNL     1      -0.352  15.558   3.053  1.00  0.00     0.293 HD
ENDBRANCH   6   9
ENDBRANCH   1   3
BRANCH   2  11
ATOM     11  C   UNL     1      -3.262  12.552   8.255  1.00  0.00     0.189 C 
ATOM     12  O   UNL     1      -2.505  12.626   7.248  1.00  0.00    -0.289 OA
BRANCH  11  13
ATOM     13  C   UNL     1      -3.444  11.239   8.918  1.00  0.00     0.064 A 
ATOM     14  C   UNL     1      -3.884  11.170  10.258  1.00  0.00     0.130 A 
ATOM     15  C   UNL     1      -3.203  10.043   8.216  1.00  0.00     0.020 A 
ATOM     16  C   UNL     1      -4.067   9.922  10.872  1.00  0.00     0.093 A 
ATOM     17  C   UNL     1      -3.386   8.805   8.838  1.00  0.00     0.047 A 
ATOM     18  C   UNL     1      -3.818   8.742  10.167  1.00  0.00     0.119 A 
BRANCH  14  19
ATOM     19  O   UNL     1      -4.123  12.339  10.982  1.00  0.00    -0.507 OA
ATOM     20  H   UNL     1      -4.858  12.392  11.677  1.00  0.00     0.293 HD
ENDBRANCH  14  19
BRANCH  18  21
ATOM     21  O   UNL     1      -4.004   7.513  10.797  1.00  0.00    -0.508 OA
ATOM     22  H   UNL     1      -4.531   7.434  11.659  1.00  0.00     0.293 HD
ENDBRANCH  18  21
ENDBRANCH  11  13
ENDBRANCH   2  11
TORSDOF 6
ENDMDL
MODEL 2
REMARK VINA RESULT:     3.288      2.353      6.944
REMARK INTER + INTRA:           5.178
REMARK INTER:                   5.803
REMARK INTRA:                  -0.624
REMARK UNBOUND:                 1.026
REMARK SMILES O=C(C=Cc1ccc(O)cc1)c1ccc(O)cc1O
REMARK SMILES IDX 4 1 3 2 5 3 6 4 7 5 8 6 11 7 10 8 9 9 2 11 1 12 12 13 18 14
REMARK SMILES IDX 13 15 17 16 14 17 15 18 19 19 16 21
REMARK H PARENT 9 10 19 20 16 22
REMARK Flexibility Score: inf
ROOT
ATOM      1  C   UNL     1      -3.205  10.056  11.391  1.00  0.00     0.012 C 
ATOM      2  C   UNL     1      -3.886  10.978  10.691  1.00  0.00     0.053 C 
ENDROOT
BRANCH   1   3
ATOM      3  C   UNL     1      -2.195   9.131  10.834  1.00  0.00    -0.025 A 
ATOM      4  C   UNL     1      -0.972   9.643  10.380  1.00  0.00     0.012 A 
ATOM      5  C   UNL     1      -0.021   8.793   9.805  1.00  0.00     0.047 A 
ATOM      6  C   UNL     1      -0.293   7.430   9.658  1.00  0.00     0.115 A 
ATOM      7  C   UNL     1      -2.478   7.765  10.657  1.00  0.00     0.012 A 
ATOM      8  C   UNL     1      -1.526   6.918  10.083  1.00  0.00     0.047 A 
BRANCH   6   9
ATOM      9  O   UNL     1       0.664   6.595   9.086  1.00  0.00    -0.508 OA
ATOM     10  H   UNL     1       1.409   6.962   8.506  1.00  0.00     0.293 HD
ENDBRANCH   6   9
ENDBRANCH   1   3
BRANCH   2  11
ATOM     11  C   UNL     1      -3.885  11.104   9.213  1.00  0.00     0.189 C 
ATOM     12  O   UNL     1      -4.125  10.097   8.492  1.00  0.00    -0.289 OA
BRANCH  11  13
ATOM     13  C   UNL     1      -3.639  12.410   8.557  1.00  0.00     0.064 A 
ATOM     14  C   UNL     1      -2.961  12.472   7.320  1.00  0.00     0.130 A 
ATOM     15  C   UNL     1      -4.095  13.604   9.145  1.00  0.00     0.020 A 
ATOM     16  C   UNL     1      -2.745  13.711   6.700  1.00  0.00     0.093 A 
ATOM     17  C   UNL     1      -3.873  14.835   8.520  1.00  0.00     0.047 A 
ATOM     18  C   UNL     1      -3.197  14.891   7.297  1.00  0.00     0.119 A 
BRANCH  14  19
ATOM     19  O   UNL     1      -2.490  11.306   6.716  1.00  0.00    -0.507 OA
ATOM     20  H   UNL     1      -1.788  10.724   7.158  1.00  0.00     0.293 HD
ENDBRANCH  14  19
BRANCH  18  21
ATOM     21  O   UNL     1      -2.971  16.112   6.665  1.00  0.00    -0.508 OA
ATOM     22  H   UNL     1      -3.678  16.545   6.082  1.00  0.00     0.293 HD
ENDBRANCH  18  21
ENDBRANCH  11  13
ENDBRANCH   2  11
TORSDOF 6
ENDMDL
