MODEL 1
REMARK VINA RESULT:    -2.408      0.000      0.000
REMARK INTER + INTRA:          -3.780
REMARK INTER:                  -3.676
REMARK INTRA:                  -0.105
REMARK UNBOUND:                -0.105
REMARK SMILES CC1=CCC[C@@H](C)C(=O)C[C@H](C(C)C)C(=O)C1
REMARK SMILES IDX 8 1 9 2 6 3 7 4 5 5 4 6 3 7 2 8 1 9 10 11 11 12 15 13 16 14
REMARK SMILES IDX 17 15 12 17 13 18 14 19
REMARK H PARENT
REMARK Flexibility Score: 70.00
ROOT
ATOM      1  C   UNL     1      71.504   0.621  32.223  1.00  0.00     0.136 C 
ATOM      2  O   UNL     1      70.606   0.134  31.551  1.00  0.00    -0.299 OA
ENDROOT
BRANCH   1   3
ATOM      3  C   UNL     1      72.352  -0.326  33.066  1.00  0.00     0.053 C 
ATOM      4  C   UNL     1      71.464  -0.958  34.146  1.00  0.00     0.016 C 
BRANCH   3   5
ATOM      5  C   UNL     1      73.625   0.267  33.731  1.00  0.00     0.015 C 
BRANCH   5   6
ATOM      6  C   UNL     1      73.427   0.940  35.101  1.00  0.00     0.028 C 
BRANCH   6   7
ATOM      7  C   UNL     1      73.997   2.338  35.156  1.00  0.00    -0.028 C 
ATOM      8  C   UNL     1      73.264   3.471  35.263  1.00  0.00    -0.070 CG0
ATOM      9  C   UNL     1      73.997   4.787  35.306  1.00  0.00     0.039 C 
ATOM     10  G   UNL     1      71.746   3.473  35.310  1.00  0.00     0.000 G0
ENDBRANCH   6   7
ENDBRANCH   5   6
ENDBRANCH   3   5
ENDBRANCH   1   3
BRANCH   1  11
ATOM     11  C   UNL     1      71.674   2.126  32.180  1.00  0.00     0.087 C 
BRANCH  11  12
ATOM     12  C   UNL     1      70.598   2.932  32.982  1.00  0.00     0.066 C 
BRANCH  12  13
ATOM     13  C   UNL     1      71.180   3.938  33.973  1.00  0.00     0.140 C 
ATOM     14  O   UNL     1      71.201   5.128  33.698  1.00  0.00    -0.299 OA
BRANCH  13  15
ATOM     15  C   UNL     1      71.732   3.503  35.306  1.00  0.00     0.106 CG0
ATOM     16  G   UNL     1      73.250   3.482  35.272  1.00  0.00     0.000 G0
ENDBRANCH  13  15
ENDBRANCH  12  13
BRANCH  12  17
ATOM     17  C   UNL     1      69.493   3.544  32.063  1.00  0.00    -0.006 C 
ATOM     18  C   UNL     1      69.981   3.680  30.612  1.00  0.00     0.008 C 
ATOM     19  C   UNL     1      68.149   2.794  32.101  1.00  0.00     0.008 C 
ENDBRANCH  12  17
ENDBRANCH  11  12
ENDBRANCH   1  11
TORSDOF 1
ENDMDL
MODEL 2
REMARK VINA RESULT:    -2.324     16.062     17.807
REMARK INTER + INTRA:          -3.652
REMARK INTER:                  -3.698
REMARK INTRA:                   0.047
REMARK UNBOUND:                -0.105
REMARK SMILES CC1=CCC[C@@H](C)C(=O)C[C@H](C(C)C)C(=O)C1
REMARK SMILES IDX 8 1 9 2 6 3 7 4 5 5 4 6 3 7 2 8 1 9 10 11 11 12 15 13 16 14
REMARK SMILES IDX 17 15 12 17 13 18 14 19
REMARK H PARENT
REMARK Flexibility Score: 70.00
ROOT
ATOM      1  C   UNL     1      69.625  12.713  46.349  1.00  0.00     0.136 C 
ATOM      2  O   UNL     1      69.701  12.452  45.156  1.00  0.00    -0.299 OA
ENDROOT
BRANCH   1   3
ATOM      3  C   UNL     1      70.150  11.674  47.335  1.00  0.00     0.053 C 
ATOM      4  C   UNL     1      71.278  10.878  46.665  1.00  0.00     0.016 C 
BRANCH   3   5
ATOM      5  C   UNL     1      69.113  10.684  47.936  1.00  0.00     0.015 C 
BRANCH   5   6
ATOM      6  C   UNL     1      68.020  11.301  48.828  1.00  0.00     0.028 C 
BRANCH   6   7
ATOM      7  C   UNL     1      66.642  11.206  48.218  1.00  0.00    -0.028 C 
ATOM      8  C   UNL     1      65.889  12.263  47.834  1.00  0.00    -0.070 CG0
ATOM      9  C   UNL     1      64.531  11.987  47.240  1.00  0.00     0.039 C 
ATOM     10  G   UNL     1      66.338  13.704  48.003  1.00  0.00     0.000 G0
ENDBRANCH   6   7
ENDBRANCH   5   6
ENDBRANCH   3   5
ENDBRANCH   1   3
BRANCH   1  11
ATOM     11  C   UNL     1      68.991  14.031  46.739  1.00  0.00     0.087 C 
BRANCH  11  12
ATOM     12  C   UNL     1      67.734  14.430  45.895  1.00  0.00     0.066 C 
BRANCH  12  13
ATOM     13  C   UNL     1      66.419  14.384  46.672  1.00  0.00     0.140 C 
ATOM     14  O   UNL     1      65.415  14.904  46.209  1.00  0.00    -0.299 OA
BRANCH  13  15
ATOM     15  C   UNL     1      66.317  13.699  48.011  1.00  0.00     0.106 CG0
ATOM     16  G   UNL     1      65.871  12.258  47.838  1.00  0.00     0.000 G0
ENDBRANCH  13  15
ENDBRANCH  12  13
BRANCH  12  17
ATOM     17  C   UNL     1      67.934  15.763  45.107  1.00  0.00    -0.006 C 
ATOM     18  C   UNL     1      68.699  16.802  45.942  1.00  0.00     0.008 C 
ATOM     19  C   UNL     1      68.607  15.592  43.732  1.00  0.00     0.008 C 
ENDBRANCH  12  17
ENDBRANCH  11  12
ENDBRANCH   1  11
TORSDOF 1
ENDMDL
MODEL 3
REMARK VINA RESULT:    -2.319     16.270     18.412
REMARK INTER + INTRA:          -3.644
REMARK INTER:                  -3.567
REMARK INTRA:                  -0.077
REMARK UNBOUND:                -0.105
REMARK SMILES CC1=CCC[C@@H](C)C(=O)C[C@H](C(C)C)C(=O)C1
REMARK SMILES IDX 8 1 9 2 6 3 7 4 5 5 4 6 3 7 2 8 1 9 10 11 11 12 15 13 16 14
REMARK SMILES IDX 17 15 12 17 13 18 14 19
REMARK H PARENT
REMARK Flexibility Score: 70.00
ROOT
ATOM      1  C   UNL     1      68.507  16.282  44.483  1.00  0.00     0.136 C 
ATOM      2  O   UNL     1      69.533  16.535  43.867  1.00  0.00    -0.299 OA
ENDROOT
BRANCH   1   3
ATOM      3  C   UNL     1      68.574  16.303  46.007  1.00  0.00     0.053 C 
ATOM      4  C   UNL     1      68.943  14.900  46.507  1.00  0.00     0.016 C 
BRANCH   3   5
ATOM      5  C   UNL     1      67.310  16.799  46.763  1.00  0.00     0.015 C 
BRANCH   5   6
ATOM      6  C   UNL     1      66.499  15.726  47.512  1.00  0.00     0.028 C 
BRANCH   6   7
ATOM      7  C   UNL     1      65.008  15.952  47.428  1.00  0.00    -0.028 C 
ATOM      8  C   UNL     1      64.159  15.246  46.645  1.00  0.00    -0.070 CG0
ATOM      9  C   UNL     1      62.696  15.603  46.684  1.00  0.00     0.039 C 
ATOM     10  G   UNL     1      64.621  14.138  45.714  1.00  0.00     0.000 G0
ENDBRANCH   6   7
ENDBRANCH   5   6
ENDBRANCH   3   5
ENDBRANCH   1   3
BRANCH   1  11
ATOM     11  C   UNL     1      67.271  15.941  43.677  1.00  0.00     0.087 C 
BRANCH  11  12
ATOM     12  C   UNL     1      66.607  14.569  44.040  1.00  0.00     0.066 C 
BRANCH  12  13
ATOM     13  C   UNL     1      65.127  14.668  44.406  1.00  0.00     0.140 C 
ATOM     14  O   UNL     1      64.338  15.192  43.635  1.00  0.00    -0.299 OA
BRANCH  13  15
ATOM     15  C   UNL     1      64.599  14.124  45.709  1.00  0.00     0.106 CG0
ATOM     16  G   UNL     1      64.178  15.258  46.628  1.00  0.00     0.000 G0
ENDBRANCH  13  15
ENDBRANCH  12  13
BRANCH  12  17
ATOM     17  C   UNL     1      66.906  13.457  42.986  1.00  0.00    -0.006 C 
ATOM     18  C   UNL     1      67.416  14.055  41.666  1.00  0.00     0.008 C 
ATOM     19  C   UNL     1      67.869  12.361  43.477  1.00  0.00     0.008 C 
ENDBRANCH  12  17
ENDBRANCH  11  12
ENDBRANCH   1  11
TORSDOF 1
ENDMDL
MODEL 4
REMARK VINA RESULT:    -2.302     16.605     18.078
REMARK INTER + INTRA:          -3.618
REMARK INTER:                  -3.440
REMARK INTRA:                  -0.177
REMARK UNBOUND:                -0.105
REMARK SMILES CC1=CCC[C@@H](C)C(=O)C[C@H](C(C)C)C(=O)C1
REMARK SMILES IDX 8 1 9 2 6 3 7 4 5 5 4 6 3 7 2 8 1 9 10 11 11 12 15 13 16 14
REMARK SMILES IDX 17 15 12 17 13 18 14 19
REMARK H PARENT
REMARK Flexibility Score: 70.00
ROOT
ATOM      1  C   UNL     1      63.238  10.825  44.973  1.00  0.00     0.136 C 
ATOM      2  O   UNL     1      62.462   9.986  44.536  1.00  0.00    -0.299 OA
ENDROOT
BRANCH   1   3
ATOM      3  C   UNL     1      63.925  10.529  46.302  1.00  0.00     0.053 C 
ATOM      4  C   UNL     1      64.313   9.045  46.341  1.00  0.00     0.016 C 
BRANCH   3   5
ATOM      5  C   UNL     1      63.145  10.888  47.597  1.00  0.00     0.015 C 
BRANCH   5   6
ATOM      6  C   UNL     1      63.501  12.233  48.257  1.00  0.00     0.028 C 
BRANCH   6   7
ATOM      7  C   UNL     1      64.833  12.777  47.798  1.00  0.00    -0.028 C 
ATOM      8  C   UNL     1      65.002  13.910  47.077  1.00  0.00    -0.070 CG0
ATOM      9  C   UNL     1      66.407  14.310  46.704  1.00  0.00     0.039 C 
ATOM     10  G   UNL     1      63.843  14.772  46.609  1.00  0.00     0.000 G0
ENDBRANCH   6   7
ENDBRANCH   5   6
ENDBRANCH   3   5
ENDBRANCH   1   3
BRANCH   1  11
ATOM     11  C   UNL     1      63.422  12.096  44.169  1.00  0.00     0.087 C 
BRANCH  11  12
ATOM     12  C   UNL     1      62.640  13.338  44.715  1.00  0.00     0.066 C 
BRANCH  12  13
ATOM     13  C   UNL     1      63.533  14.504  45.137  1.00  0.00     0.140 C 
ATOM     14  O   UNL     1      64.016  15.242  44.293  1.00  0.00    -0.299 OA
BRANCH  13  15
ATOM     15  C   UNL     1      63.836  14.780  46.587  1.00  0.00     0.106 CG0
ATOM     16  G   UNL     1      65.001  13.928  47.059  1.00  0.00     0.000 G0
ENDBRANCH  13  15
ENDBRANCH  12  13
BRANCH  12  17
ATOM     17  C   UNL     1      61.466  13.771  43.780  1.00  0.00    -0.006 C 
ATOM     18  C   UNL     1      60.705  12.553  43.232  1.00  0.00     0.008 C 
ATOM     19  C   UNL     1      60.481  14.766  44.419  1.00  0.00     0.008 C 
ENDBRANCH  12  17
ENDBRANCH  11  12
ENDBRANCH   1  11
TORSDOF 1
ENDMDL
MODEL 5
REMARK VINA RESULT:    -2.300      3.053      4.951
REMARK INTER + INTRA:          -3.615
REMARK INTER:                  -3.622
REMARK INTRA:                   0.008
REMARK UNBOUND:                -0.105
REMARK SMILES CC1=CCC[C@@H](C)C(=O)C[C@H](C(C)C)C(=O)C1
REMARK SMILES IDX 8 1 9 2 6 3 7 4 5 5 4 6 3 7 2 8 1 9 10 11 11 12 15 13 16 14
REMARK SMILES IDX 17 15 12 17 13 18 14 19
REMARK H PARENT
REMARK Flexibility Score: 70.00
ROOT
ATOM      1  C   UNL     1      68.496   1.358  33.910  1.00  0.00     0.136 C 
ATOM      2  O   UNL     1      67.474   0.958  33.368  1.00  0.00    -0.299 OA
ENDROOT
BRANCH   1   3
ATOM      3  C   UNL     1      69.423   2.255  33.096  1.00  0.00     0.053 C 
ATOM      4  C   UNL     1      68.669   3.538  32.720  1.00  0.00     0.016 C 
BRANCH   3   5
ATOM      5  C   UNL     1      70.057   1.641  31.817  1.00  0.00     0.015 C 
BRANCH   5   6
ATOM      6  C   UNL     1      71.197   0.629  32.040  1.00  0.00     0.028 C 
BRANCH   6   7
ATOM      7  C   UNL     1      72.117   1.023  33.171  1.00  0.00    -0.028 C 
ATOM      8  C   UNL     1      72.311   0.303  34.301  1.00  0.00    -0.070 CG0
ATOM      9  C   UNL     1      73.271   0.843  35.330  1.00  0.00     0.039 C 
ATOM     10  G   UNL     1      71.586  -1.001  34.585  1.00  0.00     0.000 G0
ENDBRANCH   6   7
ENDBRANCH   5   6
ENDBRANCH   3   5
ENDBRANCH   1   3
BRANCH   1  11
ATOM     11  C   UNL     1      68.762   0.903  35.329  1.00  0.00     0.087 C 
BRANCH  11  12
ATOM     12  C   UNL     1      69.144  -0.609  35.473  1.00  0.00     0.066 C 
BRANCH  12  13
ATOM     13  C   UNL     1      70.633  -0.858  35.708  1.00  0.00     0.140 C 
ATOM     14  O   UNL     1      71.067  -0.951  36.846  1.00  0.00    -0.299 OA
BRANCH  13  15
ATOM     15  C   UNL     1      71.599  -1.004  34.560  1.00  0.00     0.106 CG0
ATOM     16  G   UNL     1      72.309   0.311  34.292  1.00  0.00     0.000 G0
ENDBRANCH  13  15
ENDBRANCH  12  13
BRANCH  12  17
ATOM     17  C   UNL     1      68.228  -1.370  36.482  1.00  0.00    -0.006 C 
ATOM     18  C   UNL     1      67.051  -0.496  36.944  1.00  0.00     0.008 C 
ATOM     19  C   UNL     1      67.709  -2.726  35.971  1.00  0.00     0.008 C 
ENDBRANCH  12  17
ENDBRANCH  11  12
ENDBRANCH   1  11
TORSDOF 1
ENDMDL
MODEL 6
REMARK VINA RESULT:    -2.267      1.797      3.927
REMARK INTER + INTRA:          -3.565
REMARK INTER:                  -3.459
REMARK INTRA:                  -0.106
REMARK UNBOUND:                -0.105
REMARK SMILES CC1=CCC[C@@H](C)C(=O)C[C@H](C(C)C)C(=O)C1
REMARK SMILES IDX 8 1 9 2 6 3 7 4 5 5 4 6 3 7 2 8 1 9 10 11 11 12 15 13 16 14
REMARK SMILES IDX 17 15 12 17 13 18 14 19
REMARK H PARENT
REMARK Flexibility Score: 70.00
ROOT
ATOM      1  C   UNL     1      72.201   3.464  34.262  1.00  0.00     0.136 C 
ATOM      2  O   UNL     1      72.534   4.179  33.327  1.00  0.00    -0.299 OA
ENDROOT
BRANCH   1   3
ATOM      3  C   UNL     1      73.257   3.135  35.312  1.00  0.00     0.053 C 
ATOM      4  C   UNL     1      74.038   4.412  35.648  1.00  0.00     0.016 C 
BRANCH   3   5
ATOM      5  C   UNL     1      74.259   1.996  34.974  1.00  0.00     0.015 C 
BRANCH   5   6
ATOM      6  C   UNL     1      73.814   0.567  35.336  1.00  0.00     0.028 C 
BRANCH   6   7
ATOM      7  C   UNL     1      73.486  -0.270  34.123  1.00  0.00    -0.028 C 
ATOM      8  C   UNL     1      72.242  -0.675  33.772  1.00  0.00    -0.070 CG0
ATOM      9  C   UNL     1      72.093  -1.508  32.525  1.00  0.00     0.039 C 
ATOM     10  G   UNL     1      71.006  -0.352  34.593  1.00  0.00     0.000 G0
ENDBRANCH   6   7
ENDBRANCH   5   6
ENDBRANCH   3   5
ENDBRANCH   1   3
BRANCH   1  11
ATOM     11  C   UNL     1      70.778   2.947  34.276  1.00  0.00     0.087 C 
BRANCH  11  12
ATOM     12  C   UNL     1      70.466   1.851  33.201  1.00  0.00     0.066 C 
BRANCH  12  13
ATOM     13  C   UNL     1      70.031   0.508  33.786  1.00  0.00     0.140 C 
ATOM     14  O   UNL     1      68.893   0.100  33.605  1.00  0.00    -0.299 OA
BRANCH  13  15
ATOM     15  C   UNL     1      70.979  -0.349  34.586  1.00  0.00     0.106 CG0
ATOM     16  G   UNL     1      72.220  -0.671  33.772  1.00  0.00     0.000 G0
ENDBRANCH  13  15
ENDBRANCH  12  13
BRANCH  12  17
ATOM     17  C   UNL     1      69.519   2.365  32.072  1.00  0.00    -0.006 C 
ATOM     18  C   UNL     1      68.528   3.413  32.602  1.00  0.00     0.008 C 
ATOM     19  C   UNL     1      70.249   2.908  30.830  1.00  0.00     0.008 C 
ENDBRANCH  12  17
ENDBRANCH  11  12
ENDBRANCH   1  11
TORSDOF 1
ENDMDL
MODEL 7
REMARK VINA RESULT:    -2.154      2.516      4.053
REMARK INTER + INTRA:          -3.392
REMARK INTER:                  -3.138
REMARK INTRA:                  -0.254
REMARK UNBOUND:                -0.105
REMARK SMILES CC1=CCC[C@@H](C)C(=O)C[C@H](C(C)C)C(=O)C1
REMARK SMILES IDX 8 1 9 2 6 3 7 4 5 5 4 6 3 7 2 8 1 9 10 11 11 12 15 13 16 14
REMARK SMILES IDX 17 15 12 17 13 18 14 19
REMARK H PARENT
REMARK Flexibility Score: 70.00
ROOT
ATOM      1  C   UNL     1      71.019  -1.098  33.592  1.00  0.00     0.136 C 
ATOM      2  O   UNL     1      71.358  -2.164  34.086  1.00  0.00    -0.299 OA
ENDROOT
BRANCH   1   3
ATOM      3  C   UNL     1      72.120  -0.125  33.185  1.00  0.00     0.053 C 
ATOM      4  C   UNL     1      73.326  -0.925  32.673  1.00  0.00     0.016 C 
BRANCH   3   5
ATOM      5  C   UNL     1      72.599   0.891  34.260  1.00  0.00     0.015 C 
BRANCH   5   6
ATOM      6  C   UNL     1      72.127   2.345  34.081  1.00  0.00     0.028 C 
BRANCH   6   7
ATOM      7  C   UNL     1      71.617   2.630  32.688  1.00  0.00    -0.028 C 
ATOM      8  C   UNL     1      70.326   2.882  32.371  1.00  0.00    -0.070 CG0
ATOM      9  C   UNL     1      69.990   3.148  30.926  1.00  0.00     0.039 C 
ATOM     10  G   UNL     1      69.206   2.878  33.397  1.00  0.00     0.000 G0
ENDBRANCH   6   7
ENDBRANCH   5   6
ENDBRANCH   3   5
ENDBRANCH   1   3
BRANCH   1  11
ATOM     11  C   UNL     1      69.534  -0.829  33.456  1.00  0.00     0.087 C 
BRANCH  11  12
ATOM     12  C   UNL     1      69.010   0.392  34.286  1.00  0.00     0.066 C 
BRANCH  12  13
ATOM     13  C   UNL     1      68.488   1.548  33.434  1.00  0.00     0.140 C 
ATOM     14  O   UNL     1      67.478   1.408  32.761  1.00  0.00    -0.299 OA
BRANCH  13  15
ATOM     15  C   UNL     1      69.189   2.883  33.403  1.00  0.00     0.106 CG0
ATOM     16  G   UNL     1      70.309   2.872  32.378  1.00  0.00     0.000 G0
ENDBRANCH  13  15
ENDBRANCH  12  13
BRANCH  12  17
ATOM     17  C   UNL     1      68.023  -0.029  35.420  1.00  0.00    -0.006 C 
ATOM     18  C   UNL     1      67.555  -1.483  35.249  1.00  0.00     0.008 C 
ATOM     19  C   UNL     1      68.565   0.187  36.845  1.00  0.00     0.008 C 
ENDBRANCH  12  17
ENDBRANCH  11  12
ENDBRANCH   1  11
TORSDOF 1
ENDMDL
MODEL 8
REMARK VINA RESULT:    -2.076     16.739     18.129
REMARK INTER + INTRA:          -3.273
REMARK INTER:                  -3.072
REMARK INTRA:                  -0.202
REMARK UNBOUND:                -0.105
REMARK SMILES CC1=CCC[C@@H](C)C(=O)C[C@H](C(C)C)C(=O)C1
REMARK SMILES IDX 8 1 9 2 6 3 7 4 5 5 4 6 3 7 2 8 1 9 10 11 11 12 15 13 16 14
REMARK SMILES IDX 17 15 12 17 13 18 14 19
REMARK H PARENT
REMARK Flexibility Score: 70.00
ROOT
ATOM      1  C   UNL     1      64.782  12.506  46.292  1.00  0.00     0.136 C 
ATOM      2  O   UNL     1      63.903  13.333  46.095  1.00  0.00    -0.299 OA
ENDROOT
BRANCH   1   3
ATOM      3  C   UNL     1      64.361  11.134  46.810  1.00  0.00     0.053 C 
ATOM      4  C   UNL     1      63.151  10.648  46.001  1.00  0.00     0.016 C 
BRANCH   3   5
ATOM      5  C   UNL     1      64.041  11.020  48.327  1.00  0.00     0.015 C 
BRANCH   5   6
ATOM      6  C   UNL     1      65.252  10.965  49.276  1.00  0.00     0.028 C 
BRANCH   6   7
ATOM      7  C   UNL     1      66.366  10.086  48.756  1.00  0.00    -0.028 C 
ATOM      8  C   UNL     1      67.657  10.469  48.621  1.00  0.00    -0.070 CG0
ATOM      9  C   UNL     1      68.642   9.461  48.086  1.00  0.00     0.039 C 
ATOM     10  G   UNL     1      68.144  11.868  48.954  1.00  0.00     0.000 G0
ENDBRANCH   6   7
ENDBRANCH   5   6
ENDBRANCH   3   5
ENDBRANCH   1   3
BRANCH   1  11
ATOM     11  C   UNL     1      66.214  12.928  46.032  1.00  0.00     0.087 C 
BRANCH  11  12
ATOM     12  C   UNL     1      66.955  13.534  47.271  1.00  0.00     0.066 C 
BRANCH  12  13
ATOM     13  C   UNL     1      68.181  12.738  47.717  1.00  0.00     0.140 C 
ATOM     14  O   UNL     1      69.216  12.793  47.071  1.00  0.00    -0.299 OA
BRANCH  13  15
ATOM     15  C   UNL     1      68.155  11.879  48.955  1.00  0.00     0.106 CG0
ATOM     16  G   UNL     1      67.661  10.482  48.623  1.00  0.00     0.000 G0
ENDBRANCH  13  15
ENDBRANCH  12  13
BRANCH  12  17
ATOM     17  C   UNL     1      67.238  15.062  47.118  1.00  0.00    -0.006 C 
ATOM     18  C   UNL     1      67.585  15.427  45.666  1.00  0.00     0.008 C 
ATOM     19  C   UNL     1      66.108  15.971  47.635  1.00  0.00     0.008 C 
ENDBRANCH  12  17
ENDBRANCH  11  12
ENDBRANCH   1  11
TORSDOF 1
ENDMDL
MODEL 9
REMARK VINA RESULT:    -2.025      2.060      4.883
REMARK INTER + INTRA:          -3.195
REMARK INTER:                  -3.045
REMARK INTRA:                  -0.150
REMARK UNBOUND:                -0.105
REMARK SMILES CC1=CCC[C@@H](C)C(=O)C[C@H](C(C)C)C(=O)C1
REMARK SMILES IDX 8 1 9 2 6 3 7 4 5 5 4 6 3 7 2 8 1 9 10 11 11 12 15 13 16 14
REMARK SMILES IDX 17 15 12 17 13 18 14 19
REMARK H PARENT
REMARK Flexibility Score: 70.00
ROOT
ATOM      1  C   UNL     1      72.276   4.481  32.888  1.00  0.00     0.136 C 
ATOM      2  O   UNL     1      72.426   5.674  33.113  1.00  0.00    -0.299 OA
ENDROOT
BRANCH   1   3
ATOM      3  C   UNL     1      71.176   4.079  31.912  1.00  0.00     0.053 C 
ATOM      4  C   UNL     1      70.367   5.326  31.533  1.00  0.00     0.016 C 
BRANCH   3   5
ATOM      5  C   UNL     1      70.203   2.956  32.367  1.00  0.00     0.015 C 
BRANCH   5   6
ATOM      6  C   UNL     1      70.626   1.513  32.037  1.00  0.00     0.028 C 
BRANCH   6   7
ATOM      7  C   UNL     1      70.269   0.532  33.129  1.00  0.00    -0.028 C 
ATOM      8  C   UNL     1      71.125   0.077  34.073  1.00  0.00    -0.070 CG0
ATOM      9  C   UNL     1      70.600  -0.901  35.093  1.00  0.00     0.039 C 
ATOM     10  G   UNL     1      72.587   0.484  34.130  1.00  0.00     0.000 G0
ENDBRANCH   6   7
ENDBRANCH   5   6
ENDBRANCH   3   5
ENDBRANCH   1   3
BRANCH   1  11
ATOM     11  C   UNL     1      73.177   3.510  33.623  1.00  0.00     0.087 C 
BRANCH  11  12
ATOM     12  C   UNL     1      72.611   2.994  34.988  1.00  0.00     0.066 C 
BRANCH  12  13
ATOM     13  C   UNL     1      72.814   1.498  35.223  1.00  0.00     0.140 C 
ATOM     14  O   UNL     1      73.160   1.091  36.322  1.00  0.00    -0.299 OA
BRANCH  13  15
ATOM     15  C   UNL     1      72.590   0.490  34.126  1.00  0.00     0.106 CG0
ATOM     16  G   UNL     1      71.128   0.083  34.067  1.00  0.00     0.000 G0
ENDBRANCH  13  15
ENDBRANCH  12  13
BRANCH  12  17
ATOM     17  C   UNL     1      73.060   3.871  36.199  1.00  0.00    -0.006 C 
ATOM     18  C   UNL     1      74.402   4.569  35.921  1.00  0.00     0.008 C 
ATOM     19  C   UNL     1      72.014   4.903  36.658  1.00  0.00     0.008 C 
ENDBRANCH  12  17
ENDBRANCH  11  12
ENDBRANCH   1  11
TORSDOF 1
ENDMDL
