MODEL 1
REMARK VINA RESULT:    -4.284      0.000      0.000
REMARK INTER + INTRA:          -7.112
REMARK INTER:                  -6.538
REMARK INTRA:                  -0.574
REMARK UNBOUND:                -0.574
REMARK SMILES CCCCCCCCCCC(=O)[O-]
REMARK SMILES IDX 7 1 8 2 9 3 10 4 11 5 12 6 13 7 6 8 5 9 4 10 3 11 2 12 1 13
REMARK H PARENT
REMARK Flexibility Score: inf
ROOT
ATOM      1  C   UNL     1      45.987   8.103  18.769  1.00  0.00     0.000 C 
ENDROOT
BRANCH   1   2
ATOM      2  C   UNL     1      46.042   8.305  20.291  1.00  0.00     0.000 C 
BRANCH   2   3
ATOM      3  C   UNL     1      46.800   7.178  21.016  1.00  0.00     0.006 C 
BRANCH   3   4
ATOM      4  C   UNL     1      47.659   7.653  22.198  1.00  0.00     0.053 C 
BRANCH   4   5
ATOM      5  C   UNL     1      46.928   8.632  23.067  1.00  0.00     0.041 C 
ATOM      6  O   UNL     1      47.328   9.822  23.155  1.00  0.00    -0.550 OA
ATOM      7  O   UNL     1      45.787   8.236  23.752  1.00  0.00    -0.550 OA
ENDBRANCH   4   5
ENDBRANCH   3   4
ENDBRANCH   2   3
ENDBRANCH   1   2
BRANCH   1   8
ATOM      8  C   UNL     1      46.706   6.812  18.360  1.00  0.00     0.000 C 
BRANCH   8   9
ATOM      9  C   UNL     1      46.561   6.554  16.855  1.00  0.00    -0.000 C 
BRANCH   9  10
ATOM     10  C   UNL     1      46.449   7.871  16.077  1.00  0.00    -0.000 C 
BRANCH  10  11
ATOM     11  C   UNL     1      45.448   7.744  14.921  1.00  0.00    -0.000 C 
BRANCH  11  12
ATOM     12  C   UNL     1      44.294   6.781  15.241  1.00  0.00    -0.003 C 
ATOM     13  C   UNL     1      43.234   6.742  14.141  1.00  0.00     0.004 C 
ENDBRANCH  11  12
ENDBRANCH  10  11
ENDBRANCH   9  10
ENDBRANCH   8   9
ENDBRANCH   1   8
TORSDOF 9
ENDMDL
MODEL 2
REMARK VINA RESULT:    -4.267      3.400      6.561
REMARK INTER + INTRA:          -7.086
REMARK INTER:                  -6.116
REMARK INTRA:                  -0.970
REMARK UNBOUND:                -0.574
REMARK SMILES CCCCCCCCCCC(=O)[O-]
REMARK SMILES IDX 7 1 8 2 9 3 10 4 11 5 12 6 13 7 6 8 5 9 4 10 3 11 2 12 1 13
REMARK H PARENT
REMARK Flexibility Score: inf
ROOT
ATOM      1  C   UNL     1      44.893   8.559  19.701  1.00  0.00     0.000 C 
ENDROOT
BRANCH   1   2
ATOM      2  C   UNL     1      46.163   8.427  18.847  1.00  0.00     0.000 C 
BRANCH   2   3
ATOM      3  C   UNL     1      46.539   6.962  18.560  1.00  0.00     0.006 C 
BRANCH   3   4
ATOM      4  C   UNL     1      46.902   6.679  17.094  1.00  0.00     0.053 C 
BRANCH   4   5
ATOM      5  C   UNL     1      45.839   7.153  16.149  1.00  0.00     0.041 C 
ATOM      6  O   UNL     1      44.698   6.622  16.162  1.00  0.00    -0.550 OA
ATOM      7  O   UNL     1      46.101   8.203  15.278  1.00  0.00    -0.550 OA
ENDBRANCH   4   5
ENDBRANCH   3   4
ENDBRANCH   2   3
ENDBRANCH   1   2
BRANCH   1   8
ATOM      8  C   UNL     1      45.170   9.365  20.976  1.00  0.00     0.000 C 
BRANCH   8   9
ATOM      9  C   UNL     1      44.618   8.646  22.213  1.00  0.00    -0.000 C 
BRANCH   9  10
ATOM     10  C   UNL     1      45.726   8.396  23.245  1.00  0.00    -0.000 C 
BRANCH  10  11
ATOM     11  C   UNL     1      47.010   9.149  22.867  1.00  0.00    -0.000 C 
BRANCH  11  12
ATOM     12  C   UNL     1      48.240   8.230  22.821  1.00  0.00    -0.003 C 
ATOM     13  C   UNL     1      47.990   6.946  22.030  1.00  0.00     0.004 C 
ENDBRANCH  11  12
ENDBRANCH  10  11
ENDBRANCH   9  10
ENDBRANCH   8   9
ENDBRANCH   1   8
TORSDOF 9
ENDMDL
MODEL 3
REMARK VINA RESULT:    -4.265      3.929      6.800
REMARK INTER + INTRA:          -7.083
REMARK INTER:                  -6.349
REMARK INTRA:                  -0.733
REMARK UNBOUND:                -0.574
REMARK SMILES CCCCCCCCCCC(=O)[O-]
REMARK SMILES IDX 7 1 8 2 9 3 10 4 11 5 12 6 13 7 6 8 5 9 4 10 3 11 2 12 1 13
REMARK H PARENT
REMARK Flexibility Score: inf
ROOT
ATOM      1  C   UNL     1      44.976   8.505  19.584  1.00  0.00     0.000 C 
ENDROOT
BRANCH   1   2
ATOM      2  C   UNL     1      46.243   7.809  19.066  1.00  0.00     0.000 C 
BRANCH   2   3
ATOM      3  C   UNL     1      46.148   7.424  17.578  1.00  0.00     0.006 C 
BRANCH   3   4
ATOM      4  C   UNL     1      47.049   6.248  17.171  1.00  0.00     0.053 C 
BRANCH   4   5
ATOM      5  C   UNL     1      47.089   6.059  15.684  1.00  0.00     0.041 C 
ATOM      6  O   UNL     1      46.393   6.790  14.934  1.00  0.00    -0.550 OA
ATOM      7  O   UNL     1      47.922   5.096  15.128  1.00  0.00    -0.550 OA
ENDBRANCH   4   5
ENDBRANCH   3   4
ENDBRANCH   2   3
ENDBRANCH   1   2
BRANCH   1   8
ATOM      8  C   UNL     1      45.264   9.278  20.877  1.00  0.00     0.000 C 
BRANCH   8   9
ATOM      9  C   UNL     1      44.698   8.542  22.097  1.00  0.00    -0.000 C 
BRANCH   9  10
ATOM     10  C   UNL     1      45.766   8.379  23.187  1.00  0.00    -0.000 C 
BRANCH  10  11
ATOM     11  C   UNL     1      47.077   9.066  22.779  1.00  0.00    -0.000 C 
BRANCH  11  12
ATOM     12  C   UNL     1      48.283   8.115  22.832  1.00  0.00    -0.003 C 
ATOM     13  C   UNL     1      47.983   6.747  22.218  1.00  0.00     0.004 C 
ENDBRANCH  11  12
ENDBRANCH  10  11
ENDBRANCH   9  10
ENDBRANCH   8   9
ENDBRANCH   1   8
TORSDOF 9
ENDMDL
MODEL 4
REMARK VINA RESULT:    -4.222      3.629      6.784
REMARK INTER + INTRA:          -7.018
REMARK INTER:                  -6.329
REMARK INTRA:                  -0.689
REMARK UNBOUND:                -0.574
REMARK SMILES CCCCCCCCCCC(=O)[O-]
REMARK SMILES IDX 7 1 8 2 9 3 10 4 11 5 12 6 13 7 6 8 5 9 4 10 3 11 2 12 1 13
REMARK H PARENT
REMARK Flexibility Score: inf
ROOT
ATOM      1  C   UNL     1      46.721   7.219  19.043  1.00  0.00     0.000 C 
ENDROOT
BRANCH   1   2
ATOM      2  C   UNL     1      46.674   6.433  17.724  1.00  0.00     0.000 C 
BRANCH   2   3
ATOM      3  C   UNL     1      46.603   7.347  16.487  1.00  0.00     0.006 C 
BRANCH   3   4
ATOM      4  C   UNL     1      45.814   6.756  15.309  1.00  0.00     0.053 C 
BRANCH   4   5
ATOM      5  C   UNL     1      44.468   7.396  15.155  1.00  0.00     0.041 C 
ATOM      6  O   UNL     1      44.108   8.311  15.940  1.00  0.00    -0.550 OA
ATOM      7  O   UNL     1      43.625   7.004  14.122  1.00  0.00    -0.550 OA
ENDBRANCH   4   5
ENDBRANCH   3   4
ENDBRANCH   2   3
ENDBRANCH   1   2
BRANCH   1   8
ATOM      8  C   UNL     1      45.656   8.321  19.065  1.00  0.00     0.000 C 
BRANCH   8   9
ATOM      9  C   UNL     1      45.657   9.063  20.407  1.00  0.00    -0.000 C 
BRANCH   9  10
ATOM     10  C   UNL     1      45.950   8.103  21.567  1.00  0.00    -0.000 C 
BRANCH  10  11
ATOM     11  C   UNL     1      46.885   8.753  22.597  1.00  0.00    -0.000 C 
BRANCH  11  12
ATOM     12  C   UNL     1      48.216   8.000  22.743  1.00  0.00    -0.003 C 
ATOM     13  C   UNL     1      48.109   6.527  22.346  1.00  0.00     0.004 C 
ENDBRANCH  11  12
ENDBRANCH  10  11
ENDBRANCH   9  10
ENDBRANCH   8   9
ENDBRANCH   1   8
TORSDOF 9
ENDMDL
MODEL 5
REMARK VINA RESULT:    -4.188      1.303      2.034
REMARK INTER + INTRA:          -6.966
REMARK INTER:                  -6.255
REMARK INTRA:                  -0.711
REMARK UNBOUND:                -0.574
REMARK SMILES CCCCCCCCCCC(=O)[O-]
REMARK SMILES IDX 7 1 8 2 9 3 10 4 11 5 12 6 13 7 6 8 5 9 4 10 3 11 2 12 1 13
REMARK H PARENT
REMARK Flexibility Score: inf
ROOT
ATOM      1  C   UNL     1      46.272   8.141  17.850  1.00  0.00     0.000 C 
ENDROOT
BRANCH   1   2
ATOM      2  C   UNL     1      46.655   7.103  18.915  1.00  0.00     0.000 C 
BRANCH   2   3
ATOM      3  C   UNL     1      46.401   7.597  20.351  1.00  0.00     0.006 C 
BRANCH   3   4
ATOM      4  C   UNL     1      47.357   7.009  21.400  1.00  0.00     0.053 C 
BRANCH   4   5
ATOM      5  C   UNL     1      47.484   7.893  22.604  1.00  0.00     0.041 C 
ATOM      6  O   UNL     1      48.616   8.301  22.973  1.00  0.00    -0.550 OA
ATOM      7  O   UNL     1      46.348   8.291  23.297  1.00  0.00    -0.550 OA
ENDBRANCH   4   5
ENDBRANCH   3   4
ENDBRANCH   2   3
ENDBRANCH   1   2
BRANCH   1   8
ATOM      8  C   UNL     1      44.764   8.115  17.574  1.00  0.00     0.000 C 
BRANCH   8   9
ATOM      9  C   UNL     1      44.447   7.292  16.320  1.00  0.00    -0.000 C 
BRANCH   9  10
ATOM     10  C   UNL     1      44.929   8.009  15.053  1.00  0.00    -0.000 C 
BRANCH  10  11
ATOM     11  C   UNL     1      45.895   7.123  14.252  1.00  0.00    -0.000 C 
BRANCH  11  12
ATOM     12  C   UNL     1      46.080   5.734  14.881  1.00  0.00    -0.003 C 
ATOM     13  C   UNL     1      47.531   5.450  15.270  1.00  0.00     0.004 C 
ENDBRANCH  11  12
ENDBRANCH  10  11
ENDBRANCH   9  10
ENDBRANCH   8   9
ENDBRANCH   1   8
TORSDOF 9
ENDMDL
MODEL 6
REMARK VINA RESULT:    -4.178      3.881      6.737
REMARK INTER + INTRA:          -6.951
REMARK INTER:                  -6.255
REMARK INTRA:                  -0.696
REMARK UNBOUND:                -0.574
REMARK SMILES CCCCCCCCCCC(=O)[O-]
REMARK SMILES IDX 7 1 8 2 9 3 10 4 11 5 12 6 13 7 6 8 5 9 4 10 3 11 2 12 1 13
REMARK H PARENT
REMARK Flexibility Score: inf
ROOT
ATOM      1  C   UNL     1      44.414   8.520  17.337  1.00  0.00     0.000 C 
ENDROOT
BRANCH   1   2
ATOM      2  C   UNL     1      44.558   7.231  16.513  1.00  0.00     0.000 C 
BRANCH   2   3
ATOM      3  C   UNL     1      44.645   7.496  14.999  1.00  0.00     0.006 C 
BRANCH   3   4
ATOM      4  C   UNL     1      46.042   7.276  14.399  1.00  0.00     0.053 C 
BRANCH   4   5
ATOM      5  C   UNL     1      46.582   5.914  14.715  1.00  0.00     0.041 C 
ATOM      6  O   UNL     1      47.568   5.787  15.487  1.00  0.00    -0.550 OA
ATOM      7  O   UNL     1      45.975   4.784  14.181  1.00  0.00    -0.550 OA
ENDBRANCH   4   5
ENDBRANCH   3   4
ENDBRANCH   2   3
ENDBRANCH   1   2
BRANCH   1   8
ATOM      8  C   UNL     1      45.447   8.567  18.469  1.00  0.00     0.000 C 
BRANCH   8   9
ATOM      9  C   UNL     1      46.324   7.309  18.468  1.00  0.00    -0.000 C 
BRANCH   9  10
ATOM     10  C   UNL     1      46.753   6.933  19.892  1.00  0.00    -0.000 C 
BRANCH  10  11
ATOM     11  C   UNL     1      46.357   8.029  20.893  1.00  0.00    -0.000 C 
BRANCH  11  12
ATOM     12  C   UNL     1      47.084   7.890  22.238  1.00  0.00    -0.003 C 
ATOM     13  C   UNL     1      48.051   6.706  22.268  1.00  0.00     0.004 C 
ENDBRANCH  11  12
ENDBRANCH  10  11
ENDBRANCH   9  10
ENDBRANCH   8   9
ENDBRANCH   1   8
TORSDOF 9
ENDMDL
MODEL 7
REMARK VINA RESULT:    -4.155      1.978      2.794
REMARK INTER + INTRA:          -6.915
REMARK INTER:                  -6.440
REMARK INTRA:                  -0.476
REMARK UNBOUND:                -0.574
REMARK SMILES CCCCCCCCCCC(=O)[O-]
REMARK SMILES IDX 7 1 8 2 9 3 10 4 11 5 12 6 13 7 6 8 5 9 4 10 3 11 2 12 1 13
REMARK H PARENT
REMARK Flexibility Score: inf
ROOT
ATOM      1  C   UNL     1      47.386   6.761  21.402  1.00  0.00     0.000 C 
ENDROOT
BRANCH   1   2
ATOM      2  C   UNL     1      47.764   7.772  22.495  1.00  0.00     0.000 C 
BRANCH   2   3
ATOM      3  C   UNL     1      46.713   8.883  22.670  1.00  0.00     0.006 C 
BRANCH   3   4
ATOM      4  C   UNL     1      45.764   8.673  23.860  1.00  0.00     0.053 C 
BRANCH   4   5
ATOM      5  C   UNL     1      44.331   8.899  23.484  1.00  0.00     0.041 C 
ATOM      6  O   UNL     1      43.888   8.466  22.389  1.00  0.00    -0.550 OA
ATOM      7  O   UNL     1      43.479   9.560  24.360  1.00  0.00    -0.550 OA
ENDBRANCH   4   5
ENDBRANCH   3   4
ENDBRANCH   2   3
ENDBRANCH   1   2
BRANCH   1   8
ATOM      8  C   UNL     1      46.410   7.380  20.395  1.00  0.00     0.000 C 
BRANCH   8   9
ATOM      9  C   UNL     1      46.751   6.952  18.962  1.00  0.00    -0.000 C 
BRANCH   9  10
ATOM     10  C   UNL     1      46.369   8.044  17.955  1.00  0.00    -0.000 C 
BRANCH  10  11
ATOM     11  C   UNL     1      46.746   7.631  16.525  1.00  0.00    -0.000 C 
BRANCH  11  12
ATOM     12  C   UNL     1      46.994   6.120  16.394  1.00  0.00    -0.003 C 
ATOM     13  C   UNL     1      46.828   5.617  14.960  1.00  0.00     0.004 C 
ENDBRANCH  11  12
ENDBRANCH  10  11
ENDBRANCH   9  10
ENDBRANCH   8   9
ENDBRANCH   1   8
TORSDOF 9
ENDMDL
MODEL 8
REMARK VINA RESULT:    -4.085      0.995      1.847
REMARK INTER + INTRA:          -6.809
REMARK INTER:                  -6.089
REMARK INTRA:                  -0.720
REMARK UNBOUND:                -0.574
REMARK SMILES CCCCCCCCCCC(=O)[O-]
REMARK SMILES IDX 7 1 8 2 9 3 10 4 11 5 12 6 13 7 6 8 5 9 4 10 3 11 2 12 1 13
REMARK H PARENT
REMARK Flexibility Score: inf
ROOT
ATOM      1  C   UNL     1      45.767   7.794  18.855  1.00  0.00     0.000 C 
ENDROOT
BRANCH   1   2
ATOM      2  C   UNL     1      46.308   8.206  20.232  1.00  0.00     0.000 C 
BRANCH   2   3
ATOM      3  C   UNL     1      46.995   7.046  20.975  1.00  0.00     0.006 C 
BRANCH   3   4
ATOM      4  C   UNL     1      47.761   7.469  22.238  1.00  0.00     0.053 C 
BRANCH   4   5
ATOM      5  C   UNL     1      47.034   8.531  23.007  1.00  0.00     0.041 C 
ATOM      6  O   UNL     1      45.973   8.252  23.624  1.00  0.00    -0.550 OA
ATOM      7  O   UNL     1      47.548   9.820  23.069  1.00  0.00    -0.550 OA
ENDBRANCH   4   5
ENDBRANCH   3   4
ENDBRANCH   2   3
ENDBRANCH   1   2
BRANCH   1   8
ATOM      8  C   UNL     1      46.673   6.744  18.200  1.00  0.00     0.000 C 
BRANCH   8   9
ATOM      9  C   UNL     1      46.418   6.661  16.690  1.00  0.00    -0.000 C 
BRANCH   9  10
ATOM     10  C   UNL     1      44.962   7.014  16.356  1.00  0.00    -0.000 C 
BRANCH  10  11
ATOM     11  C   UNL     1      44.892   8.033  15.210  1.00  0.00    -0.000 C 
BRANCH  11  12
ATOM     12  C   UNL     1      45.919   9.165  15.363  1.00  0.00    -0.003 C 
ATOM     13  C   UNL     1      45.336  10.404  16.044  1.00  0.00     0.004 C 
ENDBRANCH  11  12
ENDBRANCH  10  11
ENDBRANCH   9  10
ENDBRANCH   8   9
ENDBRANCH   1   8
TORSDOF 9
ENDMDL
MODEL 9
REMARK VINA RESULT:    -4.049      1.968      2.835
REMARK INTER + INTRA:          -6.754
REMARK INTER:                  -5.832
REMARK INTRA:                  -0.922
REMARK UNBOUND:                -0.574
REMARK SMILES CCCCCCCCCCC(=O)[O-]
REMARK SMILES IDX 7 1 8 2 9 3 10 4 11 5 12 6 13 7 6 8 5 9 4 10 3 11 2 12 1 13
REMARK H PARENT
REMARK Flexibility Score: inf
ROOT
ATOM      1  C   UNL     1      46.806   6.745  19.978  1.00  0.00     0.000 C 
ENDROOT
BRANCH   1   2
ATOM      2  C   UNL     1      46.805   7.537  21.294  1.00  0.00     0.000 C 
BRANCH   2   3
ATOM      3  C   UNL     1      45.842   8.738  21.267  1.00  0.00     0.006 C 
BRANCH   3   4
ATOM      4  C   UNL     1      44.468   8.461  21.897  1.00  0.00     0.053 C 
BRANCH   4   5
ATOM      5  C   UNL     1      44.390   8.945  23.313  1.00  0.00     0.041 C 
ATOM      6  O   UNL     1      43.471   9.731  23.664  1.00  0.00    -0.550 OA
ATOM      7  O   UNL     1      45.313   8.502  24.251  1.00  0.00    -0.550 OA
ENDBRANCH   4   5
ENDBRANCH   3   4
ENDBRANCH   2   3
ENDBRANCH   1   2
BRANCH   1   8
ATOM      8  C   UNL     1      46.569   7.671  18.779  1.00  0.00     0.000 C 
BRANCH   8   9
ATOM      9  C   UNL     1      46.263   6.863  17.512  1.00  0.00    -0.000 C 
BRANCH   9  10
ATOM     10  C   UNL     1      45.015   7.404  16.801  1.00  0.00    -0.000 C 
BRANCH  10  11
ATOM     11  C   UNL     1      44.059   8.072  17.800  1.00  0.00    -0.000 C 
BRANCH  11  12
ATOM     12  C   UNL     1      43.741   9.528  17.429  1.00  0.00    -0.003 C 
ATOM     13  C   UNL     1      43.808  10.472  18.630  1.00  0.00     0.004 C 
ENDBRANCH  11  12
ENDBRANCH  10  11
ENDBRANCH   9  10
ENDBRANCH   8   9
ENDBRANCH   1   8
TORSDOF 9
ENDMDL
