MODEL 1
REMARK VINA RESULT:    -4.091      0.000      0.000
REMARK INTER + INTRA:          -5.113
REMARK INTER:                  -5.047
REMARK INTRA:                  -0.065
REMARK UNBOUND:                -0.065
REMARK SMILES CCCCCC(=O)[O-]
REMARK SMILES IDX 4 1 5 2 6 3 7 4 8 5 3 6 2 7 1 8
REMARK H PARENT
REMARK Flexibility Score: inf
ROOT
ATOM      1  C   UNL     1      21.802  19.374   6.274  1.00  0.00     0.006 C 
ENDROOT
BRANCH   1   2
ATOM      2  C   UNL     1      20.394  19.577   6.852  1.00  0.00     0.053 C 
BRANCH   2   3
ATOM      3  C   UNL     1      20.024  21.027   6.918  1.00  0.00     0.041 C 
ATOM      4  O   UNL     1      20.792  21.901   6.434  1.00  0.00    -0.550 OA
ATOM      5  O   UNL     1      18.817  21.411   7.488  1.00  0.00    -0.550 OA
ENDBRANCH   2   3
ENDBRANCH   1   2
BRANCH   1   6
ATOM      6  C   UNL     1      22.191  17.887   6.206  1.00  0.00     0.000 C 
BRANCH   6   7
ATOM      7  C   UNL     1      23.343  17.624   5.225  1.00  0.00    -0.003 C 
ATOM      8  C   UNL     1      24.573  18.486   5.511  1.00  0.00     0.004 C 
ENDBRANCH   6   7
ENDBRANCH   1   6
TORSDOF 4
ENDMDL
MODEL 2
REMARK VINA RESULT:    -4.050      7.783      9.521
REMARK INTER + INTRA:          -5.062
REMARK INTER:                  -4.853
REMARK INTRA:                  -0.210
REMARK UNBOUND:                -0.065
REMARK SMILES CCCCCC(=O)[O-]
REMARK SMILES IDX 4 1 5 2 6 3 7 4 8 5 3 6 2 7 1 8
REMARK H PARENT
REMARK Flexibility Score: inf
ROOT
ATOM      1  C   UNL     1      29.868  17.737   5.716  1.00  0.00     0.006 C 
ENDROOT
BRANCH   1   2
ATOM      2  C   UNL     1      30.624  16.691   6.547  1.00  0.00     0.053 C 
BRANCH   2   3
ATOM      3  C   UNL     1      31.381  17.318   7.676  1.00  0.00     0.041 C 
ATOM      4  O   UNL     1      30.978  18.395   8.191  1.00  0.00    -0.550 OA
ATOM      5  O   UNL     1      32.519  16.699   8.180  1.00  0.00    -0.550 OA
ENDBRANCH   2   3
ENDBRANCH   1   2
BRANCH   1   6
ATOM      6  C   UNL     1      28.426  17.299   5.407  1.00  0.00     0.000 C 
BRANCH   6   7
ATOM      7  C   UNL     1      27.462  17.587   6.569  1.00  0.00    -0.003 C 
ATOM      8  C   UNL     1      27.657  18.981   7.168  1.00  0.00     0.004 C 
ENDBRANCH   6   7
ENDBRANCH   1   6
TORSDOF 4
ENDMDL
MODEL 3
REMARK VINA RESULT:    -4.043      7.841      9.228
REMARK INTER + INTRA:          -5.054
REMARK INTER:                  -4.868
REMARK INTRA:                  -0.187
REMARK UNBOUND:                -0.065
REMARK SMILES CCCCCC(=O)[O-]
REMARK SMILES IDX 4 1 5 2 6 3 7 4 8 5 3 6 2 7 1 8
REMARK H PARENT
REMARK Flexibility Score: inf
ROOT
ATOM      1  C   UNL     1      15.380  21.140  12.622  1.00  0.00     0.006 C 
ENDROOT
BRANCH   1   2
ATOM      2  C   UNL     1      15.321  22.324  13.598  1.00  0.00     0.053 C 
BRANCH   2   3
ATOM      3  C   UNL     1      15.733  21.925  14.981  1.00  0.00     0.041 C 
ATOM      4  O   UNL     1      16.495  20.937  15.157  1.00  0.00    -0.550 OA
ATOM      5  O   UNL     1      15.297  22.661  16.077  1.00  0.00    -0.550 OA
ENDBRANCH   2   3
ENDBRANCH   1   2
BRANCH   1   6
ATOM      6  C   UNL     1      16.011  21.533  11.275  1.00  0.00     0.000 C 
BRANCH   6   7
ATOM      7  C   UNL     1      17.523  21.261  11.231  1.00  0.00    -0.003 C 
ATOM      8  C   UNL     1      17.936  20.076  12.105  1.00  0.00     0.004 C 
ENDBRANCH   6   7
ENDBRANCH   1   6
TORSDOF 4
ENDMDL
MODEL 4
REMARK VINA RESULT:    -4.026      7.783      9.237
REMARK INTER + INTRA:          -5.033
REMARK INTER:                  -4.863
REMARK INTRA:                  -0.170
REMARK UNBOUND:                -0.065
REMARK SMILES CCCCCC(=O)[O-]
REMARK SMILES IDX 4 1 5 2 6 3 7 4 8 5 3 6 2 7 1 8
REMARK H PARENT
REMARK Flexibility Score: inf
ROOT
ATOM      1  C   UNL     1      15.358  21.181  12.623  1.00  0.00     0.006 C 
ENDROOT
BRANCH   1   2
ATOM      2  C   UNL     1      15.333  22.348  13.621  1.00  0.00     0.053 C 
BRANCH   2   3
ATOM      3  C   UNL     1      15.692  21.905  15.005  1.00  0.00     0.041 C 
ATOM      4  O   UNL     1      15.427  22.636  15.995  1.00  0.00    -0.550 OA
ATOM      5  O   UNL     1      16.294  20.668  15.206  1.00  0.00    -0.550 OA
ENDBRANCH   2   3
ENDBRANCH   1   2
BRANCH   1   6
ATOM      6  C   UNL     1      16.065  21.556  11.310  1.00  0.00     0.000 C 
BRANCH   6   7
ATOM      7  C   UNL     1      17.196  20.580  10.950  1.00  0.00    -0.003 C 
ATOM      8  C   UNL     1      18.033  20.172  12.163  1.00  0.00     0.004 C 
ENDBRANCH   6   7
ENDBRANCH   1   6
TORSDOF 4
ENDMDL
MODEL 5
REMARK VINA RESULT:    -3.964      6.913      9.125
REMARK INTER + INTRA:          -4.956
REMARK INTER:                  -4.805
REMARK INTRA:                  -0.151
REMARK UNBOUND:                -0.065
REMARK SMILES CCCCCC(=O)[O-]
REMARK SMILES IDX 4 1 5 2 6 3 7 4 8 5 3 6 2 7 1 8
REMARK H PARENT
REMARK Flexibility Score: inf
ROOT
ATOM      1  C   UNL     1      15.481  21.203  12.654  1.00  0.00     0.006 C 
ENDROOT
BRANCH   1   2
ATOM      2  C   UNL     1      16.011  21.463  11.237  1.00  0.00     0.053 C 
BRANCH   2   3
ATOM      3  C   UNL     1      17.345  20.821  11.015  1.00  0.00     0.041 C 
ATOM      4  O   UNL     1      17.794  20.676   9.847  1.00  0.00    -0.550 OA
ATOM      5  O   UNL     1      18.108  20.407  12.101  1.00  0.00    -0.550 OA
ENDBRANCH   2   3
ENDBRANCH   1   2
BRANCH   1   6
ATOM      6  C   UNL     1      15.462  22.481  13.509  1.00  0.00     0.000 C 
BRANCH   6   7
ATOM      7  C   UNL     1      15.474  22.182  15.016  1.00  0.00    -0.003 C 
ATOM      8  C   UNL     1      16.193  20.876  15.355  1.00  0.00     0.004 C 
ENDBRANCH   6   7
ENDBRANCH   1   6
TORSDOF 4
ENDMDL
MODEL 6
REMARK VINA RESULT:    -3.947      6.164      8.034
REMARK INTER + INTRA:          -4.935
REMARK INTER:                  -4.859
REMARK INTRA:                  -0.076
REMARK UNBOUND:                -0.065
REMARK SMILES CCCCCC(=O)[O-]
REMARK SMILES IDX 4 1 5 2 6 3 7 4 8 5 3 6 2 7 1 8
REMARK H PARENT
REMARK Flexibility Score: inf
ROOT
ATOM      1  C   UNL     1      29.509  17.782   5.781  1.00  0.00     0.006 C 
ENDROOT
BRANCH   1   2
ATOM      2  C   UNL     1      28.047  17.368   5.560  1.00  0.00     0.053 C 
BRANCH   2   3
ATOM      3  C   UNL     1      27.110  18.153   6.425  1.00  0.00     0.041 C 
ATOM      4  O   UNL     1      27.442  18.470   7.598  1.00  0.00    -0.550 OA
ATOM      5  O   UNL     1      25.880  18.562   5.924  1.00  0.00    -0.550 OA
ENDBRANCH   2   3
ENDBRANCH   1   2
BRANCH   1   6
ATOM      6  C   UNL     1      30.392  16.591   6.194  1.00  0.00     0.000 C 
BRANCH   6   7
ATOM      7  C   UNL     1      31.591  17.018   7.055  1.00  0.00    -0.003 C 
ATOM      8  C   UNL     1      32.900  17.065   6.265  1.00  0.00     0.004 C 
ENDBRANCH   6   7
ENDBRANCH   1   6
TORSDOF 4
ENDMDL
MODEL 7
REMARK VINA RESULT:    -3.936      7.842      8.850
REMARK INTER + INTRA:          -4.922
REMARK INTER:                  -4.663
REMARK INTRA:                  -0.259
REMARK UNBOUND:                -0.065
REMARK SMILES CCCCCC(=O)[O-]
REMARK SMILES IDX 4 1 5 2 6 3 7 4 8 5 3 6 2 7 1 8
REMARK H PARENT
REMARK Flexibility Score: inf
ROOT
ATOM      1  C   UNL     1      27.960  18.213   5.799  1.00  0.00     0.006 C 
ENDROOT
BRANCH   1   2
ATOM      2  C   UNL     1      28.905  17.015   5.626  1.00  0.00     0.053 C 
BRANCH   2   3
ATOM      3  C   UNL     1      30.319  17.369   5.967  1.00  0.00     0.041 C 
ATOM      4  O   UNL     1      30.883  18.345   5.405  1.00  0.00    -0.550 OA
ATOM      5  O   UNL     1      31.007  16.638   6.928  1.00  0.00    -0.550 OA
ENDBRANCH   2   3
ENDBRANCH   1   2
BRANCH   1   6
ATOM      6  C   UNL     1      27.596  18.456   7.273  1.00  0.00     0.000 C 
BRANCH   6   7
ATOM      7  C   UNL     1      28.110  19.808   7.791  1.00  0.00    -0.003 C 
ATOM      8  C   UNL     1      29.378  19.676   8.636  1.00  0.00     0.004 C 
ENDBRANCH   6   7
ENDBRANCH   1   6
TORSDOF 4
ENDMDL
MODEL 8
REMARK VINA RESULT:    -3.894      7.144      9.155
REMARK INTER + INTRA:          -4.870
REMARK INTER:                  -4.686
REMARK INTRA:                  -0.183
REMARK UNBOUND:                -0.065
REMARK SMILES CCCCCC(=O)[O-]
REMARK SMILES IDX 4 1 5 2 6 3 7 4 8 5 3 6 2 7 1 8
REMARK H PARENT
REMARK Flexibility Score: inf
ROOT
ATOM      1  C   UNL     1      30.816  18.144   5.816  1.00  0.00     0.006 C 
ENDROOT
BRANCH   1   2
ATOM      2  C   UNL     1      31.438  18.537   7.163  1.00  0.00     0.053 C 
BRANCH   2   3
ATOM      3  C   UNL     1      30.882  19.829   7.677  1.00  0.00     0.041 C 
ATOM      4  O   UNL     1      29.658  20.093   7.539  1.00  0.00    -0.550 OA
ATOM      5  O   UNL     1      31.711  20.731   8.333  1.00  0.00    -0.550 OA
ENDBRANCH   2   3
ENDBRANCH   1   2
BRANCH   1   6
ATOM      6  C   UNL     1      29.794  17.004   5.960  1.00  0.00     0.000 C 
BRANCH   6   7
ATOM      7  C   UNL     1      28.427  17.359   5.357  1.00  0.00    -0.003 C 
ATOM      8  C   UNL     1      27.350  17.581   6.419  1.00  0.00     0.004 C 
ENDBRANCH   6   7
ENDBRANCH   1   6
TORSDOF 4
ENDMDL
MODEL 9
REMARK VINA RESULT:    -3.842      6.265      8.095
REMARK INTER + INTRA:          -4.806
REMARK INTER:                  -4.608
REMARK INTRA:                  -0.198
REMARK UNBOUND:                -0.065
REMARK SMILES CCCCCC(=O)[O-]
REMARK SMILES IDX 4 1 5 2 6 3 7 4 8 5 3 6 2 7 1 8
REMARK H PARENT
REMARK Flexibility Score: inf
ROOT
ATOM      1  C   UNL     1      29.704  17.051   6.186  1.00  0.00     0.006 C 
ENDROOT
BRANCH   1   2
ATOM      2  C   UNL     1      28.436  17.369   5.380  1.00  0.00     0.053 C 
BRANCH   2   3
ATOM      3  C   UNL     1      27.337  17.888   6.255  1.00  0.00     0.041 C 
ATOM      4  O   UNL     1      26.146  17.894   5.842  1.00  0.00    -0.550 OA
ATOM      5  O   UNL     1      27.622  18.338   7.538  1.00  0.00    -0.550 OA
ENDBRANCH   2   3
ENDBRANCH   1   2
BRANCH   1   6
ATOM      6  C   UNL     1      30.815  18.088   5.948  1.00  0.00     0.000 C 
BRANCH   6   7
ATOM      7  C   UNL     1      31.382  18.655   7.258  1.00  0.00    -0.003 C 
ATOM      8  C   UNL     1      30.717  19.969   7.670  1.00  0.00     0.004 C 
ENDBRANCH   6   7
ENDBRANCH   1   6
TORSDOF 4
ENDMDL
