MODEL 1
REMARK VINA RESULT:    -5.106      0.000      0.000
REMARK INTER + INTRA:          -9.560
REMARK INTER:                  -8.390
REMARK INTRA:                  -1.170
REMARK UNBOUND:                -1.170
REMARK SMILES CCCCCCCCCCCCCC
REMARK SMILES IDX 7 1 6 2 5 3 4 4 3 5 2 6 1 7 8 8 9 9 10 10 11 11 12 12 13 13
REMARK SMILES IDX 14 14
REMARK H PARENT
REMARK Flexibility Score: inf
ROOT
ATOM      1  C   UNL     1      72.312   2.760  -2.608  1.00  0.00    -0.000 C 
ENDROOT
BRANCH   1   2
ATOM      2  C   UNL     1      72.874   1.693  -1.651  1.00  0.00    -0.000 C 
BRANCH   2   3
ATOM      3  C   UNL     1      72.842   2.077  -0.157  1.00  0.00    -0.000 C 
BRANCH   3   4
ATOM      4  C   UNL     1      72.599   0.905   0.815  1.00  0.00    -0.000 C 
BRANCH   4   5
ATOM      5  C   UNL     1      71.206   0.260   0.719  1.00  0.00    -0.000 C 
BRANCH   5   6
ATOM      6  C   UNL     1      70.777  -0.428   2.023  1.00  0.00    -0.003 C 
ATOM      7  C   UNL     1      70.129   0.567   2.981  1.00  0.00     0.004 C 
ENDBRANCH   5   6
ENDBRANCH   4   5
ENDBRANCH   3   4
ENDBRANCH   2   3
ENDBRANCH   1   2
BRANCH   1   8
ATOM      8  C   UNL     1      70.822   3.046  -2.373  1.00  0.00    -0.000 C 
BRANCH   8   9
ATOM      9  C   UNL     1      69.997   1.756  -2.446  1.00  0.00    -0.000 C 
BRANCH   9  10
ATOM     10  C   UNL     1      69.617   1.426  -3.894  1.00  0.00    -0.000 C 
BRANCH  10  11
ATOM     11  C   UNL     1      70.102   0.023  -4.285  1.00  0.00    -0.000 C 
BRANCH  11  12
ATOM     12  C   UNL     1      70.803  -0.714  -3.129  1.00  0.00    -0.000 C 
BRANCH  12  13
ATOM     13  C   UNL     1      71.203  -2.168  -3.438  1.00  0.00    -0.003 C 
ATOM     14  C   UNL     1      70.277  -2.842  -4.448  1.00  0.00     0.004 C 
ENDBRANCH  12  13
ENDBRANCH  11  12
ENDBRANCH  10  11
ENDBRANCH   9  10
ENDBRANCH   8   9
ENDBRANCH   1   8
TORSDOF 11
ENDMDL
MODEL 2
REMARK VINA RESULT:    -5.053      0.605      5.380
REMARK INTER + INTRA:          -9.472
REMARK INTER:                  -8.518
REMARK INTRA:                  -0.953
REMARK UNBOUND:                -1.170
REMARK SMILES CCCCCCCCCCCCCC
REMARK SMILES IDX 7 1 6 2 5 3 4 4 3 5 2 6 1 7 8 8 9 9 10 10 11 11 12 12 13 13
REMARK SMILES IDX 14 14
REMARK H PARENT
REMARK Flexibility Score: inf
ROOT
ATOM      1  C   UNL     1      72.148   3.060  -2.625  1.00  0.00    -0.000 C 
ENDROOT
BRANCH   1   2
ATOM      2  C   UNL     1      70.608   3.049  -2.595  1.00  0.00    -0.000 C 
BRANCH   2   3
ATOM      3  C   UNL     1      69.965   1.650  -2.683  1.00  0.00    -0.000 C 
BRANCH   3   4
ATOM      4  C   UNL     1      69.455   1.252  -4.083  1.00  0.00    -0.000 C 
BRANCH   4   5
ATOM      5  C   UNL     1      69.784  -0.190  -4.508  1.00  0.00    -0.000 C 
BRANCH   5   6
ATOM      6  C   UNL     1      70.963  -0.787  -3.725  1.00  0.00    -0.003 C 
ATOM      7  C   UNL     1      70.919  -2.312  -3.745  1.00  0.00     0.004 C 
ENDBRANCH   5   6
ENDBRANCH   4   5
ENDBRANCH   3   4
ENDBRANCH   2   3
ENDBRANCH   1   2
BRANCH   1   8
ATOM      8  C   UNL     1      72.766   1.805  -1.992  1.00  0.00    -0.000 C 
BRANCH   8   9
ATOM      9  C   UNL     1      72.890   1.962  -0.472  1.00  0.00    -0.000 C 
BRANCH   9  10
ATOM     10  C   UNL     1      72.234   0.784   0.259  1.00  0.00    -0.000 C 
BRANCH  10  11
ATOM     11  C   UNL     1      72.722   0.697   1.712  1.00  0.00    -0.000 C 
BRANCH  11  12
ATOM     12  C   UNL     1      72.010  -0.403   2.520  1.00  0.00    -0.000 C 
BRANCH  12  13
ATOM     13  C   UNL     1      70.473  -0.348   2.472  1.00  0.00    -0.003 C 
ATOM     14  C   UNL     1      69.888   0.776   3.326  1.00  0.00     0.004 C 
ENDBRANCH  12  13
ENDBRANCH  11  12
ENDBRANCH  10  11
ENDBRANCH   9  10
ENDBRANCH   8   9
ENDBRANCH   1   8
TORSDOF 11
ENDMDL
MODEL 3
REMARK VINA RESULT:    -4.951      0.680      1.237
REMARK INTER + INTRA:          -9.305
REMARK INTER:                  -8.377
REMARK INTRA:                  -0.928
REMARK UNBOUND:                -1.170
REMARK SMILES CCCCCCCCCCCCCC
REMARK SMILES IDX 7 1 6 2 5 3 4 4 3 5 2 6 1 7 8 8 9 9 10 10 11 11 12 12 13 13
REMARK SMILES IDX 14 14
REMARK H PARENT
REMARK Flexibility Score: inf
ROOT
ATOM      1  C   UNL     1      72.659   2.011  -2.020  1.00  0.00    -0.000 C 
ENDROOT
BRANCH   1   2
ATOM      2  C   UNL     1      72.875   2.124  -0.500  1.00  0.00    -0.000 C 
BRANCH   2   3
ATOM      3  C   UNL     1      73.040   0.779   0.236  1.00  0.00    -0.000 C 
BRANCH   3   4
ATOM      4  C   UNL     1      72.512   0.756   1.685  1.00  0.00    -0.000 C 
BRANCH   4   5
ATOM      5  C   UNL     1      71.469  -0.337   1.978  1.00  0.00    -0.000 C 
BRANCH   5   6
ATOM      6  C   UNL     1      70.054   0.226   2.175  1.00  0.00    -0.003 C 
ATOM      7  C   UNL     1      69.913   0.891   3.541  1.00  0.00     0.004 C 
ENDBRANCH   5   6
ENDBRANCH   4   5
ENDBRANCH   3   4
ENDBRANCH   2   3
ENDBRANCH   1   2
BRANCH   1   8
ATOM      8  C   UNL     1      71.814   3.160  -2.589  1.00  0.00    -0.000 C 
BRANCH   8   9
ATOM      9  C   UNL     1      70.332   2.975  -2.244  1.00  0.00    -0.000 C 
BRANCH   9  10
ATOM     10  C   UNL     1      69.888   1.526  -2.480  1.00  0.00    -0.000 C 
BRANCH  10  11
ATOM     11  C   UNL     1      69.516   1.297  -3.952  1.00  0.00    -0.000 C 
BRANCH  11  12
ATOM     12  C   UNL     1      69.808  -0.138  -4.429  1.00  0.00    -0.000 C 
BRANCH  12  13
ATOM     13  C   UNL     1      70.953  -0.846  -3.682  1.00  0.00    -0.003 C 
ATOM     14  C   UNL     1      70.859  -2.370  -3.748  1.00  0.00     0.004 C 
ENDBRANCH  12  13
ENDBRANCH  11  12
ENDBRANCH  10  11
ENDBRANCH   9  10
ENDBRANCH   8   9
ENDBRANCH   1   8
TORSDOF 11
ENDMDL
MODEL 4
REMARK VINA RESULT:    -4.516      9.870     12.089
REMARK INTER + INTRA:          -8.590
REMARK INTER:                  -7.429
REMARK INTRA:                  -1.160
REMARK UNBOUND:                -1.170
REMARK SMILES CCCCCCCCCCCCCC
REMARK SMILES IDX 7 1 6 2 5 3 4 4 3 5 2 6 1 7 8 8 9 9 10 10 11 11 12 12 13 13
REMARK SMILES IDX 14 14
REMARK H PARENT
REMARK Flexibility Score: inf
ROOT
ATOM      1  C   UNL     1      81.450   3.699  -1.224  1.00  0.00    -0.000 C 
ENDROOT
BRANCH   1   2
ATOM      2  C   UNL     1      80.632   4.253  -0.043  1.00  0.00    -0.000 C 
BRANCH   2   3
ATOM      3  C   UNL     1      79.374   3.438   0.318  1.00  0.00    -0.000 C 
BRANCH   3   4
ATOM      4  C   UNL     1      79.561   1.907   0.310  1.00  0.00    -0.000 C 
BRANCH   4   5
ATOM      5  C   UNL     1      78.364   1.110  -0.236  1.00  0.00    -0.000 C 
BRANCH   5   6
ATOM      6  C   UNL     1      78.706  -0.360  -0.517  1.00  0.00    -0.003 C 
ATOM      7  C   UNL     1      80.160  -0.662  -0.166  1.00  0.00     0.004 C 
ENDBRANCH   5   6
ENDBRANCH   4   5
ENDBRANCH   3   4
ENDBRANCH   2   3
ENDBRANCH   1   2
BRANCH   1   8
ATOM      8  C   UNL     1      82.872   3.284  -0.822  1.00  0.00    -0.000 C 
BRANCH   8   9
ATOM      9  C   UNL     1      82.942   1.781  -0.527  1.00  0.00    -0.000 C 
BRANCH   9  10
ATOM     10  C   UNL     1      83.247   1.523   0.953  1.00  0.00    -0.000 C 
BRANCH  10  11
ATOM     11  C   UNL     1      84.640   0.902   1.129  1.00  0.00    -0.000 C 
BRANCH  11  12
ATOM     12  C   UNL     1      85.775   1.826   0.651  1.00  0.00    -0.000 C 
BRANCH  12  13
ATOM     13  C   UNL     1      86.672   1.232  -0.450  1.00  0.00    -0.003 C 
ATOM     14  C   UNL     1      86.368   1.795  -1.838  1.00  0.00     0.004 C 
ENDBRANCH  12  13
ENDBRANCH  11  12
ENDBRANCH  10  11
ENDBRANCH   9  10
ENDBRANCH   8   9
ENDBRANCH   1   8
TORSDOF 11
ENDMDL
MODEL 5
REMARK VINA RESULT:    -4.399     10.191     12.670
REMARK INTER + INTRA:          -8.399
REMARK INTER:                  -7.482
REMARK INTRA:                  -0.917
REMARK UNBOUND:                -1.170
REMARK SMILES CCCCCCCCCCCCCC
REMARK SMILES IDX 7 1 6 2 5 3 4 4 3 5 2 6 1 7 8 8 9 9 10 10 11 11 12 12 13 13
REMARK SMILES IDX 14 14
REMARK H PARENT
REMARK Flexibility Score: inf
ROOT
ATOM      1  C   UNL     1      81.903  -0.285   0.698  1.00  0.00    -0.000 C 
ENDROOT
BRANCH   1   2
ATOM      2  C   UNL     1      80.420  -0.320   0.285  1.00  0.00    -0.000 C 
BRANCH   2   3
ATOM      3  C   UNL     1      79.943   0.895  -0.536  1.00  0.00    -0.000 C 
BRANCH   3   4
ATOM      4  C   UNL     1      78.840   1.742   0.130  1.00  0.00    -0.000 C 
BRANCH   4   5
ATOM      5  C   UNL     1      79.124   3.254   0.181  1.00  0.00    -0.000 C 
BRANCH   5   6
ATOM      6  C   UNL     1      80.622   3.575   0.288  1.00  0.00    -0.003 C 
ATOM      7  C   UNL     1      81.117   4.303  -0.958  1.00  0.00     0.004 C 
ENDBRANCH   5   6
ENDBRANCH   4   5
ENDBRANCH   3   4
ENDBRANCH   2   3
ENDBRANCH   1   2
BRANCH   1   8
ATOM      8  C   UNL     1      82.618   0.995   0.240  1.00  0.00    -0.000 C 
BRANCH   8   9
ATOM      9  C   UNL     1      83.872   1.254   1.083  1.00  0.00    -0.000 C 
BRANCH   9  10
ATOM     10  C   UNL     1      84.966   1.934   0.251  1.00  0.00    -0.000 C 
BRANCH  10  11
ATOM     11  C   UNL     1      84.562   2.017  -1.227  1.00  0.00    -0.000 C 
BRANCH  11  12
ATOM     12  C   UNL     1      85.627   2.702  -2.104  1.00  0.00    -0.000 C 
BRANCH  12  13
ATOM     13  C   UNL     1      85.576   4.240  -2.098  1.00  0.00    -0.003 C 
ATOM     14  C   UNL     1      86.590   4.876  -3.047  1.00  0.00     0.004 C 
ENDBRANCH  12  13
ENDBRANCH  11  12
ENDBRANCH  10  11
ENDBRANCH   9  10
ENDBRANCH   8   9
ENDBRANCH   1   8
TORSDOF 11
ENDMDL
MODEL 6
REMARK VINA RESULT:    -4.349      1.052      5.911
REMARK INTER + INTRA:          -8.316
REMARK INTER:                  -7.456
REMARK INTRA:                  -0.860
REMARK UNBOUND:                -1.170
REMARK SMILES CCCCCCCCCCCCCC
REMARK SMILES IDX 7 1 6 2 5 3 4 4 3 5 2 6 1 7 8 8 9 9 10 10 11 11 12 12 13 13
REMARK SMILES IDX 14 14
REMARK H PARENT
REMARK Flexibility Score: inf
ROOT
ATOM      1  C   UNL     1      71.218   2.699  -0.833  1.00  0.00    -0.000 C 
ENDROOT
BRANCH   1   2
ATOM      2  C   UNL     1      70.102   2.574  -1.886  1.00  0.00    -0.000 C 
BRANCH   2   3
ATOM      3  C   UNL     1      70.538   1.948  -3.226  1.00  0.00    -0.000 C 
BRANCH   3   4
ATOM      4  C   UNL     1      69.432   1.186  -3.984  1.00  0.00    -0.000 C 
BRANCH   4   5
ATOM      5  C   UNL     1      69.809  -0.241  -4.419  1.00  0.00    -0.000 C 
BRANCH   5   6
ATOM      6  C   UNL     1      70.922  -0.852  -3.556  1.00  0.00    -0.003 C 
ATOM      7  C   UNL     1      70.940  -2.373  -3.681  1.00  0.00     0.004 C 
ENDBRANCH   5   6
ENDBRANCH   4   5
ENDBRANCH   3   4
ENDBRANCH   2   3
ENDBRANCH   1   2
BRANCH   1   8
ATOM      8  C   UNL     1      72.273   1.590  -0.947  1.00  0.00    -0.000 C 
BRANCH   8   9
ATOM      9  C   UNL     1      72.451   0.861   0.390  1.00  0.00    -0.000 C 
BRANCH   9  10
ATOM     10  C   UNL     1      71.172   0.114   0.785  1.00  0.00    -0.000 C 
BRANCH  10  11
ATOM     11  C   UNL     1      71.125  -0.135   2.299  1.00  0.00    -0.000 C 
BRANCH  11  12
ATOM     12  C   UNL     1      69.878   0.471   2.970  1.00  0.00    -0.000 C 
BRANCH  12  13
ATOM     13  C   UNL     1      70.176   1.505   4.071  1.00  0.00    -0.003 C 
ATOM     14  C   UNL     1      69.075   1.587   5.127  1.00  0.00     0.004 C 
ENDBRANCH  12  13
ENDBRANCH  11  12
ENDBRANCH  10  11
ENDBRANCH   9  10
ENDBRANCH   8   9
ENDBRANCH   1   8
TORSDOF 11
ENDMDL
MODEL 7
REMARK VINA RESULT:    -4.224     13.283     14.917
REMARK INTER + INTRA:          -8.111
REMARK INTER:                  -6.309
REMARK INTRA:                  -1.802
REMARK UNBOUND:                -1.170
REMARK SMILES CCCCCCCCCCCCCC
REMARK SMILES IDX 7 1 6 2 5 3 4 4 3 5 2 6 1 7 8 8 9 9 10 10 11 11 12 12 13 13
REMARK SMILES IDX 14 14
REMARK H PARENT
REMARK Flexibility Score: inf
ROOT
ATOM      1  C   UNL     1      85.186   0.974  -6.249  1.00  0.00    -0.000 C 
ENDROOT
BRANCH   1   2
ATOM      2  C   UNL     1      86.383   0.131  -6.725  1.00  0.00    -0.000 C 
BRANCH   2   3
ATOM      3  C   UNL     1      86.107  -1.382  -6.845  1.00  0.00    -0.000 C 
BRANCH   3   4
ATOM      4  C   UNL     1      84.636  -1.760  -7.112  1.00  0.00    -0.000 C 
BRANCH   4   5
ATOM      5  C   UNL     1      84.418  -3.194  -7.626  1.00  0.00    -0.000 C 
BRANCH   5   6
ATOM      6  C   UNL     1      84.378  -3.278  -9.159  1.00  0.00    -0.003 C 
ATOM      7  C   UNL     1      83.193  -4.115  -9.632  1.00  0.00     0.004 C 
ENDBRANCH   5   6
ENDBRANCH   4   5
ENDBRANCH   3   4
ENDBRANCH   2   3
ENDBRANCH   1   2
BRANCH   1   8
ATOM      8  C   UNL     1      85.203   2.404  -6.809  1.00  0.00    -0.000 C 
BRANCH   8   9
ATOM      9  C   UNL     1      84.805   2.419  -8.289  1.00  0.00    -0.000 C 
BRANCH   9  10
ATOM     10  C   UNL     1      83.487   1.666  -8.513  1.00  0.00    -0.000 C 
BRANCH  10  11
ATOM     11  C   UNL     1      83.634   0.617  -9.624  1.00  0.00    -0.000 C 
BRANCH  11  12
ATOM     12  C   UNL     1      82.387  -0.273  -9.777  1.00  0.00    -0.000 C 
BRANCH  12  13
ATOM     13  C   UNL     1      81.375  -0.173  -8.621  1.00  0.00    -0.003 C 
ATOM     14  C   UNL     1      81.006  -1.533  -8.030  1.00  0.00     0.004 C 
ENDBRANCH  12  13
ENDBRANCH  11  12
ENDBRANCH  10  11
ENDBRANCH   9  10
ENDBRANCH   8   9
ENDBRANCH   1   8
TORSDOF 11
ENDMDL
MODEL 8
REMARK VINA RESULT:    -4.217     14.793     16.586
REMARK INTER + INTRA:          -8.100
REMARK INTER:                  -6.656
REMARK INTRA:                  -1.444
REMARK UNBOUND:                -1.170
REMARK SMILES CCCCCCCCCCCCCC
REMARK SMILES IDX 7 1 6 2 5 3 4 4 3 5 2 6 1 7 8 8 9 9 10 10 11 11 12 12 13 13
REMARK SMILES IDX 14 14
REMARK H PARENT
REMARK Flexibility Score: inf
ROOT
ATOM      1  C   UNL     1      83.182   5.901   7.115  1.00  0.00    -0.000 C 
ENDROOT
BRANCH   1   2
ATOM      2  C   UNL     1      82.223   5.841   8.318  1.00  0.00    -0.000 C 
BRANCH   2   3
ATOM      3  C   UNL     1      80.964   4.977   8.105  1.00  0.00    -0.000 C 
BRANCH   3   4
ATOM      4  C   UNL     1      80.879   3.714   8.987  1.00  0.00    -0.000 C 
BRANCH   4   5
ATOM      5  C   UNL     1      82.020   3.557  10.007  1.00  0.00    -0.000 C 
BRANCH   5   6
ATOM      6  C   UNL     1      83.000   2.435   9.637  1.00  0.00    -0.003 C 
ATOM      7  C   UNL     1      82.423   1.541   8.543  1.00  0.00     0.004 C 
ENDBRANCH   5   6
ENDBRANCH   4   5
ENDBRANCH   3   4
ENDBRANCH   2   3
ENDBRANCH   1   2
BRANCH   1   8
ATOM      8  C   UNL     1      84.618   5.493   7.476  1.00  0.00    -0.000 C 
BRANCH   8   9
ATOM      9  C   UNL     1      84.905   4.052   7.039  1.00  0.00    -0.000 C 
BRANCH   9  10
ATOM     10  C   UNL     1      86.414   3.792   6.954  1.00  0.00    -0.000 C 
BRANCH  10  11
ATOM     11  C   UNL     1      86.710   2.287   6.882  1.00  0.00    -0.000 C 
BRANCH  11  12
ATOM     12  C   UNL     1      86.190   1.513   8.108  1.00  0.00    -0.000 C 
BRANCH  12  13
ATOM     13  C   UNL     1      85.746   0.068   7.818  1.00  0.00    -0.003 C 
ATOM     14  C   UNL     1      86.533  -0.584   6.683  1.00  0.00     0.004 C 
ENDBRANCH  12  13
ENDBRANCH  11  12
ENDBRANCH  10  11
ENDBRANCH   9  10
ENDBRANCH   8   9
ENDBRANCH   1   8
TORSDOF 11
ENDMDL
MODEL 9
REMARK VINA RESULT:    -4.191     14.956     16.696
REMARK INTER + INTRA:          -8.056
REMARK INTER:                  -6.733
REMARK INTRA:                  -1.323
REMARK UNBOUND:                -1.170
REMARK SMILES CCCCCCCCCCCCCC
REMARK SMILES IDX 7 1 6 2 5 3 4 4 3 5 2 6 1 7 8 8 9 9 10 10 11 11 12 12 13 13
REMARK SMILES IDX 14 14
REMARK H PARENT
REMARK Flexibility Score: inf
ROOT
ATOM      1  C   UNL     1      82.012   1.688   8.960  1.00  0.00    -0.000 C 
ENDROOT
BRANCH   1   2
ATOM      2  C   UNL     1      81.870   3.097   9.565  1.00  0.00    -0.000 C 
BRANCH   2   3
ATOM      3  C   UNL     1      80.770   3.971   8.928  1.00  0.00    -0.000 C 
BRANCH   3   4
ATOM      4  C   UNL     1      81.279   5.213   8.168  1.00  0.00    -0.000 C 
BRANCH   4   5
ATOM      5  C   UNL     1      82.596   5.009   7.399  1.00  0.00    -0.000 C 
BRANCH   5   6
ATOM      6  C   UNL     1      83.775   5.769   8.024  1.00  0.00    -0.003 C 
ATOM      7  C   UNL     1      85.098   5.342   7.397  1.00  0.00     0.004 C 
ENDBRANCH   5   6
ENDBRANCH   4   5
ENDBRANCH   3   4
ENDBRANCH   2   3
ENDBRANCH   1   2
BRANCH   1   8
ATOM      8  C   UNL     1      83.353   1.481   8.240  1.00  0.00    -0.000 C 
BRANCH   8   9
ATOM      9  C   UNL     1      84.509   2.078   9.051  1.00  0.00    -0.000 C 
BRANCH   9  10
ATOM     10  C   UNL     1      85.849   1.458   8.639  1.00  0.00    -0.000 C 
BRANCH  10  11
ATOM     11  C   UNL     1      85.649   0.369   7.576  1.00  0.00    -0.000 C 
BRANCH  11  12
ATOM     12  C   UNL     1      86.925   0.081   6.763  1.00  0.00    -0.000 C 
BRANCH  12  13
ATOM     13  C   UNL     1      86.831   0.428   5.267  1.00  0.00    -0.003 C 
ATOM     14  C   UNL     1      86.026   1.699   4.997  1.00  0.00     0.004 C 
ENDBRANCH  12  13
ENDBRANCH  11  12
ENDBRANCH  10  11
ENDBRANCH   9  10
ENDBRANCH   8   9
ENDBRANCH   1   8
TORSDOF 11
ENDMDL
