MODEL 1
REMARK VINA RESULT:    -3.058      0.000      0.000
REMARK INTER + INTRA:          -4.171
REMARK INTER:                  -4.310
REMARK INTRA:                   0.139
REMARK UNBOUND:                 0.139
REMARK SMILES CC1=CCC(=C(C)C)C(=O)CC(C)=CCC1
REMARK SMILES IDX 12 1 14 2 13 3 15 4 16 5 2 6 1 7 3 8 11 10 9 11 10 12 5 13
REMARK SMILES IDX 6 14 7 15 8 16 4 17
REMARK H PARENT
REMARK Flexibility Score: 60.00
ROOT
ATOM      1  C   UNL     1     -28.360 -17.501  23.906  1.00  0.00    -0.070 C 
ATOM      2  C   UNL     1     -29.098 -17.423  22.767  1.00  0.00    -0.027 C 
ATOM      3  C   UNL     1     -26.859 -17.427  23.762  1.00  0.00     0.039 C 
ENDROOT
BRANCH   2   4
ATOM      4  C   UNL     1     -30.604 -17.375  22.683  1.00  0.00     0.032 C 
BRANCH   4   5
ATOM      5  C   UNL     1     -31.191 -16.015  23.083  1.00  0.00     0.034 C 
BRANCH   5   6
ATOM      6  C   UNL     1     -32.415 -16.209  23.956  1.00  0.00    -0.077 C 
ATOM      7  C   UNL     1     -33.636 -16.848  23.344  1.00  0.00     0.039 C 
ATOM      8  C   UNL     1     -32.498 -15.768  25.235  1.00  0.00    -0.023 CG0
ATOM      9  G   UNL     1     -31.380 -15.121  26.018  1.00  0.00     0.000 G0
ENDBRANCH   5   6
ENDBRANCH   4   5
ENDBRANCH   2   4
BRANCH   1  10
ATOM     10  C   UNL     1     -28.942 -17.736  25.296  1.00  0.00     0.111 C 
BRANCH  10  11
ATOM     11  C   UNL     1     -29.146 -16.474  26.096  1.00  0.00     0.163 C 
ATOM     12  O   UNL     1     -28.147 -15.724  26.269  1.00  0.00    -0.294 OA
BRANCH  11  13
ATOM     13  C   UNL     1     -30.459 -16.119  26.731  1.00  0.00    -0.002 C 
ATOM     14  C   UNL     1     -30.822 -16.657  27.937  1.00  0.00    -0.069 C 
ATOM     15  C   UNL     1     -32.094 -16.241  28.643  1.00  0.00     0.039 C 
ATOM     16  C   UNL     1     -29.998 -17.735  28.608  1.00  0.00     0.039 C 
BRANCH  13  17
ATOM     17  C   UNL     1     -31.360 -15.100  26.034  1.00  0.00     0.066 CG0
ATOM     18  G   UNL     1     -32.472 -15.762  25.256  1.00  0.00     0.000 G0
ENDBRANCH  13  17
ENDBRANCH  11  13
ENDBRANCH  10  11
ENDBRANCH   1  10
TORSDOF 0
ENDMDL
MODEL 2
REMARK VINA RESULT:    -3.000      2.565      3.857
REMARK INTER + INTRA:          -4.088
REMARK INTER:                  -4.360
REMARK INTRA:                   0.272
REMARK UNBOUND:                 0.139
REMARK SMILES CC1=CCC(=C(C)C)C(=O)CC(C)=CCC1
REMARK SMILES IDX 12 1 14 2 13 3 15 4 16 5 2 6 1 7 3 8 11 10 9 11 10 12 5 13
REMARK SMILES IDX 6 14 7 15 8 16 4 17
REMARK H PARENT
REMARK Flexibility Score: 60.00
ROOT
ATOM      1  C   UNL     1     -28.272 -17.508  22.040  1.00  0.00    -0.070 C 
ATOM      2  C   UNL     1     -28.377 -18.206  20.878  1.00  0.00    -0.027 C 
ATOM      3  C   UNL     1     -27.027 -17.727  22.865  1.00  0.00     0.039 C 
ENDROOT
BRANCH   2   4
ATOM      4  C   UNL     1     -29.479 -18.069  19.854  1.00  0.00     0.032 C 
BRANCH   4   5
ATOM      5  C   UNL     1     -30.628 -19.064  20.062  1.00  0.00     0.034 C 
BRANCH   5   6
ATOM      6  C   UNL     1     -31.950 -18.326  20.147  1.00  0.00    -0.077 C 
ATOM      7  C   UNL     1     -32.540 -17.769  18.876  1.00  0.00     0.039 C 
ATOM      8  C   UNL     1     -32.590 -18.074  21.314  1.00  0.00    -0.023 CG0
ATOM      9  G   UNL     1     -32.162 -18.562  22.677  1.00  0.00     0.000 G0
ENDBRANCH   5   6
ENDBRANCH   4   5
ENDBRANCH   2   4
BRANCH   1  10
ATOM     10  C   UNL     1     -29.355 -16.589  22.596  1.00  0.00     0.111 C 
BRANCH  10  11
ATOM     11  C   UNL     1     -30.179 -17.209  23.696  1.00  0.00     0.163 C 
ATOM     12  O   UNL     1     -29.571 -17.607  24.727  1.00  0.00    -0.294 OA
BRANCH  11  13
ATOM     13  C   UNL     1     -31.661 -17.416  23.583  1.00  0.00    -0.002 C 
ATOM     14  C   UNL     1     -32.537 -16.574  24.215  1.00  0.00    -0.069 C 
ATOM     15  C   UNL     1     -34.034 -16.704  24.037  1.00  0.00     0.039 C 
ATOM     16  C   UNL     1     -32.060 -15.498  25.166  1.00  0.00     0.039 C 
BRANCH  13  17
ATOM     17  C   UNL     1     -32.178 -18.553  22.702  1.00  0.00     0.066 CG0
ATOM     18  G   UNL     1     -32.585 -18.071  21.330  1.00  0.00     0.000 G0
ENDBRANCH  13  17
ENDBRANCH  11  13
ENDBRANCH  10  11
ENDBRANCH   1  10
TORSDOF 0
ENDMDL
MODEL 3
REMARK VINA RESULT:    -2.957      3.044      3.575
REMARK INTER + INTRA:          -4.028
REMARK INTER:                  -4.206
REMARK INTRA:                   0.177
REMARK UNBOUND:                 0.139
REMARK SMILES CC1=CCC(=C(C)C)C(=O)CC(C)=CCC1
REMARK SMILES IDX 12 1 14 2 13 3 15 4 16 5 2 6 1 7 3 8 11 10 9 11 10 12 5 13
REMARK SMILES IDX 6 14 7 15 8 16 4 17
REMARK H PARENT
REMARK Flexibility Score: 60.00
ROOT
ATOM      1  C   UNL     1     -26.781 -17.021  21.784  1.00  0.00    -0.070 C 
ATOM      2  C   UNL     1     -27.577 -17.283  20.714  1.00  0.00    -0.027 C 
ATOM      3  C   UNL     1     -25.690 -15.995  21.597  1.00  0.00     0.039 C 
ENDROOT
BRANCH   2   4
ATOM      4  C   UNL     1     -28.785 -18.190  20.703  1.00  0.00     0.032 C 
BRANCH   4   5
ATOM      5  C   UNL     1     -30.116 -17.429  20.755  1.00  0.00     0.034 C 
BRANCH   5   6
ATOM      6  C   UNL     1     -30.753 -17.582  22.122  1.00  0.00    -0.077 C 
ATOM      7  C   UNL     1     -31.714 -18.724  22.339  1.00  0.00     0.039 C 
ATOM      8  C   UNL     1     -30.567 -16.703  23.136  1.00  0.00    -0.023 CG0
ATOM      9  G   UNL     1     -29.636 -15.514  23.111  1.00  0.00     0.000 G0
ENDBRANCH   5   6
ENDBRANCH   4   5
ENDBRANCH   2   4
BRANCH   1  10
ATOM     10  C   UNL     1     -26.868 -17.747  23.122  1.00  0.00     0.111 C 
BRANCH  10  11
ATOM     11  C   UNL     1     -27.850 -17.136  24.089  1.00  0.00     0.163 C 
ATOM     12  O   UNL     1     -28.277 -17.863  25.027  1.00  0.00    -0.294 OA
BRANCH  11  13
ATOM     13  C   UNL     1     -28.373 -15.736  23.940  1.00  0.00    -0.002 C 
ATOM     14  C   UNL     1     -27.693 -14.675  24.476  1.00  0.00    -0.069 C 
ATOM     15  C   UNL     1     -28.147 -13.248  24.256  1.00  0.00     0.039 C 
ATOM     16  C   UNL     1     -26.479 -14.870  25.357  1.00  0.00     0.039 C 
BRANCH  13  17
ATOM     17  C   UNL     1     -29.650 -15.511  23.132  1.00  0.00     0.066 CG0
ATOM     18  G   UNL     1     -30.558 -16.718  23.153  1.00  0.00     0.000 G0
ENDBRANCH  13  17
ENDBRANCH  11  13
ENDBRANCH  10  11
ENDBRANCH   1  10
TORSDOF 0
ENDMDL
MODEL 4
REMARK VINA RESULT:    -2.942      3.133      5.755
REMARK INTER + INTRA:          -4.006
REMARK INTER:                  -4.226
REMARK INTRA:                   0.220
REMARK UNBOUND:                 0.139
REMARK SMILES CC1=CCC(=C(C)C)C(=O)CC(C)=CCC1
REMARK SMILES IDX 12 1 14 2 13 3 15 4 16 5 2 6 1 7 3 8 11 10 9 11 10 12 5 13
REMARK SMILES IDX 6 14 7 15 8 16 4 17
REMARK H PARENT
REMARK Flexibility Score: 60.00
ROOT
ATOM      1  C   UNL     1     -28.922 -17.377  24.738  1.00  0.00    -0.070 C 
ATOM      2  C   UNL     1     -27.603 -17.657  24.559  1.00  0.00    -0.027 C 
ATOM      3  C   UNL     1     -29.545 -17.803  26.046  1.00  0.00     0.039 C 
ENDROOT
BRANCH   2   4
ATOM      4  C   UNL     1     -26.756 -17.237  23.382  1.00  0.00     0.032 C 
BRANCH   4   5
ATOM      5  C   UNL     1     -27.036 -18.051  22.112  1.00  0.00     0.034 C 
BRANCH   5   6
ATOM      6  C   UNL     1     -27.353 -17.124  20.955  1.00  0.00    -0.077 C 
ATOM      7  C   UNL     1     -26.352 -16.054  20.601  1.00  0.00     0.039 C 
ATOM      8  C   UNL     1     -28.523 -17.156  20.272  1.00  0.00    -0.023 CG0
ATOM      9  G   UNL     1     -29.633 -18.160  20.472  1.00  0.00     0.000 G0
ENDBRANCH   5   6
ENDBRANCH   4   5
ENDBRANCH   2   4
BRANCH   1  10
ATOM     10  C   UNL     1     -29.820 -16.740  23.683  1.00  0.00     0.111 C 
BRANCH  10  11
ATOM     11  C   UNL     1     -30.602 -17.734  22.862  1.00  0.00     0.163 C 
ATOM     12  O   UNL     1     -31.096 -18.727  23.463  1.00  0.00    -0.294 OA
BRANCH  11  13
ATOM     13  C   UNL     1     -30.758 -17.614  21.374  1.00  0.00    -0.002 C 
ATOM     14  C   UNL     1     -31.850 -16.989  20.833  1.00  0.00    -0.069 C 
ATOM     15  C   UNL     1     -31.982 -16.769  19.342  1.00  0.00     0.039 C 
ATOM     16  C   UNL     1     -33.007 -16.524  21.690  1.00  0.00     0.039 C 
BRANCH  13  17
ATOM     17  C   UNL     1     -29.649 -18.155  20.474  1.00  0.00     0.066 CG0
ATOM     18  G   UNL     1     -28.542 -17.149  20.265  1.00  0.00     0.000 G0
ENDBRANCH  13  17
ENDBRANCH  11  13
ENDBRANCH  10  11
ENDBRANCH   1  10
TORSDOF 0
ENDMDL
MODEL 5
REMARK VINA RESULT:    -2.939      2.643      4.148
REMARK INTER + INTRA:          -4.002
REMARK INTER:                  -4.122
REMARK INTRA:                   0.120
REMARK UNBOUND:                 0.139
REMARK SMILES CC1=CCC(=C(C)C)C(=O)CC(C)=CCC1
REMARK SMILES IDX 12 1 14 2 13 3 15 4 16 5 2 6 1 7 3 8 11 10 9 11 10 12 5 13
REMARK SMILES IDX 6 14 7 15 8 16 4 17
REMARK H PARENT
REMARK Flexibility Score: 60.00
ROOT
ATOM      1  C   UNL     1     -25.697 -14.455  22.766  1.00  0.00    -0.070 C 
ATOM      2  C   UNL     1     -25.390 -15.452  21.895  1.00  0.00    -0.027 C 
ATOM      3  C   UNL     1     -24.550 -13.638  23.311  1.00  0.00     0.039 C 
ENDROOT
BRANCH   2   4
ATOM      4  C   UNL     1     -26.376 -16.322  21.154  1.00  0.00     0.032 C 
BRANCH   4   5
ATOM      5  C   UNL     1     -26.856 -17.528  21.972  1.00  0.00     0.034 C 
BRANCH   5   6
ATOM      6  C   UNL     1     -28.365 -17.649  21.891  1.00  0.00    -0.077 C 
ATOM      7  C   UNL     1     -28.988 -17.932  20.547  1.00  0.00     0.039 C 
ATOM      8  C   UNL     1     -29.189 -17.440  22.946  1.00  0.00    -0.023 CG0
ATOM      9  G   UNL     1     -28.752 -17.162  24.364  1.00  0.00     0.000 G0
ENDBRANCH   5   6
ENDBRANCH   4   5
ENDBRANCH   2   4
BRANCH   1  10
ATOM     10  C   UNL     1     -27.101 -14.164  23.284  1.00  0.00     0.111 C 
BRANCH  10  11
ATOM     11  C   UNL     1     -27.461 -14.919  24.538  1.00  0.00     0.163 C 
ATOM     12  O   UNL     1     -26.607 -14.952  25.466  1.00  0.00    -0.294 OA
BRANCH  11  13
ATOM     13  C   UNL     1     -28.753 -15.668  24.693  1.00  0.00    -0.002 C 
ATOM     14  C   UNL     1     -29.901 -15.016  25.056  1.00  0.00    -0.069 C 
ATOM     15  C   UNL     1     -31.234 -15.730  25.123  1.00  0.00     0.039 C 
ATOM     16  C   UNL     1     -29.895 -13.557  25.457  1.00  0.00     0.039 C 
BRANCH  13  17
ATOM     17  C   UNL     1     -28.776 -17.164  24.383  1.00  0.00     0.066 CG0
ATOM     18  G   UNL     1     -29.179 -17.445  22.955  1.00  0.00     0.000 G0
ENDBRANCH  13  17
ENDBRANCH  11  13
ENDBRANCH  10  11
ENDBRANCH   1  10
TORSDOF 0
ENDMDL
MODEL 6
REMARK VINA RESULT:    -2.935      4.040      5.643
REMARK INTER + INTRA:          -3.996
REMARK INTER:                  -4.267
REMARK INTRA:                   0.271
REMARK UNBOUND:                 0.139
REMARK SMILES CC1=CCC(=C(C)C)C(=O)CC(C)=CCC1
REMARK SMILES IDX 12 1 14 2 13 3 15 4 16 5 2 6 1 7 3 8 11 10 9 11 10 12 5 13
REMARK SMILES IDX 6 14 7 15 8 16 4 17
REMARK H PARENT
REMARK Flexibility Score: 60.00
ROOT
ATOM      1  C   UNL     1     -25.443 -14.106  23.737  1.00  0.00    -0.070 C 
ATOM      2  C   UNL     1     -25.959 -12.848  23.723  1.00  0.00    -0.027 C 
ATOM      3  C   UNL     1     -25.216 -14.743  25.086  1.00  0.00     0.039 C 
ENDROOT
BRANCH   2   4
ATOM      4  C   UNL     1     -26.359 -12.063  22.497  1.00  0.00     0.032 C 
BRANCH   4   5
ATOM      5  C   UNL     1     -27.856 -12.160  22.176  1.00  0.00     0.034 C 
BRANCH   5   6
ATOM      6  C   UNL     1     -28.077 -13.061  20.977  1.00  0.00    -0.077 C 
ATOM      7  C   UNL     1     -27.971 -12.457  19.600  1.00  0.00     0.039 C 
ATOM      8  C   UNL     1     -28.440 -14.363  21.078  1.00  0.00    -0.023 CG0
ATOM      9  G   UNL     1     -28.581 -15.141  22.364  1.00  0.00     0.000 G0
ENDBRANCH   5   6
ENDBRANCH   4   5
ENDBRANCH   2   4
BRANCH   1  10
ATOM     10  C   UNL     1     -25.011 -14.874  22.493  1.00  0.00     0.111 C 
BRANCH  10  11
ATOM     11  C   UNL     1     -26.082 -15.767  21.920  1.00  0.00     0.163 C 
ATOM     12  O   UNL     1     -25.890 -16.246  20.769  1.00  0.00    -0.294 OA
BRANCH  11  13
ATOM     13  C   UNL     1     -27.370 -16.052  22.636  1.00  0.00    -0.002 C 
ATOM     14  C   UNL     1     -27.458 -17.080  23.537  1.00  0.00    -0.069 C 
ATOM     15  C   UNL     1     -28.716 -17.326  24.342  1.00  0.00     0.039 C 
ATOM     16  C   UNL     1     -26.321 -18.057  23.743  1.00  0.00     0.039 C 
BRANCH  13  17
ATOM     17  C   UNL     1     -28.569 -15.139  22.382  1.00  0.00     0.066 CG0
ATOM     18  G   UNL     1     -28.431 -14.361  21.096  1.00  0.00     0.000 G0
ENDBRANCH  13  17
ENDBRANCH  11  13
ENDBRANCH  10  11
ENDBRANCH   1  10
TORSDOF 0
ENDMDL
MODEL 7
REMARK VINA RESULT:    -2.930      3.074      5.117
REMARK INTER + INTRA:          -3.989
REMARK INTER:                  -4.347
REMARK INTRA:                   0.358
REMARK UNBOUND:                 0.139
REMARK SMILES CC1=CCC(=C(C)C)C(=O)CC(C)=CCC1
REMARK SMILES IDX 12 1 14 2 13 3 15 4 16 5 2 6 1 7 3 8 11 10 9 11 10 12 5 13
REMARK SMILES IDX 6 14 7 15 8 16 4 17
REMARK H PARENT
REMARK Flexibility Score: 60.00
ROOT
ATOM      1  C   UNL     1     -27.525 -16.879  20.331  1.00  0.00    -0.070 C 
ATOM      2  C   UNL     1     -26.866 -16.415  21.425  1.00  0.00    -0.027 C 
ATOM      3  C   UNL     1     -27.140 -16.295  18.994  1.00  0.00     0.039 C 
ENDROOT
BRANCH   2   4
ATOM      4  C   UNL     1     -27.016 -16.925  22.839  1.00  0.00     0.032 C 
BRANCH   4   5
ATOM      5  C   UNL     1     -28.242 -16.356  23.563  1.00  0.00     0.034 C 
BRANCH   5   6
ATOM      6  C   UNL     1     -28.922 -17.441  24.374  1.00  0.00    -0.077 C 
ATOM      7  C   UNL     1     -28.125 -18.134  25.450  1.00  0.00     0.039 C 
ATOM      8  C   UNL     1     -30.183 -17.875  24.133  1.00  0.00    -0.023 CG0
ATOM      9  G   UNL     1     -31.134 -17.296  23.113  1.00  0.00     0.000 G0
ENDBRANCH   5   6
ENDBRANCH   4   5
ENDBRANCH   2   4
BRANCH   1  10
ATOM     10  C   UNL     1     -28.672 -17.884  20.377  1.00  0.00     0.111 C 
BRANCH  10  11
ATOM     11  C   UNL     1     -29.999 -17.283  20.765  1.00  0.00     0.163 C 
ATOM     12  O   UNL     1     -30.291 -16.154  20.285  1.00  0.00    -0.294 OA
BRANCH  11  13
ATOM     13  C   UNL     1     -30.939 -17.944  21.731  1.00  0.00    -0.002 C 
ATOM     14  C   UNL     1     -31.565 -19.118  21.406  1.00  0.00    -0.069 C 
ATOM     15  C   UNL     1     -32.439 -19.854  22.398  1.00  0.00     0.039 C 
ATOM     16  C   UNL     1     -31.456 -19.722  20.023  1.00  0.00     0.039 C 
BRANCH  13  17
ATOM     17  C   UNL     1     -31.144 -17.311  23.106  1.00  0.00     0.066 CG0
ATOM     18  G   UNL     1     -30.208 -17.886  24.143  1.00  0.00     0.000 G0
ENDBRANCH  13  17
ENDBRANCH  11  13
ENDBRANCH  10  11
ENDBRANCH   1  10
TORSDOF 0
ENDMDL
MODEL 8
REMARK VINA RESULT:    -2.924      2.238      4.252
REMARK INTER + INTRA:          -3.981
REMARK INTER:                  -4.122
REMARK INTRA:                   0.141
REMARK UNBOUND:                 0.139
REMARK SMILES CC1=CCC(=C(C)C)C(=O)CC(C)=CCC1
REMARK SMILES IDX 12 1 14 2 13 3 15 4 16 5 2 6 1 7 3 8 11 10 9 11 10 12 5 13
REMARK SMILES IDX 6 14 7 15 8 16 4 17
REMARK H PARENT
REMARK Flexibility Score: 60.00
ROOT
ATOM      1  C   UNL     1     -29.591 -17.864  21.082  1.00  0.00    -0.070 C 
ATOM      2  C   UNL     1     -28.236 -17.916  20.979  1.00  0.00    -0.027 C 
ATOM      3  C   UNL     1     -30.386 -18.804  20.208  1.00  0.00     0.039 C 
ENDROOT
BRANCH   2   4
ATOM      4  C   UNL     1     -27.249 -17.146  21.822  1.00  0.00     0.032 C 
BRANCH   4   5
ATOM      5  C   UNL     1     -27.019 -17.767  23.206  1.00  0.00     0.034 C 
BRANCH   5   6
ATOM      6  C   UNL     1     -27.169 -16.711  24.285  1.00  0.00    -0.077 C 
ATOM      7  C   UNL     1     -26.091 -15.666  24.416  1.00  0.00     0.039 C 
ATOM      8  C   UNL     1     -28.180 -16.703  25.187  1.00  0.00    -0.023 CG0
ATOM      9  G   UNL     1     -29.352 -17.655  25.205  1.00  0.00     0.000 G0
ENDBRANCH   5   6
ENDBRANCH   4   5
ENDBRANCH   2   4
BRANCH   1  10
ATOM     10  C   UNL     1     -30.352 -16.873  21.956  1.00  0.00     0.111 C 
BRANCH  10  11
ATOM     11  C   UNL     1     -30.976 -17.490  23.182  1.00  0.00     0.163 C 
ATOM     12  O   UNL     1     -31.867 -18.366  23.007  1.00  0.00    -0.294 OA
BRANCH  11  13
ATOM     13  C   UNL     1     -30.622 -17.063  24.577  1.00  0.00    -0.002 C 
ATOM     14  C   UNL     1     -31.429 -16.204  25.273  1.00  0.00    -0.069 C 
ATOM     15  C   UNL     1     -31.145 -15.835  26.713  1.00  0.00     0.039 C 
ATOM     16  C   UNL     1     -32.623 -15.535  24.627  1.00  0.00     0.039 C 
BRANCH  13  17
ATOM     17  C   UNL     1     -29.370 -17.650  25.229  1.00  0.00     0.066 CG0
ATOM     18  G   UNL     1     -28.202 -16.693  25.183  1.00  0.00     0.000 G0
ENDBRANCH  13  17
ENDBRANCH  11  13
ENDBRANCH  10  11
ENDBRANCH   1  10
TORSDOF 0
ENDMDL
MODEL 9
REMARK VINA RESULT:    -2.922      2.145      2.990
REMARK INTER + INTRA:          -3.979
REMARK INTER:                  -4.140
REMARK INTRA:                   0.161
REMARK UNBOUND:                 0.139
REMARK SMILES CC1=CCC(=C(C)C)C(=O)CC(C)=CCC1
REMARK SMILES IDX 12 1 14 2 13 3 15 4 16 5 2 6 1 7 3 8 11 10 9 11 10 12 5 13
REMARK SMILES IDX 6 14 7 15 8 16 4 17
REMARK H PARENT
REMARK Flexibility Score: 60.00
ROOT
ATOM      1  C   UNL     1     -27.891 -17.284  21.311  1.00  0.00    -0.070 C 
ATOM      2  C   UNL     1     -28.476 -18.044  20.348  1.00  0.00    -0.027 C 
ATOM      3  C   UNL     1     -26.772 -16.366  20.881  1.00  0.00     0.039 C 
ENDROOT
BRANCH   2   4
ATOM      4  C   UNL     1     -29.670 -18.950  20.531  1.00  0.00     0.032 C 
BRANCH   4   5
ATOM      5  C   UNL     1     -30.987 -18.187  20.727  1.00  0.00     0.034 C 
BRANCH   5   6
ATOM      6  C   UNL     1     -31.716 -18.707  21.950  1.00  0.00    -0.077 C 
ATOM      7  C   UNL     1     -32.192 -20.138  21.944  1.00  0.00     0.039 C 
ATOM      8  C   UNL     1     -32.033 -17.934  23.016  1.00  0.00    -0.023 CG0
ATOM      9  G   UNL     1     -31.631 -16.490  23.208  1.00  0.00     0.000 G0
ENDBRANCH   5   6
ENDBRANCH   4   5
ENDBRANCH   2   4
BRANCH   1  10
ATOM     10  C   UNL     1     -28.234 -17.358  22.795  1.00  0.00     0.111 C 
BRANCH  10  11
ATOM     11  C   UNL     1     -29.033 -16.183  23.299  1.00  0.00     0.163 C 
ATOM     12  O   UNL     1     -28.547 -15.031  23.132  1.00  0.00    -0.294 OA
BRANCH  11  13
ATOM     13  C   UNL     1     -30.335 -16.339  24.030  1.00  0.00    -0.002 C 
ATOM     14  C   UNL     1     -30.378 -16.300  25.398  1.00  0.00    -0.069 C 
ATOM     15  C   UNL     1     -31.688 -16.358  26.154  1.00  0.00     0.039 C 
ATOM     16  C   UNL     1     -29.117 -16.247  26.233  1.00  0.00     0.039 C 
BRANCH  13  17
ATOM     17  C   UNL     1     -31.620 -16.487  23.218  1.00  0.00     0.066 CG0
ATOM     18  G   UNL     1     -32.014 -17.933  23.031  1.00  0.00     0.000 G0
ENDBRANCH  13  17
ENDBRANCH  11  13
ENDBRANCH  10  11
ENDBRANCH   1  10
TORSDOF 0
ENDMDL
