MODEL 1
REMARK VINA RESULT:    -4.398      0.000      0.000
REMARK INTER + INTRA:          -4.527
REMARK INTER:                  -4.527
REMARK INTRA:                   0.000
REMARK UNBOUND:                 0.000
REMARK SMILES Oc1ccc2[nH]ccc2c1
REMARK SMILES IDX 3 1 4 2 5 3 9 4 8 5 7 6 6 7 10 8 2 9 1 11
REMARK H PARENT 6 10 1 12
REMARK Flexibility Score: inf
ROOT
ATOM      1  C   UNL     1     131.172 142.999 130.861  1.00  0.00     0.048 A 
ATOM      2  C   UNL     1     130.452 141.794 130.754  1.00  0.00     0.030 A 
ATOM      3  C   UNL     1     129.182 141.742 131.326  1.00  0.00     0.046 A 
ATOM      4  C   UNL     1     128.640 142.820 131.973  1.00  0.00     0.003 A 
ATOM      5  C   UNL     1     127.390 142.447 132.417  1.00  0.00     0.028 A 
ATOM      6  C   UNL     1     127.236 141.127 132.006  1.00  0.00     0.083 A 
ATOM      7  N   UNL     1     128.335 140.701 131.339  1.00  0.00    -0.361 N 
ATOM      8  C   UNL     1     129.324 144.026 132.097  1.00  0.00     0.056 A 
ATOM      9  C   UNL     1     130.614 144.113 131.529  1.00  0.00     0.116 A 
ATOM     10  H   UNL     1     128.487 139.755 130.922  1.00  0.00     0.166 HD
ENDROOT
BRANCH   9  11
ATOM     11  O   UNL     1     131.347 145.294 131.620  1.00  0.00    -0.508 OA
ATOM     12  H   UNL     1     131.062 146.132 131.127  1.00  0.00     0.293 HD
ENDBRANCH   9  11
TORSDOF 1
ENDMDL
MODEL 2
REMARK VINA RESULT:    -4.273      2.583      3.579
REMARK INTER + INTRA:          -4.397
REMARK INTER:                  -4.397
REMARK INTRA:                   0.000
REMARK UNBOUND:                 0.000
REMARK SMILES Oc1ccc2[nH]ccc2c1
REMARK SMILES IDX 3 1 4 2 5 3 9 4 8 5 7 6 6 7 10 8 2 9 1 11
REMARK H PARENT 6 10 1 12
REMARK Flexibility Score: inf
ROOT
ATOM      1  C   UNL     1     129.916 141.527 130.747  1.00  0.00     0.048 A 
ATOM      2  C   UNL     1     130.899 142.529 130.843  1.00  0.00     0.030 A 
ATOM      3  C   UNL     1     130.529 143.750 131.405  1.00  0.00     0.046 A 
ATOM      4  C   UNL     1     129.257 143.980 131.853  1.00  0.00     0.003 A 
ATOM      5  C   UNL     1     129.220 145.267 132.346  1.00  0.00     0.028 A 
ATOM      6  C   UNL     1     130.508 145.762 132.165  1.00  0.00     0.083 A 
ATOM      7  N   UNL     1     131.304 144.831 131.590  1.00  0.00    -0.361 N 
ATOM      8  C   UNL     1     128.260 143.011 131.772  1.00  0.00     0.056 A 
ATOM      9  C   UNL     1     128.600 141.762 131.208  1.00  0.00     0.116 A 
ATOM     10  H   UNL     1     132.314 144.936 131.343  1.00  0.00     0.166 HD
ENDROOT
BRANCH   9  11
ATOM     11  O   UNL     1     127.646 140.753 131.101  1.00  0.00    -0.508 OA
ATOM     12  H   UNL     1     127.908 139.800 130.877  1.00  0.00     0.293 HD
ENDBRANCH   9  11
TORSDOF 1
ENDMDL
MODEL 3
REMARK VINA RESULT:    -4.222     13.213     14.854
REMARK INTER + INTRA:          -4.346
REMARK INTER:                  -4.346
REMARK INTRA:                   0.000
REMARK UNBOUND:                 0.000
REMARK SMILES Oc1ccc2[nH]ccc2c1
REMARK SMILES IDX 3 1 4 2 5 3 9 4 8 5 7 6 6 7 10 8 2 9 1 11
REMARK H PARENT 6 10 1 12
REMARK Flexibility Score: inf
ROOT
ATOM      1  C   UNL     1     142.689 144.167 130.753  1.00  0.00     0.048 A 
ATOM      2  C   UNL     1     144.075 144.278 130.970  1.00  0.00     0.030 A 
ATOM      3  C   UNL     1     144.523 145.310 131.793  1.00  0.00     0.046 A 
ATOM      4  C   UNL     1     143.656 146.192 132.378  1.00  0.00     0.003 A 
ATOM      5  C   UNL     1     144.407 147.077 133.121  1.00  0.00     0.028 A 
ATOM      6  C   UNL     1     145.727 146.674 132.941  1.00  0.00     0.083 A 
ATOM      7  N   UNL     1     145.792 145.593 132.128  1.00  0.00    -0.361 N 
ATOM      8  C   UNL     1     142.279 146.111 132.185  1.00  0.00     0.056 A 
ATOM      9  C   UNL     1     141.791 145.077 131.356  1.00  0.00     0.116 A 
ATOM     10  H   UNL     1     146.655 145.087 131.827  1.00  0.00     0.166 HD
ENDROOT
BRANCH   9  11
ATOM     11  O   UNL     1     140.423 144.945 131.125  1.00  0.00    -0.508 OA
ATOM     12  H   UNL     1     139.767 145.662 131.413  1.00  0.00     0.293 HD
ENDBRANCH   9  11
TORSDOF 1
ENDMDL
MODEL 4
REMARK VINA RESULT:    -4.132      2.320      3.085
REMARK INTER + INTRA:          -4.252
REMARK INTER:                  -4.252
REMARK INTRA:                   0.000
REMARK UNBOUND:                 0.000
REMARK SMILES Oc1ccc2[nH]ccc2c1
REMARK SMILES IDX 3 1 4 2 5 3 9 4 8 5 7 6 6 7 10 8 2 9 1 11
REMARK H PARENT 6 10 1 12
REMARK Flexibility Score: inf
ROOT
ATOM      1  C   UNL     1     130.482 141.474 131.473  1.00  0.00     0.048 A 
ATOM      2  C   UNL     1     129.153 141.705 131.069  1.00  0.00     0.030 A 
ATOM      3  C   UNL     1     128.933 142.650 130.069  1.00  0.00     0.046 A 
ATOM      4  C   UNL     1     129.965 143.338 129.489  1.00  0.00     0.003 A 
ATOM      5  C   UNL     1     129.418 144.185 128.549  1.00  0.00     0.028 A 
ATOM      6  C   UNL     1     128.046 143.959 128.610  1.00  0.00     0.083 A 
ATOM      7  N   UNL     1     127.755 143.020 129.541  1.00  0.00    -0.361 N 
ATOM      8  C   UNL     1     131.290 143.135 129.865  1.00  0.00     0.056 A 
ATOM      9  C   UNL     1     131.549 142.183 130.876  1.00  0.00     0.116 A 
ATOM     10  H   UNL     1     126.808 142.660 129.793  1.00  0.00     0.166 HD
ENDROOT
BRANCH   9  11
ATOM     11  O   UNL     1     132.855 141.936 131.294  1.00  0.00    -0.508 OA
ATOM     12  H   UNL     1     133.382 142.627 131.815  1.00  0.00     0.293 HD
ENDBRANCH   9  11
TORSDOF 1
ENDMDL
MODEL 5
REMARK VINA RESULT:    -4.069     12.623     13.623
REMARK INTER + INTRA:          -4.188
REMARK INTER:                  -4.188
REMARK INTRA:                   0.000
REMARK UNBOUND:                 0.000
REMARK SMILES Oc1ccc2[nH]ccc2c1
REMARK SMILES IDX 3 1 4 2 5 3 9 4 8 5 7 6 6 7 10 8 2 9 1 11
REMARK H PARENT 6 10 1 12
REMARK Flexibility Score: inf
ROOT
ATOM      1  C   UNL     1     143.683 144.770 130.034  1.00  0.00     0.048 A 
ATOM      2  C   UNL     1     143.947 145.691 131.065  1.00  0.00     0.030 A 
ATOM      3  C   UNL     1     142.937 145.933 131.995  1.00  0.00     0.046 A 
ATOM      4  C   UNL     1     141.724 145.304 131.920  1.00  0.00     0.003 A 
ATOM      5  C   UNL     1     140.960 145.757 132.974  1.00  0.00     0.028 A 
ATOM      6  C   UNL     1     141.772 146.662 133.650  1.00  0.00     0.083 A 
ATOM      7  N   UNL     1     142.980 146.766 133.047  1.00  0.00    -0.361 N 
ATOM      8  C   UNL     1     141.429 144.388 130.913  1.00  0.00     0.056 A 
ATOM      9  C   UNL     1     142.430 144.119 129.954  1.00  0.00     0.116 A 
ATOM     10  H   UNL     1     143.778 147.371 133.344  1.00  0.00     0.166 HD
ENDROOT
BRANCH   9  11
ATOM     11  O   UNL     1     142.194 143.212 128.923  1.00  0.00    -0.508 OA
ATOM     12  H   UNL     1     141.749 143.499 128.059  1.00  0.00     0.293 HD
ENDBRANCH   9  11
TORSDOF 1
ENDMDL
MODEL 6
REMARK VINA RESULT:    -4.059      2.380      3.033
REMARK INTER + INTRA:          -4.177
REMARK INTER:                  -4.177
REMARK INTRA:                   0.000
REMARK UNBOUND:                 0.000
REMARK SMILES Oc1ccc2[nH]ccc2c1
REMARK SMILES IDX 3 1 4 2 5 3 9 4 8 5 7 6 6 7 10 8 2 9 1 11
REMARK H PARENT 6 10 1 12
REMARK Flexibility Score: inf
ROOT
ATOM      1  C   UNL     1     131.028 142.681 130.771  1.00  0.00     0.048 A 
ATOM      2  C   UNL     1     130.731 143.978 131.232  1.00  0.00     0.030 A 
ATOM      3  C   UNL     1     129.603 144.140 132.035  1.00  0.00     0.046 A 
ATOM      4  C   UNL     1     128.801 143.083 132.372  1.00  0.00     0.003 A 
ATOM      5  C   UNL     1     127.785 143.572 133.164  1.00  0.00     0.028 A 
ATOM      6  C   UNL     1     128.031 144.938 133.268  1.00  0.00     0.083 A 
ATOM      7  N   UNL     1     129.143 145.280 132.575  1.00  0.00    -0.361 N 
ATOM      8  C   UNL     1     129.066 141.788 131.933  1.00  0.00     0.056 A 
ATOM      9  C   UNL     1     130.201 141.588 131.118  1.00  0.00     0.116 A 
ATOM     10  H   UNL     1     129.556 146.235 132.484  1.00  0.00     0.166 HD
ENDROOT
BRANCH   9  11
ATOM     11  O   UNL     1     130.517 140.315 130.648  1.00  0.00    -0.508 OA
ATOM     12  H   UNL     1     129.862 139.781 130.088  1.00  0.00     0.293 HD
ENDBRANCH   9  11
TORSDOF 1
ENDMDL
MODEL 7
REMARK VINA RESULT:    -4.028      2.317      3.587
REMARK INTER + INTRA:          -4.145
REMARK INTER:                  -4.145
REMARK INTRA:                   0.000
REMARK UNBOUND:                 0.000
REMARK SMILES Oc1ccc2[nH]ccc2c1
REMARK SMILES IDX 3 1 4 2 5 3 9 4 8 5 7 6 6 7 10 8 2 9 1 11
REMARK H PARENT 6 10 1 12
REMARK Flexibility Score: inf
ROOT
ATOM      1  C   UNL     1     128.562 141.534 131.268  1.00  0.00     0.048 A 
ATOM      2  C   UNL     1     127.935 142.731 131.664  1.00  0.00     0.030 A 
ATOM      3  C   UNL     1     128.738 143.857 131.840  1.00  0.00     0.046 A 
ATOM      4  C   UNL     1     130.091 143.815 131.640  1.00  0.00     0.003 A 
ATOM      5  C   UNL     1     130.585 145.076 131.894  1.00  0.00     0.028 A 
ATOM      6  C   UNL     1     129.474 145.837 132.245  1.00  0.00     0.083 A 
ATOM      7  N   UNL     1     128.347 145.087 132.212  1.00  0.00    -0.361 N 
ATOM      8  C   UNL     1     130.743 142.648 131.249  1.00  0.00     0.056 A 
ATOM      9  C   UNL     1     129.960 141.488 131.061  1.00  0.00     0.116 A 
ATOM     10  H   UNL     1     127.376 145.404 132.429  1.00  0.00     0.166 HD
ENDROOT
BRANCH   9  11
ATOM     11  O   UNL     1     130.555 140.291 130.670  1.00  0.00    -0.508 OA
ATOM     12  H   UNL     1     131.252 139.834 131.247  1.00  0.00     0.293 HD
ENDBRANCH   9  11
TORSDOF 1
ENDMDL
MODEL 8
REMARK VINA RESULT:    -3.947     12.445     13.401
REMARK INTER + INTRA:          -4.062
REMARK INTER:                  -4.062
REMARK INTRA:                   0.000
REMARK UNBOUND:                 0.000
REMARK SMILES Oc1ccc2[nH]ccc2c1
REMARK SMILES IDX 3 1 4 2 5 3 9 4 8 5 7 6 6 7 10 8 2 9 1 11
REMARK H PARENT 6 10 1 12
REMARK Flexibility Score: inf
ROOT
ATOM      1  C   UNL     1     142.727 147.050 133.324  1.00  0.00     0.048 A 
ATOM      2  C   UNL     1     143.423 146.675 132.160  1.00  0.00     0.030 A 
ATOM      3  C   UNL     1     142.877 145.661 131.375  1.00  0.00     0.046 A 
ATOM      4  C   UNL     1     141.704 145.041 131.713  1.00  0.00     0.003 A 
ATOM      5  C   UNL     1     141.442 144.098 130.743  1.00  0.00     0.028 A 
ATOM      6  C   UNL     1     142.499 144.198 129.844  1.00  0.00     0.083 A 
ATOM      7  N   UNL     1     143.374 145.154 130.235  1.00  0.00    -0.361 N 
ATOM      8  C   UNL     1     140.990 145.388 132.858  1.00  0.00     0.056 A 
ATOM      9  C   UNL     1     141.515 146.412 133.676  1.00  0.00     0.116 A 
ATOM     10  H   UNL     1     144.253 145.437 129.746  1.00  0.00     0.166 HD
ENDROOT
BRANCH   9  11
ATOM     11  O   UNL     1     140.846 146.803 134.833  1.00  0.00    -0.508 OA
ATOM     12  H   UNL     1     140.385 146.126 135.431  1.00  0.00     0.293 HD
ENDBRANCH   9  11
TORSDOF 1
ENDMDL
MODEL 9
REMARK VINA RESULT:    -3.859     13.586     14.981
REMARK INTER + INTRA:          -3.972
REMARK INTER:                  -3.972
REMARK INTRA:                   0.000
REMARK UNBOUND:                 0.000
REMARK SMILES Oc1ccc2[nH]ccc2c1
REMARK SMILES IDX 3 1 4 2 5 3 9 4 8 5 7 6 6 7 10 8 2 9 1 11
REMARK H PARENT 6 10 1 12
REMARK Flexibility Score: inf
ROOT
ATOM      1  C   UNL     1     143.094 144.110 130.971  1.00  0.00     0.048 A 
ATOM      2  C   UNL     1     142.276 144.126 129.826  1.00  0.00     0.030 A 
ATOM      3  C   UNL     1     142.897 144.250 128.584  1.00  0.00     0.046 A 
ATOM      4  C   UNL     1     144.257 144.352 128.467  1.00  0.00     0.003 A 
ATOM      5  C   UNL     1     144.548 144.459 127.124  1.00  0.00     0.028 A 
ATOM      6  C   UNL     1     143.315 144.414 126.481  1.00  0.00     0.083 A 
ATOM      7  N   UNL     1     142.309 144.287 127.378  1.00  0.00    -0.361 N 
ATOM      8  C   UNL     1     145.096 144.340 129.579  1.00  0.00     0.056 A 
ATOM      9  C   UNL     1     144.499 144.216 130.852  1.00  0.00     0.116 A 
ATOM     10  H   UNL     1     141.287 144.228 127.169  1.00  0.00     0.166 HD
ENDROOT
BRANCH   9  11
ATOM     11  O   UNL     1     145.287 144.197 132.002  1.00  0.00    -0.508 OA
ATOM     12  H   UNL     1     144.943 144.560 132.883  1.00  0.00     0.293 HD
ENDBRANCH   9  11
TORSDOF 1
ENDMDL
