MODEL 1
REMARK VINA RESULT:    -4.710      0.000      0.000
REMARK INTER + INTRA:          -4.710
REMARK INTER:                  -4.710
REMARK INTRA:                   0.000
REMARK UNBOUND:                 0.000
REMARK SMILES CC(C)=C1CC[C@@H](C)CC1=O
REMARK SMILES IDX 8 1 7 2 6 3 5 4 4 5 2 6 1 7 3 8 10 9 11 10 9 11
REMARK H PARENT
REMARK Flexibility Score: inf
ROOT
ATOM      1  C   UNL     1     131.874 125.080 111.104  1.00  0.00     0.008 C 
ATOM      2  C   UNL     1     130.892 125.164 109.931  1.00  0.00    -0.006 C 
ATOM      3  C   UNL     1     131.580 125.752 108.689  1.00  0.00     0.008 C 
ATOM      4  C   UNL     1     130.642 125.748 107.476  1.00  0.00     0.039 C 
ATOM      5  C   UNL     1     129.303 126.412 107.771  1.00  0.00    -0.006 C 
ATOM      6  C   UNL     1     128.613 127.080 106.801  1.00  0.00    -0.070 C 
ATOM      7  C   UNL     1     127.311 127.790 107.096  1.00  0.00     0.039 C 
ATOM      8  C   UNL     1     129.140 127.174 105.387  1.00  0.00     0.039 C 
ATOM      9  C   UNL     1     128.747 126.186 109.139  1.00  0.00     0.159 C 
ATOM     10  O   UNL     1     127.505 126.126 109.340  1.00  0.00    -0.295 OA
ATOM     11  C   UNL     1     129.673 126.019 110.310  1.00  0.00     0.084 C 
ENDROOT
TORSDOF 0
ENDMDL
MODEL 2
REMARK VINA RESULT:    -4.337      1.159      4.014
REMARK INTER + INTRA:          -4.337
REMARK INTER:                  -4.337
REMARK INTRA:                   0.000
REMARK UNBOUND:                 0.000
REMARK SMILES CC(C)=C1CC[C@@H](C)CC1=O
REMARK SMILES IDX 8 1 7 2 6 3 5 4 4 5 2 6 1 7 3 8 10 9 11 10 9 11
REMARK H PARENT
REMARK Flexibility Score: inf
ROOT
ATOM      1  C   UNL     1     126.516 126.819 106.784  1.00  0.00     0.008 C 
ATOM      2  C   UNL     1     127.849 126.940 107.530  1.00  0.00    -0.006 C 
ATOM      3  C   UNL     1     128.981 126.279 106.727  1.00  0.00     0.008 C 
ATOM      4  C   UNL     1     130.340 126.479 107.407  1.00  0.00     0.039 C 
ATOM      5  C   UNL     1     130.331 126.048 108.868  1.00  0.00    -0.006 C 
ATOM      6  C   UNL     1     131.448 125.536 109.464  1.00  0.00    -0.070 C 
ATOM      7  C   UNL     1     131.436 125.053 110.896  1.00  0.00     0.039 C 
ATOM      8  C   UNL     1     132.747 125.395 108.704  1.00  0.00     0.039 C 
ATOM      9  C   UNL     1     129.074 126.326 109.626  1.00  0.00     0.159 C 
ATOM     10  O   UNL     1     129.097 126.593 110.857  1.00  0.00    -0.295 OA
ATOM     11  C   UNL     1     127.749 126.297 108.921  1.00  0.00     0.084 C 
ENDROOT
TORSDOF 0
ENDMDL
MODEL 3
REMARK VINA RESULT:    -4.314     10.578     11.028
REMARK INTER + INTRA:          -4.314
REMARK INTER:                  -4.314
REMARK INTRA:                   0.000
REMARK UNBOUND:                 0.000
REMARK SMILES CC(C)=C1CC[C@@H](C)CC1=O
REMARK SMILES IDX 8 1 7 2 6 3 5 4 4 5 2 6 1 7 3 8 10 9 11 10 9 11
REMARK H PARENT
REMARK Flexibility Score: inf
ROOT
ATOM      1  C   UNL     1     130.603 118.647  99.110  1.00  0.00     0.008 C 
ATOM      2  C   UNL     1     130.480 120.163  99.291  1.00  0.00    -0.006 C 
ATOM      3  C   UNL     1     129.259 120.702  98.528  1.00  0.00     0.008 C 
ATOM      4  C   UNL     1     129.059 122.202  98.780  1.00  0.00     0.039 C 
ATOM      5  C   UNL     1     130.321 123.012  98.511  1.00  0.00    -0.006 C 
ATOM      6  C   UNL     1     130.256 124.296  98.051  1.00  0.00    -0.070 C 
ATOM      7  C   UNL     1     131.500 125.090  97.727  1.00  0.00     0.039 C 
ATOM      8  C   UNL     1     128.927 124.974  97.806  1.00  0.00     0.039 C 
ATOM      9  C   UNL     1     131.611 122.362  98.890  1.00  0.00     0.159 C 
ATOM     10  O   UNL     1     132.594 123.040  99.290  1.00  0.00    -0.295 OA
ATOM     11  C   UNL     1     131.754 120.869  98.806  1.00  0.00     0.084 C 
ENDROOT
TORSDOF 0
ENDMDL
MODEL 4
REMARK VINA RESULT:    -4.307      9.948     10.698
REMARK INTER + INTRA:          -4.307
REMARK INTER:                  -4.307
REMARK INTRA:                   0.000
REMARK UNBOUND:                 0.000
REMARK SMILES CC(C)=C1CC[C@@H](C)CC1=O
REMARK SMILES IDX 8 1 7 2 6 3 5 4 4 5 2 6 1 7 3 8 10 9 11 10 9 11
REMARK H PARENT
REMARK Flexibility Score: inf
ROOT
ATOM      1  C   UNL     1     123.604 120.259 101.666  1.00  0.00     0.008 C 
ATOM      2  C   UNL     1     125.060 120.689 101.454  1.00  0.00    -0.006 C 
ATOM      3  C   UNL     1     125.148 121.795 100.390  1.00  0.00     0.008 C 
ATOM      4  C   UNL     1     126.585 122.310 100.238  1.00  0.00     0.039 C 
ATOM      5  C   UNL     1     127.586 121.187  99.998  1.00  0.00    -0.006 C 
ATOM      6  C   UNL     1     128.704 121.382  99.239  1.00  0.00    -0.070 C 
ATOM      7  C   UNL     1     129.674 120.261  98.949  1.00  0.00     0.039 C 
ATOM      8  C   UNL     1     129.005 122.728  98.619  1.00  0.00     0.039 C 
ATOM      9  C   UNL     1     127.329 119.912 100.734  1.00  0.00     0.159 C 
ATOM     10  O   UNL     1     128.276 119.176 101.119  1.00  0.00    -0.295 OA
ATOM     11  C   UNL     1     125.920 119.488 101.035  1.00  0.00     0.084 C 
ENDROOT
TORSDOF 0
ENDMDL
MODEL 5
REMARK VINA RESULT:    -4.271     10.372     11.427
REMARK INTER + INTRA:          -4.271
REMARK INTER:                  -4.271
REMARK INTRA:                   0.000
REMARK UNBOUND:                 0.000
REMARK SMILES CC(C)=C1CC[C@@H](C)CC1=O
REMARK SMILES IDX 8 1 7 2 6 3 5 4 4 5 2 6 1 7 3 8 10 9 11 10 9 11
REMARK H PARENT
REMARK Flexibility Score: inf
ROOT
ATOM      1  C   UNL     1     129.253 125.128  97.964  1.00  0.00     0.008 C 
ATOM      2  C   UNL     1     129.833 123.877  98.633  1.00  0.00    -0.006 C 
ATOM      3  C   UNL     1     131.255 123.598  98.121  1.00  0.00     0.008 C 
ATOM      4  C   UNL     1     131.891 122.411  98.854  1.00  0.00     0.039 C 
ATOM      5  C   UNL     1     131.008 121.170  98.831  1.00  0.00    -0.006 C 
ATOM      6  C   UNL     1     131.547 119.915  98.816  1.00  0.00    -0.070 C 
ATOM      7  C   UNL     1     130.682 118.679  98.737  1.00  0.00     0.039 C 
ATOM      8  C   UNL     1     133.044 119.705  98.842  1.00  0.00     0.039 C 
ATOM      9  C   UNL     1     129.538 121.409  98.942  1.00  0.00     0.159 C 
ATOM     10  O   UNL     1     128.781 120.581  99.515  1.00  0.00    -0.295 OA
ATOM     11  C   UNL     1     128.934 122.660  98.371  1.00  0.00     0.084 C 
ENDROOT
TORSDOF 0
ENDMDL
MODEL 6
REMARK VINA RESULT:    -4.264      1.707      4.577
REMARK INTER + INTRA:          -4.264
REMARK INTER:                  -4.264
REMARK INTRA:                   0.000
REMARK UNBOUND:                 0.000
REMARK SMILES CC(C)=C1CC[C@@H](C)CC1=O
REMARK SMILES IDX 8 1 7 2 6 3 5 4 4 5 2 6 1 7 3 8 10 9 11 10 9 11
REMARK H PARENT
REMARK Flexibility Score: inf
ROOT
ATOM      1  C   UNL     1     127.094 127.348 107.139  1.00  0.00     0.008 C 
ATOM      2  C   UNL     1     128.240 126.453 107.622  1.00  0.00    -0.006 C 
ATOM      3  C   UNL     1     128.428 126.586 109.142  1.00  0.00     0.008 C 
ATOM      4  C   UNL     1     129.502 125.621 109.660  1.00  0.00     0.039 C 
ATOM      5  C   UNL     1     130.814 125.745 108.895  1.00  0.00    -0.006 C 
ATOM      6  C   UNL     1     132.015 125.520 109.506  1.00  0.00    -0.070 C 
ATOM      7  C   UNL     1     133.325 125.694 108.773  1.00  0.00     0.039 C 
ATOM      8  C   UNL     1     132.091 125.121 110.962  1.00  0.00     0.039 C 
ATOM      9  C   UNL     1     130.697 126.007 107.430  1.00  0.00     0.159 C 
ATOM     10  O   UNL     1     131.547 125.560 106.614  1.00  0.00    -0.295 OA
ATOM     11  C   UNL     1     129.546 126.814 106.899  1.00  0.00     0.084 C 
ENDROOT
TORSDOF 0
ENDMDL
MODEL 7
REMARK VINA RESULT:    -4.191      9.614     10.906
REMARK INTER + INTRA:          -4.191
REMARK INTER:                  -4.191
REMARK INTRA:                   0.000
REMARK UNBOUND:                 0.000
REMARK SMILES CC(C)=C1CC[C@@H](C)CC1=O
REMARK SMILES IDX 8 1 7 2 6 3 5 4 4 5 2 6 1 7 3 8 10 9 11 10 9 11
REMARK H PARENT
REMARK Flexibility Score: inf
ROOT
ATOM      1  C   UNL     1     131.277 116.934 100.137  1.00  0.00     0.008 C 
ATOM      2  C   UNL     1     130.313 118.009  99.622  1.00  0.00    -0.006 C 
ATOM      3  C   UNL     1     131.092 119.203  99.045  1.00  0.00     0.008 C 
ATOM      4  C   UNL     1     130.146 120.243  98.432  1.00  0.00     0.039 C 
ATOM      5  C   UNL     1     129.046 120.672  99.395  1.00  0.00    -0.006 C 
ATOM      6  C   UNL     1     128.529 121.935  99.364  1.00  0.00    -0.070 C 
ATOM      7  C   UNL     1     127.478 122.389 100.350  1.00  0.00     0.039 C 
ATOM      8  C   UNL     1     129.013 122.956  98.359  1.00  0.00     0.039 C 
ATOM      9  C   UNL     1     128.498 119.603 100.282  1.00  0.00     0.159 C 
ATOM     10  O   UNL     1     127.293 119.611 100.649  1.00  0.00    -0.295 OA
ATOM     11  C   UNL     1     129.384 118.484 100.748  1.00  0.00     0.084 C 
ENDROOT
TORSDOF 0
ENDMDL
MODEL 8
REMARK VINA RESULT:    -4.094      9.500     11.602
REMARK INTER + INTRA:          -4.094
REMARK INTER:                  -4.094
REMARK INTRA:                   0.000
REMARK UNBOUND:                 0.000
REMARK SMILES CC(C)=C1CC[C@@H](C)CC1=O
REMARK SMILES IDX 8 1 7 2 6 3 5 4 4 5 2 6 1 7 3 8 10 9 11 10 9 11
REMARK H PARENT
REMARK Flexibility Score: inf
ROOT
ATOM      1  C   UNL     1     121.825 126.505 106.678  1.00  0.00     0.008 C 
ATOM      2  C   UNL     1     120.502 125.959 107.224  1.00  0.00    -0.006 C 
ATOM      3  C   UNL     1     119.627 125.415 106.083  1.00  0.00     0.008 C 
ATOM      4  C   UNL     1     118.343 124.772 106.620  1.00  0.00     0.039 C 
ATOM      5  C   UNL     1     117.575 125.696 107.557  1.00  0.00    -0.006 C 
ATOM      6  C   UNL     1     116.212 125.651 107.638  1.00  0.00    -0.070 C 
ATOM      7  C   UNL     1     115.436 126.600 108.522  1.00  0.00     0.039 C 
ATOM      8  C   UNL     1     115.410 124.668 106.816  1.00  0.00     0.039 C 
ATOM      9  C   UNL     1     118.403 126.558 108.452  1.00  0.00     0.159 C 
ATOM     10  O   UNL     1     118.004 126.882 109.603  1.00  0.00    -0.295 OA
ATOM     11  C   UNL     1     119.744 127.052 107.991  1.00  0.00     0.084 C 
ENDROOT
TORSDOF 0
ENDMDL
MODEL 9
REMARK VINA RESULT:    -4.050      8.182      9.676
REMARK INTER + INTRA:          -4.050
REMARK INTER:                  -4.050
REMARK INTRA:                   0.000
REMARK UNBOUND:                 0.000
REMARK SMILES CC(C)=C1CC[C@@H](C)CC1=O
REMARK SMILES IDX 8 1 7 2 6 3 5 4 4 5 2 6 1 7 3 8 10 9 11 10 9 11
REMARK H PARENT
REMARK Flexibility Score: inf
ROOT
ATOM      1  C   UNL     1     122.539 122.759 102.915  1.00  0.00     0.008 C 
ATOM      2  C   UNL     1     121.979 123.364 104.207  1.00  0.00    -0.006 C 
ATOM      3  C   UNL     1     120.472 123.634 104.069  1.00  0.00     0.008 C 
ATOM      4  C   UNL     1     119.872 124.144 105.385  1.00  0.00     0.039 C 
ATOM      5  C   UNL     1     120.632 125.339 105.948  1.00  0.00    -0.006 C 
ATOM      6  C   UNL     1     119.995 126.311 106.666  1.00  0.00    -0.070 C 
ATOM      7  C   UNL     1     120.726 127.528 107.181  1.00  0.00     0.039 C 
ATOM      8  C   UNL     1     118.512 126.231 106.949  1.00  0.00     0.039 C 
ATOM      9  C   UNL     1     122.114 125.319 105.767  1.00  0.00     0.159 C 
ATOM     10  O   UNL     1     122.885 125.837 106.618  1.00  0.00    -0.295 OA
ATOM     11  C   UNL     1     122.715 124.666 104.554  1.00  0.00     0.084 C 
ENDROOT
TORSDOF 0
ENDMDL
