MODEL 1
REMARK VINA RESULT:    -2.555      0.000      0.000
REMARK INTER + INTRA:          -4.882
REMARK INTER:                  -4.049
REMARK INTRA:                  -0.833
REMARK UNBOUND:                -0.833
REMARK SMILES CCCCCCCCCCCC(=O)[O-]
REMARK SMILES IDX 7 1 8 2 9 3 10 4 11 5 12 6 13 7 14 8 6 9 5 10 4 11 3 12 2 13
REMARK SMILES IDX 1 14
REMARK H PARENT
REMARK Flexibility Score: inf
ROOT
ATOM      1  C   UNL     1     -12.430  -9.091 -10.545  1.00  0.00     0.000 C 
ENDROOT
BRANCH   1   2
ATOM      2  C   UNL     1     -12.852  -8.553 -11.923  1.00  0.00     0.000 C 
BRANCH   2   3
ATOM      3  C   UNL     1     -14.232  -7.878 -11.900  1.00  0.00     0.000 C 
BRANCH   3   4
ATOM      4  C   UNL     1     -14.105  -6.382 -11.573  1.00  0.00     0.006 C 
BRANCH   4   5
ATOM      5  C   UNL     1     -15.417  -5.623 -11.808  1.00  0.00     0.053 C 
BRANCH   5   6
ATOM      6  C   UNL     1     -15.227  -4.141 -11.699  1.00  0.00     0.041 C 
ATOM      7  O   UNL     1     -16.117  -3.354 -12.119  1.00  0.00    -0.550 OA
ATOM      8  O   UNL     1     -14.080  -3.628 -11.105  1.00  0.00    -0.550 OA
ENDBRANCH   5   6
ENDBRANCH   4   5
ENDBRANCH   3   4
ENDBRANCH   2   3
ENDBRANCH   1   2
BRANCH   1   9
ATOM      9  C   UNL     1     -12.562 -10.620 -10.441  1.00  0.00     0.000 C 
BRANCH   9  10
ATOM     10  C   UNL     1     -13.199 -11.243 -11.693  1.00  0.00    -0.000 C 
BRANCH  10  11
ATOM     11  C   UNL     1     -14.384 -12.164 -11.361  1.00  0.00    -0.000 C 
BRANCH  11  12
ATOM     12  C   UNL     1     -15.113 -11.684 -10.097  1.00  0.00    -0.000 C 
BRANCH  12  13
ATOM     13  C   UNL     1     -16.614 -11.456 -10.329  1.00  0.00    -0.003 C 
ATOM     14  C   UNL     1     -16.893 -10.375 -11.373  1.00  0.00     0.004 C 
ENDBRANCH  12  13
ENDBRANCH  11  12
ENDBRANCH  10  11
ENDBRANCH   9  10
ENDBRANCH   1   9
TORSDOF 10
ENDMDL
MODEL 2
REMARK VINA RESULT:    -2.308     17.381     19.990
REMARK INTER + INTRA:          -4.490
REMARK INTER:                  -4.038
REMARK INTRA:                  -0.452
REMARK UNBOUND:                -0.833
REMARK SMILES CCCCCCCCCCCC(=O)[O-]
REMARK SMILES IDX 7 1 8 2 9 3 10 4 11 5 12 6 13 7 14 8 6 9 5 10 4 11 3 12 2 13
REMARK SMILES IDX 1 14
REMARK H PARENT
REMARK Flexibility Score: inf
ROOT
ATOM      1  C   UNL     1     -20.990   2.962   0.784  1.00  0.00     0.000 C 
ENDROOT
BRANCH   1   2
ATOM      2  C   UNL     1     -20.883   3.106   2.312  1.00  0.00     0.000 C 
BRANCH   2   3
ATOM      3  C   UNL     1     -20.822   4.571   2.768  1.00  0.00     0.000 C 
BRANCH   3   4
ATOM      4  C   UNL     1     -20.672   4.665   4.293  1.00  0.00     0.006 C 
BRANCH   4   5
ATOM      5  C   UNL     1     -20.401   6.100   4.763  1.00  0.00     0.053 C 
BRANCH   5   6
ATOM      6  C   UNL     1     -19.771   6.129   6.122  1.00  0.00     0.041 C 
ATOM      7  O   UNL     1     -18.668   5.554   6.323  1.00  0.00    -0.550 OA
ATOM      8  O   UNL     1     -20.386   6.819   7.159  1.00  0.00    -0.550 OA
ENDBRANCH   5   6
ENDBRANCH   4   5
ENDBRANCH   3   4
ENDBRANCH   2   3
ENDBRANCH   1   2
BRANCH   1   9
ATOM      9  C   UNL     1     -21.084   4.321   0.068  1.00  0.00     0.000 C 
BRANCH   9  10
ATOM     10  C   UNL     1     -20.103   4.435  -1.109  1.00  0.00    -0.000 C 
BRANCH  10  11
ATOM     11  C   UNL     1     -20.437   3.472  -2.259  1.00  0.00    -0.000 C 
BRANCH  11  12
ATOM     12  C   UNL     1     -20.873   4.245  -3.512  1.00  0.00    -0.000 C 
BRANCH  12  13
ATOM     13  C   UNL     1     -21.123   5.735  -3.232  1.00  0.00    -0.003 C 
ATOM     14  C   UNL     1     -20.642   6.639  -4.366  1.00  0.00     0.004 C 
ENDBRANCH  12  13
ENDBRANCH  11  12
ENDBRANCH  10  11
ENDBRANCH   9  10
ENDBRANCH   1   9
TORSDOF 10
ENDMDL
MODEL 3
REMARK VINA RESULT:    -2.189      3.804      5.990
REMARK INTER + INTRA:          -4.302
REMARK INTER:                  -3.703
REMARK INTRA:                  -0.598
REMARK UNBOUND:                -0.833
REMARK SMILES CCCCCCCCCCCC(=O)[O-]
REMARK SMILES IDX 7 1 8 2 9 3 10 4 11 5 12 6 13 7 14 8 6 9 5 10 4 11 3 12 2 13
REMARK SMILES IDX 1 14
REMARK H PARENT
REMARK Flexibility Score: inf
ROOT
ATOM      1  C   UNL     1     -17.368 -10.844  -9.888  1.00  0.00     0.000 C 
ENDROOT
BRANCH   1   2
ATOM      2  C   UNL     1     -16.164 -11.209 -10.773  1.00  0.00     0.000 C 
BRANCH   2   3
ATOM      3  C   UNL     1     -15.120 -12.060 -10.034  1.00  0.00     0.000 C 
BRANCH   3   4
ATOM      4  C   UNL     1     -13.708 -11.786 -10.572  1.00  0.00     0.006 C 
BRANCH   4   5
ATOM      5  C   UNL     1     -13.575 -10.377 -11.164  1.00  0.00     0.053 C 
BRANCH   5   6
ATOM      6  C   UNL     1     -12.401  -9.644 -10.592  1.00  0.00     0.041 C 
ATOM      7  O   UNL     1     -12.193  -9.647  -9.350  1.00  0.00    -0.550 OA
ATOM      8  O   UNL     1     -11.516  -8.982 -11.435  1.00  0.00    -0.550 OA
ENDBRANCH   5   6
ENDBRANCH   4   5
ENDBRANCH   3   4
ENDBRANCH   2   3
ENDBRANCH   1   2
BRANCH   1   9
ATOM      9  C   UNL     1     -18.220 -12.070  -9.514  1.00  0.00     0.000 C 
BRANCH   9  10
ATOM     10  C   UNL     1     -19.669 -11.954 -10.010  1.00  0.00    -0.000 C 
BRANCH  10  11
ATOM     11  C   UNL     1     -20.699 -12.119  -8.882  1.00  0.00    -0.000 C 
BRANCH  11  12
ATOM     12  C   UNL     1     -20.794 -10.839  -8.037  1.00  0.00    -0.000 C 
BRANCH  12  13
ATOM     13  C   UNL     1     -20.783 -11.124  -6.527  1.00  0.00    -0.003 C 
ATOM     14  C   UNL     1     -20.365 -12.557  -6.199  1.00  0.00     0.004 C 
ENDBRANCH  12  13
ENDBRANCH  11  12
ENDBRANCH  10  11
ENDBRANCH   9  10
ENDBRANCH   1   9
TORSDOF 10
ENDMDL
MODEL 4
REMARK VINA RESULT:    -2.140     17.719     20.353
REMARK INTER + INTRA:          -4.224
REMARK INTER:                  -3.472
REMARK INTRA:                  -0.752
REMARK UNBOUND:                -0.833
REMARK SMILES CCCCCCCCCCCC(=O)[O-]
REMARK SMILES IDX 7 1 8 2 9 3 10 4 11 5 12 6 13 7 14 8 6 9 5 10 4 11 3 12 2 13
REMARK SMILES IDX 1 14
REMARK H PARENT
REMARK Flexibility Score: inf
ROOT
ATOM      1  C   UNL     1     -19.920   4.724   1.777  1.00  0.00     0.000 C 
ENDROOT
BRANCH   1   2
ATOM      2  C   UNL     1     -20.927   5.884   1.692  1.00  0.00     0.000 C 
BRANCH   2   3
ATOM      3  C   UNL     1     -20.742   6.915   2.815  1.00  0.00     0.000 C 
BRANCH   3   4
ATOM      4  C   UNL     1     -21.125   6.316   4.177  1.00  0.00     0.006 C 
BRANCH   4   5
ATOM      5  C   UNL     1     -20.124   6.690   5.278  1.00  0.00     0.053 C 
BRANCH   5   6
ATOM      6  C   UNL     1     -20.089   5.663   6.368  1.00  0.00     0.041 C 
ATOM      7  O   UNL     1     -19.356   5.834   7.378  1.00  0.00    -0.550 OA
ATOM      8  O   UNL     1     -20.892   4.532   6.284  1.00  0.00    -0.550 OA
ENDBRANCH   5   6
ENDBRANCH   4   5
ENDBRANCH   3   4
ENDBRANCH   2   3
ENDBRANCH   1   2
BRANCH   1   9
ATOM      9  C   UNL     1     -20.594   3.379   2.099  1.00  0.00     0.000 C 
BRANCH   9  10
ATOM     10  C   UNL     1     -20.774   2.496   0.854  1.00  0.00    -0.000 C 
BRANCH  10  11
ATOM     11  C   UNL     1     -20.117   3.096  -0.399  1.00  0.00    -0.000 C 
BRANCH  11  12
ATOM     12  C   UNL     1     -21.124   3.184  -1.556  1.00  0.00    -0.000 C 
BRANCH  12  13
ATOM     13  C   UNL     1     -20.703   4.197  -2.632  1.00  0.00    -0.003 C 
ATOM     14  C   UNL     1     -19.941   5.389  -2.055  1.00  0.00     0.004 C 
ENDBRANCH  12  13
ENDBRANCH  11  12
ENDBRANCH  10  11
ENDBRANCH   9  10
ENDBRANCH   1   9
TORSDOF 10
ENDMDL
MODEL 5
REMARK VINA RESULT:    -2.083      4.737      7.108
REMARK INTER + INTRA:          -4.135
REMARK INTER:                  -3.652
REMARK INTRA:                  -0.483
REMARK UNBOUND:                -0.833
REMARK SMILES CCCCCCCCCCCC(=O)[O-]
REMARK SMILES IDX 7 1 8 2 9 3 10 4 11 5 12 6 13 7 14 8 6 9 5 10 4 11 3 12 2 13
REMARK SMILES IDX 1 14
REMARK H PARENT
REMARK Flexibility Score: inf
ROOT
ATOM      1  C   UNL     1     -16.331 -11.209 -10.293  1.00  0.00     0.000 C 
ENDROOT
BRANCH   1   2
ATOM      2  C   UNL     1     -17.799 -11.667 -10.244  1.00  0.00     0.000 C 
BRANCH   2   3
ATOM      3  C   UNL     1     -18.048 -12.752  -9.186  1.00  0.00     0.000 C 
BRANCH   3   4
ATOM      4  C   UNL     1     -19.526 -12.785  -8.770  1.00  0.00     0.006 C 
BRANCH   4   5
ATOM      5  C   UNL     1     -19.703 -13.070  -7.274  1.00  0.00     0.053 C 
BRANCH   5   6
ATOM      6  C   UNL     1     -20.392 -11.940  -6.571  1.00  0.00     0.041 C 
ATOM      7  O   UNL     1     -20.859 -12.103  -5.413  1.00  0.00    -0.550 OA
ATOM      8  O   UNL     1     -20.490 -10.697  -7.184  1.00  0.00    -0.550 OA
ENDBRANCH   5   6
ENDBRANCH   4   5
ENDBRANCH   3   4
ENDBRANCH   2   3
ENDBRANCH   1   2
BRANCH   1   9
ATOM      9  C   UNL     1     -15.343 -12.370 -10.088  1.00  0.00     0.000 C 
BRANCH   9  10
ATOM     10  C   UNL     1     -14.102 -12.254 -10.987  1.00  0.00    -0.000 C 
BRANCH  10  11
ATOM     11  C   UNL     1     -13.030 -11.322 -10.403  1.00  0.00    -0.000 C 
BRANCH  11  12
ATOM     12  C   UNL     1     -12.557 -10.305 -11.454  1.00  0.00    -0.000 C 
BRANCH  12  13
ATOM     13  C   UNL     1     -12.564  -8.862 -10.927  1.00  0.00    -0.003 C 
ATOM     14  C   UNL     1     -13.498  -7.948 -11.719  1.00  0.00     0.004 C 
ENDBRANCH  12  13
ENDBRANCH  11  12
ENDBRANCH  10  11
ENDBRANCH   9  10
ENDBRANCH   1   9
TORSDOF 10
ENDMDL
MODEL 6
REMARK VINA RESULT:    -1.828      1.489      2.040
REMARK INTER + INTRA:          -3.730
REMARK INTER:                  -3.291
REMARK INTRA:                  -0.439
REMARK UNBOUND:                -0.833
REMARK SMILES CCCCCCCCCCCC(=O)[O-]
REMARK SMILES IDX 7 1 8 2 9 3 10 4 11 5 12 6 13 7 14 8 6 9 5 10 4 11 3 12 2 13
REMARK SMILES IDX 1 14
REMARK H PARENT
REMARK Flexibility Score: inf
ROOT
ATOM      1  C   UNL     1     -13.676 -10.317 -11.231  1.00  0.00     0.000 C 
ENDROOT
BRANCH   1   2
ATOM      2  C   UNL     1     -14.470  -9.257 -12.014  1.00  0.00     0.000 C 
BRANCH   2   3
ATOM      3  C   UNL     1     -13.792  -7.878 -12.001  1.00  0.00     0.000 C 
BRANCH   3   4
ATOM      4  C   UNL     1     -14.832  -6.755 -12.125  1.00  0.00     0.006 C 
BRANCH   4   5
ATOM      5  C   UNL     1     -14.399  -5.479 -11.393  1.00  0.00     0.053 C 
BRANCH   5   6
ATOM      6  C   UNL     1     -15.443  -4.408 -11.479  1.00  0.00     0.041 C 
ATOM      7  O   UNL     1     -16.654  -4.683 -11.267  1.00  0.00    -0.550 OA
ATOM      8  O   UNL     1     -15.074  -3.098 -11.763  1.00  0.00    -0.550 OA
ENDBRANCH   5   6
ENDBRANCH   4   5
ENDBRANCH   3   4
ENDBRANCH   2   3
ENDBRANCH   1   2
BRANCH   1   9
ATOM      9  C   UNL     1     -14.584 -11.237 -10.396  1.00  0.00     0.000 C 
BRANCH   9  10
ATOM     10  C   UNL     1     -15.400 -12.206 -11.265  1.00  0.00    -0.000 C 
BRANCH  10  11
ATOM     11  C   UNL     1     -16.915 -11.968 -11.159  1.00  0.00    -0.000 C 
BRANCH  11  12
ATOM     12  C   UNL     1     -17.320 -11.662  -9.709  1.00  0.00    -0.000 C 
BRANCH  12  13
ATOM     13  C   UNL     1     -18.791 -12.001  -9.422  1.00  0.00    -0.003 C 
ATOM     14  C   UNL     1     -19.344 -11.254  -8.208  1.00  0.00     0.004 C 
ENDBRANCH  12  13
ENDBRANCH  11  12
ENDBRANCH  10  11
ENDBRANCH   9  10
ENDBRANCH   1   9
TORSDOF 10
ENDMDL
MODEL 7
REMARK VINA RESULT:    -1.743     17.304     18.966
REMARK INTER + INTRA:          -3.595
REMARK INTER:                  -2.853
REMARK INTRA:                  -0.743
REMARK UNBOUND:                -0.833
REMARK SMILES CCCCCCCCCCCC(=O)[O-]
REMARK SMILES IDX 7 1 8 2 9 3 10 4 11 5 12 6 13 7 14 8 6 9 5 10 4 11 3 12 2 13
REMARK SMILES IDX 1 14
REMARK H PARENT
REMARK Flexibility Score: inf
ROOT
ATOM      1  C   UNL     1     -20.006   4.619  -0.656  1.00  0.00     0.000 C 
ENDROOT
BRANCH   1   2
ATOM      2  C   UNL     1     -19.846   3.126  -0.323  1.00  0.00     0.000 C 
BRANCH   2   3
ATOM      3  C   UNL     1     -20.671   2.699   0.901  1.00  0.00     0.000 C 
BRANCH   3   4
ATOM      4  C   UNL     1     -21.125   3.922   1.710  1.00  0.00     0.006 C 
BRANCH   4   5
ATOM      5  C   UNL     1     -20.668   3.854   3.173  1.00  0.00     0.053 C 
BRANCH   5   6
ATOM      6  C   UNL     1     -20.807   5.178   3.860  1.00  0.00     0.041 C 
ATOM      7  O   UNL     1     -21.014   6.223   3.189  1.00  0.00    -0.550 OA
ATOM      8  O   UNL     1     -20.740   5.252   5.246  1.00  0.00    -0.550 OA
ENDBRANCH   5   6
ENDBRANCH   4   5
ENDBRANCH   3   4
ENDBRANCH   2   3
ENDBRANCH   1   2
BRANCH   1   9
ATOM      9  C   UNL     1     -21.125   4.880  -1.679  1.00  0.00     0.000 C 
BRANCH   9  10
ATOM     10  C   UNL     1     -21.005   3.988  -2.924  1.00  0.00    -0.000 C 
BRANCH  10  11
ATOM     11  C   UNL     1     -21.064   4.786  -4.236  1.00  0.00    -0.000 C 
BRANCH  11  12
ATOM     12  C   UNL     1     -20.930   6.293  -3.966  1.00  0.00    -0.000 C 
BRANCH  12  13
ATOM     13  C   UNL     1     -19.658   6.894  -4.582  1.00  0.00    -0.003 C 
ATOM     14  C   UNL     1     -18.508   6.998  -3.581  1.00  0.00     0.004 C 
ENDBRANCH  12  13
ENDBRANCH  11  12
ENDBRANCH  10  11
ENDBRANCH   9  10
ENDBRANCH   1   9
TORSDOF 10
ENDMDL
MODEL 8
REMARK VINA RESULT:    -1.317      3.351      5.689
REMARK INTER + INTRA:          -2.920
REMARK INTER:                  -2.548
REMARK INTRA:                  -0.372
REMARK UNBOUND:                -0.833
REMARK SMILES CCCCCCCCCCCC(=O)[O-]
REMARK SMILES IDX 7 1 8 2 9 3 10 4 11 5 12 6 13 7 14 8 6 9 5 10 4 11 3 12 2 13
REMARK SMILES IDX 1 14
REMARK H PARENT
REMARK Flexibility Score: inf
ROOT
ATOM      1  C   UNL     1     -12.490 -12.541 -11.628  1.00  0.00     0.000 C 
ENDROOT
BRANCH   1   2
ATOM      2  C   UNL     1     -13.147 -12.482 -10.239  1.00  0.00     0.000 C 
BRANCH   2   3
ATOM      3  C   UNL     1     -14.609 -12.012 -10.292  1.00  0.00     0.000 C 
BRANCH   3   4
ATOM      4  C   UNL     1     -15.419 -12.851 -11.291  1.00  0.00     0.006 C 
BRANCH   4   5
ATOM      5  C   UNL     1     -16.862 -13.077 -10.825  1.00  0.00     0.053 C 
BRANCH   5   6
ATOM      6  C   UNL     1     -17.510 -11.799 -10.385  1.00  0.00     0.041 C 
ATOM      7  O   UNL     1     -17.515 -10.795 -11.146  1.00  0.00    -0.550 OA
ATOM      8  O   UNL     1     -18.136 -11.727  -9.147  1.00  0.00    -0.550 OA
ENDBRANCH   5   6
ENDBRANCH   4   5
ENDBRANCH   3   4
ENDBRANCH   2   3
ENDBRANCH   1   2
BRANCH   1   9
ATOM      9  C   UNL     1     -11.666 -11.281 -11.946  1.00  0.00     0.000 C 
BRANCH   9  10
ATOM     10  C   UNL     1     -12.169 -10.041 -11.190  1.00  0.00    -0.000 C 
BRANCH  10  11
ATOM     11  C   UNL     1     -12.415  -8.840 -12.116  1.00  0.00    -0.000 C 
BRANCH  11  12
ATOM     12  C   UNL     1     -13.852  -8.317 -11.965  1.00  0.00    -0.000 C 
BRANCH  12  13
ATOM     13  C   UNL     1     -13.945  -6.791 -12.115  1.00  0.00    -0.003 C 
ATOM     14  C   UNL     1     -15.343  -6.252 -11.813  1.00  0.00     0.004 C 
ENDBRANCH  12  13
ENDBRANCH  11  12
ENDBRANCH  10  11
ENDBRANCH   9  10
ENDBRANCH   1   9
TORSDOF 10
ENDMDL
