MODEL 1
REMARK VINA RESULT:    -5.095      0.000      0.000
REMARK INTER + INTRA:          -5.787
REMARK INTER:                  -5.542
REMARK INTRA:                  -0.245
REMARK UNBOUND:                -0.245
REMARK SMILES O=C([O-])c1ccccc1O
REMARK SMILES IDX 4 1 9 2 5 3 8 4 6 5 7 6 2 7 1 8 3 9 10 10
REMARK H PARENT 10 11
REMARK Flexibility Score: inf
ROOT
ATOM      1  C   UNL     1       5.503   7.339  12.234  1.00  0.00     0.039 A 
ATOM      2  C   UNL     1       6.904   7.248  12.442  1.00  0.00     0.124 A 
ATOM      3  C   UNL     1       4.713   6.188  12.414  1.00  0.00     0.014 A 
ATOM      4  C   UNL     1       7.478   6.011  12.760  1.00  0.00     0.047 A 
ATOM      5  C   UNL     1       5.299   4.967  12.750  1.00  0.00     0.001 A 
ATOM      6  C   UNL     1       6.680   4.875  12.914  1.00  0.00     0.004 A 
ENDROOT
BRANCH   1   7
ATOM      7  C   UNL     1       4.835   8.587  11.802  1.00  0.00     0.075 C 
ATOM      8  O   UNL     1       5.316   9.290  10.875  1.00  0.00    -0.545 OA
ATOM      9  O   UNL     1       3.624   8.962  12.373  1.00  0.00    -0.545 OA
ENDBRANCH   1   7
BRANCH   2  10
ATOM     10  O   UNL     1       7.749   8.358  12.380  1.00  0.00    -0.507 OA
ATOM     11  H   UNL     1       7.901   8.898  11.539  1.00  0.00     0.293 HD
ENDBRANCH   2  10
TORSDOF 2
ENDMDL
MODEL 2
REMARK VINA RESULT:    -4.793      1.236      2.431
REMARK INTER + INTRA:          -5.459
REMARK INTER:                  -5.214
REMARK INTRA:                  -0.245
REMARK UNBOUND:                -0.245
REMARK SMILES O=C([O-])c1ccccc1O
REMARK SMILES IDX 4 1 9 2 5 3 8 4 6 5 7 6 2 7 1 8 3 9 10 10
REMARK H PARENT 10 11
REMARK Flexibility Score: inf
ROOT
ATOM      1  C   UNL     1       5.674   7.185  12.227  1.00  0.00     0.039 A 
ATOM      2  C   UNL     1       5.265   5.854  12.501  1.00  0.00     0.124 A 
ATOM      3  C   UNL     1       7.050   7.477  12.182  1.00  0.00     0.014 A 
ATOM      4  C   UNL     1       6.229   4.877  12.782  1.00  0.00     0.047 A 
ATOM      5  C   UNL     1       7.998   6.487  12.444  1.00  0.00     0.001 A 
ATOM      6  C   UNL     1       7.589   5.191  12.754  1.00  0.00     0.004 A 
ENDROOT
BRANCH   1   7
ATOM      7  C   UNL     1       4.715   8.292  12.016  1.00  0.00     0.075 C 
ATOM      8  O   UNL     1       3.729   8.448  12.783  1.00  0.00    -0.545 OA
ATOM      9  O   UNL     1       4.933   9.219  11.003  1.00  0.00    -0.545 OA
ENDBRANCH   1   7
BRANCH   2  10
ATOM     10  O   UNL     1       3.927   5.455  12.471  1.00  0.00    -0.507 OA
ATOM     11  H   UNL     1       3.478   4.947  13.220  1.00  0.00     0.293 HD
ENDBRANCH   2  10
TORSDOF 2
ENDMDL
MODEL 3
REMARK VINA RESULT:    -4.599      1.232      2.961
REMARK INTER + INTRA:          -5.248
REMARK INTER:                  -5.081
REMARK INTRA:                  -0.167
REMARK UNBOUND:                -0.245
REMARK SMILES O=C([O-])c1ccccc1O
REMARK SMILES IDX 4 1 9 2 5 3 8 4 6 5 7 6 2 7 1 8 3 9 10 10
REMARK H PARENT 10 11
REMARK Flexibility Score: inf
ROOT
ATOM      1  C   UNL     1       6.684   6.980  13.139  1.00  0.00     0.039 A 
ATOM      2  C   UNL     1       5.609   7.634  12.483  1.00  0.00     0.124 A 
ATOM      3  C   UNL     1       6.602   5.592  13.359  1.00  0.00     0.014 A 
ATOM      4  C   UNL     1       4.469   6.904  12.125  1.00  0.00     0.047 A 
ATOM      5  C   UNL     1       5.467   4.875  12.977  1.00  0.00     0.001 A 
ATOM      6  C   UNL     1       4.397   5.531  12.370  1.00  0.00     0.004 A 
ENDROOT
BRANCH   1   7
ATOM      7  C   UNL     1       7.879   7.699  13.635  1.00  0.00     0.075 C 
ATOM      8  O   UNL     1       9.014   7.492  13.131  1.00  0.00    -0.545 OA
ATOM      9  O   UNL     1       7.748   8.667  14.624  1.00  0.00    -0.545 OA
ENDBRANCH   1   7
BRANCH   2  10
ATOM     10  O   UNL     1       5.647   8.987  12.139  1.00  0.00    -0.507 OA
ATOM     11  H   UNL     1       4.821   9.547  11.982  1.00  0.00     0.293 HD
ENDBRANCH   2  10
TORSDOF 2
ENDMDL
MODEL 4
REMARK VINA RESULT:    -4.545      2.316      3.204
REMARK INTER + INTRA:          -5.189
REMARK INTER:                  -4.940
REMARK INTRA:                  -0.249
REMARK UNBOUND:                -0.245
REMARK SMILES O=C([O-])c1ccccc1O
REMARK SMILES IDX 4 1 9 2 5 3 8 4 6 5 7 6 2 7 1 8 3 9 10 10
REMARK H PARENT 10 11
REMARK Flexibility Score: inf
ROOT
ATOM      1  C   UNL     1       6.729   6.917  13.288  1.00  0.00     0.039 A 
ATOM      2  C   UNL     1       6.861   5.569  12.864  1.00  0.00     0.124 A 
ATOM      3  C   UNL     1       5.451   7.507  13.288  1.00  0.00     0.014 A 
ATOM      4  C   UNL     1       5.736   4.876  12.398  1.00  0.00     0.047 A 
ATOM      5  C   UNL     1       4.337   6.796  12.839  1.00  0.00     0.001 A 
ATOM      6  C   UNL     1       4.480   5.486  12.386  1.00  0.00     0.004 A 
ENDROOT
BRANCH   1   7
ATOM      7  C   UNL     1       7.884   7.745  13.702  1.00  0.00     0.075 C 
ATOM      8  O   UNL     1       7.768   8.609  14.610  1.00  0.00    -0.545 OA
ATOM      9  O   UNL     1       9.135   7.527  13.136  1.00  0.00    -0.545 OA
ENDBRANCH   1   7
BRANCH   2  10
ATOM     10  O   UNL     1       8.072   4.875  12.923  1.00  0.00    -0.507 OA
ATOM     11  H   UNL     1       8.721   4.948  13.694  1.00  0.00     0.293 HD
ENDBRANCH   2  10
TORSDOF 2
ENDMDL
MODEL 5
REMARK VINA RESULT:    -4.512      1.990      3.563
REMARK INTER + INTRA:          -5.153
REMARK INTER:                  -4.931
REMARK INTRA:                  -0.222
REMARK UNBOUND:                -0.245
REMARK SMILES O=C([O-])c1ccccc1O
REMARK SMILES IDX 4 1 9 2 5 3 8 4 6 5 7 6 2 7 1 8 3 9 10 10
REMARK H PARENT 10 11
REMARK Flexibility Score: inf
ROOT
ATOM      1  C   UNL     1       6.154   6.602  12.657  1.00  0.00     0.039 A 
ATOM      2  C   UNL     1       6.783   7.836  12.345  1.00  0.00     0.124 A 
ATOM      3  C   UNL     1       4.760   6.492  12.501  1.00  0.00     0.014 A 
ATOM      4  C   UNL     1       6.003   8.931  11.952  1.00  0.00     0.047 A 
ATOM      5  C   UNL     1       3.999   7.588  12.089  1.00  0.00     0.001 A 
ATOM      6  C   UNL     1       4.618   8.808  11.823  1.00  0.00     0.004 A 
ENDROOT
BRANCH   1   7
ATOM      7  C   UNL     1       6.897   5.430  13.171  1.00  0.00     0.075 C 
ATOM      8  O   UNL     1       6.562   4.875  14.250  1.00  0.00    -0.545 OA
ATOM      9  O   UNL     1       7.937   4.884  12.428  1.00  0.00    -0.545 OA
ENDBRANCH   1   7
BRANCH   2  10
ATOM     10  O   UNL     1       8.169   8.005  12.379  1.00  0.00    -0.507 OA
ATOM     11  H   UNL     1       8.820   7.251  12.544  1.00  0.00     0.293 HD
ENDBRANCH   2  10
TORSDOF 2
ENDMDL
MODEL 6
REMARK VINA RESULT:    -4.475      2.307      3.869
REMARK INTER + INTRA:          -5.113
REMARK INTER:                  -4.860
REMARK INTRA:                  -0.253
REMARK UNBOUND:                -0.245
REMARK SMILES O=C([O-])c1ccccc1O
REMARK SMILES IDX 4 1 9 2 5 3 8 4 6 5 7 6 2 7 1 8 3 9 10 10
REMARK H PARENT 10 11
REMARK Flexibility Score: inf
ROOT
ATOM      1  C   UNL     1       6.594   7.022  12.422  1.00  0.00     0.039 A 
ATOM      2  C   UNL     1       5.407   6.290  12.691  1.00  0.00     0.124 A 
ATOM      3  C   UNL     1       6.485   8.333  11.923  1.00  0.00     0.014 A 
ATOM      4  C   UNL     1       4.161   6.859  12.397  1.00  0.00     0.047 A 
ATOM      5  C   UNL     1       5.234   8.892  11.654  1.00  0.00     0.001 A 
ATOM      6  C   UNL     1       4.074   8.154  11.882  1.00  0.00     0.004 A 
ENDROOT
BRANCH   1   7
ATOM      7  C   UNL     1       7.947   6.455  12.614  1.00  0.00     0.075 C 
ATOM      8  O   UNL     1       8.876   7.150  13.101  1.00  0.00    -0.545 OA
ATOM      9  O   UNL     1       8.189   5.118  12.320  1.00  0.00    -0.545 OA
ENDBRANCH   1   7
BRANCH   2  10
ATOM     10  O   UNL     1       5.420   5.022  13.276  1.00  0.00    -0.507 OA
ATOM     11  H   UNL     1       6.266   4.536  13.538  1.00  0.00     0.293 HD
ENDBRANCH   2  10
TORSDOF 2
ENDMDL
MODEL 7
REMARK VINA RESULT:    -3.734      1.691      2.556
REMARK INTER + INTRA:          -4.307
REMARK INTER:                  -4.055
REMARK INTRA:                  -0.252
REMARK UNBOUND:                -0.245
REMARK SMILES O=C([O-])c1ccccc1O
REMARK SMILES IDX 4 1 9 2 5 3 8 4 6 5 7 6 2 7 1 8 3 9 10 10
REMARK H PARENT 10 11
REMARK Flexibility Score: inf
ROOT
ATOM      1  C   UNL     1       5.497   6.122  12.589  1.00  0.00     0.039 A 
ATOM      2  C   UNL     1       6.077   7.365  12.225  1.00  0.00     0.124 A 
ATOM      3  C   UNL     1       6.336   5.004  12.758  1.00  0.00     0.014 A 
ATOM      4  C   UNL     1       7.455   7.442  11.982  1.00  0.00     0.047 A 
ATOM      5  C   UNL     1       7.710   5.103  12.531  1.00  0.00     0.001 A 
ATOM      6  C   UNL     1       8.268   6.317  12.135  1.00  0.00     0.004 A 
ENDROOT
BRANCH   1   7
ATOM      7  C   UNL     1       4.040   5.938  12.768  1.00  0.00     0.075 C 
ATOM      8  O   UNL     1       3.472   4.875  12.404  1.00  0.00    -0.545 OA
ATOM      9  O   UNL     1       3.288   6.918  13.408  1.00  0.00    -0.545 OA
ENDBRANCH   1   7
BRANCH   2  10
ATOM     10  O   UNL     1       5.335   8.545  12.130  1.00  0.00    -0.507 OA
ATOM     11  H   UNL     1       4.395   8.643  12.486  1.00  0.00     0.293 HD
ENDBRANCH   2  10
TORSDOF 2
ENDMDL
MODEL 8
REMARK VINA RESULT:    -3.722      2.089      2.878
REMARK INTER + INTRA:          -4.293
REMARK INTER:                  -4.081
REMARK INTRA:                  -0.212
REMARK UNBOUND:                -0.245
REMARK SMILES O=C([O-])c1ccccc1O
REMARK SMILES IDX 4 1 9 2 5 3 8 4 6 5 7 6 2 7 1 8 3 9 10 10
REMARK H PARENT 10 11
REMARK Flexibility Score: inf
ROOT
ATOM      1  C   UNL     1       5.949   7.243  12.620  1.00  0.00     0.039 A 
ATOM      2  C   UNL     1       6.497   6.310  13.539  1.00  0.00     0.124 A 
ATOM      3  C   UNL     1       6.630   8.455  12.395  1.00  0.00     0.014 A 
ATOM      4  C   UNL     1       7.662   6.636  14.245  1.00  0.00     0.047 A 
ATOM      5  C   UNL     1       7.802   8.755  13.092  1.00  0.00     0.001 A 
ATOM      6  C   UNL     1       8.312   7.851  14.023  1.00  0.00     0.004 A 
ENDROOT
BRANCH   1   7
ATOM      7  C   UNL     1       4.672   7.015  11.910  1.00  0.00     0.075 C 
ATOM      8  O   UNL     1       4.072   5.911  11.997  1.00  0.00    -0.545 OA
ATOM      9  O   UNL     1       4.082   8.047  11.188  1.00  0.00    -0.545 OA
ENDBRANCH   1   7
BRANCH   2  10
ATOM     10  O   UNL     1       5.941   5.047  13.752  1.00  0.00    -0.507 OA
ATOM     11  H   UNL     1       4.974   4.823  13.563  1.00  0.00     0.293 HD
ENDBRANCH   2  10
TORSDOF 2
ENDMDL
