MODEL 1
REMARK VINA RESULT:    -4.572      0.000      0.000
REMARK INTER + INTRA:         -10.359
REMARK INTER:                  -8.313
REMARK INTRA:                  -2.046
REMARK UNBOUND:                -2.046
REMARK SMILES CCCCCCCCCCCCCCCC(=O)[O-]
REMARK SMILES IDX 9 1 10 2 11 3 12 4 13 5 14 6 15 7 16 8 17 9 18 10 8 11 7 12
REMARK SMILES IDX 6 13 5 14 4 15 3 16 2 17 1 18
REMARK H PARENT
REMARK Flexibility Score: inf
ROOT
ATOM      1  C   UNL     1     -20.284 -26.583  14.517  1.00  0.00     0.000 C 
ENDROOT
BRANCH   1   2
ATOM      2  C   UNL     1     -21.590 -26.179  15.222  1.00  0.00     0.000 C 
BRANCH   2   3
ATOM      3  C   UNL     1     -21.370 -25.756  16.682  1.00  0.00     0.000 C 
BRANCH   3   4
ATOM      4  C   UNL     1     -22.398 -26.425  17.607  1.00  0.00     0.000 C 
BRANCH   4   5
ATOM      5  C   UNL     1     -23.035 -27.675  16.981  1.00  0.00     0.000 C 
BRANCH   5   6
ATOM      6  C   UNL     1     -22.519 -28.981  17.608  1.00  0.00     0.006 C 
BRANCH   6   7
ATOM      7  C   UNL     1     -21.343 -29.577  16.821  1.00  0.00     0.053 C 
BRANCH   7   8
ATOM      8  C   UNL     1     -21.806 -30.323  15.607  1.00  0.00     0.041 C 
ATOM      9  O   UNL     1     -22.572 -31.315  15.727  1.00  0.00    -0.550 OA
ATOM     10  O   UNL     1     -21.416 -29.905  14.341  1.00  0.00    -0.550 OA
ENDBRANCH   7   8
ENDBRANCH   6   7
ENDBRANCH   5   6
ENDBRANCH   4   5
ENDBRANCH   3   4
ENDBRANCH   2   3
ENDBRANCH   1   2
BRANCH   1  11
ATOM     11  C   UNL     1     -19.058 -26.469  15.438  1.00  0.00     0.000 C 
BRANCH  11  12
ATOM     12  C   UNL     1     -18.016 -25.455  14.929  1.00  0.00    -0.000 C 
BRANCH  12  13
ATOM     13  C   UNL     1     -17.050 -25.984  13.854  1.00  0.00    -0.000 C 
BRANCH  13  14
ATOM     14  C   UNL     1     -17.006 -25.098  12.598  1.00  0.00    -0.000 C 
BRANCH  14  15
ATOM     15  C   UNL     1     -18.118 -25.434  11.587  1.00  0.00    -0.000 C 
BRANCH  15  16
ATOM     16  C   UNL     1     -19.075 -24.273  11.247  1.00  0.00    -0.000 C 
BRANCH  16  17
ATOM     17  C   UNL     1     -19.114 -23.136  12.283  1.00  0.00    -0.003 C 
ATOM     18  C   UNL     1     -20.392 -23.136  13.120  1.00  0.00     0.004 C 
ENDBRANCH  16  17
ENDBRANCH  15  16
ENDBRANCH  14  15
ENDBRANCH  13  14
ENDBRANCH  12  13
ENDBRANCH  11  12
ENDBRANCH   1  11
TORSDOF 14
ENDMDL
MODEL 2
REMARK VINA RESULT:    -4.553      4.480      6.771
REMARK INTER + INTRA:         -10.326
REMARK INTER:                  -8.864
REMARK INTRA:                  -1.462
REMARK UNBOUND:                -2.046
REMARK SMILES CCCCCCCCCCCCCCCC(=O)[O-]
REMARK SMILES IDX 9 1 10 2 11 3 12 4 13 5 14 6 15 7 16 8 17 9 18 10 8 11 7 12
REMARK SMILES IDX 6 13 5 14 4 15 3 16 2 17 1 18
REMARK H PARENT
REMARK Flexibility Score: inf
ROOT
ATOM      1  C   UNL     1     -19.414 -26.070  14.459  1.00  0.00     0.000 C 
ENDROOT
BRANCH   1   2
ATOM      2  C   UNL     1     -18.296 -26.636  13.569  1.00  0.00     0.000 C 
BRANCH   2   3
ATOM      3  C   UNL     1     -16.903 -26.131  13.973  1.00  0.00     0.000 C 
BRANCH   3   4
ATOM      4  C   UNL     1     -16.238 -25.372  12.814  1.00  0.00     0.000 C 
BRANCH   4   5
ATOM      5  C   UNL     1     -16.766 -25.807  11.438  1.00  0.00     0.000 C 
BRANCH   5   6
ATOM      6  C   UNL     1     -15.637 -26.080  10.430  1.00  0.00     0.006 C 
BRANCH   6   7
ATOM      7  C   UNL     1     -15.988 -27.218   9.461  1.00  0.00     0.053 C 
BRANCH   7   8
ATOM      8  C   UNL     1     -15.589 -26.896   8.054  1.00  0.00     0.041 C 
ATOM      9  O   UNL     1     -14.882 -25.883   7.812  1.00  0.00    -0.550 OA
ATOM     10  O   UNL     1     -15.973 -27.731   7.012  1.00  0.00    -0.550 OA
ENDBRANCH   7   8
ENDBRANCH   6   7
ENDBRANCH   5   6
ENDBRANCH   4   5
ENDBRANCH   3   4
ENDBRANCH   2   3
ENDBRANCH   1   2
BRANCH   1  11
ATOM     11  C   UNL     1     -19.312 -24.546  14.637  1.00  0.00     0.000 C 
BRANCH  11  12
ATOM     12  C   UNL     1     -20.323 -23.770  13.771  1.00  0.00    -0.000 C 
BRANCH  12  13
ATOM     13  C   UNL     1     -19.990 -23.700  12.270  1.00  0.00    -0.000 C 
BRANCH  13  14
ATOM     14  C   UNL     1     -18.876 -22.689  11.948  1.00  0.00    -0.000 C 
BRANCH  14  15
ATOM     15  C   UNL     1     -19.396 -21.432  11.229  1.00  0.00    -0.000 C 
BRANCH  15  16
ATOM     16  C   UNL     1     -19.421 -21.513   9.689  1.00  0.00    -0.000 C 
BRANCH  16  17
ATOM     17  C   UNL     1     -20.781 -21.196   9.042  1.00  0.00    -0.003 C 
ATOM     18  C   UNL     1     -21.673 -22.428   8.898  1.00  0.00     0.004 C 
ENDBRANCH  16  17
ENDBRANCH  15  16
ENDBRANCH  14  15
ENDBRANCH  13  14
ENDBRANCH  12  13
ENDBRANCH  11  12
ENDBRANCH   1  11
TORSDOF 14
ENDMDL
MODEL 3
REMARK VINA RESULT:    -4.549      9.254     10.761
REMARK INTER + INTRA:         -10.319
REMARK INTER:                  -8.536
REMARK INTRA:                  -1.782
REMARK UNBOUND:                -2.046
REMARK SMILES CCCCCCCCCCCCCCCC(=O)[O-]
REMARK SMILES IDX 9 1 10 2 11 3 12 4 13 5 14 6 15 7 16 8 17 9 18 10 8 11 7 12
REMARK SMILES IDX 6 13 5 14 4 15 3 16 2 17 1 18
REMARK H PARENT
REMARK Flexibility Score: inf
ROOT
ATOM      1  C   UNL     1     -24.711 -27.682   5.271  1.00  0.00     0.000 C 
ENDROOT
BRANCH   1   2
ATOM      2  C   UNL     1     -25.365 -29.073   5.230  1.00  0.00     0.000 C 
BRANCH   2   3
ATOM      3  C   UNL     1     -25.882 -29.526   6.603  1.00  0.00     0.000 C 
BRANCH   3   4
ATOM      4  C   UNL     1     -27.414 -29.439   6.668  1.00  0.00     0.000 C 
BRANCH   4   5
ATOM      5  C   UNL     1     -27.912 -28.624   7.871  1.00  0.00     0.000 C 
BRANCH   5   6
ATOM      6  C   UNL     1     -26.793 -28.309   8.878  1.00  0.00     0.006 C 
BRANCH   6   7
ATOM      7  C   UNL     1     -27.074 -27.028   9.676  1.00  0.00     0.053 C 
BRANCH   7   8
ATOM      8  C   UNL     1     -26.088 -25.945   9.360  1.00  0.00     0.041 C 
ATOM      9  O   UNL     1     -25.278 -26.085   8.407  1.00  0.00    -0.550 OA
ATOM     10  O   UNL     1     -26.086 -24.768  10.098  1.00  0.00    -0.550 OA
ENDBRANCH   7   8
ENDBRANCH   6   7
ENDBRANCH   5   6
ENDBRANCH   4   5
ENDBRANCH   3   4
ENDBRANCH   2   3
ENDBRANCH   1   2
BRANCH   1  11
ATOM     11  C   UNL     1     -23.711 -27.466   4.123  1.00  0.00     0.000 C 
BRANCH  11  12
ATOM     12  C   UNL     1     -23.738 -28.600   3.082  1.00  0.00    -0.000 C 
BRANCH  12  13
ATOM     13  C   UNL     1     -22.406 -29.348   2.886  1.00  0.00    -0.000 C 
BRANCH  13  14
ATOM     14  C   UNL     1     -22.460 -30.807   3.368  1.00  0.00    -0.000 C 
BRANCH  14  15
ATOM     15  C   UNL     1     -22.073 -30.964   4.850  1.00  0.00    -0.000 C 
BRANCH  15  16
ATOM     16  C   UNL     1     -22.915 -31.979   5.650  1.00  0.00    -0.000 C 
BRANCH  16  17
ATOM     17  C   UNL     1     -22.839 -31.825   7.179  1.00  0.00    -0.003 C 
ATOM     18  C   UNL     1     -22.297 -30.465   7.614  1.00  0.00     0.004 C 
ENDBRANCH  16  17
ENDBRANCH  15  16
ENDBRANCH  14  15
ENDBRANCH  13  14
ENDBRANCH  12  13
ENDBRANCH  11  12
ENDBRANCH   1  11
TORSDOF 14
ENDMDL
MODEL 4
REMARK VINA RESULT:    -4.525      5.193      7.153
REMARK INTER + INTRA:         -10.273
REMARK INTER:                  -8.408
REMARK INTRA:                  -1.865
REMARK UNBOUND:                -2.046
REMARK SMILES CCCCCCCCCCCCCCCC(=O)[O-]
REMARK SMILES IDX 9 1 10 2 11 3 12 4 13 5 14 6 15 7 16 8 17 9 18 10 8 11 7 12
REMARK SMILES IDX 6 13 5 14 4 15 3 16 2 17 1 18
REMARK H PARENT
REMARK Flexibility Score: inf
ROOT
ATOM      1  C   UNL     1     -18.920 -24.537  13.705  1.00  0.00     0.000 C 
ENDROOT
BRANCH   1   2
ATOM      2  C   UNL     1     -18.054 -25.286  12.678  1.00  0.00     0.000 C 
BRANCH   2   3
ATOM      3  C   UNL     1     -18.870 -25.820  11.492  1.00  0.00     0.000 C 
BRANCH   3   4
ATOM      4  C   UNL     1     -18.384 -25.204  10.171  1.00  0.00     0.000 C 
BRANCH   4   5
ATOM      5  C   UNL     1     -18.110 -26.260   9.088  1.00  0.00     0.000 C 
BRANCH   5   6
ATOM      6  C   UNL     1     -17.238 -27.420   9.599  1.00  0.00     0.006 C 
BRANCH   6   7
ATOM      7  C   UNL     1     -15.744 -27.180   9.338  1.00  0.00     0.053 C 
BRANCH   7   8
ATOM      8  C   UNL     1     -15.478 -26.817   7.910  1.00  0.00     0.041 C 
ATOM      9  O   UNL     1     -15.732 -27.638   6.990  1.00  0.00    -0.550 OA
ATOM     10  O   UNL     1     -14.978 -25.561   7.592  1.00  0.00    -0.550 OA
ENDBRANCH   7   8
ENDBRANCH   6   7
ENDBRANCH   5   6
ENDBRANCH   4   5
ENDBRANCH   3   4
ENDBRANCH   2   3
ENDBRANCH   1   2
BRANCH   1  11
ATOM     11  C   UNL     1     -20.135 -23.849  13.061  1.00  0.00     0.000 C 
BRANCH  11  12
ATOM     12  C   UNL     1     -19.941 -22.332  12.883  1.00  0.00    -0.000 C 
BRANCH  12  13
ATOM     13  C   UNL     1     -19.072 -21.914  11.682  1.00  0.00    -0.000 C 
BRANCH  13  14
ATOM     14  C   UNL     1     -19.457 -20.538  11.113  1.00  0.00    -0.000 C 
BRANCH  14  15
ATOM     15  C   UNL     1     -20.001 -20.616   9.674  1.00  0.00    -0.000 C 
BRANCH  15  16
ATOM     16  C   UNL     1     -20.155 -22.040   9.101  1.00  0.00    -0.000 C 
BRANCH  16  17
ATOM     17  C   UNL     1     -21.605 -22.542   8.988  1.00  0.00    -0.003 C 
ATOM     18  C   UNL     1     -21.851 -23.832   9.769  1.00  0.00     0.004 C 
ENDBRANCH  16  17
ENDBRANCH  15  16
ENDBRANCH  14  15
ENDBRANCH  13  14
ENDBRANCH  12  13
ENDBRANCH  11  12
ENDBRANCH   1  11
TORSDOF 14
ENDMDL
MODEL 5
REMARK VINA RESULT:    -4.517     10.129     12.025
REMARK INTER + INTRA:         -10.259
REMARK INTER:                  -8.976
REMARK INTRA:                  -1.283
REMARK UNBOUND:                -2.046
REMARK SMILES CCCCCCCCCCCCCCCC(=O)[O-]
REMARK SMILES IDX 9 1 10 2 11 3 12 4 13 5 14 6 15 7 16 8 17 9 18 10 8 11 7 12
REMARK SMILES IDX 6 13 5 14 4 15 3 16 2 17 1 18
REMARK H PARENT
REMARK Flexibility Score: inf
ROOT
ATOM      1  C   UNL     1     -23.218 -25.538   3.476  1.00  0.00     0.000 C 
ENDROOT
BRANCH   1   2
ATOM      2  C   UNL     1     -23.582 -26.775   4.314  1.00  0.00     0.000 C 
BRANCH   2   3
ATOM      3  C   UNL     1     -23.455 -28.085   3.523  1.00  0.00     0.000 C 
BRANCH   3   4
ATOM      4  C   UNL     1     -24.388 -29.163   4.095  1.00  0.00     0.000 C 
BRANCH   4   5
ATOM      5  C   UNL     1     -25.314 -28.624   5.197  1.00  0.00     0.000 C 
BRANCH   5   6
ATOM      6  C   UNL     1     -25.659 -29.687   6.254  1.00  0.00     0.006 C 
BRANCH   6   7
ATOM      7  C   UNL     1     -27.116 -29.583   6.726  1.00  0.00     0.053 C 
BRANCH   7   8
ATOM      8  C   UNL     1     -27.241 -28.763   7.973  1.00  0.00     0.041 C 
ATOM      9  O   UNL     1     -26.242 -28.587   8.719  1.00  0.00    -0.550 OA
ATOM     10  O   UNL     1     -28.454 -28.168   8.297  1.00  0.00    -0.550 OA
ENDBRANCH   7   8
ENDBRANCH   6   7
ENDBRANCH   5   6
ENDBRANCH   4   5
ENDBRANCH   3   4
ENDBRANCH   2   3
ENDBRANCH   1   2
BRANCH   1  11
ATOM     11  C   UNL     1     -22.388 -25.892   2.231  1.00  0.00     0.000 C 
BRANCH  11  12
ATOM     12  C   UNL     1     -22.103 -24.675   1.332  1.00  0.00    -0.000 C 
BRANCH  12  13
ATOM     13  C   UNL     1     -21.773 -25.001  -0.136  1.00  0.00    -0.000 C 
BRANCH  13  14
ATOM     14  C   UNL     1     -20.854 -26.224  -0.288  1.00  0.00    -0.000 C 
BRANCH  14  15
ATOM     15  C   UNL     1     -19.398 -25.935   0.119  1.00  0.00    -0.000 C 
BRANCH  15  16
ATOM     16  C   UNL     1     -18.833 -26.833   1.239  1.00  0.00    -0.000 C 
BRANCH  16  17
ATOM     17  C   UNL     1     -19.620 -28.130   1.492  1.00  0.00    -0.003 C 
ATOM     18  C   UNL     1     -19.808 -28.433   2.978  1.00  0.00     0.004 C 
ENDBRANCH  16  17
ENDBRANCH  15  16
ENDBRANCH  14  15
ENDBRANCH  13  14
ENDBRANCH  12  13
ENDBRANCH  11  12
ENDBRANCH   1  11
TORSDOF 14
ENDMDL
MODEL 6
REMARK VINA RESULT:    -4.511      4.500      7.019
REMARK INTER + INTRA:         -10.249
REMARK INTER:                  -8.511
REMARK INTRA:                  -1.739
REMARK UNBOUND:                -2.046
REMARK SMILES CCCCCCCCCCCCCCCC(=O)[O-]
REMARK SMILES IDX 9 1 10 2 11 3 12 4 13 5 14 6 15 7 16 8 17 9 18 10 8 11 7 12
REMARK SMILES IDX 6 13 5 14 4 15 3 16 2 17 1 18
REMARK H PARENT
REMARK Flexibility Score: inf
ROOT
ATOM      1  C   UNL     1     -17.275 -25.975  14.686  1.00  0.00     0.000 C 
ENDROOT
BRANCH   1   2
ATOM      2  C   UNL     1     -16.524 -26.095  13.349  1.00  0.00     0.000 C 
BRANCH   2   3
ATOM      3  C   UNL     1     -16.921 -25.002  12.346  1.00  0.00     0.000 C 
BRANCH   3   4
ATOM      4  C   UNL     1     -17.429 -25.620  11.034  1.00  0.00     0.000 C 
BRANCH   4   5
ATOM      5  C   UNL     1     -16.805 -26.994  10.745  1.00  0.00     0.000 C 
BRANCH   5   6
ATOM      6  C   UNL     1     -15.508 -26.895   9.922  1.00  0.00     0.006 C 
BRANCH   6   7
ATOM      7  C   UNL     1     -15.758 -27.095   8.421  1.00  0.00     0.053 C 
BRANCH   7   8
ATOM      8  C   UNL     1     -15.844 -25.790   7.691  1.00  0.00     0.041 C 
ATOM      9  O   UNL     1     -14.800 -25.232   7.264  1.00  0.00    -0.550 OA
ATOM     10  O   UNL     1     -17.082 -25.204   7.455  1.00  0.00    -0.550 OA
ENDBRANCH   7   8
ENDBRANCH   6   7
ENDBRANCH   5   6
ENDBRANCH   4   5
ENDBRANCH   3   4
ENDBRANCH   2   3
ENDBRANCH   1   2
BRANCH   1  11
ATOM     11  C   UNL     1     -18.791 -26.174  14.530  1.00  0.00     0.000 C 
BRANCH  11  12
ATOM     12  C   UNL     1     -19.615 -25.037  15.165  1.00  0.00    -0.000 C 
BRANCH  12  13
ATOM     13  C   UNL     1     -19.942 -23.858  14.231  1.00  0.00    -0.000 C 
BRANCH  13  14
ATOM     14  C   UNL     1     -20.567 -24.302  12.899  1.00  0.00    -0.000 C 
BRANCH  14  15
ATOM     15  C   UNL     1     -20.241 -23.348  11.735  1.00  0.00    -0.000 C 
BRANCH  15  16
ATOM     16  C   UNL     1     -19.472 -22.068  12.125  1.00  0.00    -0.000 C 
BRANCH  16  17
ATOM     17  C   UNL     1     -19.106 -21.145  10.950  1.00  0.00    -0.003 C 
ATOM     18  C   UNL     1     -19.765 -21.564   9.637  1.00  0.00     0.004 C 
ENDBRANCH  16  17
ENDBRANCH  15  16
ENDBRANCH  14  15
ENDBRANCH  13  14
ENDBRANCH  12  13
ENDBRANCH  11  12
ENDBRANCH   1  11
TORSDOF 14
ENDMDL
MODEL 7
REMARK VINA RESULT:    -4.493      8.631     10.439
REMARK INTER + INTRA:         -10.216
REMARK INTER:                  -8.629
REMARK INTRA:                  -1.587
REMARK UNBOUND:                -2.046
REMARK SMILES CCCCCCCCCCCCCCCC(=O)[O-]
REMARK SMILES IDX 9 1 10 2 11 3 12 4 13 5 14 6 15 7 16 8 17 9 18 10 8 11 7 12
REMARK SMILES IDX 6 13 5 14 4 15 3 16 2 17 1 18
REMARK H PARENT
REMARK Flexibility Score: inf
ROOT
ATOM      1  C   UNL     1     -23.870 -28.257   4.503  1.00  0.00     0.000 C 
ENDROOT
BRANCH   1   2
ATOM      2  C   UNL     1     -23.561 -29.625   3.873  1.00  0.00     0.000 C 
BRANCH   2   3
ATOM      3  C   UNL     1     -22.313 -30.287   4.475  1.00  0.00     0.000 C 
BRANCH   3   4
ATOM      4  C   UNL     1     -22.530 -31.797   4.663  1.00  0.00     0.000 C 
BRANCH   4   5
ATOM      5  C   UNL     1     -23.270 -32.133   5.967  1.00  0.00     0.000 C 
BRANCH   5   6
ATOM      6  C   UNL     1     -22.769 -31.305   7.163  1.00  0.00     0.006 C 
BRANCH   6   7
ATOM      7  C   UNL     1     -21.886 -32.131   8.110  1.00  0.00     0.053 C 
BRANCH   7   8
ATOM      8  C   UNL     1     -22.403 -32.107   9.516  1.00  0.00     0.041 C 
ATOM      9  O   UNL     1     -22.514 -33.178  10.168  1.00  0.00    -0.550 OA
ATOM     10  O   UNL     1     -22.734 -30.899  10.116  1.00  0.00    -0.550 OA
ENDBRANCH   7   8
ENDBRANCH   6   7
ENDBRANCH   5   6
ENDBRANCH   4   5
ENDBRANCH   3   4
ENDBRANCH   2   3
ENDBRANCH   1   2
BRANCH   1  11
ATOM     11  C   UNL     1     -25.326 -28.143   4.981  1.00  0.00     0.000 C 
BRANCH  11  12
ATOM     12  C   UNL     1     -25.705 -29.219   6.015  1.00  0.00    -0.000 C 
BRANCH  12  13
ATOM     13  C   UNL     1     -27.206 -29.318   6.346  1.00  0.00    -0.000 C 
BRANCH  13  14
ATOM     14  C   UNL     1     -27.495 -29.231   7.854  1.00  0.00    -0.000 C 
BRANCH  14  15
ATOM     15  C   UNL     1     -26.378 -28.521   8.639  1.00  0.00    -0.000 C 
BRANCH  15  16
ATOM     16  C   UNL     1     -26.813 -27.261   9.417  1.00  0.00    -0.000 C 
BRANCH  16  17
ATOM     17  C   UNL     1     -25.905 -26.034   9.228  1.00  0.00    -0.003 C 
ATOM     18  C   UNL     1     -24.799 -26.264   8.199  1.00  0.00     0.004 C 
ENDBRANCH  16  17
ENDBRANCH  15  16
ENDBRANCH  14  15
ENDBRANCH  13  14
ENDBRANCH  12  13
ENDBRANCH  11  12
ENDBRANCH   1  11
TORSDOF 14
ENDMDL
MODEL 8
REMARK VINA RESULT:    -4.444      9.296     10.862
REMARK INTER + INTRA:         -10.127
REMARK INTER:                  -8.599
REMARK INTRA:                  -1.528
REMARK UNBOUND:                -2.046
REMARK SMILES CCCCCCCCCCCCCCCC(=O)[O-]
REMARK SMILES IDX 9 1 10 2 11 3 12 4 13 5 14 6 15 7 16 8 17 9 18 10 8 11 7 12
REMARK SMILES IDX 6 13 5 14 4 15 3 16 2 17 1 18
REMARK H PARENT
REMARK Flexibility Score: inf
ROOT
ATOM      1  C   UNL     1     -25.033 -27.610   4.855  1.00  0.00     0.000 C 
ENDROOT
BRANCH   1   2
ATOM      2  C   UNL     1     -25.024 -29.128   5.099  1.00  0.00     0.000 C 
BRANCH   2   3
ATOM      3  C   UNL     1     -25.694 -29.518   6.425  1.00  0.00     0.000 C 
BRANCH   3   4
ATOM      4  C   UNL     1     -27.189 -29.163   6.409  1.00  0.00     0.000 C 
BRANCH   4   5
ATOM      5  C   UNL     1     -27.725 -28.790   7.800  1.00  0.00     0.000 C 
BRANCH   5   6
ATOM      6  C   UNL     1     -26.602 -28.517   8.815  1.00  0.00     0.006 C 
BRANCH   6   7
ATOM      7  C   UNL     1     -26.843 -27.228   9.613  1.00  0.00     0.053 C 
BRANCH   7   8
ATOM      8  C   UNL     1     -26.076 -26.072   9.050  1.00  0.00     0.041 C 
ATOM      9  O   UNL     1     -26.372 -24.894   9.379  1.00  0.00    -0.550 OA
ATOM     10  O   UNL     1     -25.012 -26.297   8.184  1.00  0.00    -0.550 OA
ENDBRANCH   7   8
ENDBRANCH   6   7
ENDBRANCH   5   6
ENDBRANCH   4   5
ENDBRANCH   3   4
ENDBRANCH   2   3
ENDBRANCH   1   2
BRANCH   1  11
ATOM     11  C   UNL     1     -23.633 -26.985   4.977  1.00  0.00     0.000 C 
BRANCH  11  12
ATOM     12  C   UNL     1     -23.256 -26.112   3.765  1.00  0.00    -0.000 C 
BRANCH  12  13
ATOM     13  C   UNL     1     -22.098 -26.645   2.903  1.00  0.00    -0.000 C 
BRANCH  13  14
ATOM     14  C   UNL     1     -22.492 -27.864   2.053  1.00  0.00    -0.000 C 
BRANCH  14  15
ATOM     15  C   UNL     1     -21.552 -29.066   2.256  1.00  0.00    -0.000 C 
BRANCH  15  16
ATOM     16  C   UNL     1     -21.161 -29.361   3.719  1.00  0.00    -0.000 C 
BRANCH  16  17
ATOM     17  C   UNL     1     -21.021 -30.853   4.068  1.00  0.00    -0.003 C 
ATOM     18  C   UNL     1     -22.368 -31.556   4.231  1.00  0.00     0.004 C 
ENDBRANCH  16  17
ENDBRANCH  15  16
ENDBRANCH  14  15
ENDBRANCH  13  14
ENDBRANCH  12  13
ENDBRANCH  11  12
ENDBRANCH   1  11
TORSDOF 14
ENDMDL
MODEL 9
REMARK VINA RESULT:    -4.442      2.855      4.539
REMARK INTER + INTRA:         -10.124
REMARK INTER:                  -7.984
REMARK INTRA:                  -2.140
REMARK UNBOUND:                -2.046
REMARK SMILES CCCCCCCCCCCCCCCC(=O)[O-]
REMARK SMILES IDX 9 1 10 2 11 3 12 4 13 5 14 6 15 7 16 8 17 9 18 10 8 11 7 12
REMARK SMILES IDX 6 13 5 14 4 15 3 16 2 17 1 18
REMARK H PARENT
REMARK Flexibility Score: inf
ROOT
ATOM      1  C   UNL     1     -20.664 -28.389  16.456  1.00  0.00     0.000 C 
ENDROOT
BRANCH   1   2
ATOM      2  C   UNL     1     -21.427 -29.412  17.314  1.00  0.00     0.000 C 
BRANCH   2   3
ATOM      3  C   UNL     1     -22.868 -28.976  17.616  1.00  0.00     0.000 C 
BRANCH   3   4
ATOM      4  C   UNL     1     -22.928 -28.130  18.897  1.00  0.00     0.000 C 
BRANCH   4   5
ATOM      5  C   UNL     1     -23.954 -26.990  18.808  1.00  0.00     0.000 C 
BRANCH   5   6
ATOM      6  C   UNL     1     -23.853 -26.202  17.491  1.00  0.00     0.006 C 
BRANCH   6   7
ATOM      7  C   UNL     1     -25.225 -25.995  16.832  1.00  0.00     0.053 C 
BRANCH   7   8
ATOM      8  C   UNL     1     -25.206 -24.868  15.847  1.00  0.00     0.041 C 
ATOM      9  O   UNL     1     -24.160 -24.615  15.193  1.00  0.00    -0.550 OA
ATOM     10  O   UNL     1     -26.353 -24.115  15.628  1.00  0.00    -0.550 OA
ENDBRANCH   7   8
ENDBRANCH   6   7
ENDBRANCH   5   6
ENDBRANCH   4   5
ENDBRANCH   3   4
ENDBRANCH   2   3
ENDBRANCH   1   2
BRANCH   1  11
ATOM     11  C   UNL     1     -21.365 -28.104  15.117  1.00  0.00     0.000 C 
BRANCH  11  12
ATOM     12  C   UNL     1     -21.361 -26.610  14.743  1.00  0.00    -0.000 C 
BRANCH  12  13
ATOM     13  C   UNL     1     -20.636 -25.683  15.736  1.00  0.00    -0.000 C 
BRANCH  13  14
ATOM     14  C   UNL     1     -19.784 -24.608  15.041  1.00  0.00    -0.000 C 
BRANCH  14  15
ATOM     15  C   UNL     1     -18.502 -25.177  14.405  1.00  0.00    -0.000 C 
BRANCH  15  16
ATOM     16  C   UNL     1     -17.512 -25.836  15.388  1.00  0.00    -0.000 C 
BRANCH  16  17
ATOM     17  C   UNL     1     -17.295 -27.345  15.178  1.00  0.00    -0.003 C 
ATOM     18  C   UNL     1     -17.886 -27.855  13.865  1.00  0.00     0.004 C 
ENDBRANCH  16  17
ENDBRANCH  15  16
ENDBRANCH  14  15
ENDBRANCH  13  14
ENDBRANCH  12  13
ENDBRANCH  11  12
ENDBRANCH   1  11
TORSDOF 14
ENDMDL
