MODEL 1
REMARK VINA RESULT:    -5.678      0.000      0.000
REMARK INTER + INTRA:          -5.678
REMARK INTER:                  -5.678
REMARK INTRA:                   0.000
REMARK UNBOUND:                 0.000
REMARK SMILES C[C@@H]1C(=O)CC[C@H]2[C@]3(C)CC[C@]4(C)[C@H]5CC(C)(C)CC[C@]5(C)CC[C@]4(C)[C@H]3CC[C@]21C
REMARK SMILES IDX 1 1 2 2 3 3 4 4 5 5 6 6 7 7 30 8 29 9 28 10 27 11 8 12 10 13
REMARK SMILES IDX 11 14 12 15 25 16 24 17 23 18 21 19 14 20 15 21 16 22 19 23
REMARK SMILES IDX 20 24 17 25 18 26 22 27 26 28 13 29 9 30 31 31
REMARK H PARENT
REMARK Flexibility Score: inf
ROOT
ATOM      1  C   UNL     1     159.191 174.099 170.464  1.00  0.00     0.016 C 
ATOM      2  C   UNL     1     160.466 173.345 170.897  1.00  0.00     0.059 C 
ATOM      3  C   UNL     1     161.634 174.299 170.873  1.00  0.00     0.136 C 
ATOM      4  O   UNL     1     161.677 175.213 171.684  1.00  0.00    -0.299 OA
ATOM      5  C   UNL     1     162.711 174.192 169.837  1.00  0.00     0.076 C 
ATOM      6  C   UNL     1     163.192 172.751 169.582  1.00  0.00     0.012 C 
ATOM      7  C   UNL     1     162.286 171.602 170.141  1.00  0.00     0.002 C 
ATOM      8  C   UNL     1     160.751 172.004 170.106  1.00  0.00    -0.020 C 
ATOM      9  C   UNL     1     159.879 170.853 170.689  1.00  0.00     0.008 C 
ATOM     10  C   UNL     1     160.392 170.293 172.021  1.00  0.00     0.005 C 
ATOM     11  C   UNL     1     161.837 169.753 171.864  1.00  0.00     0.002 C 
ATOM     12  C   UNL     1     162.826 170.910 171.479  1.00  0.00    -0.026 C 
ATOM     13  C   UNL     1     164.194 170.227 171.178  1.00  0.00     0.008 C 
ATOM     14  C   UNL     1     164.713 169.379 172.337  1.00  0.00     0.008 C 
ATOM     15  C   UNL     1     163.801 168.185 172.761  1.00  0.00    -0.024 C 
ATOM     16  C   UNL     1     162.274 168.679 172.975  1.00  0.00    -0.024 C 
ATOM     17  C   UNL     1     161.257 167.462 172.817  1.00  0.00     0.008 C 
ATOM     18  C   UNL     1     161.820 166.052 173.035  1.00  0.00     0.007 C 
ATOM     19  C   UNL     1     163.061 165.711 172.149  1.00  0.00    -0.029 C 
ATOM     20  C   UNL     1     163.780 167.029 171.676  1.00  0.00     0.002 C 
ATOM     21  C   UNL     1     165.071 166.703 170.876  1.00  0.00     0.011 C 
ATOM     22  C   UNL     1     164.780 165.799 169.629  1.00  0.00    -0.035 C 
ATOM     23  C   UNL     1     163.827 164.605 169.956  1.00  0.00     0.007 C 
ATOM     24  C   UNL     1     162.620 164.974 170.851  1.00  0.00     0.007 C 
ATOM     25  C   UNL     1     164.164 166.643 168.482  1.00  0.00     0.011 C 
ATOM     26  C   UNL     1     166.122 165.233 169.120  1.00  0.00     0.011 C 
ATOM     27  C   UNL     1     163.954 164.717 172.965  1.00  0.00     0.011 C 
ATOM     28  C   UNL     1     162.074 169.262 174.407  1.00  0.00     0.012 C 
ATOM     29  C   UNL     1     164.465 167.664 174.076  1.00  0.00     0.012 C 
ATOM     30  C   UNL     1     163.012 171.977 172.600  1.00  0.00     0.012 C 
ATOM     31  C   UNL     1     160.326 172.155 168.612  1.00  0.00     0.012 C 
ENDROOT
TORSDOF 0
ENDMDL
MODEL 2
REMARK VINA RESULT:    -5.651      6.635     11.761
REMARK INTER + INTRA:          -5.651
REMARK INTER:                  -5.651
REMARK INTRA:                   0.000
REMARK UNBOUND:                 0.000
REMARK SMILES C[C@@H]1C(=O)CC[C@H]2[C@]3(C)CC[C@]4(C)[C@H]5CC(C)(C)CC[C@]5(C)CC[C@]4(C)[C@H]3CC[C@]21C
REMARK SMILES IDX 1 1 2 2 3 3 4 4 5 5 6 6 7 7 30 8 29 9 28 10 27 11 8 12 10 13
REMARK SMILES IDX 11 14 12 15 25 16 24 17 23 18 21 19 14 20 15 21 16 22 19 23
REMARK SMILES IDX 20 24 17 25 18 26 22 27 26 28 13 29 9 30 31 31
REMARK H PARENT
REMARK Flexibility Score: inf
ROOT
ATOM      1  C   UNL     1     171.465 157.081 170.926  1.00  0.00     0.016 C 
ATOM      2  C   UNL     1     170.276 157.956 171.376  1.00  0.00     0.059 C 
ATOM      3  C   UNL     1     169.056 157.085 171.535  1.00  0.00     0.136 C 
ATOM      4  O   UNL     1     169.023 156.256 172.433  1.00  0.00    -0.299 OA
ATOM      5  C   UNL     1     167.906 157.167 170.577  1.00  0.00     0.076 C 
ATOM      6  C   UNL     1     167.493 158.606 170.218  1.00  0.00     0.012 C 
ATOM      7  C   UNL     1     168.508 159.739 170.591  1.00  0.00     0.002 C 
ATOM      8  C   UNL     1     170.009 159.234 170.481  1.00  0.00    -0.020 C 
ATOM      9  C   UNL     1     170.993 160.372 170.881  1.00  0.00     0.008 C 
ATOM     10  C   UNL     1     170.624 161.088 172.185  1.00  0.00     0.005 C 
ATOM     11  C   UNL     1     169.207 161.708 172.084  1.00  0.00     0.002 C 
ATOM     12  C   UNL     1     168.122 160.588 171.891  1.00  0.00    -0.026 C 
ATOM     13  C   UNL     1     166.777 161.331 171.627  1.00  0.00     0.008 C 
ATOM     14  C   UNL     1     166.405 162.317 172.732  1.00  0.00     0.008 C 
ATOM     15  C   UNL     1     167.419 163.481 172.967  1.00  0.00    -0.024 C 
ATOM     16  C   UNL     1     168.925 162.908 173.114  1.00  0.00    -0.024 C 
ATOM     17  C   UNL     1     169.997 164.033 172.760  1.00  0.00     0.008 C 
ATOM     18  C   UNL     1     169.540 165.492 172.880  1.00  0.00     0.007 C 
ATOM     19  C   UNL     1     168.254 165.832 172.059  1.00  0.00    -0.029 C 
ATOM     20  C   UNL     1     167.421 164.526 171.775  1.00  0.00     0.002 C 
ATOM     21  C   UNL     1     166.091 164.863 171.045  1.00  0.00     0.011 C 
ATOM     22  C   UNL     1     166.334 165.624 169.697  1.00  0.00    -0.035 C 
ATOM     23  C   UNL     1     167.380 166.776 169.832  1.00  0.00     0.007 C 
ATOM     24  C   UNL     1     168.631 166.412 170.666  1.00  0.00     0.007 C 
ATOM     25  C   UNL     1     166.803 164.637 168.596  1.00  0.00     0.011 C 
ATOM     26  C   UNL     1     164.991 166.229 169.236  1.00  0.00     0.011 C 
ATOM     27  C   UNL     1     167.491 166.955 172.839  1.00  0.00     0.011 C 
ATOM     28  C   UNL     1     169.206 162.450 174.577  1.00  0.00     0.012 C 
ATOM     29  C   UNL     1     166.896 164.167 174.270  1.00  0.00     0.012 C 
ATOM     30  C   UNL     1     167.963 159.647 173.123  1.00  0.00     0.012 C 
ATOM     31  C   UNL     1     170.301 158.915 168.982  1.00  0.00     0.012 C 
ENDROOT
TORSDOF 0
ENDMDL
MODEL 3
REMARK VINA RESULT:    -5.400      3.221      7.674
REMARK INTER + INTRA:          -5.400
REMARK INTER:                  -5.400
REMARK INTRA:                   0.000
REMARK UNBOUND:                 0.000
REMARK SMILES C[C@@H]1C(=O)CC[C@H]2[C@]3(C)CC[C@]4(C)[C@H]5CC(C)(C)CC[C@]5(C)CC[C@]4(C)[C@H]3CC[C@]21C
REMARK SMILES IDX 1 1 2 2 3 3 4 4 5 5 6 6 7 7 30 8 29 9 28 10 27 11 8 12 10 13
REMARK SMILES IDX 11 14 12 15 25 16 24 17 23 18 21 19 14 20 15 21 16 22 19 23
REMARK SMILES IDX 20 24 17 25 18 26 22 27 26 28 13 29 9 30 31 31
REMARK H PARENT
REMARK Flexibility Score: inf
ROOT
ATOM      1  C   UNL     1     170.085 165.522 171.620  1.00  0.00     0.016 C 
ATOM      2  C   UNL     1     168.634 165.961 171.907  1.00  0.00     0.059 C 
ATOM      3  C   UNL     1     167.747 164.742 171.932  1.00  0.00     0.136 C 
ATOM      4  O   UNL     1     167.873 163.927 172.835  1.00  0.00    -0.299 OA
ATOM      5  C   UNL     1     166.756 164.472 170.840  1.00  0.00     0.076 C 
ATOM      6  C   UNL     1     165.951 165.711 170.407  1.00  0.00     0.012 C 
ATOM      7  C   UNL     1     166.497 167.100 170.879  1.00  0.00     0.002 C 
ATOM      8  C   UNL     1     168.082 167.104 170.961  1.00  0.00    -0.020 C 
ATOM      9  C   UNL     1     168.593 168.489 171.456  1.00  0.00     0.008 C 
ATOM     10  C   UNL     1     167.860 169.021 172.692  1.00  0.00     0.005 C 
ATOM     11  C   UNL     1     166.342 169.157 172.409  1.00  0.00     0.002 C 
ATOM     12  C   UNL     1     165.705 167.754 172.107  1.00  0.00    -0.026 C 
ATOM     13  C   UNL     1     164.235 168.032 171.668  1.00  0.00     0.008 C 
ATOM     14  C   UNL     1     163.436 168.823 172.701  1.00  0.00     0.008 C 
ATOM     15  C   UNL     1     163.988 170.246 173.035  1.00  0.00    -0.024 C 
ATOM     16  C   UNL     1     165.569 170.182 173.374  1.00  0.00    -0.024 C 
ATOM     17  C   UNL     1     166.259 171.598 173.132  1.00  0.00     0.008 C 
ATOM     18  C   UNL     1     165.347 172.831 173.168  1.00  0.00     0.007 C 
ATOM     19  C   UNL     1     164.130 172.759 172.192  1.00  0.00    -0.029 C 
ATOM     20  C   UNL     1     163.799 171.261 171.832  1.00  0.00     0.002 C 
ATOM     21  C   UNL     1     162.530 171.170 170.941  1.00  0.00     0.011 C 
ATOM     22  C   UNL     1     162.677 171.997 169.618  1.00  0.00    -0.035 C 
ATOM     23  C   UNL     1     163.275 173.421 169.858  1.00  0.00     0.007 C 
ATOM     24  C   UNL     1     164.467 173.459 170.843  1.00  0.00     0.007 C 
ATOM     25  C   UNL     1     163.567 171.236 168.601  1.00  0.00     0.011 C 
ATOM     26  C   UNL     1     161.278 172.150 168.986  1.00  0.00     0.011 C 
ATOM     27  C   UNL     1     162.959 173.562 172.851  1.00  0.00     0.011 C 
ATOM     28  C   UNL     1     165.802 169.807 174.869  1.00  0.00     0.012 C 
ATOM     29  C   UNL     1     163.119 170.701 174.251  1.00  0.00     0.012 C 
ATOM     30  C   UNL     1     165.708 166.785 173.328  1.00  0.00     0.012 C 
ATOM     31  C   UNL     1     168.640 166.928 169.515  1.00  0.00     0.012 C 
ENDROOT
TORSDOF 0
ENDMDL
MODEL 4
REMARK VINA RESULT:    -5.390      4.835      8.076
REMARK INTER + INTRA:          -5.390
REMARK INTER:                  -5.390
REMARK INTRA:                   0.000
REMARK UNBOUND:                 0.000
REMARK SMILES C[C@@H]1C(=O)CC[C@H]2[C@]3(C)CC[C@]4(C)[C@H]5CC(C)(C)CC[C@]5(C)CC[C@]4(C)[C@H]3CC[C@]21C
REMARK SMILES IDX 1 1 2 2 3 3 4 4 5 5 6 6 7 7 30 8 29 9 28 10 27 11 8 12 10 13
REMARK SMILES IDX 11 14 12 15 25 16 24 17 23 18 21 19 14 20 15 21 16 22 19 23
REMARK SMILES IDX 20 24 17 25 18 26 22 27 26 28 13 29 9 30 31 31
REMARK H PARENT
REMARK Flexibility Score: inf
ROOT
ATOM      1  C   UNL     1     161.013 165.629 171.624  1.00  0.00     0.016 C 
ATOM      2  C   UNL     1     162.472 165.215 171.908  1.00  0.00     0.059 C 
ATOM      3  C   UNL     1     163.339 166.449 171.926  1.00  0.00     0.136 C 
ATOM      4  O   UNL     1     163.202 167.266 172.825  1.00  0.00    -0.299 OA
ATOM      5  C   UNL     1     164.322 166.730 170.830  1.00  0.00     0.076 C 
ATOM      6  C   UNL     1     165.147 165.503 170.400  1.00  0.00     0.012 C 
ATOM      7  C   UNL     1     164.625 164.106 170.880  1.00  0.00     0.002 C 
ATOM      8  C   UNL     1     163.040 164.077 170.967  1.00  0.00    -0.020 C 
ATOM      9  C   UNL     1     162.554 162.686 171.469  1.00  0.00     0.008 C 
ATOM     10  C   UNL     1     163.299 162.171 172.706  1.00  0.00     0.005 C 
ATOM     11  C   UNL     1     164.818 162.060 172.419  1.00  0.00     0.002 C 
ATOM     12  C   UNL     1     165.432 163.472 172.108  1.00  0.00    -0.026 C 
ATOM     13  C   UNL     1     166.904 163.216 171.667  1.00  0.00     0.008 C 
ATOM     14  C   UNL     1     167.719 162.443 172.701  1.00  0.00     0.008 C 
ATOM     15  C   UNL     1     167.192 161.013 173.043  1.00  0.00    -0.024 C 
ATOM     16  C   UNL     1     165.611 161.053 173.387  1.00  0.00    -0.024 C 
ATOM     17  C   UNL     1     164.944 159.624 173.153  1.00  0.00     0.008 C 
ATOM     18  C   UNL     1     165.876 158.406 173.192  1.00  0.00     0.007 C 
ATOM     19  C   UNL     1     167.090 158.495 172.212  1.00  0.00    -0.029 C 
ATOM     20  C   UNL     1     167.395 159.995 171.845  1.00  0.00     0.002 C 
ATOM     21  C   UNL     1     168.659 160.104 170.949  1.00  0.00     0.011 C 
ATOM     22  C   UNL     1     168.522 159.268 169.631  1.00  0.00    -0.035 C 
ATOM     23  C   UNL     1     167.948 157.836 169.879  1.00  0.00     0.007 C 
ATOM     24  C   UNL     1     166.761 157.782 170.868  1.00  0.00     0.007 C 
ATOM     25  C   UNL     1     167.617 160.010 168.613  1.00  0.00     0.011 C 
ATOM     26  C   UNL     1     169.922 159.135 168.996  1.00  0.00     0.011 C 
ATOM     27  C   UNL     1     168.276 157.714 172.872  1.00  0.00     0.011 C 
ATOM     28  C   UNL     1     165.375 161.431 174.880  1.00  0.00     0.012 C 
ATOM     29  C   UNL     1     168.071 160.579 174.260  1.00  0.00     0.012 C 
ATOM     30  C   UNL     1     165.415 164.447 173.325  1.00  0.00     0.012 C 
ATOM     31  C   UNL     1     162.476 164.237 169.521  1.00  0.00     0.012 C 
ENDROOT
TORSDOF 0
ENDMDL
MODEL 5
REMARK VINA RESULT:    -5.319      1.959      4.238
REMARK INTER + INTRA:          -5.319
REMARK INTER:                  -5.319
REMARK INTRA:                   0.000
REMARK UNBOUND:                 0.000
REMARK SMILES C[C@@H]1C(=O)CC[C@H]2[C@]3(C)CC[C@]4(C)[C@H]5CC(C)(C)CC[C@]5(C)CC[C@]4(C)[C@H]3CC[C@]21C
REMARK SMILES IDX 1 1 2 2 3 3 4 4 5 5 6 6 7 7 30 8 29 9 28 10 27 11 8 12 10 13
REMARK SMILES IDX 11 14 12 15 25 16 24 17 23 18 21 19 14 20 15 21 16 22 19 23
REMARK SMILES IDX 20 24 17 25 18 26 22 27 26 28 13 29 9 30 31 31
REMARK H PARENT
REMARK Flexibility Score: inf
ROOT
ATOM      1  C   UNL     1     157.108 175.221 170.602  1.00  0.00     0.016 C 
ATOM      2  C   UNL     1     158.429 174.519 170.224  1.00  0.00     0.059 C 
ATOM      3  C   UNL     1     158.489 174.356 168.726  1.00  0.00     0.136 C 
ATOM      4  O   UNL     1     158.601 175.347 168.019  1.00  0.00    -0.299 OA
ATOM      5  C   UNL     1     158.350 173.011 168.078  1.00  0.00     0.076 C 
ATOM      6  C   UNL     1     159.159 171.898 168.770  1.00  0.00     0.012 C 
ATOM      7  C   UNL     1     159.702 172.216 170.204  1.00  0.00     0.002 C 
ATOM      8  C   UNL     1     158.715 173.170 171.002  1.00  0.00    -0.020 C 
ATOM      9  C   UNL     1     159.293 173.488 172.412  1.00  0.00     0.008 C 
ATOM     10  C   UNL     1     160.767 173.910 172.403  1.00  0.00     0.005 C 
ATOM     11  C   UNL     1     161.648 172.800 171.775  1.00  0.00     0.002 C 
ATOM     12  C   UNL     1     161.262 172.568 170.271  1.00  0.00    -0.026 C 
ATOM     13  C   UNL     1     162.080 171.326 169.802  1.00  0.00     0.008 C 
ATOM     14  C   UNL     1     163.585 171.486 169.999  1.00  0.00     0.008 C 
ATOM     15  C   UNL     1     164.056 171.690 171.474  1.00  0.00    -0.024 C 
ATOM     16  C   UNL     1     163.198 172.860 172.191  1.00  0.00    -0.024 C 
ATOM     17  C   UNL     1     163.222 172.691 173.776  1.00  0.00     0.008 C 
ATOM     18  C   UNL     1     164.384 171.888 174.372  1.00  0.00     0.007 C 
ATOM     19  C   UNL     1     164.552 170.456 173.771  1.00  0.00    -0.029 C 
ATOM     20  C   UNL     1     163.889 170.375 172.345  1.00  0.00     0.002 C 
ATOM     21  C   UNL     1     164.135 168.986 171.695  1.00  0.00     0.011 C 
ATOM     22  C   UNL     1     163.591 167.814 172.583  1.00  0.00    -0.035 C 
ATOM     23  C   UNL     1     163.973 167.971 174.090  1.00  0.00     0.007 C 
ATOM     24  C   UNL     1     163.813 169.404 174.648  1.00  0.00     0.007 C 
ATOM     25  C   UNL     1     162.049 167.711 172.457  1.00  0.00     0.011 C 
ATOM     26  C   UNL     1     164.189 166.493 172.057  1.00  0.00     0.011 C 
ATOM     27  C   UNL     1     166.079 170.110 173.819  1.00  0.00     0.011 C 
ATOM     28  C   UNL     1     163.796 174.263 171.870  1.00  0.00     0.012 C 
ATOM     29  C   UNL     1     165.571 172.041 171.332  1.00  0.00     0.012 C 
ATOM     30  C   UNL     1     161.582 173.781 169.345  1.00  0.00     0.012 C 
ATOM     31  C   UNL     1     157.384 172.392 171.244  1.00  0.00     0.012 C 
ENDROOT
TORSDOF 0
ENDMDL
MODEL 6
REMARK VINA RESULT:    -5.050      5.608     10.674
REMARK INTER + INTRA:          -5.050
REMARK INTER:                  -5.050
REMARK INTRA:                   0.000
REMARK UNBOUND:                 0.000
REMARK SMILES C[C@@H]1C(=O)CC[C@H]2[C@]3(C)CC[C@]4(C)[C@H]5CC(C)(C)CC[C@]5(C)CC[C@]4(C)[C@H]3CC[C@]21C
REMARK SMILES IDX 1 1 2 2 3 3 4 4 5 5 6 6 7 7 30 8 29 9 28 10 27 11 8 12 10 13
REMARK SMILES IDX 11 14 12 15 25 16 24 17 23 18 21 19 14 20 15 21 16 22 19 23
REMARK SMILES IDX 20 24 17 25 18 26 22 27 26 28 13 29 9 30 31 31
REMARK H PARENT
REMARK Flexibility Score: inf
ROOT
ATOM      1  C   UNL     1     168.858 157.281 172.273  1.00  0.00     0.016 C 
ATOM      2  C   UNL     1     167.989 158.429 172.827  1.00  0.00     0.059 C 
ATOM      3  C   UNL     1     167.408 158.010 174.154  1.00  0.00     0.136 C 
ATOM      4  O   UNL     1     168.150 157.861 175.114  1.00  0.00    -0.299 OA
ATOM      5  C   UNL     1     165.948 157.707 174.308  1.00  0.00     0.076 C 
ATOM      6  C   UNL     1     165.022 158.724 173.616  1.00  0.00     0.012 C 
ATOM      7  C   UNL     1     165.693 159.691 172.583  1.00  0.00     0.002 C 
ATOM      8  C   UNL     1     166.898 158.986 171.825  1.00  0.00    -0.020 C 
ATOM      9  C   UNL     1     167.559 159.978 170.824  1.00  0.00     0.008 C 
ATOM     10  C   UNL     1     167.861 161.359 171.418  1.00  0.00     0.005 C 
ATOM     11  C   UNL     1     166.562 162.021 171.944  1.00  0.00     0.002 C 
ATOM     12  C   UNL     1     165.942 161.179 173.116  1.00  0.00    -0.026 C 
ATOM     13  C   UNL     1     164.566 161.836 173.439  1.00  0.00     0.008 C 
ATOM     14  C   UNL     1     164.672 163.320 173.781  1.00  0.00     0.008 C 
ATOM     15  C   UNL     1     165.250 164.234 172.654  1.00  0.00    -0.024 C 
ATOM     16  C   UNL     1     166.631 163.620 172.073  1.00  0.00    -0.024 C 
ATOM     17  C   UNL     1     166.913 164.156 170.599  1.00  0.00     0.008 C 
ATOM     18  C   UNL     1     166.234 165.471 170.194  1.00  0.00     0.007 C 
ATOM     19  C   UNL     1     164.683 165.475 170.378  1.00  0.00    -0.029 C 
ATOM     20  C   UNL     1     164.249 164.392 171.435  1.00  0.00     0.002 C 
ATOM     21  C   UNL     1     162.719 164.453 171.700  1.00  0.00     0.011 C 
ATOM     22  C   UNL     1     161.885 164.256 170.388  1.00  0.00    -0.035 C 
ATOM     23  C   UNL     1     162.433 165.097 169.190  1.00  0.00     0.007 C 
ATOM     24  C   UNL     1     163.973 165.086 169.049  1.00  0.00     0.007 C 
ATOM     25  C   UNL     1     161.856 162.758 169.986  1.00  0.00     0.011 C 
ATOM     26  C   UNL     1     160.432 164.689 170.671  1.00  0.00     0.011 C 
ATOM     27  C   UNL     1     164.261 166.945 170.715  1.00  0.00     0.011 C 
ATOM     28  C   UNL     1     167.843 164.045 172.956  1.00  0.00     0.012 C 
ATOM     29  C   UNL     1     165.444 165.613 173.361  1.00  0.00     0.012 C 
ATOM     30  C   UNL     1     166.821 161.151 174.403  1.00  0.00     0.012 C 
ATOM     31  C   UNL     1     166.312 157.826 170.963  1.00  0.00     0.012 C 
ENDROOT
TORSDOF 0
ENDMDL
MODEL 7
REMARK VINA RESULT:    -5.022      2.383      3.897
REMARK INTER + INTRA:          -5.022
REMARK INTER:                  -5.022
REMARK INTRA:                   0.000
REMARK UNBOUND:                 0.000
REMARK SMILES C[C@@H]1C(=O)CC[C@H]2[C@]3(C)CC[C@]4(C)[C@H]5CC(C)(C)CC[C@]5(C)CC[C@]4(C)[C@H]3CC[C@]21C
REMARK SMILES IDX 1 1 2 2 3 3 4 4 5 5 6 6 7 7 30 8 29 9 28 10 27 11 8 12 10 13
REMARK SMILES IDX 11 14 12 15 25 16 24 17 23 18 21 19 14 20 15 21 16 22 19 23
REMARK SMILES IDX 20 24 17 25 18 26 22 27 26 28 13 29 9 30 31 31
REMARK H PARENT
REMARK Flexibility Score: inf
ROOT
ATOM      1  C   UNL     1     162.197 173.855 172.130  1.00  0.00     0.016 C 
ATOM      2  C   UNL     1     163.069 172.724 172.713  1.00  0.00     0.059 C 
ATOM      3  C   UNL     1     163.616 173.162 174.048  1.00  0.00     0.136 C 
ATOM      4  O   UNL     1     162.851 173.309 174.991  1.00  0.00    -0.299 OA
ATOM      5  C   UNL     1     165.068 173.486 174.232  1.00  0.00     0.076 C 
ATOM      6  C   UNL     1     166.022 172.475 173.569  1.00  0.00     0.012 C 
ATOM      7  C   UNL     1     165.386 171.491 172.530  1.00  0.00     0.002 C 
ATOM      8  C   UNL     1     164.189 172.172 171.740  1.00  0.00    -0.020 C 
ATOM      9  C   UNL     1     163.563 171.164 170.734  1.00  0.00     0.008 C 
ATOM     10  C   UNL     1     163.267 169.784 171.333  1.00  0.00     0.005 C 
ATOM     11  C   UNL     1     164.563 169.144 171.893  1.00  0.00     0.002 C 
ATOM     12  C   UNL     1     165.145 170.004 173.071  1.00  0.00    -0.026 C 
ATOM     13  C   UNL     1     166.523 169.368 173.429  1.00  0.00     0.008 C 
ATOM     14  C   UNL     1     166.430 167.886 173.783  1.00  0.00     0.008 C 
ATOM     15  C   UNL     1     165.888 166.955 172.652  1.00  0.00    -0.024 C 
ATOM     16  C   UNL     1     164.512 167.545 172.035  1.00  0.00    -0.024 C 
ATOM     17  C   UNL     1     164.270 166.992 170.560  1.00  0.00     0.008 C 
ATOM     18  C   UNL     1     164.975 165.684 170.182  1.00  0.00     0.007 C 
ATOM     19  C   UNL     1     166.522 165.702 170.399  1.00  0.00    -0.029 C 
ATOM     20  C   UNL     1     166.918 166.800 171.456  1.00  0.00     0.002 C 
ATOM     21  C   UNL     1     168.442 166.762 171.755  1.00  0.00     0.011 C 
ATOM     22  C   UNL     1     169.302 166.959 170.459  1.00  0.00    -0.035 C 
ATOM     23  C   UNL     1     168.792 166.100 169.258  1.00  0.00     0.007 C 
ATOM     24  C   UNL     1     167.255 166.089 169.083  1.00  0.00     0.007 C 
ATOM     25  C   UNL     1     169.320 168.453 170.045  1.00  0.00     0.011 C 
ATOM     26  C   UNL     1     170.754 166.548 170.778  1.00  0.00     0.011 C 
ATOM     27  C   UNL     1     166.955 164.241 170.759  1.00  0.00     0.011 C 
ATOM     28  C   UNL     1     163.287 167.111 172.895  1.00  0.00     0.012 C 
ATOM     29  C   UNL     1     165.697 165.579 173.367  1.00  0.00     0.012 C 
ATOM     30  C   UNL     1     164.239 170.031 174.338  1.00  0.00     0.012 C 
ATOM     31  C   UNL     1     164.779 173.333 170.880  1.00  0.00     0.012 C 
ENDROOT
TORSDOF 0
ENDMDL
MODEL 8
REMARK VINA RESULT:    -5.005      2.594      3.633
REMARK INTER + INTRA:          -5.005
REMARK INTER:                  -5.005
REMARK INTRA:                   0.000
REMARK UNBOUND:                 0.000
REMARK SMILES C[C@@H]1C(=O)CC[C@H]2[C@]3(C)CC[C@]4(C)[C@H]5CC(C)(C)CC[C@]5(C)CC[C@]4(C)[C@H]3CC[C@]21C
REMARK SMILES IDX 1 1 2 2 3 3 4 4 5 5 6 6 7 7 30 8 29 9 28 10 27 11 8 12 10 13
REMARK SMILES IDX 11 14 12 15 25 16 24 17 23 18 21 19 14 20 15 21 16 22 19 23
REMARK SMILES IDX 20 24 17 25 18 26 22 27 26 28 13 29 9 30 31 31
REMARK H PARENT
REMARK Flexibility Score: inf
ROOT
ATOM      1  C   UNL     1     158.882 174.685 169.055  1.00  0.00     0.016 C 
ATOM      2  C   UNL     1     159.770 173.769 169.922  1.00  0.00     0.059 C 
ATOM      3  C   UNL     1     161.217 174.012 169.572  1.00  0.00     0.136 C 
ATOM      4  O   UNL     1     161.730 175.085 169.854  1.00  0.00    -0.299 OA
ATOM      5  C   UNL     1     162.024 172.991 168.827  1.00  0.00     0.076 C 
ATOM      6  C   UNL     1     161.831 171.550 169.335  1.00  0.00     0.012 C 
ATOM      7  C   UNL     1     160.602 171.298 170.273  1.00  0.00     0.002 C 
ATOM      8  C   UNL     1     159.379 172.236 169.893  1.00  0.00    -0.020 C 
ATOM      9  C   UNL     1     158.183 171.979 170.857  1.00  0.00     0.008 C 
ATOM     10  C   UNL     1     158.569 171.954 172.340  1.00  0.00     0.005 C 
ATOM     11  C   UNL     1     159.631 170.856 172.608  1.00  0.00     0.002 C 
ATOM     12  C   UNL     1     160.958 171.162 171.827  1.00  0.00    -0.026 C 
ATOM     13  C   UNL     1     161.874 169.917 172.029  1.00  0.00     0.008 C 
ATOM     14  C   UNL     1     162.127 169.585 173.497  1.00  0.00     0.008 C 
ATOM     15  C   UNL     1     160.858 169.237 174.338  1.00  0.00    -0.024 C 
ATOM     16  C   UNL     1     159.710 170.360 174.133  1.00  0.00    -0.024 C 
ATOM     17  C   UNL     1     158.269 169.764 174.464  1.00  0.00     0.008 C 
ATOM     18  C   UNL     1     158.218 168.535 175.380  1.00  0.00     0.007 C 
ATOM     19  C   UNL     1     159.092 167.335 174.894  1.00  0.00    -0.029 C 
ATOM     20  C   UNL     1     160.233 167.837 173.932  1.00  0.00     0.002 C 
ATOM     21  C   UNL     1     161.169 166.668 173.520  1.00  0.00     0.011 C 
ATOM     22  C   UNL     1     160.386 165.501 172.826  1.00  0.00    -0.035 C 
ATOM     23  C   UNL     1     159.069 165.126 173.577  1.00  0.00     0.007 C 
ATOM     24  C   UNL     1     158.237 166.337 174.061  1.00  0.00     0.007 C 
ATOM     25  C   UNL     1     160.046 165.877 171.360  1.00  0.00     0.011 C 
ATOM     26  C   UNL     1     161.303 164.261 172.786  1.00  0.00     0.011 C 
ATOM     27  C   UNL     1     159.582 166.572 176.171  1.00  0.00     0.011 C 
ATOM     28  C   UNL     1     159.938 171.569 175.090  1.00  0.00     0.012 C 
ATOM     29  C   UNL     1     161.395 169.171 175.804  1.00  0.00     0.012 C 
ATOM     30  C   UNL     1     161.700 172.440 172.324  1.00  0.00     0.012 C 
ATOM     31  C   UNL     1     158.884 171.830 168.470  1.00  0.00     0.012 C 
ENDROOT
TORSDOF 0
ENDMDL
MODEL 9
REMARK VINA RESULT:    -4.920      7.919     11.198
REMARK INTER + INTRA:          -4.920
REMARK INTER:                  -4.920
REMARK INTRA:                   0.000
REMARK UNBOUND:                 0.000
REMARK SMILES C[C@@H]1C(=O)CC[C@H]2[C@]3(C)CC[C@]4(C)[C@H]5CC(C)(C)CC[C@]5(C)CC[C@]4(C)[C@H]3CC[C@]21C
REMARK SMILES IDX 1 1 2 2 3 3 4 4 5 5 6 6 7 7 30 8 29 9 28 10 27 11 8 12 10 13
REMARK SMILES IDX 11 14 12 15 25 16 24 17 23 18 21 19 14 20 15 21 16 22 19 23
REMARK SMILES IDX 20 24 17 25 18 26 22 27 26 28 13 29 9 30 31 31
REMARK H PARENT
REMARK Flexibility Score: inf
ROOT
ATOM      1  C   UNL     1     167.087 165.664 170.537  1.00  0.00     0.016 C 
ATOM      2  C   UNL     1     168.464 166.027 171.133  1.00  0.00     0.059 C 
ATOM      3  C   UNL     1     168.751 165.114 172.298  1.00  0.00     0.136 C 
ATOM      4  O   UNL     1     168.947 163.925 172.094  1.00  0.00    -0.299 OA
ATOM      5  C   UNL     1     168.738 165.619 173.709  1.00  0.00     0.076 C 
ATOM      6  C   UNL     1     169.456 166.969 173.897  1.00  0.00     0.012 C 
ATOM      7  C   UNL     1     169.772 167.780 172.595  1.00  0.00     0.002 C 
ATOM      8  C   UNL     1     168.657 167.558 171.487  1.00  0.00    -0.020 C 
ATOM      9  C   UNL     1     169.011 168.356 170.198  1.00  0.00     0.008 C 
ATOM     10  C   UNL     1     170.460 168.179 169.730  1.00  0.00     0.005 C 
ATOM     11  C   UNL     1     171.448 168.621 170.841  1.00  0.00     0.002 C 
ATOM     12  C   UNL     1     171.297 167.714 172.114  1.00  0.00    -0.026 C 
ATOM     13  C   UNL     1     172.200 168.355 173.210  1.00  0.00     0.008 C 
ATOM     14  C   UNL     1     173.656 168.512 172.777  1.00  0.00     0.008 C 
ATOM     15  C   UNL     1     173.895 169.427 171.535  1.00  0.00    -0.024 C 
ATOM     16  C   UNL     1     172.916 169.005 170.316  1.00  0.00    -0.024 C 
ATOM     17  C   UNL     1     172.706 170.224 169.310  1.00  0.00     0.008 C 
ATOM     18  C   UNL     1     173.782 171.316 169.306  1.00  0.00     0.007 C 
ATOM     19  C   UNL     1     174.067 171.943 170.708  1.00  0.00    -0.029 C 
ATOM     20  C   UNL     1     173.627 170.957 171.854  1.00  0.00     0.002 C 
ATOM     21  C   UNL     1     173.995 171.526 173.251  1.00  0.00     0.011 C 
ATOM     22  C   UNL     1     173.348 172.932 173.504  1.00  0.00    -0.035 C 
ATOM     23  C   UNL     1     173.497 173.895 172.283  1.00  0.00     0.007 C 
ATOM     24  C   UNL     1     173.226 173.237 170.909  1.00  0.00     0.007 C 
ATOM     25  C   UNL     1     171.845 172.780 173.853  1.00  0.00     0.011 C 
ATOM     26  C   UNL     1     174.045 173.570 174.724  1.00  0.00     0.011 C 
ATOM     27  C   UNL     1     175.575 172.363 170.729  1.00  0.00     0.011 C 
ATOM     28  C   UNL     1     173.527 167.831 169.493  1.00  0.00     0.012 C 
ATOM     29  C   UNL     1     175.408 169.213 171.206  1.00  0.00     0.012 C 
ATOM     30  C   UNL     1     171.727 166.233 171.886  1.00  0.00     0.012 C 
ATOM     31  C   UNL     1     167.321 168.163 172.019  1.00  0.00     0.012 C 
ENDROOT
TORSDOF 0
ENDMDL
