MODEL 1
REMARK VINA RESULT:    -3.121      0.000      0.000
REMARK INTER + INTRA:          -5.000
REMARK INTER:                  -4.399
REMARK INTRA:                  -0.601
REMARK UNBOUND:                -0.601
REMARK SMILES CCCCCCCCC(=O)[O-]
REMARK SMILES IDX 6 1 7 2 8 3 9 4 10 5 11 6 5 7 4 8 3 9 2 10 1 11
REMARK H PARENT
REMARK Flexibility Score: inf
ROOT
ATOM      1  C   UNL     1     -12.861  11.323   5.670  1.00  0.00     0.000 C 
ENDROOT
BRANCH   1   2
ATOM      2  C   UNL     1     -14.339  11.595   5.995  1.00  0.00     0.006 C 
BRANCH   2   3
ATOM      3  C   UNL     1     -15.257  11.404   4.780  1.00  0.00     0.053 C 
BRANCH   3   4
ATOM      4  C   UNL     1     -16.059  10.149   4.925  1.00  0.00     0.041 C 
ATOM      5  O   UNL     1     -15.723   9.107   4.302  1.00  0.00    -0.550 OA
ATOM      6  O   UNL     1     -17.148  10.114   5.786  1.00  0.00    -0.550 OA
ENDBRANCH   3   4
ENDBRANCH   2   3
ENDBRANCH   1   2
BRANCH   1   7
ATOM      7  C   UNL     1     -12.436   9.886   6.021  1.00  0.00     0.000 C 
BRANCH   7   8
ATOM      8  C   UNL     1     -12.111   9.046   4.775  1.00  0.00    -0.000 C 
BRANCH   8   9
ATOM      9  C   UNL     1     -12.320   9.821   3.465  1.00  0.00    -0.000 C 
BRANCH   9  10
ATOM     10  C   UNL     1     -12.747   8.878   2.333  1.00  0.00    -0.003 C 
ATOM     11  C   UNL     1     -11.966   9.162   1.054  1.00  0.00     0.004 C 
ENDBRANCH   9  10
ENDBRANCH   8   9
ENDBRANCH   7   8
ENDBRANCH   1   7
TORSDOF 7
ENDMDL
MODEL 2
REMARK VINA RESULT:    -2.926     13.950     15.558
REMARK INTER + INTRA:          -4.725
REMARK INTER:                  -4.473
REMARK INTRA:                  -0.252
REMARK UNBOUND:                -0.601
REMARK SMILES CCCCCCCCC(=O)[O-]
REMARK SMILES IDX 6 1 7 2 8 3 9 4 10 5 11 6 5 7 4 8 3 9 2 10 1 11
REMARK H PARENT
REMARK Flexibility Score: inf
ROOT
ATOM      1  C   UNL     1      -1.348  14.165  11.217  1.00  0.00     0.000 C 
ENDROOT
BRANCH   1   2
ATOM      2  C   UNL     1      -2.235  13.421  10.205  1.00  0.00     0.006 C 
BRANCH   2   3
ATOM      3  C   UNL     1      -1.807  11.961  10.003  1.00  0.00     0.053 C 
BRANCH   3   4
ATOM      4  C   UNL     1      -0.750  11.869   8.947  1.00  0.00     0.041 C 
ATOM      5  O   UNL     1      -1.072  11.831   7.730  1.00  0.00    -0.550 OA
ATOM      6  O   UNL     1       0.592  11.875   9.304  1.00  0.00    -0.550 OA
ENDBRANCH   3   4
ENDBRANCH   2   3
ENDBRANCH   1   2
BRANCH   1   7
ATOM      7  C   UNL     1      -1.013  15.597  10.766  1.00  0.00     0.000 C 
BRANCH   7   8
ATOM      8  C   UNL     1      -0.511  16.477  11.922  1.00  0.00    -0.000 C 
BRANCH   8   9
ATOM      9  C   UNL     1      -1.635  16.893  12.883  1.00  0.00    -0.000 C 
BRANCH   9  10
ATOM     10  C   UNL     1      -2.191  18.274  12.512  1.00  0.00    -0.003 C 
ATOM     11  C   UNL     1      -3.395  18.634  13.377  1.00  0.00     0.004 C 
ENDBRANCH   9  10
ENDBRANCH   8   9
ENDBRANCH   7   8
ENDBRANCH   1   7
TORSDOF 7
ENDMDL
MODEL 3
REMARK VINA RESULT:    -2.921     14.418     15.445
REMARK INTER + INTRA:          -4.717
REMARK INTER:                  -4.391
REMARK INTRA:                  -0.326
REMARK UNBOUND:                -0.601
REMARK SMILES CCCCCCCCC(=O)[O-]
REMARK SMILES IDX 6 1 7 2 8 3 9 4 10 5 11 6 5 7 4 8 3 9 2 10 1 11
REMARK H PARENT
REMARK Flexibility Score: inf
ROOT
ATOM      1  C   UNL     1       0.012  15.317  11.043  1.00  0.00     0.000 C 
ENDROOT
BRANCH   1   2
ATOM      2  C   UNL     1      -1.150  16.314  11.181  1.00  0.00     0.006 C 
BRANCH   2   3
ATOM      3  C   UNL     1      -1.446  16.680  12.641  1.00  0.00     0.053 C 
BRANCH   3   4
ATOM      4  C   UNL     1      -1.713  18.147  12.767  1.00  0.00     0.041 C 
ATOM      5  O   UNL     1      -0.758  18.955  12.916  1.00  0.00    -0.550 OA
ATOM      6  O   UNL     1      -3.012  18.629  12.668  1.00  0.00    -0.550 OA
ENDBRANCH   3   4
ENDBRANCH   2   3
ENDBRANCH   1   2
BRANCH   1   7
ATOM      7  C   UNL     1      -0.464  13.853  11.047  1.00  0.00     0.000 C 
BRANCH   7   8
ATOM      8  C   UNL     1      -1.797  13.664  10.305  1.00  0.00    -0.000 C 
BRANCH   8   9
ATOM      9  C   UNL     1      -2.135  12.187  10.056  1.00  0.00    -0.000 C 
BRANCH   9  10
ATOM     10  C   UNL     1      -0.961  11.461   9.386  1.00  0.00    -0.003 C 
ATOM     11  C   UNL     1      -0.989  11.646   7.872  1.00  0.00     0.004 C 
ENDBRANCH   9  10
ENDBRANCH   8   9
ENDBRANCH   7   8
ENDBRANCH   1   7
TORSDOF 7
ENDMDL
MODEL 4
REMARK VINA RESULT:    -2.892     13.888     14.798
REMARK INTER + INTRA:          -4.676
REMARK INTER:                  -4.342
REMARK INTRA:                  -0.334
REMARK UNBOUND:                -0.601
REMARK SMILES CCCCCCCCC(=O)[O-]
REMARK SMILES IDX 6 1 7 2 8 3 9 4 10 5 11 6 5 7 4 8 3 9 2 10 1 11
REMARK H PARENT
REMARK Flexibility Score: inf
ROOT
ATOM      1  C   UNL     1      -1.938  14.003  10.191  1.00  0.00     0.000 C 
ENDROOT
BRANCH   1   2
ATOM      2  C   UNL     1      -1.390  14.765  11.408  1.00  0.00     0.006 C 
BRANCH   2   3
ATOM      3  C   UNL     1      -1.109  16.243  11.104  1.00  0.00     0.053 C 
BRANCH   3   4
ATOM      4  C   UNL     1      -1.532  17.101  12.255  1.00  0.00     0.041 C 
ATOM      5  O   UNL     1      -1.421  18.353  12.185  1.00  0.00    -0.550 OA
ATOM      6  O   UNL     1      -2.094  16.522  13.385  1.00  0.00    -0.550 OA
ENDBRANCH   3   4
ENDBRANCH   2   3
ENDBRANCH   1   2
BRANCH   1   7
ATOM      7  C   UNL     1      -2.473  12.608  10.561  1.00  0.00     0.000 C 
BRANCH   7   8
ATOM      8  C   UNL     1      -1.478  11.486  10.224  1.00  0.00    -0.000 C 
BRANCH   8   9
ATOM      9  C   UNL     1      -0.498  11.875   9.108  1.00  0.00    -0.000 C 
BRANCH   9  10
ATOM     10  C   UNL     1      -0.792  11.094   7.822  1.00  0.00    -0.003 C 
ATOM     11  C   UNL     1      -0.977   9.607   8.110  1.00  0.00     0.004 C 
ENDBRANCH   9  10
ENDBRANCH   8   9
ENDBRANCH   7   8
ENDBRANCH   1   7
TORSDOF 7
ENDMDL
MODEL 5
REMARK VINA RESULT:    -2.889     14.056     15.655
REMARK INTER + INTRA:          -4.672
REMARK INTER:                  -4.345
REMARK INTRA:                  -0.326
REMARK UNBOUND:                -0.601
REMARK SMILES CCCCCCCCC(=O)[O-]
REMARK SMILES IDX 6 1 7 2 8 3 9 4 10 5 11 6 5 7 4 8 3 9 2 10 1 11
REMARK H PARENT
REMARK Flexibility Score: inf
ROOT
ATOM      1  C   UNL     1      -1.234  15.156  12.027  1.00  0.00     0.000 C 
ENDROOT
BRANCH   1   2
ATOM      2  C   UNL     1      -0.764  14.209  10.911  1.00  0.00     0.006 C 
BRANCH   2   3
ATOM      3  C   UNL     1      -1.913  13.741  10.008  1.00  0.00     0.053 C 
BRANCH   3   4
ATOM      4  C   UNL     1      -2.370  12.374  10.412  1.00  0.00     0.041 C 
ATOM      5  O   UNL     1      -3.342  12.239  11.201  1.00  0.00    -0.550 OA
ATOM      6  O   UNL     1      -1.755  11.249   9.878  1.00  0.00    -0.550 OA
ENDBRANCH   3   4
ENDBRANCH   2   3
ENDBRANCH   1   2
BRANCH   1   7
ATOM      7  C   UNL     1      -1.169  16.636  11.610  1.00  0.00     0.000 C 
BRANCH   7   8
ATOM      8  C   UNL     1      -0.394  17.499  12.619  1.00  0.00    -0.000 C 
BRANCH   8   9
ATOM      9  C   UNL     1      -1.246  18.633  13.209  1.00  0.00    -0.000 C 
BRANCH   9  10
ATOM     10  C   UNL     1      -2.676  18.588  12.658  1.00  0.00    -0.003 C 
ATOM     11  C   UNL     1      -3.703  18.612  13.786  1.00  0.00     0.004 C 
ENDBRANCH   9  10
ENDBRANCH   8   9
ENDBRANCH   7   8
ENDBRANCH   1   7
TORSDOF 7
ENDMDL
MODEL 6
REMARK VINA RESULT:    -2.887      1.280      2.196
REMARK INTER + INTRA:          -4.669
REMARK INTER:                  -3.894
REMARK INTRA:                  -0.775
REMARK UNBOUND:                -0.601
REMARK SMILES CCCCCCCCC(=O)[O-]
REMARK SMILES IDX 6 1 7 2 8 3 9 4 10 5 11 6 5 7 4 8 3 9 2 10 1 11
REMARK H PARENT
REMARK Flexibility Score: inf
ROOT
ATOM      1  C   UNL     1     -14.481  11.673   5.743  1.00  0.00     0.000 C 
ENDROOT
BRANCH   1   2
ATOM      2  C   UNL     1     -15.454  11.433   4.577  1.00  0.00     0.006 C 
BRANCH   2   3
ATOM      3  C   UNL     1     -15.862   9.961   4.438  1.00  0.00     0.053 C 
BRANCH   3   4
ATOM      4  C   UNL     1     -17.348   9.819   4.539  1.00  0.00     0.041 C 
ATOM      5  O   UNL     1     -17.907   9.797   5.667  1.00  0.00    -0.550 OA
ATOM      6  O   UNL     1     -18.121   9.763   3.387  1.00  0.00    -0.550 OA
ENDBRANCH   3   4
ENDBRANCH   2   3
ENDBRANCH   1   2
BRANCH   1   7
ATOM      7  C   UNL     1     -14.396  10.468   6.696  1.00  0.00     0.000 C 
BRANCH   7   8
ATOM      8  C   UNL     1     -12.965   9.921   6.828  1.00  0.00    -0.000 C 
BRANCH   8   9
ATOM      9  C   UNL     1     -12.026  10.441   5.730  1.00  0.00    -0.000 C 
BRANCH   9  10
ATOM     10  C   UNL     1     -11.715   9.340   4.708  1.00  0.00    -0.003 C 
ATOM     11  C   UNL     1     -12.384   9.626   3.367  1.00  0.00     0.004 C 
ENDBRANCH   9  10
ENDBRANCH   8   9
ENDBRANCH   7   8
ENDBRANCH   1   7
TORSDOF 7
ENDMDL
MODEL 7
REMARK VINA RESULT:    -2.847      4.848      7.068
REMARK INTER + INTRA:          -4.613
REMARK INTER:                  -4.439
REMARK INTRA:                  -0.174
REMARK UNBOUND:                -0.601
REMARK SMILES CCCCCCCCC(=O)[O-]
REMARK SMILES IDX 6 1 7 2 8 3 9 4 10 5 11 6 5 7 4 8 3 9 2 10 1 11
REMARK H PARENT
REMARK Flexibility Score: inf
ROOT
ATOM      1  C   UNL     1     -14.151   9.309   8.736  1.00  0.00     0.000 C 
ENDROOT
BRANCH   1   2
ATOM      2  C   UNL     1     -13.129   9.259   7.589  1.00  0.00     0.006 C 
BRANCH   2   3
ATOM      3  C   UNL     1     -13.328  10.387   6.568  1.00  0.00     0.053 C 
BRANCH   3   4
ATOM      4  C   UNL     1     -12.110  10.537   5.712  1.00  0.00     0.041 C 
ATOM      5  O   UNL     1     -11.521  11.648   5.636  1.00  0.00    -0.550 OA
ATOM      6  O   UNL     1     -11.594   9.438   5.038  1.00  0.00    -0.550 OA
ENDBRANCH   3   4
ENDBRANCH   2   3
ENDBRANCH   1   2
BRANCH   1   7
ATOM      7  C   UNL     1     -13.482   9.301  10.122  1.00  0.00     0.000 C 
BRANCH   7   8
ATOM      8  C   UNL     1     -14.304  10.056  11.178  1.00  0.00    -0.000 C 
BRANCH   8   9
ATOM      9  C   UNL     1     -13.453  10.532  12.365  1.00  0.00    -0.000 C 
BRANCH   9  10
ATOM     10  C   UNL     1     -14.340  10.911  13.558  1.00  0.00    -0.003 C 
ATOM     11  C   UNL     1     -15.658  11.523  13.093  1.00  0.00     0.004 C 
ENDBRANCH   9  10
ENDBRANCH   8   9
ENDBRANCH   7   8
ENDBRANCH   1   7
TORSDOF 7
ENDMDL
MODEL 8
REMARK VINA RESULT:    -2.786      2.300      4.715
REMARK INTER + INTRA:          -4.527
REMARK INTER:                  -3.992
REMARK INTRA:                  -0.535
REMARK UNBOUND:                -0.601
REMARK SMILES CCCCCCCCC(=O)[O-]
REMARK SMILES IDX 6 1 7 2 8 3 9 4 10 5 11 6 5 7 4 8 3 9 2 10 1 11
REMARK H PARENT
REMARK Flexibility Score: inf
ROOT
ATOM      1  C   UNL     1     -13.637   8.923   2.917  1.00  0.00     0.000 C 
ENDROOT
BRANCH   1   2
ATOM      2  C   UNL     1     -12.396   9.652   3.457  1.00  0.00     0.006 C 
BRANCH   2   3
ATOM      3  C   UNL     1     -11.972   9.151   4.844  1.00  0.00     0.053 C 
BRANCH   3   4
ATOM      4  C   UNL     1     -12.100  10.247   5.856  1.00  0.00     0.041 C 
ATOM      5  O   UNL     1     -12.625  10.017   6.977  1.00  0.00    -0.550 OA
ATOM      6  O   UNL     1     -11.594  11.511   5.580  1.00  0.00    -0.550 OA
ENDBRANCH   3   4
ENDBRANCH   2   3
ENDBRANCH   1   2
BRANCH   1   7
ATOM      7  C   UNL     1     -14.813   8.948   3.908  1.00  0.00     0.000 C 
BRANCH   7   8
ATOM      8  C   UNL     1     -15.602  10.266   3.855  1.00  0.00    -0.000 C 
BRANCH   8   9
ATOM      9  C   UNL     1     -15.608  11.010   5.198  1.00  0.00    -0.000 C 
BRANCH   9  10
ATOM     10  C   UNL     1     -16.581  10.352   6.185  1.00  0.00    -0.003 C 
ATOM     11  C   UNL     1     -16.052  10.427   7.614  1.00  0.00     0.004 C 
ENDBRANCH   9  10
ENDBRANCH   8   9
ENDBRANCH   7   8
ENDBRANCH   1   7
TORSDOF 7
ENDMDL
MODEL 9
REMARK VINA RESULT:    -2.769      2.622      3.639
REMARK INTER + INTRA:          -4.504
REMARK INTER:                  -3.772
REMARK INTRA:                  -0.732
REMARK UNBOUND:                -0.601
REMARK SMILES CCCCCCCCC(=O)[O-]
REMARK SMILES IDX 6 1 7 2 8 3 9 4 10 5 11 6 5 7 4 8 3 9 2 10 1 11
REMARK H PARENT
REMARK Flexibility Score: inf
ROOT
ATOM      1  C   UNL     1     -15.311  10.994   5.957  1.00  0.00     0.000 C 
ENDROOT
BRANCH   1   2
ATOM      2  C   UNL     1     -15.253   9.653   6.705  1.00  0.00     0.006 C 
BRANCH   2   3
ATOM      3  C   UNL     1     -14.156   9.620   7.777  1.00  0.00     0.053 C 
BRANCH   3   4
ATOM      4  C   UNL     1     -14.764   9.605   9.145  1.00  0.00     0.041 C 
ATOM      5  O   UNL     1     -14.027   9.578  10.166  1.00  0.00    -0.550 OA
ATOM      6  O   UNL     1     -16.143   9.671   9.294  1.00  0.00    -0.550 OA
ENDBRANCH   3   4
ENDBRANCH   2   3
ENDBRANCH   1   2
BRANCH   1   7
ATOM      7  C   UNL     1     -15.119  10.831   4.438  1.00  0.00     0.000 C 
BRANCH   7   8
ATOM      8  C   UNL     1     -14.203   9.648   4.084  1.00  0.00    -0.000 C 
BRANCH   8   9
ATOM      9  C   UNL     1     -12.779  10.089   3.715  1.00  0.00    -0.000 C 
BRANCH   9  10
ATOM     10  C   UNL     1     -11.844   9.990   4.926  1.00  0.00    -0.003 C 
ATOM     11  C   UNL     1     -11.612  11.360   5.557  1.00  0.00     0.004 C 
ENDBRANCH   9  10
ENDBRANCH   8   9
ENDBRANCH   7   8
ENDBRANCH   1   7
TORSDOF 7
ENDMDL
