MODEL 1
REMARK VINA RESULT:    -4.459      0.000      0.000
REMARK INTER + INTRA:          -5.225
REMARK INTER:                  -5.111
REMARK INTRA:                  -0.114
REMARK UNBOUND:                -0.114
REMARK SMILES COc1cc(C(C)=O)ccc1O
REMARK SMILES IDX 5 1 4 2 3 3 11 4 10 5 9 6 6 7 7 8 8 9 2 10 1 11 12 12
REMARK H PARENT 12 13
REMARK Flexibility Score: inf
ROOT
ATOM      1  C   UNL     1      86.017  32.012  66.451  1.00  0.00     0.021 A 
ATOM      2  C   UNL     1      85.135  31.627  65.422  1.00  0.00     0.062 A 
ATOM      3  C   UNL     1      83.805  31.256  65.709  1.00  0.00     0.161 A 
ATOM      4  C   UNL     1      83.361  31.270  67.041  1.00  0.00     0.157 A 
ATOM      5  C   UNL     1      84.231  31.651  68.065  1.00  0.00     0.051 A 
ATOM      6  C   UNL     1      85.546  32.018  67.776  1.00  0.00     0.016 A 
ENDROOT
BRANCH   1   7
ATOM      7  C   UNL     1      87.416  32.401  66.127  1.00  0.00     0.159 C 
ATOM      8  C   UNL     1      88.024  32.130  64.783  1.00  0.00     0.093 C 
ATOM      9  O   UNL     1      88.125  32.976  66.998  1.00  0.00    -0.295 OA
ENDBRANCH   1   7
BRANCH   3  10
ATOM     10  O   UNL     1      82.909  30.869  64.700  1.00  0.00    -0.493 OA
ATOM     11  C   UNL     1      82.827  29.560  64.145  1.00  0.00     0.278 C 
ENDBRANCH   3  10
BRANCH   4  12
ATOM     12  O   UNL     1      82.053  30.910  67.368  1.00  0.00    -0.504 OA
ATOM     13  H   UNL     1      81.835  30.046  67.849  1.00  0.00     0.293 HD
ENDBRANCH   4  12
TORSDOF 3
ENDMDL
MODEL 2
REMARK VINA RESULT:    -4.147     15.317     17.417
REMARK INTER + INTRA:          -4.867
REMARK INTER:                  -4.755
REMARK INTRA:                  -0.112
REMARK UNBOUND:                -0.114
REMARK SMILES COc1cc(C(C)=O)ccc1O
REMARK SMILES IDX 5 1 4 2 3 3 11 4 10 5 9 6 6 7 7 8 8 9 2 10 1 11 12 12
REMARK H PARENT 12 13
REMARK Flexibility Score: inf
ROOT
ATOM      1  C   UNL     1      76.500  35.020  51.675  1.00  0.00     0.021 A 
ATOM      2  C   UNL     1      77.528  34.106  51.976  1.00  0.00     0.062 A 
ATOM      3  C   UNL     1      78.778  34.181  51.328  1.00  0.00     0.161 A 
ATOM      4  C   UNL     1      78.994  35.184  50.369  1.00  0.00     0.157 A 
ATOM      5  C   UNL     1      77.979  36.094  50.067  1.00  0.00     0.051 A 
ATOM      6  C   UNL     1      76.743  36.015  50.710  1.00  0.00     0.016 A 
ENDROOT
BRANCH   1   7
ATOM      7  C   UNL     1      75.188  34.924  52.371  1.00  0.00     0.159 C 
ATOM      8  C   UNL     1      74.273  36.104  52.506  1.00  0.00     0.093 C 
ATOM      9  O   UNL     1      74.821  33.823  52.866  1.00  0.00    -0.295 OA
ENDBRANCH   1   7
BRANCH   3  10
ATOM     10  O   UNL     1      79.817  33.280  51.612  1.00  0.00    -0.493 OA
ATOM     11  C   UNL     1      79.645  32.018  52.249  1.00  0.00     0.278 C 
ENDBRANCH   3  10
BRANCH   4  12
ATOM     12  O   UNL     1      80.216  35.293  49.704  1.00  0.00    -0.504 OA
ATOM     13  H   UNL     1      80.291  35.234  48.696  1.00  0.00     0.293 HD
ENDBRANCH   4  12
TORSDOF 3
ENDMDL
MODEL 3
REMARK VINA RESULT:    -3.966     15.776     16.966
REMARK INTER + INTRA:          -4.660
REMARK INTER:                  -4.524
REMARK INTRA:                  -0.137
REMARK UNBOUND:                -0.114
REMARK SMILES COc1cc(C(C)=O)ccc1O
REMARK SMILES IDX 5 1 4 2 3 3 11 4 10 5 9 6 6 7 7 8 8 9 2 10 1 11 12 12
REMARK H PARENT 12 13
REMARK Flexibility Score: inf
ROOT
ATOM      1  C   UNL     1      76.273  34.073  52.159  1.00  0.00     0.021 A 
ATOM      2  C   UNL     1      77.500  34.621  51.738  1.00  0.00     0.062 A 
ATOM      3  C   UNL     1      78.653  33.818  51.628  1.00  0.00     0.161 A 
ATOM      4  C   UNL     1      78.571  32.452  51.946  1.00  0.00     0.157 A 
ATOM      5  C   UNL     1      77.357  31.903  52.365  1.00  0.00     0.051 A 
ATOM      6  C   UNL     1      76.218  32.702  52.472  1.00  0.00     0.016 A 
ENDROOT
BRANCH   1   7
ATOM      7  C   UNL     1      75.067  34.938  52.268  1.00  0.00     0.159 C 
ATOM      8  C   UNL     1      73.795  34.451  52.894  1.00  0.00     0.093 C 
ATOM      9  O   UNL     1      75.101  36.119  51.824  1.00  0.00    -0.295 OA
ENDBRANCH   1   7
BRANCH   3  10
ATOM     10  O   UNL     1      79.887  34.342  51.210  1.00  0.00    -0.493 OA
ATOM     11  C   UNL     1      80.216  34.666  49.863  1.00  0.00     0.278 C 
ENDBRANCH   3  10
BRANCH   4  12
ATOM     12  O   UNL     1      79.688  31.622  51.852  1.00  0.00    -0.504 OA
ATOM     13  H   UNL     1      79.816  30.817  52.453  1.00  0.00     0.293 HD
ENDBRANCH   4  12
TORSDOF 3
ENDMDL
MODEL 4
REMARK VINA RESULT:    -3.928     16.036     17.145
REMARK INTER + INTRA:          -4.616
REMARK INTER:                  -4.489
REMARK INTRA:                  -0.127
REMARK UNBOUND:                -0.114
REMARK SMILES COc1cc(C(C)=O)ccc1O
REMARK SMILES IDX 5 1 4 2 3 3 11 4 10 5 9 6 6 7 7 8 8 9 2 10 1 11 12 12
REMARK H PARENT 12 13
REMARK Flexibility Score: inf
ROOT
ATOM      1  C   UNL     1      73.178  34.181  54.944  1.00  0.00     0.021 A 
ATOM      2  C   UNL     1      73.891  33.336  54.072  1.00  0.00     0.062 A 
ATOM      3  C   UNL     1      74.609  33.862  52.979  1.00  0.00     0.161 A 
ATOM      4  C   UNL     1      74.609  35.250  52.761  1.00  0.00     0.157 A 
ATOM      5  C   UNL     1      73.903  36.092  53.622  1.00  0.00     0.051 A 
ATOM      6  C   UNL     1      73.193  35.567  54.703  1.00  0.00     0.016 A 
ENDROOT
BRANCH   1   7
ATOM      7  C   UNL     1      72.426  33.606  56.092  1.00  0.00     0.159 C 
ATOM      8  C   UNL     1      71.104  34.158  56.532  1.00  0.00     0.093 C 
ATOM      9  O   UNL     1      72.904  32.623  56.724  1.00  0.00    -0.295 OA
ENDBRANCH   1   7
BRANCH   3  10
ATOM     10  O   UNL     1      75.328  33.038  52.097  1.00  0.00    -0.493 OA
ATOM     11  C   UNL     1      76.668  32.603  52.304  1.00  0.00     0.278 C 
ENDBRANCH   3  10
BRANCH   4  12
ATOM     12  O   UNL     1      75.306  35.811  51.691  1.00  0.00    -0.504 OA
ATOM     13  H   UNL     1      76.179  36.307  51.815  1.00  0.00     0.293 HD
ENDBRANCH   4  12
TORSDOF 3
ENDMDL
MODEL 5
REMARK VINA RESULT:    -3.877     15.894     16.964
REMARK INTER + INTRA:          -4.558
REMARK INTER:                  -4.512
REMARK INTRA:                  -0.046
REMARK UNBOUND:                -0.114
REMARK SMILES COc1cc(C(C)=O)ccc1O
REMARK SMILES IDX 5 1 4 2 3 3 11 4 10 5 9 6 6 7 7 8 8 9 2 10 1 11 12 12
REMARK H PARENT 12 13
REMARK Flexibility Score: inf
ROOT
ATOM      1  C   UNL     1      77.641  34.455  51.718  1.00  0.00     0.021 A 
ATOM      2  C   UNL     1      76.608  35.394  51.909  1.00  0.00     0.062 A 
ATOM      3  C   UNL     1      75.338  34.990  52.368  1.00  0.00     0.161 A 
ATOM      4  C   UNL     1      75.105  33.631  52.636  1.00  0.00     0.157 A 
ATOM      5  C   UNL     1      76.126  32.696  52.449  1.00  0.00     0.051 A 
ATOM      6  C   UNL     1      77.382  33.101  51.995  1.00  0.00     0.016 A 
ENDROOT
BRANCH   1   7
ATOM      7  C   UNL     1      78.975  34.902  51.233  1.00  0.00     0.159 C 
ATOM      8  C   UNL     1      80.088  35.245  52.178  1.00  0.00     0.093 C 
ATOM      9  O   UNL     1      79.191  35.000  49.994  1.00  0.00    -0.295 OA
ENDBRANCH   1   7
BRANCH   3  10
ATOM     10  O   UNL     1      74.294  35.908  52.565  1.00  0.00    -0.493 OA
ATOM     11  C   UNL     1      73.221  36.124  51.654  1.00  0.00     0.278 C 
ENDBRANCH   3  10
BRANCH   4  12
ATOM     12  O   UNL     1      73.863  33.190  53.092  1.00  0.00    -0.504 OA
ATOM     13  H   UNL     1      73.275  33.754  53.693  1.00  0.00     0.293 HD
ENDBRANCH   4  12
TORSDOF 3
ENDMDL
MODEL 6
REMARK VINA RESULT:    -3.870      1.975      2.422
REMARK INTER + INTRA:          -4.550
REMARK INTER:                  -4.434
REMARK INTRA:                  -0.115
REMARK UNBOUND:                -0.114
REMARK SMILES COc1cc(C(C)=O)ccc1O
REMARK SMILES IDX 5 1 4 2 3 3 11 4 10 5 9 6 6 7 7 8 8 9 2 10 1 11 12 12
REMARK H PARENT 12 13
REMARK Flexibility Score: inf
ROOT
ATOM      1  C   UNL     1      86.118  31.047  65.710  1.00  0.00     0.021 A 
ATOM      2  C   UNL     1      85.670  29.787  65.265  1.00  0.00     0.062 A 
ATOM      3  C   UNL     1      84.392  29.633  64.692  1.00  0.00     0.161 A 
ATOM      4  C   UNL     1      83.556  30.756  64.567  1.00  0.00     0.157 A 
ATOM      5  C   UNL     1      83.995  32.007  65.007  1.00  0.00     0.051 A 
ATOM      6  C   UNL     1      85.262  32.154  65.573  1.00  0.00     0.016 A 
ENDROOT
BRANCH   1   7
ATOM      7  C   UNL     1      87.472  31.188  66.311  1.00  0.00     0.159 C 
ATOM      8  C   UNL     1      88.099  32.529  66.548  1.00  0.00     0.093 C 
ATOM      9  O   UNL     1      88.124  30.157  66.636  1.00  0.00    -0.295 OA
ENDBRANCH   1   7
BRANCH   3  10
ATOM     10  O   UNL     1      83.925  28.388  64.242  1.00  0.00    -0.493 OA
ATOM     11  C   UNL     1      84.367  27.129  64.737  1.00  0.00     0.278 C 
ENDBRANCH   3  10
BRANCH   4  12
ATOM     12  O   UNL     1      82.283  30.648  64.007  1.00  0.00    -0.504 OA
ATOM     13  H   UNL     1      81.449  30.551  64.573  1.00  0.00     0.293 HD
ENDBRANCH   4  12
TORSDOF 3
ENDMDL
MODEL 7
REMARK VINA RESULT:    -3.766      1.417      4.501
REMARK INTER + INTRA:          -4.430
REMARK INTER:                  -4.319
REMARK INTRA:                  -0.111
REMARK UNBOUND:                -0.114
REMARK SMILES COc1cc(C(C)=O)ccc1O
REMARK SMILES IDX 5 1 4 2 3 3 11 4 10 5 9 6 6 7 7 8 8 9 2 10 1 11 12 12
REMARK H PARENT 12 13
REMARK Flexibility Score: inf
ROOT
ATOM      1  C   UNL     1      84.878  31.619  65.608  1.00  0.00     0.021 A 
ATOM      2  C   UNL     1      85.935  32.348  65.028  1.00  0.00     0.062 A 
ATOM      3  C   UNL     1      87.030  32.779  65.805  1.00  0.00     0.161 A 
ATOM      4  C   UNL     1      87.061  32.474  67.176  1.00  0.00     0.157 A 
ATOM      5  C   UNL     1      86.016  31.751  67.756  1.00  0.00     0.051 A 
ATOM      6  C   UNL     1      84.934  31.326  66.983  1.00  0.00     0.016 A 
ENDROOT
BRANCH   1   7
ATOM      7  C   UNL     1      83.732  31.173  64.770  1.00  0.00     0.159 C 
ATOM      8  C   UNL     1      83.543  29.736  64.384  1.00  0.00     0.093 C 
ATOM      9  O   UNL     1      82.886  32.017  64.365  1.00  0.00    -0.295 OA
ENDBRANCH   1   7
BRANCH   3  10
ATOM     10  O   UNL     1      88.094  33.507  65.249  1.00  0.00    -0.493 OA
ATOM     11  C   UNL     1      87.959  34.756  64.578  1.00  0.00     0.278 C 
ENDBRANCH   3  10
BRANCH   4  12
ATOM     12  O   UNL     1      88.125  32.881  67.981  1.00  0.00    -0.504 OA
ATOM     13  H   UNL     1      89.085  32.859  67.660  1.00  0.00     0.293 HD
ENDBRANCH   4  12
TORSDOF 3
ENDMDL
MODEL 8
REMARK VINA RESULT:    -3.601      2.865      3.709
REMARK INTER + INTRA:          -4.242
REMARK INTER:                  -4.152
REMARK INTRA:                  -0.090
REMARK UNBOUND:                -0.114
REMARK SMILES COc1cc(C(C)=O)ccc1O
REMARK SMILES IDX 5 1 4 2 3 3 11 4 10 5 9 6 6 7 7 8 8 9 2 10 1 11 12 12
REMARK H PARENT 12 13
REMARK Flexibility Score: inf
ROOT
ATOM      1  C   UNL     1      85.379  30.941  64.722  1.00  0.00     0.021 A 
ATOM      2  C   UNL     1      86.176  29.779  64.751  1.00  0.00     0.062 A 
ATOM      3  C   UNL     1      85.589  28.498  64.739  1.00  0.00     0.161 A 
ATOM      4  C   UNL     1      84.189  28.384  64.700  1.00  0.00     0.157 A 
ATOM      5  C   UNL     1      83.395  29.533  64.672  1.00  0.00     0.051 A 
ATOM      6  C   UNL     1      83.980  30.799  64.683  1.00  0.00     0.016 A 
ENDROOT
BRANCH   1   7
ATOM      7  C   UNL     1      86.019  32.285  64.734  1.00  0.00     0.159 C 
ATOM      8  C   UNL     1      87.146  32.618  65.665  1.00  0.00     0.093 C 
ATOM      9  O   UNL     1      85.612  33.179  63.943  1.00  0.00    -0.295 OA
ENDBRANCH   1   7
BRANCH   3  10
ATOM     10  O   UNL     1      86.363  27.326  64.767  1.00  0.00    -0.493 OA
ATOM     11  C   UNL     1      87.747  27.261  64.441  1.00  0.00     0.278 C 
ENDBRANCH   3  10
BRANCH   4  12
ATOM     12  O   UNL     1      83.568  27.135  64.689  1.00  0.00    -0.504 OA
ATOM     13  H   UNL     1      83.378  26.634  63.830  1.00  0.00     0.293 HD
ENDBRANCH   4  12
TORSDOF 3
ENDMDL
