MODEL 1
REMARK VINA RESULT:    -4.101      0.000      0.000
REMARK INTER + INTRA:          -5.232
REMARK INTER:                  -6.019
REMARK INTRA:                   0.787
REMARK UNBOUND:                 0.787
REMARK SMILES C=C1CC=CC(C)(C)CC=C(C)CCC1
REMARK SMILES IDX 2 1 1 2 15 3 14 4 13 5 11 6 12 7 10 8 3 10 4 11 5 12 6 13
REMARK SMILES IDX 7 14 8 15 9 16
REMARK H PARENT
REMARK Flexibility Score: 60.00
ROOT
ATOM      1  C   UNL     1      -1.845  14.478   5.303  1.00  0.00    -0.074 C 
ATOM      2  C   UNL     1      -2.901  14.089   6.044  1.00  0.00     0.008 C 
ENDROOT
BRANCH   1   3
ATOM      3  C   UNL     1      -2.122  15.028   3.911  1.00  0.00     0.031 C 
BRANCH   3   4
ATOM      4  C   UNL     1      -1.553  14.196   2.748  1.00  0.00     0.009 C 
BRANCH   4   5
ATOM      5  C   UNL     1      -0.459  14.887   1.901  1.00  0.00     0.030 C 
BRANCH   5   6
ATOM      6  C   UNL     1       0.622  13.975   1.336  1.00  0.00    -0.077 C 
ATOM      7  C   UNL     1       0.434  13.393  -0.044  1.00  0.00     0.039 C 
ATOM      8  C   UNL     1       1.724  13.611   2.029  1.00  0.00    -0.027 CG0
ATOM      9  G   UNL     1       2.035  14.057   3.440  1.00  0.00     0.000 G0
ENDBRANCH   5   6
ENDBRANCH   4   5
ENDBRANCH   3   4
ENDBRANCH   1   3
BRANCH   1  10
ATOM     10  C   UNL     1      -0.428  14.089   5.720  1.00  0.00     0.057 C 
BRANCH  10  11
ATOM     11  C   UNL     1      -0.082  12.651   5.392  1.00  0.00    -0.026 C 
ATOM     12  C   UNL     1       1.086  12.153   4.926  1.00  0.00    -0.024 C 
BRANCH  12  13
ATOM     13  C   UNL     1       2.334  12.901   4.438  1.00  0.00    -0.014 C 
ATOM     14  C   UNL     1       3.302  11.889   3.788  1.00  0.00     0.016 C 
ATOM     15  C   UNL     1       3.048  13.496   5.676  1.00  0.00     0.016 C 
BRANCH  13  16
ATOM     16  C   UNL     1       2.039  14.063   3.443  1.00  0.00     0.038 CG0
ATOM     17  G   UNL     1       1.717  13.597   2.041  1.00  0.00     0.000 G0
ENDBRANCH  13  16
ENDBRANCH  12  13
ENDBRANCH  10  11
ENDBRANCH   1  10
TORSDOF 0
ENDMDL
MODEL 2
REMARK VINA RESULT:    -4.085      1.562      4.679
REMARK INTER + INTRA:          -5.209
REMARK INTER:                  -5.746
REMARK INTRA:                   0.537
REMARK UNBOUND:                 0.787
REMARK SMILES C=C1CC=CC(C)(C)CC=C(C)CCC1
REMARK SMILES IDX 2 1 1 2 15 3 14 4 13 5 11 6 12 7 10 8 3 10 4 11 5 12 6 13
REMARK SMILES IDX 7 14 8 15 9 16
REMARK H PARENT
REMARK Flexibility Score: 60.00
ROOT
ATOM      1  C   UNL     1       3.278  13.182   4.233  1.00  0.00    -0.074 C 
ATOM      2  C   UNL     1       3.265  11.835   4.211  1.00  0.00     0.008 C 
ENDROOT
BRANCH   1   3
ATOM      3  C   UNL     1       3.123  13.869   5.583  1.00  0.00     0.031 C 
BRANCH   3   4
ATOM      4  C   UNL     1       1.992  13.324   6.473  1.00  0.00     0.009 C 
BRANCH   4   5
ATOM      5  C   UNL     1       0.587  13.917   6.213  1.00  0.00     0.030 C 
BRANCH   5   6
ATOM      6  C   UNL     1      -0.326  13.099   5.309  1.00  0.00    -0.077 C 
ATOM      7  C   UNL     1      -0.944  11.834   5.853  1.00  0.00     0.039 C 
ATOM      8  C   UNL     1      -0.571  13.417   4.018  1.00  0.00    -0.027 CG0
ATOM      9  G   UNL     1       0.014  14.614   3.304  1.00  0.00     0.000 G0
ENDBRANCH   5   6
ENDBRANCH   4   5
ENDBRANCH   3   4
ENDBRANCH   1   3
BRANCH   1  10
ATOM     10  C   UNL     1       3.137  13.974   2.935  1.00  0.00     0.057 C 
BRANCH  10  11
ATOM     11  C   UNL     1       2.416  13.209   1.844  1.00  0.00    -0.026 C 
ATOM     12  C   UNL     1       1.196  13.454   1.311  1.00  0.00    -0.024 C 
BRANCH  12  13
ATOM     13  C   UNL     1       0.125  14.458   1.759  1.00  0.00    -0.014 C 
ATOM     14  C   UNL     1      -1.237  14.033   1.169  1.00  0.00     0.016 C 
ATOM     15  C   UNL     1       0.482  15.837   1.154  1.00  0.00     0.016 C 
BRANCH  13  16
ATOM     16  C   UNL     1       0.003  14.621   3.303  1.00  0.00     0.038 CG0
ATOM     17  G   UNL     1      -0.556  13.403   4.002  1.00  0.00     0.000 G0
ENDBRANCH  13  16
ENDBRANCH  12  13
ENDBRANCH  10  11
ENDBRANCH   1  10
TORSDOF 0
ENDMDL
MODEL 3
REMARK VINA RESULT:    -4.013      1.111      3.599
REMARK INTER + INTRA:          -5.102
REMARK INTER:                  -6.236
REMARK INTRA:                   1.134
REMARK UNBOUND:                 0.787
REMARK SMILES C=C1CC=CC(C)(C)CC=C(C)CCC1
REMARK SMILES IDX 2 1 1 2 15 3 14 4 13 5 11 6 12 7 10 8 3 10 4 11 5 12 6 13
REMARK SMILES IDX 7 14 8 15 9 16
REMARK H PARENT
REMARK Flexibility Score: 60.00
ROOT
ATOM      1  C   UNL     1      -0.798  13.869   5.416  1.00  0.00    -0.074 C 
ATOM      2  C   UNL     1      -1.924  14.508   5.788  1.00  0.00     0.008 C 
ENDROOT
BRANCH   1   3
ATOM      3  C   UNL     1       0.358  13.838   6.407  1.00  0.00     0.031 C 
BRANCH   3   4
ATOM      4  C   UNL     1       1.557  12.968   5.994  1.00  0.00     0.009 C 
BRANCH   4   5
ATOM      5  C   UNL     1       2.653  13.682   5.168  1.00  0.00     0.030 C 
BRANCH   5   6
ATOM      6  C   UNL     1       3.015  13.036   3.837  1.00  0.00    -0.077 C 
ATOM      7  C   UNL     1       3.815  11.757   3.845  1.00  0.00     0.039 C 
ATOM      8  C   UNL     1       2.701  13.579   2.639  1.00  0.00    -0.027 CG0
ATOM      9  G   UNL     1       1.956  14.881   2.457  1.00  0.00     0.000 G0
ENDBRANCH   5   6
ENDBRANCH   4   5
ENDBRANCH   3   4
ENDBRANCH   1   3
BRANCH   1  10
ATOM     10  C   UNL     1      -0.584  13.475   3.956  1.00  0.00     0.057 C 
BRANCH  10  11
ATOM     11  C   UNL     1      -1.153  14.480   2.976  1.00  0.00    -0.026 C 
ATOM     12  C   UNL     1      -0.582  14.976   1.855  1.00  0.00    -0.024 C 
BRANCH  12  13
ATOM     13  C   UNL     1       0.853  14.804   1.338  1.00  0.00    -0.014 C 
ATOM     14  C   UNL     1       1.129  15.874   0.260  1.00  0.00     0.016 C 
ATOM     15  C   UNL     1       0.949  13.420   0.651  1.00  0.00     0.016 C 
BRANCH  13  16
ATOM     16  C   UNL     1       1.947  14.874   2.444  1.00  0.00     0.038 CG0
ATOM     17  G   UNL     1       2.700  13.578   2.640  1.00  0.00     0.000 G0
ENDBRANCH  13  16
ENDBRANCH  12  13
ENDBRANCH  10  11
ENDBRANCH   1  10
TORSDOF 0
ENDMDL
MODEL 4
REMARK VINA RESULT:    -3.887      1.206      3.456
REMARK INTER + INTRA:          -4.917
REMARK INTER:                  -5.643
REMARK INTRA:                   0.726
REMARK UNBOUND:                 0.787
REMARK SMILES C=C1CC=CC(C)(C)CC=C(C)CCC1
REMARK SMILES IDX 2 1 1 2 15 3 14 4 13 5 11 6 12 7 10 8 3 10 4 11 5 12 6 13
REMARK SMILES IDX 7 14 8 15 9 16
REMARK H PARENT
REMARK Flexibility Score: 60.00
ROOT
ATOM      1  C   UNL     1      -0.801  14.772   2.186  1.00  0.00    -0.074 C 
ATOM      2  C   UNL     1      -1.611  15.656   1.571  1.00  0.00     0.008 C 
ENDROOT
BRANCH   1   3
ATOM      3  C   UNL     1      -1.413  13.878   3.256  1.00  0.00     0.031 C 
BRANCH   3   4
ATOM      4  C   UNL     1      -1.657  14.553   4.617  1.00  0.00     0.009 C 
BRANCH   4   5
ATOM      5  C   UNL     1      -0.782  14.043   5.786  1.00  0.00     0.030 C 
BRANCH   5   6
ATOM      6  C   UNL     1      -0.191  12.649   5.620  1.00  0.00    -0.077 C 
ATOM      7  C   UNL     1      -1.013  11.457   6.045  1.00  0.00     0.039 C 
ATOM      8  C   UNL     1       1.060  12.423   5.160  1.00  0.00    -0.027 CG0
ATOM      9  G   UNL     1       2.030  13.506   4.747  1.00  0.00     0.000 G0
ENDBRANCH   5   6
ENDBRANCH   4   5
ENDBRANCH   3   4
ENDBRANCH   1   3
BRANCH   1  10
ATOM     10  C   UNL     1       0.715  14.886   2.038  1.00  0.00     0.057 C 
BRANCH  10  11
ATOM     11  C   UNL     1       1.369  13.595   1.590  1.00  0.00    -0.026 C 
ATOM     12  C   UNL     1       2.257  12.826   2.261  1.00  0.00    -0.024 C 
BRANCH  12  13
ATOM     13  C   UNL     1       2.984  13.110   3.583  1.00  0.00    -0.014 C 
ATOM     14  C   UNL     1       4.030  14.222   3.349  1.00  0.00     0.016 C 
ATOM     15  C   UNL     1       3.751  11.829   3.990  1.00  0.00     0.016 C 
BRANCH  13  16
ATOM     16  C   UNL     1       2.044  13.509   4.759  1.00  0.00     0.038 CG0
ATOM     17  G   UNL     1       1.071  12.422   5.157  1.00  0.00     0.000 G0
ENDBRANCH  13  16
ENDBRANCH  12  13
ENDBRANCH  10  11
ENDBRANCH   1  10
TORSDOF 0
ENDMDL
MODEL 5
REMARK VINA RESULT:    -3.845      2.517      4.210
REMARK INTER + INTRA:          -4.856
REMARK INTER:                  -5.870
REMARK INTRA:                   1.014
REMARK UNBOUND:                 0.787
REMARK SMILES C=C1CC=CC(C)(C)CC=C(C)CCC1
REMARK SMILES IDX 2 1 1 2 15 3 14 4 13 5 11 6 12 7 10 8 3 10 4 11 5 12 6 13
REMARK SMILES IDX 7 14 8 15 9 16
REMARK H PARENT
REMARK Flexibility Score: 60.00
ROOT
ATOM      1  C   UNL     1       3.753  16.712   1.349  1.00  0.00    -0.074 C 
ATOM      2  C   UNL     1       4.343  17.893   1.083  1.00  0.00     0.008 C 
ENDROOT
BRANCH   1   3
ATOM      3  C   UNL     1       2.969  16.045   0.227  1.00  0.00     0.031 C 
BRANCH   3   4
ATOM      4  C   UNL     1       1.451  16.298   0.243  1.00  0.00     0.009 C 
BRANCH   4   5
ATOM      5  C   UNL     1       0.592  15.195   0.906  1.00  0.00     0.030 C 
BRANCH   5   6
ATOM      6  C   UNL     1       1.139  13.777   0.812  1.00  0.00    -0.077 C 
ATOM      7  C   UNL     1       0.965  13.015  -0.478  1.00  0.00     0.039 C 
ATOM      8  C   UNL     1       1.729  13.139   1.848  1.00  0.00    -0.027 CG0
ATOM      9  G   UNL     1       1.929  13.738   3.222  1.00  0.00     0.000 G0
ENDBRANCH   5   6
ENDBRANCH   4   5
ENDBRANCH   3   4
ENDBRANCH   1   3
BRANCH   1  10
ATOM     10  C   UNL     1       3.616  16.228   2.791  1.00  0.00     0.057 C 
BRANCH  10  11
ATOM     11  C   UNL     1       4.661  15.203   3.179  1.00  0.00    -0.026 C 
ATOM     12  C   UNL     1       4.474  13.933   3.609  1.00  0.00    -0.024 C 
BRANCH  12  13
ATOM     13  C   UNL     1       3.170  13.219   3.988  1.00  0.00    -0.014 C 
ATOM     14  C   UNL     1       2.953  13.349   5.511  1.00  0.00     0.016 C 
ATOM     15  C   UNL     1       3.342  11.714   3.671  1.00  0.00     0.016 C 
BRANCH  13  16
ATOM     16  C   UNL     1       1.911  13.735   3.229  1.00  0.00     0.038 CG0
ATOM     17  G   UNL     1       1.740  13.132   1.853  1.00  0.00     0.000 G0
ENDBRANCH  13  16
ENDBRANCH  12  13
ENDBRANCH  10  11
ENDBRANCH   1  10
TORSDOF 0
ENDMDL
MODEL 6
REMARK VINA RESULT:    -3.843      2.292      5.544
REMARK INTER + INTRA:          -4.854
REMARK INTER:                  -5.970
REMARK INTRA:                   1.116
REMARK UNBOUND:                 0.787
REMARK SMILES C=C1CC=CC(C)(C)CC=C(C)CCC1
REMARK SMILES IDX 2 1 1 2 15 3 14 4 13 5 11 6 12 7 10 8 3 10 4 11 5 12 6 13
REMARK SMILES IDX 7 14 8 15 9 16
REMARK H PARENT
REMARK Flexibility Score: 60.00
ROOT
ATOM      1  C   UNL     1      -0.094  14.516   2.339  1.00  0.00    -0.074 C 
ATOM      2  C   UNL     1       0.219  14.552   1.029  1.00  0.00     0.008 C 
ENDROOT
BRANCH   1   3
ATOM      3  C   UNL     1       1.045  14.345   3.335  1.00  0.00     0.031 C 
BRANCH   3   4
ATOM      4  C   UNL     1       0.835  13.250   4.395  1.00  0.00     0.009 C 
BRANCH   4   5
ATOM      5  C   UNL     1       0.222  13.722   5.735  1.00  0.00     0.030 C 
BRANCH   5   6
ATOM      6  C   UNL     1      -1.173  13.198   6.052  1.00  0.00    -0.077 C 
ATOM      7  C   UNL     1      -1.350  11.726   6.332  1.00  0.00     0.039 C 
ATOM      8  C   UNL     1      -2.278  13.977   6.043  1.00  0.00    -0.027 CG0
ATOM      9  G   UNL     1      -2.283  15.455   5.726  1.00  0.00     0.000 G0
ENDBRANCH   5   6
ENDBRANCH   4   5
ENDBRANCH   3   4
ENDBRANCH   1   3
BRANCH   1  10
ATOM     10  C   UNL     1      -1.546  14.338   2.778  1.00  0.00     0.057 C 
BRANCH  10  11
ATOM     11  C   UNL     1      -2.400  15.564   2.528  1.00  0.00    -0.026 C 
ATOM     12  C   UNL     1      -3.162  16.251   3.410  1.00  0.00    -0.024 C 
BRANCH  12  13
ATOM     13  C   UNL     1      -3.519  15.903   4.862  1.00  0.00    -0.014 C 
ATOM     14  C   UNL     1      -4.600  14.800   4.861  1.00  0.00     0.016 C 
ATOM     15  C   UNL     1      -4.141  17.161   5.515  1.00  0.00     0.016 C 
BRANCH  13  16
ATOM     16  C   UNL     1      -2.307  15.454   5.732  1.00  0.00     0.038 CG0
ATOM     17  G   UNL     1      -2.293  13.973   6.038  1.00  0.00     0.000 G0
ENDBRANCH  13  16
ENDBRANCH  12  13
ENDBRANCH  10  11
ENDBRANCH   1  10
TORSDOF 0
ENDMDL
MODEL 7
REMARK VINA RESULT:    -3.730      1.640      3.701
REMARK INTER + INTRA:          -4.687
REMARK INTER:                  -5.326
REMARK INTRA:                   0.639
REMARK UNBOUND:                 0.787
REMARK SMILES C=C1CC=CC(C)(C)CC=C(C)CCC1
REMARK SMILES IDX 2 1 1 2 15 3 14 4 13 5 11 6 12 7 10 8 3 10 4 11 5 12 6 13
REMARK SMILES IDX 7 14 8 15 9 16
REMARK H PARENT
REMARK Flexibility Score: 60.00
ROOT
ATOM      1  C   UNL     1       3.236  14.453   2.731  1.00  0.00    -0.074 C 
ATOM      2  C   UNL     1       3.611  15.745   2.654  1.00  0.00     0.008 C 
ENDROOT
BRANCH   1   3
ATOM      3  C   UNL     1       2.418  13.884   1.579  1.00  0.00     0.031 C 
BRANCH   3   4
ATOM      4  C   UNL     1       1.446  14.872   0.912  1.00  0.00     0.009 C 
BRANCH   4   5
ATOM      5  C   UNL     1       0.334  15.442   1.825  1.00  0.00     0.030 C 
BRANCH   5   6
ATOM      6  C   UNL     1      -0.788  14.480   2.191  1.00  0.00    -0.077 C 
ATOM      7  C   UNL     1      -1.813  14.126   1.142  1.00  0.00     0.039 C 
ATOM      8  C   UNL     1      -0.948  13.963   3.430  1.00  0.00    -0.027 CG0
ATOM      9  G   UNL     1      -0.045  14.260   4.606  1.00  0.00     0.000 G0
ENDBRANCH   5   6
ENDBRANCH   4   5
ENDBRANCH   3   4
ENDBRANCH   1   3
BRANCH   1  10
ATOM     10  C   UNL     1       3.357  13.695   4.051  1.00  0.00     0.057 C 
BRANCH  10  11
ATOM     11  C   UNL     1       2.622  12.370   4.048  1.00  0.00    -0.026 C 
ATOM     12  C   UNL     1       1.390  12.091   4.532  1.00  0.00    -0.024 C 
BRANCH  12  13
ATOM     13  C   UNL     1       0.451  12.976   5.365  1.00  0.00    -0.014 C 
ATOM     14  C   UNL     1       1.170  13.375   6.673  1.00  0.00     0.016 C 
ATOM     15  C   UNL     1      -0.782  12.126   5.756  1.00  0.00     0.016 C 
BRANCH  13  16
ATOM     16  C   UNL     1      -0.051  14.252   4.628  1.00  0.00     0.038 CG0
ATOM     17  G   UNL     1      -0.938  13.960   3.439  1.00  0.00     0.000 G0
ENDBRANCH  13  16
ENDBRANCH  12  13
ENDBRANCH  10  11
ENDBRANCH   1  10
TORSDOF 0
ENDMDL
MODEL 8
REMARK VINA RESULT:    -3.672      1.595      4.219
REMARK INTER + INTRA:          -4.603
REMARK INTER:                  -5.494
REMARK INTRA:                   0.891
REMARK UNBOUND:                 0.787
REMARK SMILES C=C1CC=CC(C)(C)CC=C(C)CCC1
REMARK SMILES IDX 2 1 1 2 15 3 14 4 13 5 11 6 12 7 10 8 3 10 4 11 5 12 6 13
REMARK SMILES IDX 7 14 8 15 9 16
REMARK H PARENT
REMARK Flexibility Score: 60.00
ROOT
ATOM      1  C   UNL     1       1.054  13.369   5.391  1.00  0.00    -0.074 C 
ATOM      2  C   UNL     1       2.185  13.400   6.124  1.00  0.00     0.008 C 
ENDROOT
BRANCH   1   3
ATOM      3  C   UNL     1      -0.267  13.240   6.137  1.00  0.00     0.031 C 
BRANCH   3   4
ATOM      4  C   UNL     1      -1.296  14.348   5.849  1.00  0.00     0.009 C 
BRANCH   4   5
ATOM      5  C   UNL     1      -2.242  14.092   4.652  1.00  0.00     0.030 C 
BRANCH   5   6
ATOM      6  C   UNL     1      -2.409  15.248   3.675  1.00  0.00    -0.077 C 
ATOM      7  C   UNL     1      -3.227  16.444   4.096  1.00  0.00     0.039 C 
ATOM      8  C   UNL     1      -1.905  15.237   2.420  1.00  0.00    -0.027 CG0
ATOM      9  G   UNL     1      -1.114  14.095   1.823  1.00  0.00     0.000 G0
ENDBRANCH   5   6
ENDBRANCH   4   5
ENDBRANCH   3   4
ENDBRANCH   1   3
BRANCH   1  10
ATOM     10  C   UNL     1       1.122  13.155   3.881  1.00  0.00     0.057 C 
BRANCH  10  11
ATOM     11  C   UNL     1       1.779  14.304   3.144  1.00  0.00    -0.026 C 
ATOM     12  C   UNL     1       1.358  14.935   2.024  1.00  0.00    -0.024 C 
BRANCH  12  13
ATOM     13  C   UNL     1       0.199  14.574   1.084  1.00  0.00    -0.014 C 
ATOM     14  C   UNL     1       0.672  13.479   0.103  1.00  0.00     0.016 C 
ATOM     15  C   UNL     1      -0.144  15.829   0.247  1.00  0.00     0.016 C 
BRANCH  13  16
ATOM     16  C   UNL     1      -1.096  14.106   1.812  1.00  0.00     0.038 CG0
ATOM     17  G   UNL     1      -1.899  15.237   2.414  1.00  0.00     0.000 G0
ENDBRANCH  13  16
ENDBRANCH  12  13
ENDBRANCH  10  11
ENDBRANCH   1  10
TORSDOF 0
ENDMDL
MODEL 9
REMARK VINA RESULT:    -3.600      1.980      5.160
REMARK INTER + INTRA:          -4.497
REMARK INTER:                  -5.167
REMARK INTRA:                   0.670
REMARK UNBOUND:                 0.787
REMARK SMILES C=C1CC=CC(C)(C)CC=C(C)CCC1
REMARK SMILES IDX 2 1 1 2 15 3 14 4 13 5 11 6 12 7 10 8 3 10 4 11 5 12 6 13
REMARK SMILES IDX 7 14 8 15 9 16
REMARK H PARENT
REMARK Flexibility Score: 60.00
ROOT
ATOM      1  C   UNL     1       4.431  15.212   3.509  1.00  0.00    -0.074 C 
ATOM      2  C   UNL     1       5.407  16.008   3.988  1.00  0.00     0.008 C 
ENDROOT
BRANCH   1   3
ATOM      3  C   UNL     1       3.996  14.033   4.369  1.00  0.00     0.031 C 
BRANCH   3   4
ATOM      4  C   UNL     1       3.513  12.795   3.594  1.00  0.00     0.009 C 
BRANCH   4   5
ATOM      5  C   UNL     1       2.091  12.296   3.943  1.00  0.00     0.030 C 
BRANCH   5   6
ATOM      6  C   UNL     1       0.996  13.355   3.957  1.00  0.00    -0.077 C 
ATOM      7  C   UNL     1       0.333  13.698   5.269  1.00  0.00     0.039 C 
ATOM      8  C   UNL     1       0.545  13.971   2.841  1.00  0.00    -0.027 CG0
ATOM      9  G   UNL     1       1.059  13.701   1.446  1.00  0.00     0.000 G0
ENDBRANCH   5   6
ENDBRANCH   4   5
ENDBRANCH   3   4
ENDBRANCH   1   3
BRANCH   1  10
ATOM     10  C   UNL     1       4.009  15.307   2.045  1.00  0.00     0.057 C 
BRANCH  10  11
ATOM     11  C   UNL     1       2.949  16.360   1.796  1.00  0.00    -0.026 C 
ATOM     12  C   UNL     1       1.728  16.206   1.233  1.00  0.00    -0.024 C 
BRANCH  12  13
ATOM     13  C   UNL     1       1.127  14.977   0.537  1.00  0.00    -0.014 C 
ATOM     14  C   UNL     1       1.947  14.673  -0.737  1.00  0.00     0.016 C 
ATOM     15  C   UNL     1      -0.309  15.338   0.088  1.00  0.00     0.016 C 
BRANCH  13  16
ATOM     16  C   UNL     1       1.052  13.705   1.432  1.00  0.00     0.038 CG0
ATOM     17  G   UNL     1       0.548  13.974   2.832  1.00  0.00     0.000 G0
ENDBRANCH  13  16
ENDBRANCH  12  13
ENDBRANCH  10  11
ENDBRANCH   1  10
TORSDOF 0
ENDMDL
