MODEL 1
REMARK VINA RESULT:    -5.070      0.000      0.000
REMARK INTER + INTRA:         -13.819
REMARK INTER:                 -11.590
REMARK INTRA:                  -2.229
REMARK UNBOUND:                -2.229
REMARK SMILES CCCCCCCCCCCCCCCCCCCCCCCC(=O)[O-]
REMARK SMILES IDX 13 1 14 2 15 3 16 4 17 5 18 6 19 7 20 8 21 9 22 10 23 11
REMARK SMILES IDX 24 12 25 13 26 14 12 15 11 16 10 17 9 18 8 19 7 20 6 21 5 22
REMARK SMILES IDX 4 23 3 24 2 25 1 26
REMARK H PARENT
REMARK Flexibility Score: inf
ROOT
ATOM      1  C   UNL     1      49.483  61.021  93.749  1.00  0.00     0.000 C 
ENDROOT
BRANCH   1   2
ATOM      2  C   UNL     1      49.662  62.547  93.672  1.00  0.00     0.000 C 
BRANCH   2   3
ATOM      3  C   UNL     1      48.562  63.230  92.840  1.00  0.00     0.000 C 
BRANCH   3   4
ATOM      4  C   UNL     1      48.650  64.764  92.897  1.00  0.00     0.000 C 
BRANCH   4   5
ATOM      5  C   UNL     1      47.416  65.449  92.285  1.00  0.00     0.000 C 
BRANCH   5   6
ATOM      6  C   UNL     1      47.325  66.941  92.670  1.00  0.00     0.000 C 
BRANCH   6   7
ATOM      7  C   UNL     1      48.618  67.725  92.387  1.00  0.00     0.000 C 
BRANCH   7   8
ATOM      8  C   UNL     1      49.066  67.622  90.921  1.00  0.00     0.000 C 
BRANCH   8   9
ATOM      9  C   UNL     1      50.571  67.330  90.775  1.00  0.00     0.000 C 
BRANCH   9  10
ATOM     10  C   UNL     1      51.465  67.970  91.858  1.00  0.00     0.006 C 
BRANCH  10  11
ATOM     11  C   UNL     1      51.899  67.011  92.977  1.00  0.00     0.053 C 
BRANCH  11  12
ATOM     12  C   UNL     1      52.068  67.718  94.288  1.00  0.00     0.041 C 
ATOM     13  O   UNL     1      51.059  68.044  94.967  1.00  0.00    -0.550 OA
ATOM     14  O   UNL     1      53.341  67.994  94.770  1.00  0.00    -0.550 OA
ENDBRANCH  11  12
ENDBRANCH  10  11
ENDBRANCH   9  10
ENDBRANCH   8   9
ENDBRANCH   7   8
ENDBRANCH   6   7
ENDBRANCH   5   6
ENDBRANCH   4   5
ENDBRANCH   3   4
ENDBRANCH   2   3
ENDBRANCH   1   2
BRANCH   1  15
ATOM     15  C   UNL     1      49.778  60.406  95.131  1.00  0.00     0.000 C 
BRANCH  15  16
ATOM     16  C   UNL     1      49.356  58.926  95.257  1.00  0.00     0.000 C 
BRANCH  16  17
ATOM     17  C   UNL     1      50.136  58.015  94.292  1.00  0.00     0.000 C 
BRANCH  17  18
ATOM     18  C   UNL     1      51.424  57.456  94.919  1.00  0.00    -0.000 C 
BRANCH  18  19
ATOM     19  C   UNL     1      52.692  58.059  94.292  1.00  0.00    -0.000 C 
BRANCH  19  20
ATOM     20  C   UNL     1      52.402  58.838  92.999  1.00  0.00    -0.000 C 
BRANCH  20  21
ATOM     21  C   UNL     1      52.821  58.080  91.721  1.00  0.00    -0.000 C 
BRANCH  21  22
ATOM     22  C   UNL     1      51.722  57.123  91.226  1.00  0.00    -0.000 C 
BRANCH  22  23
ATOM     23  C   UNL     1      52.163  55.650  91.250  1.00  0.00    -0.000 C 
BRANCH  23  24
ATOM     24  C   UNL     1      51.567  54.872  92.431  1.00  0.00    -0.000 C 
BRANCH  24  25
ATOM     25  C   UNL     1      52.576  53.859  92.984  1.00  0.00    -0.003 C 
ATOM     26  C   UNL     1      53.481  54.498  94.032  1.00  0.00     0.004 C 
ENDBRANCH  24  25
ENDBRANCH  23  24
ENDBRANCH  22  23
ENDBRANCH  21  22
ENDBRANCH  20  21
ENDBRANCH  19  20
ENDBRANCH  18  19
ENDBRANCH  17  18
ENDBRANCH  16  17
ENDBRANCH  15  16
ENDBRANCH   1  15
TORSDOF 22
ENDMDL
MODEL 2
REMARK VINA RESULT:    -4.995      3.984     10.230
REMARK INTER + INTRA:         -13.648
REMARK INTER:                 -11.870
REMARK INTRA:                  -1.779
REMARK UNBOUND:                -2.229
REMARK SMILES CCCCCCCCCCCCCCCCCCCCCCCC(=O)[O-]
REMARK SMILES IDX 13 1 14 2 15 3 16 4 17 5 18 6 19 7 20 8 21 9 22 10 23 11
REMARK SMILES IDX 24 12 25 13 26 14 12 15 11 16 10 17 9 18 8 19 7 20 6 21 5 22
REMARK SMILES IDX 4 23 3 24 2 25 1 26
REMARK H PARENT
REMARK Flexibility Score: inf
ROOT
ATOM      1  C   UNL     1      48.843  62.268  93.026  1.00  0.00     0.000 C 
ENDROOT
BRANCH   1   2
ATOM      2  C   UNL     1      50.021  61.473  93.614  1.00  0.00     0.000 C 
BRANCH   2   3
ATOM      3  C   UNL     1      49.583  60.505  94.728  1.00  0.00     0.000 C 
BRANCH   3   4
ATOM      4  C   UNL     1      49.955  59.046  94.417  1.00  0.00     0.000 C 
BRANCH   4   5
ATOM      5  C   UNL     1      49.766  58.692  92.932  1.00  0.00     0.000 C 
BRANCH   5   6
ATOM      6  C   UNL     1      50.351  57.308  92.582  1.00  0.00     0.000 C 
BRANCH   6   7
ATOM      7  C   UNL     1      51.780  57.374  92.015  1.00  0.00     0.000 C 
BRANCH   7   8
ATOM      8  C   UNL     1      52.727  58.215  92.885  1.00  0.00     0.000 C 
BRANCH   8   9
ATOM      9  C   UNL     1      53.511  57.369  93.905  1.00  0.00     0.000 C 
BRANCH   9  10
ATOM     10  C   UNL     1      52.705  56.941  95.150  1.00  0.00     0.006 C 
BRANCH  10  11
ATOM     11  C   UNL     1      52.679  55.426  95.405  1.00  0.00     0.053 C 
BRANCH  11  12
ATOM     12  C   UNL     1      53.155  54.648  94.216  1.00  0.00     0.041 C 
ATOM     13  O   UNL     1      54.354  54.268  94.145  1.00  0.00    -0.550 OA
ATOM     14  O   UNL     1      52.269  54.322  93.197  1.00  0.00    -0.550 OA
ENDBRANCH  11  12
ENDBRANCH  10  11
ENDBRANCH   9  10
ENDBRANCH   8   9
ENDBRANCH   7   8
ENDBRANCH   6   7
ENDBRANCH   5   6
ENDBRANCH   4   5
ENDBRANCH   3   4
ENDBRANCH   2   3
ENDBRANCH   1   2
BRANCH   1  15
ATOM     15  C   UNL     1      48.868  63.779  93.331  1.00  0.00     0.000 C 
BRANCH  15  16
ATOM     16  C   UNL     1      48.147  64.640  92.272  1.00  0.00     0.000 C 
BRANCH  16  17
ATOM     17  C   UNL     1      47.538  65.918  92.876  1.00  0.00     0.000 C 
BRANCH  17  18
ATOM     18  C   UNL     1      47.250  66.992  91.816  1.00  0.00    -0.000 C 
BRANCH  18  19
ATOM     19  C   UNL     1      48.246  66.946  90.645  1.00  0.00    -0.000 C 
BRANCH  19  20
ATOM     20  C   UNL     1      49.449  67.881  90.853  1.00  0.00    -0.000 C 
BRANCH  20  21
ATOM     21  C   UNL     1      50.807  67.148  90.809  1.00  0.00    -0.000 C 
BRANCH  21  22
ATOM     22  C   UNL     1      51.254  66.668  92.201  1.00  0.00    -0.000 C 
BRANCH  22  23
ATOM     23  C   UNL     1      52.035  67.741  92.976  1.00  0.00    -0.000 C 
BRANCH  23  24
ATOM     24  C   UNL     1      52.135  67.435  94.477  1.00  0.00    -0.000 C 
BRANCH  24  25
ATOM     25  C   UNL     1      51.007  68.125  95.253  1.00  0.00    -0.003 C 
ATOM     26  C   UNL     1      49.741  67.275  95.258  1.00  0.00     0.004 C 
ENDBRANCH  24  25
ENDBRANCH  23  24
ENDBRANCH  22  23
ENDBRANCH  21  22
ENDBRANCH  20  21
ENDBRANCH  19  20
ENDBRANCH  18  19
ENDBRANCH  17  18
ENDBRANCH  16  17
ENDBRANCH  15  16
ENDBRANCH   1  15
TORSDOF 22
ENDMDL
MODEL 3
REMARK VINA RESULT:    -4.887      3.489      9.791
REMARK INTER + INTRA:         -13.401
REMARK INTER:                 -10.869
REMARK INTRA:                  -2.532
REMARK UNBOUND:                -2.229
REMARK SMILES CCCCCCCCCCCCCCCCCCCCCCCC(=O)[O-]
REMARK SMILES IDX 13 1 14 2 15 3 16 4 17 5 18 6 19 7 20 8 21 9 22 10 23 11
REMARK SMILES IDX 24 12 25 13 26 14 12 15 11 16 10 17 9 18 8 19 7 20 6 21 5 22
REMARK SMILES IDX 4 23 3 24 2 25 1 26
REMARK H PARENT
REMARK Flexibility Score: inf
ROOT
ATOM      1  C   UNL     1      49.229  64.596  93.440  1.00  0.00     0.000 C 
ENDROOT
BRANCH   1   2
ATOM      2  C   UNL     1      48.317  63.668  92.620  1.00  0.00     0.000 C 
BRANCH   2   3
ATOM      3  C   UNL     1      48.583  62.178  92.901  1.00  0.00     0.000 C 
BRANCH   3   4
ATOM      4  C   UNL     1      49.882  61.952  93.690  1.00  0.00     0.000 C 
BRANCH   4   5
ATOM      5  C   UNL     1      49.629  61.363  95.089  1.00  0.00     0.000 C 
BRANCH   5   6
ATOM      6  C   UNL     1      49.270  59.863  95.034  1.00  0.00     0.000 C 
BRANCH   6   7
ATOM      7  C   UNL     1      50.245  59.032  94.182  1.00  0.00     0.000 C 
BRANCH   7   8
ATOM      8  C   UNL     1      50.428  57.602  94.712  1.00  0.00     0.000 C 
BRANCH   8   9
ATOM      9  C   UNL     1      51.890  57.280  95.072  1.00  0.00     0.000 C 
BRANCH   9  10
ATOM     10  C   UNL     1      52.723  56.673  93.924  1.00  0.00     0.006 C 
BRANCH  10  11
ATOM     11  C   UNL     1      51.894  56.013  92.811  1.00  0.00     0.053 C 
BRANCH  11  12
ATOM     12  C   UNL     1      52.121  56.664  91.480  1.00  0.00     0.041 C 
ATOM     13  O   UNL     1      52.039  55.987  90.422  1.00  0.00    -0.550 OA
ATOM     14  O   UNL     1      52.401  58.022  91.409  1.00  0.00    -0.550 OA
ENDBRANCH  11  12
ENDBRANCH  10  11
ENDBRANCH   9  10
ENDBRANCH   8   9
ENDBRANCH   7   8
ENDBRANCH   6   7
ENDBRANCH   5   6
ENDBRANCH   4   5
ENDBRANCH   3   4
ENDBRANCH   2   3
ENDBRANCH   1   2
BRANCH   1  15
ATOM     15  C   UNL     1      48.571  65.917  93.886  1.00  0.00     0.000 C 
BRANCH  15  16
ATOM     16  C   UNL     1      49.350  66.658  94.994  1.00  0.00     0.000 C 
BRANCH  16  17
ATOM     17  C   UNL     1      50.022  67.942  94.475  1.00  0.00     0.000 C 
BRANCH  17  18
ATOM     18  C   UNL     1      51.548  67.803  94.354  1.00  0.00    -0.000 C 
BRANCH  18  19
ATOM     19  C   UNL     1      51.980  67.231  92.994  1.00  0.00    -0.000 C 
BRANCH  19  20
ATOM     20  C   UNL     1      51.396  68.015  91.808  1.00  0.00    -0.000 C 
BRANCH  20  21
ATOM     21  C   UNL     1      50.491  67.159  90.895  1.00  0.00    -0.000 C 
BRANCH  21  22
ATOM     22  C   UNL     1      49.086  67.766  90.736  1.00  0.00    -0.000 C 
BRANCH  22  23
ATOM     23  C   UNL     1      47.985  66.696  90.648  1.00  0.00    -0.000 C 
BRANCH  23  24
ATOM     24  C   UNL     1      46.616  67.213  91.115  1.00  0.00    -0.000 C 
BRANCH  24  25
ATOM     25  C   UNL     1      45.563  66.101  91.058  1.00  0.00    -0.003 C 
ATOM     26  C   UNL     1      45.315  65.505  92.440  1.00  0.00     0.004 C 
ENDBRANCH  24  25
ENDBRANCH  23  24
ENDBRANCH  22  23
ENDBRANCH  21  22
ENDBRANCH  20  21
ENDBRANCH  19  20
ENDBRANCH  18  19
ENDBRANCH  17  18
ENDBRANCH  16  17
ENDBRANCH  15  16
ENDBRANCH   1  15
TORSDOF 22
ENDMDL
MODEL 4
REMARK VINA RESULT:    -4.879      1.277      2.713
REMARK INTER + INTRA:         -13.383
REMARK INTER:                 -11.506
REMARK INTRA:                  -1.877
REMARK UNBOUND:                -2.229
REMARK SMILES CCCCCCCCCCCCCCCCCCCCCCCC(=O)[O-]
REMARK SMILES IDX 13 1 14 2 15 3 16 4 17 5 18 6 19 7 20 8 21 9 22 10 23 11
REMARK SMILES IDX 24 12 25 13 26 14 12 15 11 16 10 17 9 18 8 19 7 20 6 21 5 22
REMARK SMILES IDX 4 23 3 24 2 25 1 26
REMARK H PARENT
REMARK Flexibility Score: inf
ROOT
ATOM      1  C   UNL     1      49.754  60.453  94.896  1.00  0.00     0.000 C 
ENDROOT
BRANCH   1   2
ATOM      2  C   UNL     1      49.770  60.770  93.391  1.00  0.00     0.000 C 
BRANCH   2   3
ATOM      3  C   UNL     1      48.634  61.722  92.975  1.00  0.00     0.000 C 
BRANCH   3   4
ATOM      4  C   UNL     1      49.004  63.200  93.173  1.00  0.00     0.000 C 
BRANCH   4   5
ATOM      5  C   UNL     1      47.961  64.156  92.570  1.00  0.00     0.000 C 
BRANCH   5   6
ATOM      6  C   UNL     1      48.439  65.623  92.578  1.00  0.00     0.000 C 
BRANCH   6   7
ATOM      7  C   UNL     1      47.354  66.618  93.027  1.00  0.00     0.000 C 
BRANCH   7   8
ATOM      8  C   UNL     1      47.927  67.808  93.811  1.00  0.00     0.000 C 
BRANCH   8   9
ATOM      9  C   UNL     1      48.589  67.389  95.136  1.00  0.00     0.000 C 
BRANCH   9  10
ATOM     10  C   UNL     1      50.076  67.779  95.272  1.00  0.00     0.006 C 
BRANCH  10  11
ATOM     11  C   UNL     1      50.775  68.105  93.943  1.00  0.00     0.053 C 
BRANCH  11  12
ATOM     12  C   UNL     1      52.257  67.897  94.023  1.00  0.00     0.041 C 
ATOM     13  O   UNL     1      52.940  67.790  92.970  1.00  0.00    -0.550 OA
ATOM     14  O   UNL     1      52.887  67.845  95.260  1.00  0.00    -0.550 OA
ENDBRANCH  11  12
ENDBRANCH  10  11
ENDBRANCH   9  10
ENDBRANCH   8   9
ENDBRANCH   7   8
ENDBRANCH   6   7
ENDBRANCH   5   6
ENDBRANCH   4   5
ENDBRANCH   3   4
ENDBRANCH   2   3
ENDBRANCH   1   2
BRANCH   1  15
ATOM     15  C   UNL     1      49.556  58.963  95.239  1.00  0.00     0.000 C 
BRANCH  15  16
ATOM     16  C   UNL     1      50.562  58.024  94.539  1.00  0.00     0.000 C 
BRANCH  16  17
ATOM     17  C   UNL     1      51.560  57.398  95.529  1.00  0.00     0.000 C 
BRANCH  17  18
ATOM     18  C   UNL     1      52.767  56.758  94.825  1.00  0.00    -0.000 C 
BRANCH  18  19
ATOM     19  C   UNL     1      52.778  55.225  94.953  1.00  0.00    -0.000 C 
BRANCH  19  20
ATOM     20  C   UNL     1      52.908  54.518  93.593  1.00  0.00    -0.000 C 
BRANCH  20  21
ATOM     21  C   UNL     1      51.709  54.772  92.655  1.00  0.00    -0.000 C 
BRANCH  21  22
ATOM     22  C   UNL     1      52.112  54.722  91.170  1.00  0.00    -0.000 C 
BRANCH  22  23
ATOM     23  C   UNL     1      52.060  56.101  90.494  1.00  0.00    -0.000 C 
BRANCH  23  24
ATOM     24  C   UNL     1      51.781  57.239  91.488  1.00  0.00    -0.000 C 
BRANCH  24  25
ATOM     25  C   UNL     1      53.053  58.049  91.763  1.00  0.00    -0.003 C 
ATOM     26  C   UNL     1      52.753  59.543  91.819  1.00  0.00     0.004 C 
ENDBRANCH  24  25
ENDBRANCH  23  24
ENDBRANCH  22  23
ENDBRANCH  21  22
ENDBRANCH  20  21
ENDBRANCH  19  20
ENDBRANCH  18  19
ENDBRANCH  17  18
ENDBRANCH  16  17
ENDBRANCH  15  16
ENDBRANCH   1  15
TORSDOF 22
ENDMDL
MODEL 5
REMARK VINA RESULT:    -4.860      4.127     10.301
REMARK INTER + INTRA:         -13.340
REMARK INTER:                 -11.246
REMARK INTRA:                  -2.094
REMARK UNBOUND:                -2.229
REMARK SMILES CCCCCCCCCCCCCCCCCCCCCCCC(=O)[O-]
REMARK SMILES IDX 13 1 14 2 15 3 16 4 17 5 18 6 19 7 20 8 21 9 22 10 23 11
REMARK SMILES IDX 24 12 25 13 26 14 12 15 11 16 10 17 9 18 8 19 7 20 6 21 5 22
REMARK SMILES IDX 4 23 3 24 2 25 1 26
REMARK H PARENT
REMARK Flexibility Score: inf
ROOT
ATOM      1  C   UNL     1      49.941  61.320  94.130  1.00  0.00     0.000 C 
ENDROOT
BRANCH   1   2
ATOM      2  C   UNL     1      49.021  60.144  94.498  1.00  0.00     0.000 C 
BRANCH   2   3
ATOM      3  C   UNL     1      49.720  59.102  95.390  1.00  0.00     0.000 C 
BRANCH   3   4
ATOM      4  C   UNL     1      50.459  58.031  94.572  1.00  0.00     0.000 C 
BRANCH   4   5
ATOM      5  C   UNL     1      51.746  57.546  95.262  1.00  0.00     0.000 C 
BRANCH   5   6
ATOM      6  C   UNL     1      52.941  57.477  94.288  1.00  0.00     0.000 C 
BRANCH   6   7
ATOM      7  C   UNL     1      53.113  58.750  93.441  1.00  0.00     0.000 C 
BRANCH   7   8
ATOM      8  C   UNL     1      53.060  58.472  91.931  1.00  0.00     0.000 C 
BRANCH   8   9
ATOM      9  C   UNL     1      51.799  57.697  91.509  1.00  0.00     0.000 C 
BRANCH   9  10
ATOM     10  C   UNL     1      52.029  56.205  91.190  1.00  0.00     0.006 C 
BRANCH  10  11
ATOM     11  C   UNL     1      51.330  55.230  92.151  1.00  0.00     0.053 C 
BRANCH  11  12
ATOM     12  C   UNL     1      52.184  54.038  92.461  1.00  0.00     0.041 C 
ATOM     13  O   UNL     1      52.020  52.959  91.833  1.00  0.00    -0.550 OA
ATOM     14  O   UNL     1      53.177  54.127  93.429  1.00  0.00    -0.550 OA
ENDBRANCH  11  12
ENDBRANCH  10  11
ENDBRANCH   9  10
ENDBRANCH   8   9
ENDBRANCH   7   8
ENDBRANCH   6   7
ENDBRANCH   5   6
ENDBRANCH   4   5
ENDBRANCH   3   4
ENDBRANCH   2   3
ENDBRANCH   1   2
BRANCH   1  15
ATOM     15  C   UNL     1      49.372  62.274  93.061  1.00  0.00     0.000 C 
BRANCH  15  16
ATOM     16  C   UNL     1      49.147  63.714  93.570  1.00  0.00     0.000 C 
BRANCH  16  17
ATOM     17  C   UNL     1      48.479  64.608  92.510  1.00  0.00     0.000 C 
BRANCH  17  18
ATOM     18  C   UNL     1      47.932  65.917  93.102  1.00  0.00    -0.000 C 
BRANCH  18  19
ATOM     19  C   UNL     1      47.242  66.797  92.047  1.00  0.00    -0.000 C 
BRANCH  19  20
ATOM     20  C   UNL     1      47.973  66.786  90.695  1.00  0.00    -0.000 C 
BRANCH  20  21
ATOM     21  C   UNL     1      49.077  67.860  90.588  1.00  0.00    -0.000 C 
BRANCH  21  22
ATOM     22  C   UNL     1      50.489  67.248  90.623  1.00  0.00    -0.000 C 
BRANCH  22  23
ATOM     23  C   UNL     1      51.371  67.854  91.726  1.00  0.00    -0.000 C 
BRANCH  23  24
ATOM     24  C   UNL     1      51.440  66.974  92.982  1.00  0.00    -0.000 C 
BRANCH  24  25
ATOM     25  C   UNL     1      51.157  67.796  94.244  1.00  0.00    -0.003 C 
ATOM     26  C   UNL     1      52.413  67.948  95.096  1.00  0.00     0.004 C 
ENDBRANCH  24  25
ENDBRANCH  23  24
ENDBRANCH  22  23
ENDBRANCH  21  22
ENDBRANCH  20  21
ENDBRANCH  19  20
ENDBRANCH  18  19
ENDBRANCH  17  18
ENDBRANCH  16  17
ENDBRANCH  15  16
ENDBRANCH   1  15
TORSDOF 22
ENDMDL
MODEL 6
REMARK VINA RESULT:    -4.832      1.235      2.731
REMARK INTER + INTRA:         -13.276
REMARK INTER:                 -10.977
REMARK INTRA:                  -2.299
REMARK UNBOUND:                -2.229
REMARK SMILES CCCCCCCCCCCCCCCCCCCCCCCC(=O)[O-]
REMARK SMILES IDX 13 1 14 2 15 3 16 4 17 5 18 6 19 7 20 8 21 9 22 10 23 11
REMARK SMILES IDX 24 12 25 13 26 14 12 15 11 16 10 17 9 18 8 19 7 20 6 21 5 22
REMARK SMILES IDX 4 23 3 24 2 25 1 26
REMARK H PARENT
REMARK Flexibility Score: inf
ROOT
ATOM      1  C   UNL     1      48.018  62.803  92.968  1.00  0.00     0.000 C 
ENDROOT
BRANCH   1   2
ATOM      2  C   UNL     1      48.897  64.027  92.655  1.00  0.00     0.000 C 
BRANCH   2   3
ATOM      3  C   UNL     1      48.711  65.164  93.674  1.00  0.00     0.000 C 
BRANCH   3   4
ATOM      4  C   UNL     1      47.848  66.311  93.124  1.00  0.00     0.000 C 
BRANCH   4   5
ATOM      5  C   UNL     1      47.193  65.962  91.777  1.00  0.00     0.000 C 
BRANCH   5   6
ATOM      6  C   UNL     1      47.435  67.051  90.710  1.00  0.00     0.000 C 
BRANCH   6   7
ATOM      7  C   UNL     1      48.595  68.000  91.058  1.00  0.00     0.000 C 
BRANCH   7   8
ATOM      8  C   UNL     1      49.907  67.617  90.355  1.00  0.00     0.000 C 
BRANCH   8   9
ATOM      9  C   UNL     1      50.905  66.914  91.293  1.00  0.00     0.000 C 
BRANCH   9  10
ATOM     10  C   UNL     1      51.733  67.861  92.187  1.00  0.00     0.006 C 
BRANCH  10  11
ATOM     11  C   UNL     1      51.187  68.033  93.613  1.00  0.00     0.053 C 
BRANCH  11  12
ATOM     12  C   UNL     1      52.236  67.772  94.652  1.00  0.00     0.041 C 
ATOM     13  O   UNL     1      53.419  67.513  94.307  1.00  0.00    -0.550 OA
ATOM     14  O   UNL     1      51.910  67.837  96.001  1.00  0.00    -0.550 OA
ENDBRANCH  11  12
ENDBRANCH  10  11
ENDBRANCH   9  10
ENDBRANCH   8   9
ENDBRANCH   7   8
ENDBRANCH   6   7
ENDBRANCH   5   6
ENDBRANCH   4   5
ENDBRANCH   3   4
ENDBRANCH   2   3
ENDBRANCH   1   2
BRANCH   1  15
ATOM     15  C   UNL     1      48.650  61.445  92.603  1.00  0.00     0.000 C 
BRANCH  15  16
ATOM     16  C   UNL     1      49.828  61.043  93.515  1.00  0.00     0.000 C 
BRANCH  16  17
ATOM     17  C   UNL     1      49.375  60.738  94.954  1.00  0.00     0.000 C 
BRANCH  17  18
ATOM     18  C   UNL     1      49.499  59.248  95.309  1.00  0.00    -0.000 C 
BRANCH  18  19
ATOM     19  C   UNL     1      50.335  58.466  94.283  1.00  0.00    -0.000 C 
BRANCH  19  20
ATOM     20  C   UNL     1      51.477  57.667  94.933  1.00  0.00    -0.000 C 
BRANCH  20  21
ATOM     21  C   UNL     1      52.240  56.769  93.935  1.00  0.00    -0.000 C 
BRANCH  21  22
ATOM     22  C   UNL     1      51.519  56.664  92.579  1.00  0.00    -0.000 C 
BRANCH  22  23
ATOM     23  C   UNL     1      52.159  57.549  91.497  1.00  0.00    -0.000 C 
BRANCH  23  24
ATOM     24  C   UNL     1      53.288  58.434  92.046  1.00  0.00    -0.000 C 
BRANCH  24  25
ATOM     25  C   UNL     1      53.505  59.661  91.154  1.00  0.00    -0.003 C 
ATOM     26  C   UNL     1      52.873  60.907  91.767  1.00  0.00     0.004 C 
ENDBRANCH  24  25
ENDBRANCH  23  24
ENDBRANCH  22  23
ENDBRANCH  21  22
ENDBRANCH  20  21
ENDBRANCH  19  20
ENDBRANCH  18  19
ENDBRANCH  17  18
ENDBRANCH  16  17
ENDBRANCH  15  16
ENDBRANCH   1  15
TORSDOF 22
ENDMDL
MODEL 7
REMARK VINA RESULT:    -4.820      3.867     10.209
REMARK INTER + INTRA:         -13.248
REMARK INTER:                 -11.349
REMARK INTRA:                  -1.899
REMARK UNBOUND:                -2.229
REMARK SMILES CCCCCCCCCCCCCCCCCCCCCCCC(=O)[O-]
REMARK SMILES IDX 13 1 14 2 15 3 16 4 17 5 18 6 19 7 20 8 21 9 22 10 23 11
REMARK SMILES IDX 24 12 25 13 26 14 12 15 11 16 10 17 9 18 8 19 7 20 6 21 5 22
REMARK SMILES IDX 4 23 3 24 2 25 1 26
REMARK H PARENT
REMARK Flexibility Score: inf
ROOT
ATOM      1  C   UNL     1      48.996  63.906  93.423  1.00  0.00     0.000 C 
ENDROOT
BRANCH   1   2
ATOM      2  C   UNL     1      49.592  62.544  93.028  1.00  0.00     0.000 C 
BRANCH   2   3
ATOM      3  C   UNL     1      48.954  61.374  93.797  1.00  0.00     0.000 C 
BRANCH   3   4
ATOM      4  C   UNL     1      49.954  60.668  94.727  1.00  0.00     0.000 C 
BRANCH   4   5
ATOM      5  C   UNL     1      49.436  59.309  95.229  1.00  0.00     0.000 C 
BRANCH   5   6
ATOM      6  C   UNL     1      50.228  58.126  94.634  1.00  0.00     0.000 C 
BRANCH   6   7
ATOM      7  C   UNL     1      50.384  58.204  93.105  1.00  0.00     0.000 C 
BRANCH   7   8
ATOM      8  C   UNL     1      51.850  58.114  92.653  1.00  0.00     0.000 C 
BRANCH   8   9
ATOM      9  C   UNL     1      52.181  56.780  91.959  1.00  0.00     0.000 C 
BRANCH   9  10
ATOM     10  C   UNL     1      51.422  55.555  92.511  1.00  0.00     0.006 C 
BRANCH  10  11
ATOM     11  C   UNL     1      52.319  54.366  92.892  1.00  0.00     0.053 C 
BRANCH  11  12
ATOM     12  C   UNL     1      53.125  54.642  94.124  1.00  0.00     0.041 C 
ATOM     13  O   UNL     1      52.606  55.245  95.100  1.00  0.00    -0.550 OA
ATOM     14  O   UNL     1      54.444  54.213  94.203  1.00  0.00    -0.550 OA
ENDBRANCH  11  12
ENDBRANCH  10  11
ENDBRANCH   9  10
ENDBRANCH   8   9
ENDBRANCH   7   8
ENDBRANCH   6   7
ENDBRANCH   5   6
ENDBRANCH   4   5
ENDBRANCH   3   4
ENDBRANCH   2   3
ENDBRANCH   1   2
BRANCH   1  15
ATOM     15  C   UNL     1      47.962  64.470  92.429  1.00  0.00     0.000 C 
BRANCH  15  16
ATOM     16  C   UNL     1      47.524  65.917  92.742  1.00  0.00     0.000 C 
BRANCH  16  17
ATOM     17  C   UNL     1      47.048  66.666  91.484  1.00  0.00     0.000 C 
BRANCH  17  18
ATOM     18  C   UNL     1      48.171  66.863  90.454  1.00  0.00    -0.000 C 
BRANCH  18  19
ATOM     19  C   UNL     1      49.236  67.865  90.929  1.00  0.00    -0.000 C 
BRANCH  19  20
ATOM     20  C   UNL     1      50.667  67.318  90.797  1.00  0.00    -0.000 C 
BRANCH  20  21
ATOM     21  C   UNL     1      51.265  66.841  92.139  1.00  0.00    -0.000 C 
BRANCH  21  22
ATOM     22  C   UNL     1      50.770  67.683  93.328  1.00  0.00    -0.000 C 
BRANCH  22  23
ATOM     23  C   UNL     1      51.837  67.850  94.421  1.00  0.00    -0.000 C 
BRANCH  23  24
ATOM     24  C   UNL     1      53.198  67.265  94.017  1.00  0.00    -0.000 C 
BRANCH  24  25
ATOM     25  C   UNL     1      54.339  67.965  94.763  1.00  0.00    -0.003 C 
ATOM     26  C   UNL     1      55.580  67.080  94.830  1.00  0.00     0.004 C 
ENDBRANCH  24  25
ENDBRANCH  23  24
ENDBRANCH  22  23
ENDBRANCH  21  22
ENDBRANCH  20  21
ENDBRANCH  19  20
ENDBRANCH  18  19
ENDBRANCH  17  18
ENDBRANCH  16  17
ENDBRANCH  15  16
ENDBRANCH   1  15
TORSDOF 22
ENDMDL
MODEL 8
REMARK VINA RESULT:    -4.804      4.133     10.030
REMARK INTER + INTRA:         -13.211
REMARK INTER:                 -10.820
REMARK INTRA:                  -2.391
REMARK UNBOUND:                -2.229
REMARK SMILES CCCCCCCCCCCCCCCCCCCCCCCC(=O)[O-]
REMARK SMILES IDX 13 1 14 2 15 3 16 4 17 5 18 6 19 7 20 8 21 9 22 10 23 11
REMARK SMILES IDX 24 12 25 13 26 14 12 15 11 16 10 17 9 18 8 19 7 20 6 21 5 22
REMARK SMILES IDX 4 23 3 24 2 25 1 26
REMARK H PARENT
REMARK Flexibility Score: inf
ROOT
ATOM      1  C   UNL     1      49.280  64.793  93.735  1.00  0.00     0.000 C 
ENDROOT
BRANCH   1   2
ATOM      2  C   UNL     1      48.577  63.990  92.627  1.00  0.00     0.000 C 
BRANCH   2   3
ATOM      3  C   UNL     1      48.305  62.531  93.036  1.00  0.00     0.000 C 
BRANCH   3   4
ATOM      4  C   UNL     1      49.598  61.748  93.311  1.00  0.00     0.000 C 
BRANCH   4   5
ATOM      5  C   UNL     1      49.719  61.304  94.779  1.00  0.00     0.000 C 
BRANCH   5   6
ATOM      6  C   UNL     1      49.324  59.825  94.977  1.00  0.00     0.000 C 
BRANCH   6   7
ATOM      7  C   UNL     1      50.416  58.837  94.532  1.00  0.00     0.000 C 
BRANCH   7   8
ATOM      8  C   UNL     1      50.099  58.170  93.184  1.00  0.00     0.000 C 
BRANCH   8   9
ATOM      9  C   UNL     1      51.326  58.081  92.258  1.00  0.00     0.000 C 
BRANCH   9  10
ATOM     10  C   UNL     1      51.965  56.680  92.158  1.00  0.00     0.006 C 
BRANCH  10  11
ATOM     11  C   UNL     1      52.475  56.113  93.492  1.00  0.00     0.053 C 
BRANCH  11  12
ATOM     12  C   UNL     1      52.732  54.639  93.414  1.00  0.00     0.041 C 
ATOM     13  O   UNL     1      53.637  54.115  94.116  1.00  0.00    -0.550 OA
ATOM     14  O   UNL     1      51.957  53.841  92.582  1.00  0.00    -0.550 OA
ENDBRANCH  11  12
ENDBRANCH  10  11
ENDBRANCH   9  10
ENDBRANCH   8   9
ENDBRANCH   7   8
ENDBRANCH   6   7
ENDBRANCH   5   6
ENDBRANCH   4   5
ENDBRANCH   3   4
ENDBRANCH   2   3
ENDBRANCH   1   2
BRANCH   1  15
ATOM     15  C   UNL     1      48.601  66.130  94.092  1.00  0.00     0.000 C 
BRANCH  15  16
ATOM     16  C   UNL     1      49.287  66.887  95.249  1.00  0.00     0.000 C 
BRANCH  16  17
ATOM     17  C   UNL     1      50.062  68.123  94.759  1.00  0.00     0.000 C 
BRANCH  17  18
ATOM     18  C   UNL     1      51.580  67.888  94.714  1.00  0.00    -0.000 C 
BRANCH  18  19
ATOM     19  C   UNL     1      52.029  67.186  93.422  1.00  0.00    -0.000 C 
BRANCH  19  20
ATOM     20  C   UNL     1      51.607  67.948  92.155  1.00  0.00    -0.000 C 
BRANCH  20  21
ATOM     21  C   UNL     1      50.730  67.109  91.201  1.00  0.00    -0.000 C 
BRANCH  21  22
ATOM     22  C   UNL     1      49.497  67.888  90.709  1.00  0.00    -0.000 C 
BRANCH  22  23
ATOM     23  C   UNL     1      48.289  66.977  90.437  1.00  0.00    -0.000 C 
BRANCH  23  24
ATOM     24  C   UNL     1      47.151  67.182  91.448  1.00  0.00    -0.000 C 
BRANCH  24  25
ATOM     25  C   UNL     1      45.994  66.215  91.174  1.00  0.00    -0.003 C 
ATOM     26  C   UNL     1      45.285  65.824  92.466  1.00  0.00     0.004 C 
ENDBRANCH  24  25
ENDBRANCH  23  24
ENDBRANCH  22  23
ENDBRANCH  21  22
ENDBRANCH  20  21
ENDBRANCH  19  20
ENDBRANCH  18  19
ENDBRANCH  17  18
ENDBRANCH  16  17
ENDBRANCH  15  16
ENDBRANCH   1  15
TORSDOF 22
ENDMDL
MODEL 9
REMARK VINA RESULT:    -4.793      2.174      9.147
REMARK INTER + INTRA:         -13.185
REMARK INTER:                 -11.032
REMARK INTRA:                  -2.153
REMARK UNBOUND:                -2.229
REMARK SMILES CCCCCCCCCCCCCCCCCCCCCCCC(=O)[O-]
REMARK SMILES IDX 13 1 14 2 15 3 16 4 17 5 18 6 19 7 20 8 21 9 22 10 23 11
REMARK SMILES IDX 24 12 25 13 26 14 12 15 11 16 10 17 9 18 8 19 7 20 6 21 5 22
REMARK SMILES IDX 4 23 3 24 2 25 1 26
REMARK H PARENT
REMARK Flexibility Score: inf
ROOT
ATOM      1  C   UNL     1      49.058  62.345  93.254  1.00  0.00     0.000 C 
ENDROOT
BRANCH   1   2
ATOM      2  C   UNL     1      49.022  61.744  94.669  1.00  0.00     0.000 C 
BRANCH   2   3
ATOM      3  C   UNL     1      49.995  60.563  94.835  1.00  0.00     0.000 C 
BRANCH   3   4
ATOM      4  C   UNL     1      49.265  59.224  95.027  1.00  0.00     0.000 C 
BRANCH   4   5
ATOM      5  C   UNL     1      50.168  58.012  94.738  1.00  0.00     0.000 C 
BRANCH   5   6
ATOM      6  C   UNL     1      49.959  57.455  93.314  1.00  0.00     0.000 C 
BRANCH   6   7
ATOM      7  C   UNL     1      51.227  56.824  92.713  1.00  0.00     0.000 C 
BRANCH   7   8
ATOM      8  C   UNL     1      52.491  57.140  93.527  1.00  0.00     0.000 C 
BRANCH   8   9
ATOM      9  C   UNL     1      53.611  57.763  92.674  1.00  0.00     0.000 C 
BRANCH   9  10
ATOM     10  C   UNL     1      53.198  59.015  91.873  1.00  0.00     0.006 C 
BRANCH  10  11
ATOM     11  C   UNL     1      52.437  60.074  92.688  1.00  0.00     0.053 C 
BRANCH  11  12
ATOM     12  C   UNL     1      52.899  61.464  92.372  1.00  0.00     0.041 C 
ATOM     13  O   UNL     1      53.262  61.761  91.204  1.00  0.00    -0.550 OA
ATOM     14  O   UNL     1      52.904  62.437  93.363  1.00  0.00    -0.550 OA
ENDBRANCH  11  12
ENDBRANCH  10  11
ENDBRANCH   9  10
ENDBRANCH   8   9
ENDBRANCH   7   8
ENDBRANCH   6   7
ENDBRANCH   5   6
ENDBRANCH   4   5
ENDBRANCH   3   4
ENDBRANCH   2   3
ENDBRANCH   1   2
BRANCH   1  15
ATOM     15  C   UNL     1      48.997  63.885  93.205  1.00  0.00     0.000 C 
BRANCH  15  16
ATOM     16  C   UNL     1      47.812  64.435  92.383  1.00  0.00     0.000 C 
BRANCH  16  17
ATOM     17  C   UNL     1      47.684  65.964  92.497  1.00  0.00     0.000 C 
BRANCH  17  18
ATOM     18  C   UNL     1      47.240  66.619  91.179  1.00  0.00    -0.000 C 
BRANCH  18  19
ATOM     19  C   UNL     1      48.387  67.367  90.479  1.00  0.00    -0.000 C 
BRANCH  19  20
ATOM     20  C   UNL     1      49.466  67.853  91.461  1.00  0.00    -0.000 C 
BRANCH  20  21
ATOM     21  C   UNL     1      50.824  67.141  91.279  1.00  0.00    -0.000 C 
BRANCH  21  22
ATOM     22  C   UNL     1      51.426  66.687  92.620  1.00  0.00    -0.000 C 
BRANCH  22  23
ATOM     23  C   UNL     1      51.095  67.647  93.775  1.00  0.00    -0.000 C 
BRANCH  23  24
ATOM     24  C   UNL     1      52.292  67.891  94.705  1.00  0.00    -0.000 C 
BRANCH  24  25
ATOM     25  C   UNL     1      53.597  67.420  94.054  1.00  0.00    -0.003 C 
ATOM     26  C   UNL     1      54.810  67.876  94.858  1.00  0.00     0.004 C 
ENDBRANCH  24  25
ENDBRANCH  23  24
ENDBRANCH  22  23
ENDBRANCH  21  22
ENDBRANCH  20  21
ENDBRANCH  19  20
ENDBRANCH  18  19
ENDBRANCH  17  18
ENDBRANCH  16  17
ENDBRANCH  15  16
ENDBRANCH   1  15
TORSDOF 22
ENDMDL
