MODEL 1
REMARK VINA RESULT:    -4.199      0.000      0.000
REMARK INTER + INTRA:          -6.702
REMARK INTER:                  -6.408
REMARK INTRA:                  -0.294
REMARK UNBOUND:                -0.294
REMARK SMILES CC1=CCC[C@@H](C)C(=O)C[C@@H](C(C)C)C(=O)C1
REMARK SMILES IDX 8 1 9 2 6 3 7 4 5 5 4 6 3 7 2 8 1 9 10 11 11 12 15 13 16 14
REMARK SMILES IDX 17 15 12 17 13 18 14 19
REMARK H PARENT
REMARK Flexibility Score: 70.00
ROOT
ATOM      1  C   UNL     1      14.944 -33.609  20.802  1.00  0.00     0.136 C 
ATOM      2  O   UNL     1      14.003 -32.930  20.420  1.00  0.00    -0.299 OA
ENDROOT
BRANCH   1   3
ATOM      3  C   UNL     1      15.697 -34.451  19.787  1.00  0.00     0.053 C 
ATOM      4  C   UNL     1      16.295 -35.702  20.443  1.00  0.00     0.016 C 
BRANCH   3   5
ATOM      5  C   UNL     1      16.781 -33.629  19.066  1.00  0.00     0.015 C 
BRANCH   5   6
ATOM      6  C   UNL     1      18.160 -33.784  19.737  1.00  0.00     0.028 C 
BRANCH   6   7
ATOM      7  C   UNL     1      18.682 -32.455  20.217  1.00  0.00    -0.028 C 
ATOM      8  C   UNL     1      18.791 -32.096  21.518  1.00  0.00    -0.070 CG0
ATOM      9  C   UNL     1      19.374 -30.741  21.833  1.00  0.00     0.039 C 
ATOM     10  G   UNL     1      18.345 -32.991  22.664  1.00  0.00     0.000 G0
ENDBRANCH   6   7
ENDBRANCH   5   6
ENDBRANCH   3   5
ENDBRANCH   1   3
BRANCH   1  11
ATOM     11  C   UNL     1      15.293 -33.602  22.275  1.00  0.00     0.087 C 
BRANCH  11  12
ATOM     12  C   UNL     1      15.828 -32.222  22.747  1.00  0.00     0.066 C 
BRANCH  12  13
ATOM     13  C   UNL     1      17.175 -32.414  23.428  1.00  0.00     0.140 C 
ATOM     14  O   UNL     1      17.332 -32.010  24.573  1.00  0.00    -0.299 OA
BRANCH  13  15
ATOM     15  C   UNL     1      18.351 -32.987  22.677  1.00  0.00     0.106 CG0
ATOM     16  G   UNL     1      18.786 -32.096  21.523  1.00  0.00     0.000 G0
ENDBRANCH  13  15
ENDBRANCH  12  13
BRANCH  12  17
ATOM     17  C   UNL     1      14.830 -31.486  23.702  1.00  0.00    -0.006 C 
ATOM     18  C   UNL     1      14.101 -30.336  22.977  1.00  0.00     0.008 C 
ATOM     19  C   UNL     1      13.772 -32.442  24.288  1.00  0.00     0.008 C 
ENDBRANCH  12  17
ENDBRANCH  11  12
ENDBRANCH   1  11
TORSDOF 1
ENDMDL
MODEL 2
REMARK VINA RESULT:    -4.120      2.445      3.949
REMARK INTER + INTRA:          -6.583
REMARK INTER:                  -6.371
REMARK INTRA:                  -0.212
REMARK UNBOUND:                -0.294
REMARK SMILES CC1=CCC[C@@H](C)C(=O)C[C@@H](C(C)C)C(=O)C1
REMARK SMILES IDX 8 1 9 2 6 3 7 4 5 5 4 6 3 7 2 8 1 9 10 11 11 12 15 13 16 14
REMARK SMILES IDX 17 15 12 17 13 18 14 19
REMARK H PARENT
REMARK Flexibility Score: 70.00
ROOT
ATOM      1  C   UNL     1      18.107 -35.746  21.829  1.00  0.00     0.136 C 
ATOM      2  O   UNL     1      19.050 -36.466  22.123  1.00  0.00    -0.299 OA
ENDROOT
BRANCH   1   3
ATOM      3  C   UNL     1      17.092 -36.250  20.818  1.00  0.00     0.053 C 
ATOM      4  C   UNL     1      17.693 -37.350  19.934  1.00  0.00     0.016 C 
BRANCH   3   5
ATOM      5  C   UNL     1      16.526 -35.098  19.966  1.00  0.00     0.015 C 
BRANCH   5   6
ATOM      6  C   UNL     1      15.081 -34.746  20.365  1.00  0.00     0.028 C 
BRANCH   6   7
ATOM      7  C   UNL     1      14.878 -33.254  20.410  1.00  0.00    -0.028 C 
ATOM      8  C   UNL     1      14.771 -32.527  21.547  1.00  0.00    -0.070 CG0
ATOM      9  C   UNL     1      14.612 -31.032  21.420  1.00  0.00     0.039 C 
ATOM     10  G   UNL     1      14.796 -33.150  22.934  1.00  0.00     0.000 G0
ENDBRANCH   6   7
ENDBRANCH   5   6
ENDBRANCH   3   5
ENDBRANCH   1   3
BRANCH   1  11
ATOM     11  C   UNL     1      18.015 -34.376  22.464  1.00  0.00     0.087 C 
BRANCH  11  12
ATOM     12  C   UNL     1      17.038 -34.350  23.671  1.00  0.00     0.066 C 
BRANCH  12  13
ATOM     13  C   UNL     1      16.166 -33.106  23.582  1.00  0.00     0.140 C 
ATOM     14  O   UNL     1      16.535 -32.074  24.126  1.00  0.00    -0.299 OA
BRANCH  13  15
ATOM     15  C   UNL     1      14.803 -33.158  22.937  1.00  0.00     0.106 CG0
ATOM     16  G   UNL     1      14.797 -32.521  21.555  1.00  0.00     0.000 G0
ENDBRANCH  13  15
ENDBRANCH  12  13
BRANCH  12  17
ATOM     17  C   UNL     1      17.782 -34.400  25.047  1.00  0.00    -0.006 C 
ATOM     18  C   UNL     1      17.485 -35.713  25.800  1.00  0.00     0.008 C 
ATOM     19  C   UNL     1      19.310 -34.264  24.889  1.00  0.00     0.008 C 
ENDBRANCH  12  17
ENDBRANCH  11  12
ENDBRANCH   1  11
TORSDOF 1
ENDMDL
MODEL 3
REMARK VINA RESULT:    -4.071      1.871      3.674
REMARK INTER + INTRA:          -6.507
REMARK INTER:                  -6.510
REMARK INTRA:                   0.003
REMARK UNBOUND:                -0.294
REMARK SMILES CC1=CCC[C@@H](C)C(=O)C[C@@H](C(C)C)C(=O)C1
REMARK SMILES IDX 8 1 9 2 6 3 7 4 5 5 4 6 3 7 2 8 1 9 10 11 11 12 15 13 16 14
REMARK SMILES IDX 17 15 12 17 13 18 14 19
REMARK H PARENT
REMARK Flexibility Score: 70.00
ROOT
ATOM      1  C   UNL     1      16.767 -30.147  21.809  1.00  0.00     0.136 C 
ATOM      2  O   UNL     1      16.198 -29.223  22.371  1.00  0.00    -0.299 OA
ENDROOT
BRANCH   1   3
ATOM      3  C   UNL     1      18.281 -30.116  21.705  1.00  0.00     0.053 C 
ATOM      4  C   UNL     1      18.754 -28.906  20.891  1.00  0.00     0.016 C 
BRANCH   3   5
ATOM      5  C   UNL     1      18.833 -31.430  21.121  1.00  0.00     0.015 C 
BRANCH   5   6
ATOM      6  C   UNL     1      18.891 -32.549  22.178  1.00  0.00     0.028 C 
BRANCH   6   7
ATOM      7  C   UNL     1      18.776 -33.908  21.538  1.00  0.00    -0.028 C 
ATOM      8  C   UNL     1      17.732 -34.752  21.708  1.00  0.00    -0.070 CG0
ATOM      9  C   UNL     1      17.750 -36.062  20.961  1.00  0.00     0.039 C 
ATOM     10  G   UNL     1      16.555 -34.440  22.620  1.00  0.00     0.000 G0
ENDBRANCH   6   7
ENDBRANCH   5   6
ENDBRANCH   3   5
ENDBRANCH   1   3
BRANCH   1  11
ATOM     11  C   UNL     1      15.931 -31.261  21.217  1.00  0.00     0.087 C 
BRANCH  11  12
ATOM     12  C   UNL     1      15.287 -32.158  22.308  1.00  0.00     0.066 C 
BRANCH  12  13
ATOM     13  C   UNL     1      15.485 -33.620  21.936  1.00  0.00     0.140 C 
ATOM     14  O   UNL     1      14.711 -34.150  21.151  1.00  0.00    -0.299 OA
BRANCH  13  15
ATOM     15  C   UNL     1      16.547 -34.455  22.608  1.00  0.00     0.106 CG0
ATOM     16  G   UNL     1      17.727 -34.733  21.688  1.00  0.00     0.000 G0
ENDBRANCH  13  15
ENDBRANCH  12  13
BRANCH  12  17
ATOM     17  C   UNL     1      13.767 -31.848  22.521  1.00  0.00    -0.006 C 
ATOM     18  C   UNL     1      13.537 -31.001  23.789  1.00  0.00     0.008 C 
ATOM     19  C   UNL     1      13.150 -31.105  21.319  1.00  0.00     0.008 C 
ENDBRANCH  12  17
ENDBRANCH  11  12
ENDBRANCH   1  11
TORSDOF 1
ENDMDL
MODEL 4
REMARK VINA RESULT:    -4.016      1.757      3.860
REMARK INTER + INTRA:          -6.424
REMARK INTER:                  -6.011
REMARK INTRA:                  -0.413
REMARK UNBOUND:                -0.294
REMARK SMILES CC1=CCC[C@@H](C)C(=O)C[C@@H](C(C)C)C(=O)C1
REMARK SMILES IDX 8 1 9 2 6 3 7 4 5 5 4 6 3 7 2 8 1 9 10 11 11 12 15 13 16 14
REMARK SMILES IDX 17 15 12 17 13 18 14 19
REMARK H PARENT
REMARK Flexibility Score: 70.00
ROOT
ATOM      1  C   UNL     1      17.621 -30.890  22.172  1.00  0.00     0.136 C 
ATOM      2  O   UNL     1      18.418 -30.107  21.678  1.00  0.00    -0.299 OA
ENDROOT
BRANCH   1   3
ATOM      3  C   UNL     1      18.110 -31.850  23.242  1.00  0.00     0.053 C 
ATOM      4  C   UNL     1      18.729 -31.093  24.423  1.00  0.00     0.016 C 
BRANCH   3   5
ATOM      5  C   UNL     1      19.097 -32.882  22.664  1.00  0.00     0.015 C 
BRANCH   5   6
ATOM      6  C   UNL     1      18.489 -34.297  22.623  1.00  0.00     0.028 C 
BRANCH   6   7
ATOM      7  C   UNL     1      18.099 -34.679  21.219  1.00  0.00    -0.028 C 
ATOM      8  C   UNL     1      16.826 -34.729  20.761  1.00  0.00    -0.070 CG0
ATOM      9  C   UNL     1      16.607 -35.091  19.313  1.00  0.00     0.039 C 
ATOM     10  G   UNL     1      15.618 -34.445  21.640  1.00  0.00     0.000 G0
ENDBRANCH   6   7
ENDBRANCH   5   6
ENDBRANCH   3   5
ENDBRANCH   1   3
BRANCH   1  11
ATOM     11  C   UNL     1      16.193 -30.884  21.673  1.00  0.00     0.087 C 
BRANCH  11  12
ATOM     12  C   UNL     1      15.313 -31.944  22.389  1.00  0.00     0.066 C 
BRANCH  12  13
ATOM     13  C   UNL     1      15.014 -33.081  21.423  1.00  0.00     0.140 C 
ATOM     14  O   UNL     1      14.207 -32.907  20.520  1.00  0.00    -0.299 OA
BRANCH  13  15
ATOM     15  C   UNL     1      15.608 -34.453  21.632  1.00  0.00     0.106 CG0
ATOM     16  G   UNL     1      16.827 -34.691  20.754  1.00  0.00     0.000 G0
ENDBRANCH  13  15
ENDBRANCH  12  13
BRANCH  12  17
ATOM     17  C   UNL     1      13.983 -31.341  22.953  1.00  0.00    -0.006 C 
ATOM     18  C   UNL     1      13.586 -32.003  24.288  1.00  0.00     0.008 C 
ATOM     19  C   UNL     1      14.083 -29.818  23.175  1.00  0.00     0.008 C 
ENDBRANCH  12  17
ENDBRANCH  11  12
ENDBRANCH   1  11
TORSDOF 1
ENDMDL
MODEL 5
REMARK VINA RESULT:    -3.969      1.679      3.986
REMARK INTER + INTRA:          -6.352
REMARK INTER:                  -6.631
REMARK INTRA:                   0.279
REMARK UNBOUND:                -0.294
REMARK SMILES CC1=CCC[C@@H](C)C(=O)C[C@@H](C(C)C)C(=O)C1
REMARK SMILES IDX 8 1 9 2 6 3 7 4 5 5 4 6 3 7 2 8 1 9 10 11 11 12 15 13 16 14
REMARK SMILES IDX 17 15 12 17 13 18 14 19
REMARK H PARENT
REMARK Flexibility Score: 70.00
ROOT
ATOM      1  C   UNL     1      14.661 -32.748  22.724  1.00  0.00     0.136 C 
ATOM      2  O   UNL     1      14.934 -33.489  23.656  1.00  0.00    -0.299 OA
ENDROOT
BRANCH   1   3
ATOM      3  C   UNL     1      13.943 -31.443  23.014  1.00  0.00     0.053 C 
ATOM      4  C   UNL     1      12.944 -31.103  21.901  1.00  0.00     0.016 C 
BRANCH   3   5
ATOM      5  C   UNL     1      14.938 -30.289  23.240  1.00  0.00     0.015 C 
BRANCH   5   6
ATOM      6  C   UNL     1      15.443 -29.699  21.910  1.00  0.00     0.028 C 
BRANCH   6   7
ATOM      7  C   UNL     1      16.929 -29.456  21.953  1.00  0.00    -0.028 C 
ATOM      8  C   UNL     1      17.854 -30.240  21.352  1.00  0.00    -0.070 CG0
ATOM      9  C   UNL     1      19.304 -29.835  21.457  1.00  0.00     0.039 C 
ATOM     10  G   UNL     1      17.497 -31.506  20.588  1.00  0.00     0.000 G0
ENDBRANCH   6   7
ENDBRANCH   5   6
ENDBRANCH   3   5
ENDBRANCH   1   3
BRANCH   1  11
ATOM     11  C   UNL     1      15.026 -33.183  21.321  1.00  0.00     0.087 C 
BRANCH  11  12
ATOM     12  C   UNL     1      16.443 -33.814  21.249  1.00  0.00     0.066 C 
BRANCH  12  13
ATOM     13  C   UNL     1      17.486 -32.727  21.461  1.00  0.00     0.140 C 
ATOM     14  O   UNL     1      18.248 -32.804  22.415  1.00  0.00    -0.299 OA
BRANCH  13  15
ATOM     15  C   UNL     1      17.519 -31.501  20.583  1.00  0.00     0.106 CG0
ATOM     16  G   UNL     1      17.838 -30.239  21.370  1.00  0.00     0.000 G0
ENDBRANCH  13  15
ENDBRANCH  12  13
BRANCH  12  17
ATOM     17  C   UNL     1      16.700 -34.564  19.899  1.00  0.00    -0.006 C 
ATOM     18  C   UNL     1      18.195 -34.893  19.713  1.00  0.00     0.008 C 
ATOM     19  C   UNL     1      15.896 -35.876  19.799  1.00  0.00     0.008 C 
ENDBRANCH  12  17
ENDBRANCH  11  12
ENDBRANCH   1  11
TORSDOF 1
ENDMDL
MODEL 6
REMARK VINA RESULT:    -3.861      1.831      4.470
REMARK INTER + INTRA:          -6.187
REMARK INTER:                  -6.126
REMARK INTRA:                  -0.062
REMARK UNBOUND:                -0.294
REMARK SMILES CC1=CCC[C@@H](C)C(=O)C[C@@H](C(C)C)C(=O)C1
REMARK SMILES IDX 8 1 9 2 6 3 7 4 5 5 4 6 3 7 2 8 1 9 10 11 11 12 15 13 16 14
REMARK SMILES IDX 17 15 12 17 13 18 14 19
REMARK H PARENT
REMARK Flexibility Score: 70.00
ROOT
ATOM      1  C   UNL     1      16.407 -31.746  23.093  1.00  0.00     0.136 C 
ATOM      2  O   UNL     1      16.407 -31.090  24.123  1.00  0.00    -0.299 OA
ENDROOT
BRANCH   1   3
ATOM      3  C   UNL     1      15.171 -31.721  22.211  1.00  0.00     0.053 C 
ATOM      4  C   UNL     1      14.060 -30.873  22.842  1.00  0.00     0.016 C 
BRANCH   3   5
ATOM      5  C   UNL     1      14.673 -33.145  21.898  1.00  0.00     0.015 C 
BRANCH   5   6
ATOM      6  C   UNL     1      14.742 -33.458  20.391  1.00  0.00     0.028 C 
BRANCH   6   7
ATOM      7  C   UNL     1      15.250 -34.855  20.150  1.00  0.00    -0.028 C 
ATOM      8  C   UNL     1      16.500 -35.157  19.726  1.00  0.00    -0.070 CG0
ATOM      9  C   UNL     1      16.865 -36.612  19.573  1.00  0.00     0.039 C 
ATOM     10  G   UNL     1      17.539 -34.097  19.394  1.00  0.00     0.000 G0
ENDBRANCH   6   7
ENDBRANCH   5   6
ENDBRANCH   3   5
ENDBRANCH   1   3
BRANCH   1  11
ATOM     11  C   UNL     1      17.628 -32.577  22.762  1.00  0.00     0.087 C 
BRANCH  11  12
ATOM     12  C   UNL     1      18.114 -32.356  21.304  1.00  0.00     0.066 C 
BRANCH  12  13
ATOM     13  C   UNL     1      18.336 -33.706  20.640  1.00  0.00     0.140 C 
ATOM     14  O   UNL     1      19.225 -34.439  21.052  1.00  0.00    -0.299 OA
BRANCH  13  15
ATOM     15  C   UNL     1      17.557 -34.105  19.411  1.00  0.00     0.106 CG0
ATOM     16  G   UNL     1      16.496 -35.151  19.717  1.00  0.00     0.000 G0
ENDBRANCH  13  15
ENDBRANCH  12  13
BRANCH  12  17
ATOM     17  C   UNL     1      19.414 -31.487  21.228  1.00  0.00    -0.006 C 
ATOM     18  C   UNL     1      19.083 -29.985  21.121  1.00  0.00     0.008 C 
ATOM     19  C   UNL     1      20.328 -31.699  22.452  1.00  0.00     0.008 C 
ENDBRANCH  12  17
ENDBRANCH  11  12
ENDBRANCH   1  11
TORSDOF 1
ENDMDL
MODEL 7
REMARK VINA RESULT:    -3.855      2.217      4.367
REMARK INTER + INTRA:          -6.177
REMARK INTER:                  -5.834
REMARK INTRA:                  -0.343
REMARK UNBOUND:                -0.294
REMARK SMILES CC1=CCC[C@@H](C)C(=O)C[C@@H](C(C)C)C(=O)C1
REMARK SMILES IDX 8 1 9 2 6 3 7 4 5 5 4 6 3 7 2 8 1 9 10 11 11 12 15 13 16 14
REMARK SMILES IDX 17 15 12 17 13 18 14 19
REMARK H PARENT
REMARK Flexibility Score: 70.00
ROOT
ATOM      1  C   UNL     1      18.143 -33.146  20.518  1.00  0.00     0.136 C 
ATOM      2  O   UNL     1      18.215 -33.715  19.439  1.00  0.00    -0.299 OA
ENDROOT
BRANCH   1   3
ATOM      3  C   UNL     1      17.940 -33.980  21.771  1.00  0.00     0.053 C 
ATOM      4  C   UNL     1      18.831 -35.227  21.754  1.00  0.00     0.016 C 
BRANCH   3   5
ATOM      5  C   UNL     1      16.459 -34.357  21.963  1.00  0.00     0.015 C 
BRANCH   5   6
ATOM      6  C   UNL     1      15.850 -33.679  23.206  1.00  0.00     0.028 C 
BRANCH   6   7
ATOM      7  C   UNL     1      14.759 -32.715  22.818  1.00  0.00    -0.028 C 
ATOM      8  C   UNL     1      14.871 -31.367  22.867  1.00  0.00    -0.070 CG0
ATOM      9  C   UNL     1      13.697 -30.541  22.404  1.00  0.00     0.039 C 
ATOM     10  G   UNL     1      16.117 -30.657  23.373  1.00  0.00     0.000 G0
ENDBRANCH   6   7
ENDBRANCH   5   6
ENDBRANCH   3   5
ENDBRANCH   1   3
BRANCH   1  11
ATOM     11  C   UNL     1      18.228 -31.636  20.549  1.00  0.00     0.087 C 
BRANCH  11  12
ATOM     12  C   UNL     1      18.307 -31.079  21.996  1.00  0.00     0.066 C 
BRANCH  12  13
ATOM     13  C   UNL     1      17.062 -30.253  22.284  1.00  0.00     0.140 C 
ATOM     14  O   UNL     1      16.881 -29.208  21.675  1.00  0.00    -0.299 OA
BRANCH  13  15
ATOM     15  C   UNL     1      16.111 -30.642  23.389  1.00  0.00     0.106 CG0
ATOM     16  G   UNL     1      14.879 -31.360  22.860  1.00  0.00     0.000 G0
ENDBRANCH  13  15
ENDBRANCH  12  13
BRANCH  12  17
ATOM     17  C   UNL     1      19.598 -30.228  22.243  1.00  0.00    -0.006 C 
ATOM     18  C   UNL     1      20.706 -31.067  22.911  1.00  0.00     0.008 C 
ATOM     19  C   UNL     1      20.159 -29.629  20.937  1.00  0.00     0.008 C 
ENDBRANCH  12  17
ENDBRANCH  11  12
ENDBRANCH   1  11
TORSDOF 1
ENDMDL
MODEL 8
REMARK VINA RESULT:    -3.748      1.637      2.136
REMARK INTER + INTRA:          -6.014
REMARK INTER:                  -6.086
REMARK INTRA:                   0.072
REMARK UNBOUND:                -0.294
REMARK SMILES CC1=CCC[C@@H](C)C(=O)C[C@@H](C(C)C)C(=O)C1
REMARK SMILES IDX 8 1 9 2 6 3 7 4 5 5 4 6 3 7 2 8 1 9 10 11 11 12 15 13 16 14
REMARK SMILES IDX 17 15 12 17 13 18 14 19
REMARK H PARENT
REMARK Flexibility Score: 70.00
ROOT
ATOM      1  C   UNL     1      15.906 -34.198  20.868  1.00  0.00     0.136 C 
ATOM      2  O   UNL     1      15.155 -34.941  20.254  1.00  0.00    -0.299 OA
ENDROOT
BRANCH   1   3
ATOM      3  C   UNL     1      17.301 -33.954  20.321  1.00  0.00     0.053 C 
ATOM      4  C   UNL     1      17.291 -33.901  18.788  1.00  0.00     0.016 C 
BRANCH   3   5
ATOM      5  C   UNL     1      18.300 -35.008  20.834  1.00  0.00     0.015 C 
BRANCH   5   6
ATOM      6  C   UNL     1      18.222 -35.176  22.364  1.00  0.00     0.028 C 
BRANCH   6   7
ATOM      7  C   UNL     1      19.134 -34.201  23.063  1.00  0.00    -0.028 C 
ATOM      8  C   UNL     1      18.716 -33.219  23.895  1.00  0.00    -0.070 CG0
ATOM      9  C   UNL     1      19.762 -32.352  24.550  1.00  0.00     0.039 C 
ATOM     10  G   UNL     1      17.248 -32.950  24.188  1.00  0.00     0.000 G0
ENDBRANCH   6   7
ENDBRANCH   5   6
ENDBRANCH   3   5
ENDBRANCH   1   3
BRANCH   1  11
ATOM     11  C   UNL     1      15.418 -33.581  22.162  1.00  0.00     0.087 C 
BRANCH  11  12
ATOM     12  C   UNL     1      15.717 -32.059  22.238  1.00  0.00     0.066 C 
BRANCH  12  13
ATOM     13  C   UNL     1      16.696 -31.798  23.373  1.00  0.00     0.140 C 
ATOM     14  O   UNL     1      17.115 -30.663  23.556  1.00  0.00    -0.299 OA
BRANCH  13  15
ATOM     15  C   UNL     1      17.248 -32.933  24.200  1.00  0.00     0.106 CG0
ATOM     16  G   UNL     1      18.712 -33.208  23.894  1.00  0.00     0.000 G0
ENDBRANCH  13  15
ENDBRANCH  12  13
BRANCH  12  17
ATOM     17  C   UNL     1      14.421 -31.201  22.425  1.00  0.00    -0.006 C 
ATOM     18  C   UNL     1      13.420 -31.434  21.275  1.00  0.00     0.008 C 
ATOM     19  C   UNL     1      13.710 -31.503  23.759  1.00  0.00     0.008 C 
ENDBRANCH  12  17
ENDBRANCH  11  12
ENDBRANCH   1  11
TORSDOF 1
ENDMDL
MODEL 9
REMARK VINA RESULT:    -3.746      2.487      4.545
REMARK INTER + INTRA:          -6.011
REMARK INTER:                  -5.553
REMARK INTRA:                  -0.457
REMARK UNBOUND:                -0.294
REMARK SMILES CC1=CCC[C@@H](C)C(=O)C[C@@H](C(C)C)C(=O)C1
REMARK SMILES IDX 8 1 9 2 6 3 7 4 5 5 4 6 3 7 2 8 1 9 10 11 11 12 15 13 16 14
REMARK SMILES IDX 17 15 12 17 13 18 14 19
REMARK H PARENT
REMARK Flexibility Score: 70.00
ROOT
ATOM      1  C   UNL     1      18.430 -31.864  21.483  1.00  0.00     0.136 C 
ATOM      2  O   UNL     1      19.418 -31.196  21.218  1.00  0.00    -0.299 OA
ENDROOT
BRANCH   1   3
ATOM      3  C   UNL     1      17.351 -31.255  22.361  1.00  0.00     0.053 C 
ATOM      4  C   UNL     1      16.792 -29.970  21.738  1.00  0.00     0.016 C 
BRANCH   3   5
ATOM      5  C   UNL     1      17.864 -31.002  23.791  1.00  0.00     0.015 C 
BRANCH   5   6
ATOM      6  C   UNL     1      17.484 -32.147  24.749  1.00  0.00     0.028 C 
BRANCH   6   7
ATOM      7  C   UNL     1      18.644 -33.082  24.965  1.00  0.00    -0.028 C 
ATOM      8  C   UNL     1      18.665 -34.381  24.587  1.00  0.00    -0.070 CG0
ATOM      9  C   UNL     1      19.924 -35.173  24.840  1.00  0.00     0.039 C 
ATOM     10  G   UNL     1      17.480 -35.072  23.931  1.00  0.00     0.000 G0
ENDBRANCH   6   7
ENDBRANCH   5   6
ENDBRANCH   3   5
ENDBRANCH   1   3
BRANCH   1  11
ATOM     11  C   UNL     1      18.344 -33.276  20.947  1.00  0.00     0.087 C 
BRANCH  11  12
ATOM     12  C   UNL     1      17.122 -34.049  21.514  1.00  0.00     0.066 C 
BRANCH  12  13
ATOM     13  C   UNL     1      17.613 -35.165  22.424  1.00  0.00     0.140 C 
ATOM     14  O   UNL     1      18.042 -36.198  21.930  1.00  0.00    -0.299 OA
BRANCH  13  15
ATOM     15  C   UNL     1      17.472 -35.063  23.923  1.00  0.00     0.106 CG0
ATOM     16  G   UNL     1      18.667 -34.379  24.569  1.00  0.00     0.000 G0
ENDBRANCH  13  15
ENDBRANCH  12  13
BRANCH  12  17
ATOM     17  C   UNL     1      16.201 -34.626  20.388  1.00  0.00    -0.006 C 
ATOM     18  C   UNL     1      14.858 -33.871  20.316  1.00  0.00     0.008 C 
ATOM     19  C   UNL     1      16.870 -34.565  19.000  1.00  0.00     0.008 C 
ENDBRANCH  12  17
ENDBRANCH  11  12
ENDBRANCH   1  11
TORSDOF 1
ENDMDL
