MODEL 1
REMARK VINA RESULT:    -1.041      0.000      0.000
REMARK INTER + INTRA:          -1.386
REMARK INTER:                  -1.224
REMARK INTRA:                  -0.163
REMARK UNBOUND:                -0.163
REMARK SMILES O=c1c(O)c(-c2ccc(O)cc2)oc2cc(O)cc(O)c12
REMARK SMILES IDX 5 1 3 2 2 3 1 4 21 5 19 6 18 7 16 8 15 9 14 10 13 11 6 12
REMARK SMILES IDX 7 13 8 14 9 15 12 16 11 17 10 18 4 20 20 22 17 24
REMARK H PARENT 10 19 4 21 20 23 17 25
REMARK Flexibility Score: inf
ROOT
ATOM      1  C   UNL     1      -8.985  -4.991 -12.101  1.00  0.00     0.180 A 
ATOM      2  C   UNL     1      -9.465  -6.019 -12.930  1.00  0.00     0.208 A 
ATOM      3  C   UNL     1      -9.309  -7.354 -12.521  1.00  0.00     0.238 A 
ATOM      4  O   UNL     1      -9.788  -8.267 -13.243  1.00  0.00    -0.285 OA
ATOM      5  C   UNL     1      -8.660  -7.643 -11.297  1.00  0.00     0.111 A 
ATOM      6  C   UNL     1      -8.411  -8.960 -10.804  1.00  0.00     0.134 A 
ATOM      7  C   UNL     1      -7.879  -9.126  -9.518  1.00  0.00     0.093 A 
ATOM      8  C   UNL     1      -7.527  -8.027  -8.737  1.00  0.00     0.123 A 
ATOM      9  C   UNL     1      -7.710  -6.736  -9.233  1.00  0.00     0.094 A 
ATOM     10  C   UNL     1      -8.273  -6.537 -10.496  1.00  0.00     0.146 A 
ATOM     11  O   UNL     1      -8.441  -5.293 -10.927  1.00  0.00    -0.452 OA
ENDROOT
BRANCH   1  12
ATOM     12  C   UNL     1      -9.090  -3.563 -12.475  1.00  0.00     0.021 A 
ATOM     13  C   UNL     1      -9.956  -2.689 -11.791  1.00  0.00     0.016 A 
ATOM     14  C   UNL     1     -10.057  -1.349 -12.178  1.00  0.00     0.047 A 
ATOM     15  C   UNL     1      -9.306  -0.869 -13.258  1.00  0.00     0.115 A 
ATOM     16  C   UNL     1      -8.356  -3.077 -13.570  1.00  0.00     0.016 A 
ATOM     17  C   UNL     1      -8.458  -1.737 -13.953  1.00  0.00     0.047 A 
BRANCH  15  18
ATOM     18  O   UNL     1      -9.397   0.465 -13.651  1.00  0.00    -0.508 OA
ATOM     19  H   UNL     1     -10.105   1.081 -13.270  1.00  0.00     0.293 HD
ENDBRANCH  15  18
ENDBRANCH   1  12
BRANCH   2  20
ATOM     20  O   UNL     1     -10.121  -5.711 -14.125  1.00  0.00    -0.502 OA
ATOM     21  H   UNL     1     -10.463  -4.780 -14.334  1.00  0.00     0.293 HD
ENDBRANCH   2  20
BRANCH   6  22
ATOM     22  O   UNL     1      -8.641 -10.125 -11.539  1.00  0.00    -0.507 OA
ATOM     23  H   UNL     1      -9.548 -10.441 -11.847  1.00  0.00     0.293 HD
ENDBRANCH   6  22
BRANCH   8  24
ATOM     24  O   UNL     1      -6.985  -8.231  -7.470  1.00  0.00    -0.508 OA
ATOM     25  H   UNL     1      -7.202  -9.059  -6.927  1.00  0.00     0.293 HD
ENDBRANCH   8  24
TORSDOF 5
ENDMDL
MODEL 2
REMARK VINA RESULT:     0.397      1.871      6.789
REMARK INTER + INTRA:           0.304
REMARK INTER:                   0.328
REMARK INTRA:                  -0.023
REMARK UNBOUND:                -0.163
REMARK SMILES O=c1c(O)c(-c2ccc(O)cc2)oc2cc(O)cc(O)c12
REMARK SMILES IDX 5 1 3 2 2 3 1 4 21 5 19 6 18 7 16 8 15 9 14 10 13 11 6 12
REMARK SMILES IDX 7 13 8 14 9 15 12 16 11 17 10 18 4 20 20 22 17 24
REMARK H PARENT 10 19 4 21 20 23 17 25
REMARK Flexibility Score: inf
ROOT
ATOM      1  C   UNL     1      -7.499  -7.948  -9.847  1.00  0.00     0.180 A 
ATOM      2  C   UNL     1      -7.857  -8.742 -10.949  1.00  0.00     0.208 A 
ATOM      3  C   UNL     1      -8.514  -8.143 -12.036  1.00  0.00     0.238 A 
ATOM      4  O   UNL     1      -8.784  -8.848 -13.043  1.00  0.00    -0.285 OA
ATOM      5  C   UNL     1      -8.819  -6.761 -11.999  1.00  0.00     0.111 A 
ATOM      6  C   UNL     1      -9.518  -6.058 -13.027  1.00  0.00     0.134 A 
ATOM      7  C   UNL     1      -9.649  -4.666 -12.944  1.00  0.00     0.093 A 
ATOM      8  C   UNL     1      -9.165  -3.961 -11.843  1.00  0.00     0.123 A 
ATOM      9  C   UNL     1      -8.533  -4.646 -10.804  1.00  0.00     0.094 A 
ATOM     10  C   UNL     1      -8.355  -6.029 -10.875  1.00  0.00     0.146 A 
ATOM     11  O   UNL     1      -7.739  -6.642  -9.871  1.00  0.00    -0.452 OA
ENDROOT
BRANCH   1  12
ATOM     12  C   UNL     1      -6.826  -8.512  -8.654  1.00  0.00     0.021 A 
ATOM     13  C   UNL     1      -7.354  -9.625  -7.974  1.00  0.00     0.016 A 
ATOM     14  C   UNL     1      -6.715 -10.125  -6.835  1.00  0.00     0.047 A 
ATOM     15  C   UNL     1      -5.550  -9.513  -6.356  1.00  0.00     0.115 A 
ATOM     16  C   UNL     1      -5.669  -7.891  -8.153  1.00  0.00     0.016 A 
ATOM     17  C   UNL     1      -5.032  -8.395  -7.016  1.00  0.00     0.047 A 
BRANCH  15  18
ATOM     18  O   UNL     1      -4.903 -10.003  -5.223  1.00  0.00    -0.508 OA
ATOM     19  H   UNL     1      -4.290 -10.808  -5.271  1.00  0.00     0.293 HD
ENDBRANCH  15  18
ENDBRANCH   1  12
BRANCH   2  20
ATOM     20  O   UNL     1      -7.527 -10.100 -10.975  1.00  0.00    -0.502 OA
ATOM     21  H   UNL     1      -8.084 -10.805 -10.507  1.00  0.00     0.293 HD
ENDBRANCH   2  20
BRANCH   6  22
ATOM     22  O   UNL     1     -10.120  -6.677 -14.125  1.00  0.00    -0.507 OA
ATOM     23  H   UNL     1     -11.049  -7.069 -14.126  1.00  0.00     0.293 HD
ENDBRANCH   6  22
BRANCH   8  24
ATOM     24  O   UNL     1      -9.328  -2.578 -11.787  1.00  0.00    -0.508 OA
ATOM     25  H   UNL     1     -10.245  -2.149 -11.851  1.00  0.00     0.293 HD
ENDBRANCH   8  24
TORSDOF 5
ENDMDL
