MODEL 1
REMARK VINA RESULT:    -4.879      0.000      0.000
REMARK INTER + INTRA:          -9.419
REMARK INTER:                  -7.589
REMARK INTRA:                  -1.830
REMARK UNBOUND:                -1.830
REMARK SMILES COc1cc(CNC(=O)CCCCC=CC(C)C)ccc1O
REMARK SMILES IDX 11 1 12 2 13 3 14 4 15 5 16 6 17 7 18 8 10 9 8 10 9 11 7 12
REMARK SMILES IDX 6 14 5 15 4 16 19 17 3 18 20 19 21 20 2 21 1 22 22 23
REMARK H PARENT 7 13 22 24
REMARK Flexibility Score: inf
ROOT
ATOM      1  C   UNL     1     101.394 118.184  94.284  1.00  0.00     0.010 C 
ENDROOT
BRANCH   1   2
ATOM      2  C   UNL     1     102.418 119.321  94.413  1.00  0.00     0.005 C 
BRANCH   2   3
ATOM      3  C   UNL     1     103.022 119.363  95.821  1.00  0.00     0.027 C 
BRANCH   3   4
ATOM      4  C   UNL     1     102.916 120.740  96.414  1.00  0.00    -0.031 C 
ATOM      5  C   UNL     1     101.907 121.079  97.235  1.00  0.00    -0.028 C 
BRANCH   5   6
ATOM      6  C   UNL     1     101.786 122.452  97.854  1.00  0.00     0.005 C 
ATOM      7  C   UNL     1     102.311 122.465  99.296  1.00  0.00     0.012 C 
ATOM      8  C   UNL     1     100.344 122.967  97.784  1.00  0.00     0.012 C 
ENDBRANCH   5   6
ENDBRANCH   3   4
ENDBRANCH   2   3
ENDBRANCH   1   2
BRANCH   1   9
ATOM      9  C   UNL     1     100.486 118.077  95.517  1.00  0.00     0.100 C 
BRANCH   9  10
ATOM     10  C   UNL     1      99.391 119.103  95.490  1.00  0.00     0.220 C 
ATOM     11  O   UNL     1      98.627 119.221  96.486  1.00  0.00    -0.275 OA
ATOM     12  N   UNL     1      99.239 119.965  94.353  1.00  0.00    -0.352 N 
ATOM     13  H   UNL     1      99.879 119.846  93.535  1.00  0.00     0.163 HD
BRANCH  12  14
ATOM     14  C   UNL     1      98.248 121.038  94.306  1.00  0.00     0.151 C 
BRANCH  14  15
ATOM     15  C   UNL     1      98.927 122.380  94.295  1.00  0.00    -0.025 A 
ATOM     16  C   UNL     1      98.170 123.550  94.467  1.00  0.00     0.056 A 
ATOM     17  C   UNL     1     100.316 122.476  94.135  1.00  0.00     0.009 A 
ATOM     18  C   UNL     1      98.793 124.815  94.472  1.00  0.00     0.160 A 
ATOM     19  C   UNL     1     100.939 123.725  94.135  1.00  0.00     0.050 A 
ATOM     20  C   UNL     1     100.187 124.893  94.299  1.00  0.00     0.157 A 
BRANCH  18  21
ATOM     21  O   UNL     1      98.064 126.001  94.647  1.00  0.00    -0.493 OA
ATOM     22  C   UNL     1      96.683 126.057  94.988  1.00  0.00     0.278 C 
ENDBRANCH  18  21
BRANCH  20  23
ATOM     23  O   UNL     1     100.844 126.123  94.290  1.00  0.00    -0.504 OA
ATOM     24  H   UNL     1     101.527 126.365  93.582  1.00  0.00     0.293 HD
ENDBRANCH  20  23
ENDBRANCH  14  15
ENDBRANCH  12  14
ENDBRANCH   9  10
ENDBRANCH   1   9
TORSDOF 10
ENDMDL
MODEL 2
REMARK VINA RESULT:    -4.857      1.070      2.140
REMARK INTER + INTRA:          -9.384
REMARK INTER:                  -7.783
REMARK INTRA:                  -1.601
REMARK UNBOUND:                -1.830
REMARK SMILES COc1cc(CNC(=O)CCCCC=CC(C)C)ccc1O
REMARK SMILES IDX 11 1 12 2 13 3 14 4 15 5 16 6 17 7 18 8 10 9 8 10 9 11 7 12
REMARK SMILES IDX 6 14 5 15 4 16 19 17 3 18 20 19 21 20 2 21 1 22 22 23
REMARK H PARENT 7 13 22 24
REMARK Flexibility Score: inf
ROOT
ATOM      1  C   UNL     1     101.678 118.714  94.676  1.00  0.00     0.010 C 
ENDROOT
BRANCH   1   2
ATOM      2  C   UNL     1     102.932 119.011  95.511  1.00  0.00     0.005 C 
BRANCH   2   3
ATOM      3  C   UNL     1     103.007 120.496  95.885  1.00  0.00     0.027 C 
BRANCH   3   4
ATOM      4  C   UNL     1     102.499 120.727  97.280  1.00  0.00    -0.031 C 
ATOM      5  C   UNL     1     101.433 121.510  97.522  1.00  0.00    -0.028 C 
BRANCH   5   6
ATOM      6  C   UNL     1     100.894 121.748  98.914  1.00  0.00     0.005 C 
ATOM      7  C   UNL     1     102.007 121.661  99.967  1.00  0.00     0.012 C 
ATOM      8  C   UNL     1      99.747 120.785  99.237  1.00  0.00     0.012 C 
ENDBRANCH   5   6
ENDBRANCH   3   4
ENDBRANCH   2   3
ENDBRANCH   1   2
BRANCH   1   9
ATOM      9  C   UNL     1     100.491 118.276  95.545  1.00  0.00     0.100 C 
BRANCH   9  10
ATOM     10  C   UNL     1      99.330 119.218  95.415  1.00  0.00     0.220 C 
ATOM     11  O   UNL     1      98.530 119.354  96.379  1.00  0.00    -0.275 OA
ATOM     12  N   UNL     1      99.154 119.983  94.213  1.00  0.00    -0.352 N 
ATOM     13  H   UNL     1      99.825 119.850  93.422  1.00  0.00     0.163 HD
BRANCH  12  14
ATOM     14  C   UNL     1      98.094 120.977  94.061  1.00  0.00     0.151 C 
BRANCH  14  15
ATOM     15  C   UNL     1      98.662 122.368  94.150  1.00  0.00    -0.025 A 
ATOM     16  C   UNL     1     100.053 122.557  94.156  1.00  0.00     0.056 A 
ATOM     17  C   UNL     1      97.815 123.483  94.205  1.00  0.00     0.009 A 
ATOM     18  C   UNL     1     100.601 123.855  94.226  1.00  0.00     0.160 A 
ATOM     19  C   UNL     1      98.350 124.770  94.278  1.00  0.00     0.050 A 
ATOM     20  C   UNL     1      99.735 124.962  94.292  1.00  0.00     0.157 A 
BRANCH  18  21
ATOM     21  O   UNL     1     101.987 124.076  94.229  1.00  0.00    -0.493 OA
ATOM     22  C   UNL     1     102.786 124.176  95.403  1.00  0.00     0.278 C 
ENDBRANCH  18  21
BRANCH  20  23
ATOM     23  O   UNL     1     100.234 126.262  94.370  1.00  0.00    -0.504 OA
ATOM     24  H   UNL     1     101.217 126.472  94.241  1.00  0.00     0.293 HD
ENDBRANCH  20  23
ENDBRANCH  14  15
ENDBRANCH  12  14
ENDBRANCH   9  10
ENDBRANCH   1   9
TORSDOF 10
ENDMDL
MODEL 3
REMARK VINA RESULT:    -4.851      5.003      8.868
REMARK INTER + INTRA:          -9.376
REMARK INTER:                  -8.658
REMARK INTRA:                  -0.717
REMARK UNBOUND:                -1.830
REMARK SMILES COc1cc(CNC(=O)CCCCC=CC(C)C)ccc1O
REMARK SMILES IDX 11 1 12 2 13 3 14 4 15 5 16 6 17 7 18 8 10 9 8 10 9 11 7 12
REMARK SMILES IDX 6 14 5 15 4 16 19 17 3 18 20 19 21 20 2 21 1 22 22 23
REMARK H PARENT 7 13 22 24
REMARK Flexibility Score: inf
ROOT
ATOM      1  C   UNL     1     102.069 119.046  95.474  1.00  0.00     0.010 C 
ENDROOT
BRANCH   1   2
ATOM      2  C   UNL     1     103.017 120.045  96.153  1.00  0.00     0.005 C 
BRANCH   2   3
ATOM      3  C   UNL     1     102.262 120.934  97.147  1.00  0.00     0.027 C 
BRANCH   3   4
ATOM      4  C   UNL     1     101.757 122.183  96.480  1.00  0.00    -0.031 C 
ATOM      5  C   UNL     1     102.505 122.860  95.592  1.00  0.00    -0.028 C 
BRANCH   5   6
ATOM      6  C   UNL     1     102.015 124.110  94.897  1.00  0.00     0.005 C 
ATOM      7  C   UNL     1     101.613 125.191  95.909  1.00  0.00     0.012 C 
ATOM      8  C   UNL     1     100.864 123.796  93.935  1.00  0.00     0.012 C 
ENDBRANCH   5   6
ENDBRANCH   3   4
ENDBRANCH   2   3
ENDBRANCH   1   2
BRANCH   1   9
ATOM      9  C   UNL     1     102.415 118.828  93.995  1.00  0.00     0.100 C 
BRANCH   9  10
ATOM     10  C   UNL     1     103.183 117.556  93.786  1.00  0.00     0.220 C 
ATOM     11  O   UNL     1     103.612 116.919  94.785  1.00  0.00    -0.275 OA
ATOM     12  N   UNL     1     103.396 117.052  92.459  1.00  0.00    -0.352 N 
ATOM     13  H   UNL     1     103.037 117.601  91.643  1.00  0.00     0.163 HD
BRANCH  12  14
ATOM     14  C   UNL     1     104.059 115.777  92.197  1.00  0.00     0.151 C 
BRANCH  14  15
ATOM     15  C   UNL     1     103.042 114.694  91.961  1.00  0.00    -0.025 A 
ATOM     16  C   UNL     1     103.446 113.351  91.911  1.00  0.00     0.056 A 
ATOM     17  C   UNL     1     101.685 115.011  91.808  1.00  0.00     0.009 A 
ATOM     18  C   UNL     1     102.503 112.324  91.703  1.00  0.00     0.160 A 
ATOM     19  C   UNL     1     100.746 113.999  91.598  1.00  0.00     0.050 A 
ATOM     20  C   UNL     1     101.147 112.661  91.541  1.00  0.00     0.157 A 
BRANCH  18  21
ATOM     21  O   UNL     1     102.877 110.972  91.654  1.00  0.00    -0.493 OA
ATOM     22  C   UNL     1     103.200 110.266  90.460  1.00  0.00     0.278 C 
ENDBRANCH  18  21
BRANCH  20  23
ATOM     23  O   UNL     1     100.182 111.678  91.325  1.00  0.00    -0.504 OA
ATOM     24  H   UNL     1     100.408 110.690  91.325  1.00  0.00     0.293 HD
ENDBRANCH  20  23
ENDBRANCH  14  15
ENDBRANCH  12  14
ENDBRANCH   9  10
ENDBRANCH   1   9
TORSDOF 10
ENDMDL
MODEL 4
REMARK VINA RESULT:    -4.755      2.826      5.133
REMARK INTER + INTRA:          -9.226
REMARK INTER:                  -8.443
REMARK INTRA:                  -0.783
REMARK UNBOUND:                -1.830
REMARK SMILES COc1cc(CNC(=O)CCCCC=CC(C)C)ccc1O
REMARK SMILES IDX 11 1 12 2 13 3 14 4 15 5 16 6 17 7 18 8 10 9 8 10 9 11 7 12
REMARK SMILES IDX 6 14 5 15 4 16 19 17 3 18 20 19 21 20 2 21 1 22 22 23
REMARK H PARENT 7 13 22 24
REMARK Flexibility Score: inf
ROOT
ATOM      1  C   UNL     1     102.340 118.859  93.707  1.00  0.00     0.010 C 
ENDROOT
BRANCH   1   2
ATOM      2  C   UNL     1     103.384 118.124  92.854  1.00  0.00     0.005 C 
BRANCH   2   3
ATOM      3  C   UNL     1     104.095 117.037  93.668  1.00  0.00     0.027 C 
BRANCH   3   4
ATOM      4  C   UNL     1     103.695 115.664  93.202  1.00  0.00    -0.031 C 
ATOM      5  C   UNL     1     102.709 115.483  92.306  1.00  0.00    -0.028 C 
BRANCH   5   6
ATOM      6  C   UNL     1     102.297 114.115  91.811  1.00  0.00     0.005 C 
ATOM      7  C   UNL     1     100.772 113.996  91.699  1.00  0.00     0.012 C 
ATOM      8  C   UNL     1     102.877 113.007  92.697  1.00  0.00     0.012 C 
ENDBRANCH   5   6
ENDBRANCH   3   4
ENDBRANCH   2   3
ENDBRANCH   1   2
BRANCH   1   9
ATOM      9  C   UNL     1     102.520 118.588  95.207  1.00  0.00     0.100 C 
BRANCH   9  10
ATOM     10  C   UNL     1     102.530 119.859  96.004  1.00  0.00     0.220 C 
ATOM     11  O   UNL     1     103.630 120.399  96.298  1.00  0.00    -0.275 OA
ATOM     12  N   UNL     1     101.293 120.472  96.398  1.00  0.00    -0.352 N 
ATOM     13  H   UNL     1     100.391 120.004  96.150  1.00  0.00     0.163 HD
BRANCH  12  14
ATOM     14  C   UNL     1     101.238 121.752  97.099  1.00  0.00     0.151 C 
BRANCH  14  15
ATOM     15  C   UNL     1     101.166 122.888  96.115  1.00  0.00    -0.025 A 
ATOM     16  C   UNL     1      99.921 123.425  95.754  1.00  0.00     0.056 A 
ATOM     17  C   UNL     1     102.336 123.431  95.565  1.00  0.00     0.009 A 
ATOM     18  C   UNL     1      99.838 124.498  94.842  1.00  0.00     0.160 A 
ATOM     19  C   UNL     1     102.261 124.490  94.659  1.00  0.00     0.050 A 
ATOM     20  C   UNL     1     101.021 125.023  94.293  1.00  0.00     0.157 A 
BRANCH  18  21
ATOM     21  O   UNL     1      98.607 125.059  94.466  1.00  0.00    -0.493 OA
ATOM     22  C   UNL     1      97.508 124.321  93.945  1.00  0.00     0.278 C 
ENDBRANCH  18  21
BRANCH  20  23
ATOM     23  O   UNL     1     100.985 126.078  93.381  1.00  0.00    -0.504 OA
ATOM     24  H   UNL     1     101.439 126.966  93.564  1.00  0.00     0.293 HD
ENDBRANCH  20  23
ENDBRANCH  14  15
ENDBRANCH  12  14
ENDBRANCH   9  10
ENDBRANCH   1   9
TORSDOF 10
ENDMDL
MODEL 5
REMARK VINA RESULT:    -4.741      1.828      2.117
REMARK INTER + INTRA:          -9.205
REMARK INTER:                  -7.072
REMARK INTRA:                  -2.133
REMARK UNBOUND:                -1.830
REMARK SMILES COc1cc(CNC(=O)CCCCC=CC(C)C)ccc1O
REMARK SMILES IDX 11 1 12 2 13 3 14 4 15 5 16 6 17 7 18 8 10 9 8 10 9 11 7 12
REMARK SMILES IDX 6 14 5 15 4 16 19 17 3 18 20 19 21 20 2 21 1 22 22 23
REMARK H PARENT 7 13 22 24
REMARK Flexibility Score: inf
ROOT
ATOM      1  C   UNL     1     100.648 119.092  94.693  1.00  0.00     0.010 C 
ENDROOT
BRANCH   1   2
ATOM      2  C   UNL     1     101.753 118.672  95.673  1.00  0.00     0.005 C 
BRANCH   2   3
ATOM      3  C   UNL     1     103.007 119.535  95.492  1.00  0.00     0.027 C 
BRANCH   3   4
ATOM      4  C   UNL     1     103.033 120.666  96.483  1.00  0.00    -0.031 C 
ATOM      5  C   UNL     1     102.050 120.835  97.385  1.00  0.00    -0.028 C 
BRANCH   5   6
ATOM      6  C   UNL     1     102.059 121.955  98.400  1.00  0.00     0.005 C 
ATOM      7  C   UNL     1     102.654 121.494  99.737  1.00  0.00     0.012 C 
ATOM      8  C   UNL     1     100.657 122.543  98.590  1.00  0.00     0.012 C 
ENDBRANCH   5   6
ENDBRANCH   3   4
ENDBRANCH   2   3
ENDBRANCH   1   2
BRANCH   1   9
ATOM      9  C   UNL     1      99.292 119.273  95.389  1.00  0.00     0.100 C 
BRANCH   9  10
ATOM     10  C   UNL     1      98.873 120.714  95.422  1.00  0.00     0.220 C 
ATOM     11  O   UNL     1      98.205 121.143  96.400  1.00  0.00    -0.275 OA
ATOM     12  N   UNL     1      99.262 121.602  94.364  1.00  0.00    -0.352 N 
ATOM     13  H   UNL     1      99.811 121.223  93.557  1.00  0.00     0.163 HD
BRANCH  12  14
ATOM     14  C   UNL     1      98.958 123.031  94.383  1.00  0.00     0.151 C 
BRANCH  14  15
ATOM     15  C   UNL     1     100.103 123.803  94.981  1.00  0.00    -0.025 A 
ATOM     16  C   UNL     1      99.847 124.876  95.849  1.00  0.00     0.056 A 
ATOM     17  C   UNL     1     101.429 123.449  94.696  1.00  0.00     0.009 A 
ATOM     18  C   UNL     1     100.908 125.602  96.427  1.00  0.00     0.160 A 
ATOM     19  C   UNL     1     102.485 124.165  95.262  1.00  0.00     0.050 A 
ATOM     20  C   UNL     1     102.233 125.239  96.122  1.00  0.00     0.157 A 
BRANCH  18  21
ATOM     21  O   UNL     1     100.683 126.676  97.302  1.00  0.00    -0.493 OA
ATOM     22  C   UNL     1      99.431 127.332  97.470  1.00  0.00     0.278 C 
ENDBRANCH  18  21
BRANCH  20  23
ATOM     23  O   UNL     1     103.313 125.934  96.665  1.00  0.00    -0.504 OA
ATOM     24  H   UNL     1     103.454 126.925  96.504  1.00  0.00     0.293 HD
ENDBRANCH  20  23
ENDBRANCH  14  15
ENDBRANCH  12  14
ENDBRANCH   9  10
ENDBRANCH   1   9
TORSDOF 10
ENDMDL
MODEL 6
REMARK VINA RESULT:    -4.699      2.897      5.342
REMARK INTER + INTRA:          -9.139
REMARK INTER:                  -8.448
REMARK INTRA:                  -0.692
REMARK UNBOUND:                -1.830
REMARK SMILES COc1cc(CNC(=O)CCCCC=CC(C)C)ccc1O
REMARK SMILES IDX 11 1 12 2 13 3 14 4 15 5 16 6 17 7 18 8 10 9 8 10 9 11 7 12
REMARK SMILES IDX 6 14 5 15 4 16 19 17 3 18 20 19 21 20 2 21 1 22 22 23
REMARK H PARENT 7 13 22 24
REMARK Flexibility Score: inf
ROOT
ATOM      1  C   UNL     1     102.829 118.035  93.654  1.00  0.00     0.010 C 
ENDROOT
BRANCH   1   2
ATOM      2  C   UNL     1     103.951 117.750  92.645  1.00  0.00     0.005 C 
BRANCH   2   3
ATOM      3  C   UNL     1     104.125 116.242  92.426  1.00  0.00     0.027 C 
BRANCH   3   4
ATOM      4  C   UNL     1     102.857 115.500  92.744  1.00  0.00    -0.031 C 
ATOM      5  C   UNL     1     102.024 115.081  91.776  1.00  0.00    -0.028 C 
BRANCH   5   6
ATOM      6  C   UNL     1     100.750 114.321  92.068  1.00  0.00     0.005 C 
ATOM      7  C   UNL     1     100.369 114.418  93.551  1.00  0.00     0.012 C 
ATOM      8  C   UNL     1     100.859 112.861  91.617  1.00  0.00     0.012 C 
ENDBRANCH   5   6
ENDBRANCH   3   4
ENDBRANCH   2   3
ENDBRANCH   1   2
BRANCH   1   9
ATOM      9  C   UNL     1     103.374 118.414  95.038  1.00  0.00     0.100 C 
BRANCH   9  10
ATOM     10  C   UNL     1     102.483 119.399  95.735  1.00  0.00     0.220 C 
ATOM     11  O   UNL     1     101.275 119.105  95.944  1.00  0.00    -0.275 OA
ATOM     12  N   UNL     1     103.013 120.653  96.191  1.00  0.00    -0.352 N 
ATOM     13  H   UNL     1     104.016 120.880  96.002  1.00  0.00     0.163 HD
BRANCH  12  14
ATOM     14  C   UNL     1     102.218 121.614  96.951  1.00  0.00     0.151 C 
BRANCH  14  15
ATOM     15  C   UNL     1     101.828 122.778  96.080  1.00  0.00    -0.025 A 
ATOM     16  C   UNL     1     101.881 124.084  96.591  1.00  0.00     0.056 A 
ATOM     17  C   UNL     1     101.429 122.573  94.752  1.00  0.00     0.009 A 
ATOM     18  C   UNL     1     101.530 125.186  95.784  1.00  0.00     0.160 A 
ATOM     19  C   UNL     1     101.077 123.659  93.949  1.00  0.00     0.050 A 
ATOM     20  C   UNL     1     101.123 124.961  94.456  1.00  0.00     0.157 A 
BRANCH  18  21
ATOM     21  O   UNL     1     101.578 126.504  96.265  1.00  0.00    -0.493 OA
ATOM     22  C   UNL     1     100.580 127.101  97.085  1.00  0.00     0.278 C 
ENDBRANCH  18  21
BRANCH  20  23
ATOM     23  O   UNL     1     100.760 126.020  93.625  1.00  0.00    -0.504 OA
ATOM     24  H   UNL     1     101.239 126.212  92.754  1.00  0.00     0.293 HD
ENDBRANCH  20  23
ENDBRANCH  14  15
ENDBRANCH  12  14
ENDBRANCH   9  10
ENDBRANCH   1   9
TORSDOF 10
ENDMDL
MODEL 7
REMARK VINA RESULT:    -4.608      2.101      5.176
REMARK INTER + INTRA:          -8.998
REMARK INTER:                  -7.931
REMARK INTRA:                  -1.066
REMARK UNBOUND:                -1.830
REMARK SMILES COc1cc(CNC(=O)CCCCC=CC(C)C)ccc1O
REMARK SMILES IDX 11 1 12 2 13 3 14 4 15 5 16 6 17 7 18 8 10 9 8 10 9 11 7 12
REMARK SMILES IDX 6 14 5 15 4 16 19 17 3 18 20 19 21 20 2 21 1 22 22 23
REMARK H PARENT 7 13 22 24
REMARK Flexibility Score: inf
ROOT
ATOM      1  C   UNL     1     102.225 123.224  96.316  1.00  0.00     0.010 C 
ENDROOT
BRANCH   1   2
ATOM      2  C   UNL     1     102.012 121.770  95.870  1.00  0.00     0.005 C 
BRANCH   2   3
ATOM      3  C   UNL     1     102.959 120.820  96.612  1.00  0.00     0.027 C 
BRANCH   3   4
ATOM      4  C   UNL     1     103.210 119.572  95.812  1.00  0.00    -0.031 C 
ATOM      5  C   UNL     1     102.299 119.095  94.946  1.00  0.00    -0.028 C 
BRANCH   5   6
ATOM      6  C   UNL     1     102.532 117.851  94.121  1.00  0.00     0.005 C 
ATOM      7  C   UNL     1     103.165 116.733  94.959  1.00  0.00     0.012 C 
ATOM      8  C   UNL     1     103.374 118.159  92.878  1.00  0.00     0.012 C 
ENDBRANCH   5   6
ENDBRANCH   3   4
ENDBRANCH   2   3
ENDBRANCH   1   2
BRANCH   1   9
ATOM      9  C   UNL     1     102.629 124.136  95.150  1.00  0.00     0.100 C 
BRANCH   9  10
ATOM     10  C   UNL     1     101.447 124.514  94.305  1.00  0.00     0.220 C 
ATOM     11  O   UNL     1     101.565 124.544  93.051  1.00  0.00    -0.275 OA
ATOM     12  N   UNL     1     100.183 124.802  94.922  1.00  0.00    -0.352 N 
ATOM     13  H   UNL     1     100.108 124.778  95.965  1.00  0.00     0.163 HD
BRANCH  12  14
ATOM     14  C   UNL     1      98.978 125.090  94.149  1.00  0.00     0.151 C 
BRANCH  14  15
ATOM     15  C   UNL     1      97.912 124.069  94.438  1.00  0.00    -0.025 A 
ATOM     16  C   UNL     1      98.219 122.700  94.384  1.00  0.00     0.056 A 
ATOM     17  C   UNL     1      96.613 124.470  94.781  1.00  0.00     0.009 A 
ATOM     18  C   UNL     1      97.234 121.731  94.665  1.00  0.00     0.160 A 
ATOM     19  C   UNL     1      95.633 123.516  95.057  1.00  0.00     0.050 A 
ATOM     20  C   UNL     1      95.934 122.152  94.998  1.00  0.00     0.157 A 
BRANCH  18  21
ATOM     21  O   UNL     1      97.514 120.356  94.625  1.00  0.00    -0.493 OA
ATOM     22  C   UNL     1      98.570 119.725  95.340  1.00  0.00     0.278 C 
ENDBRANCH  18  21
BRANCH  20  23
ATOM     23  O   UNL     1      94.927 121.227  95.275  1.00  0.00    -0.504 OA
ATOM     24  H   UNL     1      94.380 120.789  94.544  1.00  0.00     0.293 HD
ENDBRANCH  20  23
ENDBRANCH  14  15
ENDBRANCH  12  14
ENDBRANCH   9  10
ENDBRANCH   1   9
TORSDOF 10
ENDMDL
MODEL 8
REMARK VINA RESULT:    -4.607      2.141      3.648
REMARK INTER + INTRA:          -8.996
REMARK INTER:                  -6.809
REMARK INTRA:                  -2.187
REMARK UNBOUND:                -1.830
REMARK SMILES COc1cc(CNC(=O)CCCCC=CC(C)C)ccc1O
REMARK SMILES IDX 11 1 12 2 13 3 14 4 15 5 16 6 17 7 18 8 10 9 8 10 9 11 7 12
REMARK SMILES IDX 6 14 5 15 4 16 19 17 3 18 20 19 21 20 2 21 1 22 22 23
REMARK H PARENT 7 13 22 24
REMARK Flexibility Score: inf
ROOT
ATOM      1  C   UNL     1      98.771 119.259  97.656  1.00  0.00     0.010 C 
ENDROOT
BRANCH   1   2
ATOM      2  C   UNL     1      97.875 119.964  96.628  1.00  0.00     0.005 C 
BRANCH   2   3
ATOM      3  C   UNL     1      98.625 120.201  95.312  1.00  0.00     0.027 C 
BRANCH   3   4
ATOM      4  C   UNL     1     100.017 119.637  95.376  1.00  0.00    -0.031 C 
ATOM      5  C   UNL     1     101.094 120.382  95.073  1.00  0.00    -0.028 C 
BRANCH   5   6
ATOM      6  C   UNL     1     102.505 119.842  95.141  1.00  0.00     0.005 C 
ATOM      7  C   UNL     1     102.513 118.326  95.375  1.00  0.00     0.012 C 
ATOM      8  C   UNL     1     103.327 120.573  96.208  1.00  0.00     0.012 C 
ENDBRANCH   5   6
ENDBRANCH   3   4
ENDBRANCH   2   3
ENDBRANCH   1   2
BRANCH   1   9
ATOM      9  C   UNL     1      98.974 120.100  98.924  1.00  0.00     0.100 C 
BRANCH   9  10
ATOM     10  C   UNL     1     100.045 121.136  98.738  1.00  0.00     0.220 C 
ATOM     11  O   UNL     1     101.256 120.788  98.765  1.00  0.00    -0.275 OA
ATOM     12  N   UNL     1      99.689 122.505  98.495  1.00  0.00    -0.352 N 
ATOM     13  H   UNL     1      98.678 122.774  98.484  1.00  0.00     0.163 HD
BRANCH  12  14
ATOM     14  C   UNL     1     100.683 123.540  98.222  1.00  0.00     0.151 C 
BRANCH  14  15
ATOM     15  C   UNL     1     100.829 123.748  96.738  1.00  0.00    -0.025 A 
ATOM     16  C   UNL     1      99.695 123.718  95.912  1.00  0.00     0.056 A 
ATOM     17  C   UNL     1     102.088 123.993  96.173  1.00  0.00     0.009 A 
ATOM     18  C   UNL     1      99.814 123.924  94.522  1.00  0.00     0.160 A 
ATOM     19  C   UNL     1     102.213 124.194  94.797  1.00  0.00     0.050 A 
ATOM     20  C   UNL     1     101.087 124.158  93.970  1.00  0.00     0.157 A 
BRANCH  18  21
ATOM     21  O   UNL     1      98.698 123.905  93.670  1.00  0.00    -0.493 OA
ATOM     22  C   UNL     1      97.397 124.355  94.033  1.00  0.00     0.278 C 
ENDBRANCH  18  21
BRANCH  20  23
ATOM     23  O   UNL     1     101.251 124.359  92.600  1.00  0.00    -0.504 OA
ATOM     24  H   UNL     1     102.145 124.234  92.139  1.00  0.00     0.293 HD
ENDBRANCH  20  23
ENDBRANCH  14  15
ENDBRANCH  12  14
ENDBRANCH   9  10
ENDBRANCH   1   9
TORSDOF 10
ENDMDL
MODEL 9
REMARK VINA RESULT:    -4.455      1.499      2.524
REMARK INTER + INTRA:          -8.759
REMARK INTER:                  -6.676
REMARK INTRA:                  -2.083
REMARK UNBOUND:                -1.830
REMARK SMILES COc1cc(CNC(=O)CCCCC=CC(C)C)ccc1O
REMARK SMILES IDX 11 1 12 2 13 3 14 4 15 5 16 6 17 7 18 8 10 9 8 10 9 11 7 12
REMARK SMILES IDX 6 14 5 15 4 16 19 17 3 18 20 19 21 20 2 21 1 22 22 23
REMARK H PARENT 7 13 22 24
REMARK Flexibility Score: inf
ROOT
ATOM      1  C   UNL     1     102.648 118.414  95.493  1.00  0.00     0.010 C 
ENDROOT
BRANCH   1   2
ATOM      2  C   UNL     1     103.342 119.730  95.874  1.00  0.00     0.005 C 
BRANCH   2   3
ATOM      3  C   UNL     1     102.375 120.672  96.600  1.00  0.00     0.027 C 
BRANCH   3   4
ATOM      4  C   UNL     1     102.607 122.101  96.195  1.00  0.00    -0.031 C 
ATOM      5  C   UNL     1     101.879 122.687  95.228  1.00  0.00    -0.028 C 
BRANCH   5   6
ATOM      6  C   UNL     1     102.084 124.126  94.812  1.00  0.00     0.005 C 
ATOM      7  C   UNL     1     101.773 125.091  95.963  1.00  0.00     0.012 C 
ATOM      8  C   UNL     1     101.261 124.465  93.564  1.00  0.00     0.012 C 
ENDBRANCH   5   6
ENDBRANCH   3   4
ENDBRANCH   2   3
ENDBRANCH   1   2
BRANCH   1   9
ATOM      9  C   UNL     1     101.698 118.583  94.299  1.00  0.00     0.100 C 
BRANCH   9  10
ATOM     10  C   UNL     1     100.304 118.921  94.743  1.00  0.00     0.220 C 
ATOM     11  O   UNL     1      99.796 118.304  95.717  1.00  0.00    -0.275 OA
ATOM     12  N   UNL     1      99.571 119.964  94.083  1.00  0.00    -0.352 N 
ATOM     13  H   UNL     1     100.009 120.459  93.272  1.00  0.00     0.163 HD
BRANCH  12  14
ATOM     14  C   UNL     1      98.247 120.396  94.524  1.00  0.00     0.151 C 
BRANCH  14  15
ATOM     15  C   UNL     1      98.356 121.624  95.387  1.00  0.00    -0.025 A 
ATOM     16  C   UNL     1      98.132 122.893  94.830  1.00  0.00     0.056 A 
ATOM     17  C   UNL     1      98.660 121.514  96.750  1.00  0.00     0.009 A 
ATOM     18  C   UNL     1      98.217 124.053  95.627  1.00  0.00     0.160 A 
ATOM     19  C   UNL     1      98.750 122.658  97.545  1.00  0.00     0.050 A 
ATOM     20  C   UNL     1      98.534 123.924  96.992  1.00  0.00     0.157 A 
BRANCH  18  21
ATOM     21  O   UNL     1      97.993 125.335  95.100  1.00  0.00    -0.493 OA
ATOM     22  C   UNL     1      96.721 125.831  94.699  1.00  0.00     0.278 C 
ENDBRANCH  18  21
BRANCH  20  23
ATOM     23  O   UNL     1      98.637 125.045  97.816  1.00  0.00    -0.504 OA
ATOM     24  H   UNL     1      97.849 125.656  97.997  1.00  0.00     0.293 HD
ENDBRANCH  20  23
ENDBRANCH  14  15
ENDBRANCH  12  14
ENDBRANCH   9  10
ENDBRANCH   1   9
TORSDOF 10
ENDMDL
