MODEL 1
REMARK VINA RESULT:    -2.980      0.000      0.000
REMARK INTER + INTRA:          -3.547
REMARK INTER:                  -3.503
REMARK INTRA:                  -0.045
REMARK UNBOUND:                -0.045
REMARK SMILES CCCCC(=O)[O-]
REMARK SMILES IDX 4 1 5 2 6 3 7 4 3 5 2 6 1 7
REMARK H PARENT
REMARK Flexibility Score: inf
ROOT
ATOM      1  C   UNL     1     -26.299 -17.186  12.958  1.00  0.00     0.053 C 
ENDROOT
BRANCH   1   2
ATOM      2  C   UNL     1     -26.592 -17.460  14.400  1.00  0.00     0.041 C 
ATOM      3  O   UNL     1     -25.838 -18.215  15.068  1.00  0.00    -0.550 OA
ATOM      4  O   UNL     1     -27.670 -16.841  15.019  1.00  0.00    -0.550 OA
ENDBRANCH   1   2
BRANCH   1   5
ATOM      5  C   UNL     1     -27.327 -17.888  12.062  1.00  0.00     0.006 C 
BRANCH   5   6
ATOM      6  C   UNL     1     -27.997 -16.926  11.068  1.00  0.00    -0.003 C 
ATOM      7  C   UNL     1     -26.999 -15.981  10.398  1.00  0.00     0.004 C 
ENDBRANCH   5   6
ENDBRANCH   1   5
TORSDOF 3
ENDMDL
MODEL 2
REMARK VINA RESULT:    -2.794      2.489      3.714
REMARK INTER + INTRA:          -3.329
REMARK INTER:                  -3.221
REMARK INTRA:                  -0.107
REMARK UNBOUND:                -0.045
REMARK SMILES CCCCC(=O)[O-]
REMARK SMILES IDX 4 1 5 2 6 3 7 4 3 5 2 6 1 7
REMARK H PARENT
REMARK Flexibility Score: inf
ROOT
ATOM      1  C   UNL     1     -28.124 -17.975  12.034  1.00  0.00     0.053 C 
ENDROOT
BRANCH   1   2
ATOM      2  C   UNL     1     -27.364 -16.920  11.293  1.00  0.00     0.041 C 
ATOM      3  O   UNL     1     -26.315 -16.430  11.786  1.00  0.00    -0.550 OA
ATOM      4  O   UNL     1     -27.788 -16.513  10.034  1.00  0.00    -0.550 OA
ENDBRANCH   1   2
BRANCH   1   5
ATOM      5  C   UNL     1     -27.158 -18.912  12.771  1.00  0.00     0.006 C 
BRANCH   5   6
ATOM      6  C   UNL     1     -27.301 -18.823  14.298  1.00  0.00    -0.003 C 
ATOM      7  C   UNL     1     -26.139 -18.079  14.957  1.00  0.00     0.004 C 
ENDBRANCH   5   6
ENDBRANCH   1   5
TORSDOF 3
ENDMDL
MODEL 3
REMARK VINA RESULT:    -2.621     22.537     23.210
REMARK INTER + INTRA:          -3.125
REMARK INTER:                  -3.080
REMARK INTRA:                  -0.045
REMARK UNBOUND:                -0.045
REMARK SMILES CCCCC(=O)[O-]
REMARK SMILES IDX 4 1 5 2 6 3 7 4 3 5 2 6 1 7
REMARK H PARENT
REMARK Flexibility Score: inf
ROOT
ATOM      1  C   UNL     1      -9.960 -20.700  -1.923  1.00  0.00     0.053 C 
ENDROOT
BRANCH   1   2
ATOM      2  C   UNL     1     -10.490 -22.047  -2.305  1.00  0.00     0.041 C 
ATOM      3  O   UNL     1     -11.032 -22.219  -3.428  1.00  0.00    -0.550 OA
ATOM      4  O   UNL     1     -10.342 -23.123  -1.440  1.00  0.00    -0.550 OA
ENDBRANCH   1   2
BRANCH   1   5
ATOM      5  C   UNL     1      -9.571 -19.904  -3.175  1.00  0.00     0.006 C 
BRANCH   5   6
ATOM      6  C   UNL     1      -9.617 -18.385  -2.945  1.00  0.00    -0.003 C 
ATOM      7  C   UNL     1      -9.995 -18.016  -1.511  1.00  0.00     0.004 C 
ENDBRANCH   5   6
ENDBRANCH   1   5
TORSDOF 3
ENDMDL
MODEL 4
REMARK VINA RESULT:    -2.480     22.699     23.197
REMARK INTER + INTRA:          -2.959
REMARK INTER:                  -2.933
REMARK INTRA:                  -0.027
REMARK UNBOUND:                -0.045
REMARK SMILES CCCCC(=O)[O-]
REMARK SMILES IDX 4 1 5 2 6 3 7 4 3 5 2 6 1 7
REMARK H PARENT
REMARK Flexibility Score: inf
ROOT
ATOM      1  C   UNL     1      -9.299 -20.426  -1.786  1.00  0.00     0.053 C 
ENDROOT
BRANCH   1   2
ATOM      2  C   UNL     1      -9.753 -19.096  -2.302  1.00  0.00     0.041 C 
ATOM      3  O   UNL     1      -9.784 -18.873  -3.540  1.00  0.00    -0.550 OA
ATOM      4  O   UNL     1     -10.188 -18.119  -1.416  1.00  0.00    -0.550 OA
ENDBRANCH   1   2
BRANCH   1   5
ATOM      5  C   UNL     1     -10.369 -21.494  -2.048  1.00  0.00     0.006 C 
BRANCH   5   6
ATOM      6  C   UNL     1      -9.949 -22.884  -1.545  1.00  0.00    -0.003 C 
ATOM      7  C   UNL     1      -9.065 -22.818  -0.299  1.00  0.00     0.004 C 
ENDBRANCH   5   6
ENDBRANCH   1   5
TORSDOF 3
ENDMDL
MODEL 5
REMARK VINA RESULT:    -2.463     22.577     23.279
REMARK INTER + INTRA:          -2.940
REMARK INTER:                  -2.892
REMARK INTRA:                  -0.048
REMARK UNBOUND:                -0.045
REMARK SMILES CCCCC(=O)[O-]
REMARK SMILES IDX 4 1 5 2 6 3 7 4 3 5 2 6 1 7
REMARK H PARENT
REMARK Flexibility Score: inf
ROOT
ATOM      1  C   UNL     1      -9.989 -18.240  -1.615  1.00  0.00     0.053 C 
ENDROOT
BRANCH   1   2
ATOM      2  C   UNL     1      -8.736 -17.463  -1.361  1.00  0.00     0.041 C 
ATOM      3  O   UNL     1      -8.371 -17.217  -0.182  1.00  0.00    -0.550 OA
ATOM      4  O   UNL     1      -7.944 -17.052  -2.426  1.00  0.00    -0.550 OA
ENDBRANCH   1   2
BRANCH   1   5
ATOM      5  C   UNL     1      -9.700 -19.433  -2.536  1.00  0.00     0.006 C 
BRANCH   5   6
ATOM      6  C   UNL     1      -9.442 -20.731  -1.756  1.00  0.00    -0.003 C 
ATOM      7  C   UNL     1     -10.434 -21.839  -2.111  1.00  0.00     0.004 C 
ENDBRANCH   5   6
ENDBRANCH   1   5
TORSDOF 3
ENDMDL
MODEL 6
REMARK VINA RESULT:    -2.409     16.872     17.229
REMARK INTER + INTRA:          -2.876
REMARK INTER:                  -2.780
REMARK INTRA:                  -0.096
REMARK UNBOUND:                -0.045
REMARK SMILES CCCCC(=O)[O-]
REMARK SMILES IDX 4 1 5 2 6 3 7 4 3 5 2 6 1 7
REMARK H PARENT
REMARK Flexibility Score: inf
ROOT
ATOM      1  C   UNL     1      -9.070 -17.840  12.180  1.00  0.00     0.053 C 
ENDROOT
BRANCH   1   2
ATOM      2  C   UNL     1      -9.971 -17.451  13.310  1.00  0.00     0.041 C 
ATOM      3  O   UNL     1     -10.895 -16.617  13.126  1.00  0.00    -0.550 OA
ATOM      4  O   UNL     1      -9.820 -18.048  14.555  1.00  0.00    -0.550 OA
ENDBRANCH   1   2
BRANCH   1   5
ATOM      5  C   UNL     1      -9.806 -18.767  11.205  1.00  0.00     0.006 C 
BRANCH   5   6
ATOM      6  C   UNL     1      -9.777 -18.246   9.759  1.00  0.00    -0.003 C 
ATOM      7  C   UNL     1      -9.462 -16.753   9.677  1.00  0.00     0.004 C 
ENDBRANCH   5   6
ENDBRANCH   1   5
TORSDOF 3
ENDMDL
MODEL 7
REMARK VINA RESULT:    -2.400     16.763     17.267
REMARK INTER + INTRA:          -2.865
REMARK INTER:                  -2.843
REMARK INTRA:                  -0.023
REMARK UNBOUND:                -0.045
REMARK SMILES CCCCC(=O)[O-]
REMARK SMILES IDX 4 1 5 2 6 3 7 4 3 5 2 6 1 7
REMARK H PARENT
REMARK Flexibility Score: inf
ROOT
ATOM      1  C   UNL     1      -9.402 -17.954  12.984  1.00  0.00     0.053 C 
ENDROOT
BRANCH   1   2
ATOM      2  C   UNL     1      -9.896 -16.943  13.970  1.00  0.00     0.041 C 
ATOM      3  O   UNL     1      -9.088 -16.354  14.734  1.00  0.00    -0.550 OA
ATOM      4  O   UNL     1     -11.245 -16.616  14.013  1.00  0.00    -0.550 OA
ENDBRANCH   1   2
BRANCH   1   5
ATOM      5  C   UNL     1      -9.774 -17.533  11.556  1.00  0.00     0.006 C 
BRANCH   5   6
ATOM      6  C   UNL     1      -9.969 -18.736  10.620  1.00  0.00    -0.003 C 
ATOM      7  C   UNL     1      -9.064 -18.678   9.389  1.00  0.00     0.004 C 
ENDBRANCH   5   6
ENDBRANCH   1   5
TORSDOF 3
ENDMDL
MODEL 8
REMARK VINA RESULT:    -2.381     22.716     23.569
REMARK INTER + INTRA:          -2.843
REMARK INTER:                  -2.720
REMARK INTRA:                  -0.123
REMARK UNBOUND:                -0.045
REMARK SMILES CCCCC(=O)[O-]
REMARK SMILES IDX 4 1 5 2 6 3 7 4 3 5 2 6 1 7
REMARK H PARENT
REMARK Flexibility Score: inf
ROOT
ATOM      1  C   UNL     1      -9.862 -19.813  -3.655  1.00  0.00     0.053 C 
ENDROOT
BRANCH   1   2
ATOM      2  C   UNL     1      -9.526 -20.825  -2.605  1.00  0.00     0.041 C 
ATOM      3  O   UNL     1     -10.438 -21.497  -2.057  1.00  0.00    -0.550 OA
ATOM      4  O   UNL     1      -8.200 -21.059  -2.265  1.00  0.00    -0.550 OA
ENDBRANCH   1   2
BRANCH   1   5
ATOM      5  C   UNL     1      -9.400 -18.416  -3.219  1.00  0.00     0.006 C 
BRANCH   5   6
ATOM      6  C   UNL     1      -9.956 -18.015  -1.844  1.00  0.00    -0.003 C 
ATOM      7  C   UNL     1      -8.855 -17.678  -0.838  1.00  0.00     0.004 C 
ENDBRANCH   5   6
ENDBRANCH   1   5
TORSDOF 3
ENDMDL
MODEL 9
REMARK VINA RESULT:    -2.263     16.695     17.556
REMARK INTER + INTRA:          -2.705
REMARK INTER:                  -2.685
REMARK INTRA:                  -0.020
REMARK UNBOUND:                -0.045
REMARK SMILES CCCCC(=O)[O-]
REMARK SMILES IDX 4 1 5 2 6 3 7 4 3 5 2 6 1 7
REMARK H PARENT
REMARK Flexibility Score: inf
ROOT
ATOM      1  C   UNL     1      -9.759 -18.430  11.444  1.00  0.00     0.053 C 
ENDROOT
BRANCH   1   2
ATOM      2  C   UNL     1      -9.467 -18.023  10.034  1.00  0.00     0.041 C 
ATOM      3  O   UNL     1      -9.050 -18.871   9.202  1.00  0.00    -0.550 OA
ATOM      4  O   UNL     1      -9.701 -16.716   9.626  1.00  0.00    -0.550 OA
ENDBRANCH   1   2
BRANCH   1   5
ATOM      5  C   UNL     1     -10.034 -17.195  12.311  1.00  0.00     0.006 C 
BRANCH   5   6
ATOM      6  C   UNL     1     -10.054 -17.520  13.812  1.00  0.00    -0.003 C 
ATOM      7  C   UNL     1     -11.144 -16.759  14.567  1.00  0.00     0.004 C 
ENDBRANCH   5   6
ENDBRANCH   1   5
TORSDOF 3
ENDMDL
