MODEL 1
REMARK VINA RESULT:    -2.733      0.000      0.000
REMARK INTER + INTRA:          -7.279
REMARK INTER:                  -4.811
REMARK INTRA:                  -2.469
REMARK UNBOUND:                -2.469
REMARK SMILES CCCCCCCCCCCCCCC(=O)[O-]
REMARK SMILES IDX 9 1 10 2 11 3 12 4 13 5 14 6 15 7 16 8 17 9 8 10 7 11 6 12
REMARK SMILES IDX 5 13 4 14 3 15 2 16 1 17
REMARK H PARENT
REMARK Flexibility Score: inf
ROOT
ATOM      1  C   UNL     1      21.087  66.298  15.566  1.00  0.00     0.000 C 
ENDROOT
BRANCH   1   2
ATOM      2  C   UNL     1      19.897  67.233  15.285  1.00  0.00     0.000 C 
BRANCH   2   3
ATOM      3  C   UNL     1      20.236  68.737  15.290  1.00  0.00     0.000 C 
BRANCH   3   4
ATOM      4  C   UNL     1      19.679  69.532  16.487  1.00  0.00     0.000 C 
BRANCH   4   5
ATOM      5  C   UNL     1      20.610  70.630  17.038  1.00  0.00     0.006 C 
BRANCH   5   6
ATOM      6  C   UNL     1      22.028  70.605  16.441  1.00  0.00     0.053 C 
BRANCH   6   7
ATOM      7  C   UNL     1      22.332  71.828  15.631  1.00  0.00     0.041 C 
ATOM      8  O   UNL     1      23.453  72.392  15.728  1.00  0.00    -0.550 OA
ATOM      9  O   UNL     1      21.363  72.368  14.794  1.00  0.00    -0.550 OA
ENDBRANCH   6   7
ENDBRANCH   5   6
ENDBRANCH   4   5
ENDBRANCH   3   4
ENDBRANCH   2   3
ENDBRANCH   1   2
BRANCH   1  10
ATOM     10  C   UNL     1      22.415  67.055  15.732  1.00  0.00     0.000 C 
BRANCH  10  11
ATOM     11  C   UNL     1      23.423  66.277  16.605  1.00  0.00    -0.000 C 
BRANCH  11  12
ATOM     12  C   UNL     1      23.043  66.232  18.095  1.00  0.00    -0.000 C 
BRANCH  12  13
ATOM     13  C   UNL     1      22.567  67.592  18.631  1.00  0.00    -0.000 C 
BRANCH  13  14
ATOM     14  C   UNL     1      21.133  67.538  19.184  1.00  0.00    -0.000 C 
BRANCH  14  15
ATOM     15  C   UNL     1      20.543  66.117  19.166  1.00  0.00    -0.000 C 
BRANCH  15  16
ATOM     16  C   UNL     1      19.054  66.104  18.789  1.00  0.00    -0.003 C 
ATOM     17  C   UNL     1      18.324  67.375  19.222  1.00  0.00     0.004 C 
ENDBRANCH  15  16
ENDBRANCH  14  15
ENDBRANCH  13  14
ENDBRANCH  12  13
ENDBRANCH  11  12
ENDBRANCH  10  11
ENDBRANCH   1  10
TORSDOF 13
ENDMDL
MODEL 2
REMARK VINA RESULT:    -2.660      1.412      2.952
REMARK INTER + INTRA:          -7.150
REMARK INTER:                  -5.030
REMARK INTRA:                  -2.120
REMARK UNBOUND:                -2.469
REMARK SMILES CCCCCCCCCCCCCCC(=O)[O-]
REMARK SMILES IDX 9 1 10 2 11 3 12 4 13 5 14 6 15 7 16 8 17 9 8 10 7 11 6 12
REMARK SMILES IDX 5 13 4 14 3 15 2 16 1 17
REMARK H PARENT
REMARK Flexibility Score: inf
ROOT
ATOM      1  C   UNL     1      22.953  67.790  17.582  1.00  0.00     0.000 C 
ENDROOT
BRANCH   1   2
ATOM      2  C   UNL     1      22.301  68.901  18.423  1.00  0.00     0.000 C 
BRANCH   2   3
ATOM      3  C   UNL     1      22.361  70.310  17.799  1.00  0.00     0.000 C 
BRANCH   3   4
ATOM      4  C   UNL     1      21.019  70.857  17.278  1.00  0.00     0.000 C 
BRANCH   4   5
ATOM      5  C   UNL     1      21.100  71.656  15.962  1.00  0.00     0.006 C 
BRANCH   5   6
ATOM      6  C   UNL     1      22.290  71.267  15.067  1.00  0.00     0.053 C 
BRANCH   6   7
ATOM      7  C   UNL     1      23.242  72.404  14.852  1.00  0.00     0.041 C 
ATOM      8  O   UNL     1      23.850  72.918  15.827  1.00  0.00    -0.550 OA
ATOM      9  O   UNL     1      23.434  72.920  13.576  1.00  0.00    -0.550 OA
ENDBRANCH   6   7
ENDBRANCH   5   6
ENDBRANCH   4   5
ENDBRANCH   3   4
ENDBRANCH   2   3
ENDBRANCH   1   2
BRANCH   1  10
ATOM     10  C   UNL     1      23.054  66.452  18.336  1.00  0.00     0.000 C 
BRANCH  10  11
ATOM     11  C   UNL     1      21.884  65.505  17.997  1.00  0.00    -0.000 C 
BRANCH  11  12
ATOM     12  C   UNL     1      20.824  65.411  19.108  1.00  0.00    -0.000 C 
BRANCH  12  13
ATOM     13  C   UNL     1      19.498  66.089  18.727  1.00  0.00    -0.000 C 
BRANCH  13  14
ATOM     14  C   UNL     1      19.383  66.354  17.217  1.00  0.00    -0.000 C 
BRANCH  14  15
ATOM     15  C   UNL     1      19.092  67.830  16.893  1.00  0.00    -0.000 C 
BRANCH  15  16
ATOM     16  C   UNL     1      19.297  68.157  15.407  1.00  0.00    -0.003 C 
ATOM     17  C   UNL     1      20.668  67.718  14.890  1.00  0.00     0.004 C 
ENDBRANCH  15  16
ENDBRANCH  14  15
ENDBRANCH  13  14
ENDBRANCH  12  13
ENDBRANCH  11  12
ENDBRANCH  10  11
ENDBRANCH   1  10
TORSDOF 13
ENDMDL
MODEL 3
REMARK VINA RESULT:    -2.646      1.389      3.660
REMARK INTER + INTRA:          -7.125
REMARK INTER:                  -5.141
REMARK INTRA:                  -1.985
REMARK UNBOUND:                -2.469
REMARK SMILES CCCCCCCCCCCCCCC(=O)[O-]
REMARK SMILES IDX 9 1 10 2 11 3 12 4 13 5 14 6 15 7 16 8 17 9 8 10 7 11 6 12
REMARK SMILES IDX 5 13 4 14 3 15 2 16 1 17
REMARK H PARENT
REMARK Flexibility Score: inf
ROOT
ATOM      1  C   UNL     1      22.468  68.549  18.302  1.00  0.00     0.000 C 
ENDROOT
BRANCH   1   2
ATOM      2  C   UNL     1      22.369  70.085  18.314  1.00  0.00     0.000 C 
BRANCH   2   3
ATOM      3  C   UNL     1      21.382  70.682  17.291  1.00  0.00     0.000 C 
BRANCH   3   4
ATOM      4  C   UNL     1      21.427  70.050  15.887  1.00  0.00     0.000 C 
BRANCH   4   5
ATOM      5  C   UNL     1      22.091  70.914  14.797  1.00  0.00     0.006 C 
BRANCH   5   6
ATOM      6  C   UNL     1      21.768  72.415  14.907  1.00  0.00     0.053 C 
BRANCH   6   7
ATOM      7  C   UNL     1      22.997  73.255  15.081  1.00  0.00     0.041 C 
ATOM      8  O   UNL     1      23.050  74.413  14.591  1.00  0.00    -0.550 OA
ATOM      9  O   UNL     1      24.099  72.746  15.757  1.00  0.00    -0.550 OA
ENDBRANCH   6   7
ENDBRANCH   5   6
ENDBRANCH   4   5
ENDBRANCH   3   4
ENDBRANCH   2   3
ENDBRANCH   1   2
BRANCH   1  10
ATOM     10  C   UNL     1      21.605  67.887  19.390  1.00  0.00     0.000 C 
BRANCH  10  11
ATOM     11  C   UNL     1      20.671  66.802  18.812  1.00  0.00    -0.000 C 
BRANCH  11  12
ATOM     12  C   UNL     1      19.687  67.335  17.757  1.00  0.00    -0.000 C 
BRANCH  12  13
ATOM     13  C   UNL     1      19.794  66.596  16.413  1.00  0.00    -0.000 C 
BRANCH  13  14
ATOM     14  C   UNL     1      21.055  65.721  16.320  1.00  0.00    -0.000 C 
BRANCH  14  15
ATOM     15  C   UNL     1      22.152  66.351  15.444  1.00  0.00    -0.000 C 
BRANCH  15  16
ATOM     16  C   UNL     1      23.561  65.891  15.844  1.00  0.00    -0.003 C 
ATOM     17  C   UNL     1      23.590  65.195  17.205  1.00  0.00     0.004 C 
ENDBRANCH  15  16
ENDBRANCH  14  15
ENDBRANCH  13  14
ENDBRANCH  12  13
ENDBRANCH  11  12
ENDBRANCH  10  11
ENDBRANCH   1  10
TORSDOF 13
ENDMDL
MODEL 4
REMARK VINA RESULT:    -2.621      1.146      3.008
REMARK INTER + INTRA:          -7.082
REMARK INTER:                  -4.944
REMARK INTRA:                  -2.138
REMARK UNBOUND:                -2.469
REMARK SMILES CCCCCCCCCCCCCCC(=O)[O-]
REMARK SMILES IDX 9 1 10 2 11 3 12 4 13 5 14 6 15 7 16 8 17 9 8 10 7 11 6 12
REMARK SMILES IDX 5 13 4 14 3 15 2 16 1 17
REMARK H PARENT
REMARK Flexibility Score: inf
ROOT
ATOM      1  C   UNL     1      19.314  67.461  16.085  1.00  0.00     0.000 C 
ENDROOT
BRANCH   1   2
ATOM      2  C   UNL     1      19.939  68.755  15.533  1.00  0.00     0.000 C 
BRANCH   2   3
ATOM      3  C   UNL     1      20.282  69.817  16.597  1.00  0.00     0.000 C 
BRANCH   3   4
ATOM      4  C   UNL     1      21.684  70.443  16.472  1.00  0.00     0.000 C 
BRANCH   4   5
ATOM      5  C   UNL     1      22.028  71.016  15.084  1.00  0.00     0.006 C 
BRANCH   5   6
ATOM      6  C   UNL     1      21.899  72.547  14.990  1.00  0.00     0.053 C 
BRANCH   6   7
ATOM      7  C   UNL     1      23.230  73.229  14.893  1.00  0.00     0.041 C 
ATOM      8  O   UNL     1      23.355  74.431  15.246  1.00  0.00    -0.550 OA
ATOM      9  O   UNL     1      24.327  72.547  14.381  1.00  0.00    -0.550 OA
ENDBRANCH   6   7
ENDBRANCH   5   6
ENDBRANCH   4   5
ENDBRANCH   3   4
ENDBRANCH   2   3
ENDBRANCH   1   2
BRANCH   1  10
ATOM     10  C   UNL     1      19.102  67.502  17.608  1.00  0.00     0.000 C 
BRANCH  10  11
ATOM     11  C   UNL     1      19.402  66.142  18.273  1.00  0.00    -0.000 C 
BRANCH  11  12
ATOM     12  C   UNL     1      20.707  66.129  19.087  1.00  0.00    -0.000 C 
BRANCH  12  13
ATOM     13  C   UNL     1      21.297  67.534  19.293  1.00  0.00    -0.000 C 
BRANCH  13  14
ATOM     14  C   UNL     1      22.682  67.693  18.646  1.00  0.00    -0.000 C 
BRANCH  14  15
ATOM     15  C   UNL     1      23.084  66.474  17.797  1.00  0.00    -0.000 C 
BRANCH  15  16
ATOM     16  C   UNL     1      23.063  66.774  16.291  1.00  0.00    -0.003 C 
ATOM     17  C   UNL     1      22.466  65.631  15.470  1.00  0.00     0.004 C 
ENDBRANCH  15  16
ENDBRANCH  14  15
ENDBRANCH  13  14
ENDBRANCH  12  13
ENDBRANCH  11  12
ENDBRANCH  10  11
ENDBRANCH   1  10
TORSDOF 13
ENDMDL
MODEL 5
REMARK VINA RESULT:    -2.593      2.212      3.780
REMARK INTER + INTRA:          -7.033
REMARK INTER:                  -5.534
REMARK INTRA:                  -1.500
REMARK UNBOUND:                -2.469
REMARK SMILES CCCCCCCCCCCCCCC(=O)[O-]
REMARK SMILES IDX 9 1 10 2 11 3 12 4 13 5 14 6 15 7 16 8 17 9 8 10 7 11 6 12
REMARK SMILES IDX 5 13 4 14 3 15 2 16 1 17
REMARK H PARENT
REMARK Flexibility Score: inf
ROOT
ATOM      1  C   UNL     1      22.002  70.108  18.027  1.00  0.00     0.000 C 
ENDROOT
BRANCH   1   2
ATOM      2  C   UNL     1      21.269  70.889  16.922  1.00  0.00     0.000 C 
BRANCH   2   3
ATOM      3  C   UNL     1      22.043  71.022  15.595  1.00  0.00     0.000 C 
BRANCH   3   4
ATOM      4  C   UNL     1      22.614  72.423  15.306  1.00  0.00     0.000 C 
BRANCH   4   5
ATOM      5  C   UNL     1      24.038  72.444  14.717  1.00  0.00     0.006 C 
BRANCH   5   6
ATOM      6  C   UNL     1      24.081  72.356  13.181  1.00  0.00     0.053 C 
BRANCH   6   7
ATOM      7  C   UNL     1      25.377  71.799  12.674  1.00  0.00     0.041 C 
ATOM      8  O   UNL     1      25.416  71.171  11.584  1.00  0.00    -0.550 OA
ATOM      9  O   UNL     1      26.538  71.945  13.423  1.00  0.00    -0.550 OA
ENDBRANCH   6   7
ENDBRANCH   5   6
ENDBRANCH   4   5
ENDBRANCH   3   4
ENDBRANCH   2   3
ENDBRANCH   1   2
BRANCH   1  10
ATOM     10  C   UNL     1      22.565  68.764  17.534  1.00  0.00     0.000 C 
BRANCH  10  11
ATOM     11  C   UNL     1      22.625  67.710  18.660  1.00  0.00    -0.000 C 
BRANCH  11  12
ATOM     12  C   UNL     1      21.302  67.556  19.431  1.00  0.00    -0.000 C 
BRANCH  12  13
ATOM     13  C   UNL     1      20.402  66.449  18.858  1.00  0.00    -0.000 C 
BRANCH  13  14
ATOM     14  C   UNL     1      18.965  66.930  18.602  1.00  0.00    -0.000 C 
BRANCH  14  15
ATOM     15  C   UNL     1      18.889  68.027  17.525  1.00  0.00    -0.000 C 
BRANCH  15  16
ATOM     16  C   UNL     1      19.392  67.543  16.157  1.00  0.00    -0.003 C 
ATOM     17  C   UNL     1      19.155  68.566  15.046  1.00  0.00     0.004 C 
ENDBRANCH  15  16
ENDBRANCH  14  15
ENDBRANCH  13  14
ENDBRANCH  12  13
ENDBRANCH  11  12
ENDBRANCH  10  11
ENDBRANCH   1  10
TORSDOF 13
ENDMDL
MODEL 6
REMARK VINA RESULT:    -2.520      1.207      2.758
REMARK INTER + INTRA:          -6.905
REMARK INTER:                  -4.597
REMARK INTRA:                  -2.308
REMARK UNBOUND:                -2.469
REMARK SMILES CCCCCCCCCCCCCCC(=O)[O-]
REMARK SMILES IDX 9 1 10 2 11 3 12 4 13 5 14 6 15 7 16 8 17 9 8 10 7 11 6 12
REMARK SMILES IDX 5 13 4 14 3 15 2 16 1 17
REMARK H PARENT
REMARK Flexibility Score: inf
ROOT
ATOM      1  C   UNL     1      23.120  66.215  17.944  1.00  0.00     0.000 C 
ENDROOT
BRANCH   1   2
ATOM      2  C   UNL     1      22.732  67.542  18.619  1.00  0.00     0.000 C 
BRANCH   2   3
ATOM      3  C   UNL     1      22.694  68.764  17.679  1.00  0.00     0.000 C 
BRANCH   3   4
ATOM      4  C   UNL     1      21.655  69.842  18.043  1.00  0.00     0.000 C 
BRANCH   4   5
ATOM      5  C   UNL     1      21.172  70.715  16.869  1.00  0.00     0.006 C 
BRANCH   5   6
ATOM      6  C   UNL     1      21.697  70.260  15.495  1.00  0.00     0.053 C 
BRANCH   6   7
ATOM      7  C   UNL     1      22.203  71.402  14.667  1.00  0.00     0.041 C 
ATOM      8  O   UNL     1      21.733  71.611  13.518  1.00  0.00    -0.550 OA
ATOM      9  O   UNL     1      23.218  72.217  15.152  1.00  0.00    -0.550 OA
ENDBRANCH   6   7
ENDBRANCH   5   6
ENDBRANCH   4   5
ENDBRANCH   3   4
ENDBRANCH   2   3
ENDBRANCH   1   2
BRANCH   1  10
ATOM     10  C   UNL     1      23.342  66.358  16.428  1.00  0.00     0.000 C 
BRANCH  10  11
ATOM     11  C   UNL     1      22.618  65.254  15.628  1.00  0.00    -0.000 C 
BRANCH  11  12
ATOM     12  C   UNL     1      21.958  65.762  14.335  1.00  0.00    -0.000 C 
BRANCH  12  13
ATOM     13  C   UNL     1      20.868  66.815  14.595  1.00  0.00    -0.000 C 
BRANCH  13  14
ATOM     14  C   UNL     1      19.726  66.278  15.473  1.00  0.00    -0.000 C 
BRANCH  14  15
ATOM     15  C   UNL     1      19.364  67.232  16.625  1.00  0.00    -0.000 C 
BRANCH  15  16
ATOM     16  C   UNL     1      19.300  66.515  17.982  1.00  0.00    -0.003 C 
ATOM     17  C   UNL     1      18.877  67.444  19.120  1.00  0.00     0.004 C 
ENDBRANCH  15  16
ENDBRANCH  14  15
ENDBRANCH  13  14
ENDBRANCH  12  13
ENDBRANCH  11  12
ENDBRANCH  10  11
ENDBRANCH   1  10
TORSDOF 13
ENDMDL
MODEL 7
REMARK VINA RESULT:    -2.490      1.192      1.634
REMARK INTER + INTRA:          -6.851
REMARK INTER:                  -4.993
REMARK INTRA:                  -1.857
REMARK UNBOUND:                -2.469
REMARK SMILES CCCCCCCCCCCCCCC(=O)[O-]
REMARK SMILES IDX 9 1 10 2 11 3 12 4 13 5 14 6 15 7 16 8 17 9 8 10 7 11 6 12
REMARK SMILES IDX 5 13 4 14 3 15 2 16 1 17
REMARK H PARENT
REMARK Flexibility Score: inf
ROOT
ATOM      1  C   UNL     1      20.767  67.170  15.487  1.00  0.00     0.000 C 
ENDROOT
BRANCH   1   2
ATOM      2  C   UNL     1      21.321  68.592  15.293  1.00  0.00     0.000 C 
BRANCH   2   3
ATOM      3  C   UNL     1      20.783  69.642  16.286  1.00  0.00     0.000 C 
BRANCH   3   4
ATOM      4  C   UNL     1      21.663  70.894  16.460  1.00  0.00     0.000 C 
BRANCH   4   5
ATOM      5  C   UNL     1      22.006  71.643  15.158  1.00  0.00     0.006 C 
BRANCH   5   6
ATOM      6  C   UNL     1      23.139  72.674  15.309  1.00  0.00     0.053 C 
BRANCH   6   7
ATOM      7  C   UNL     1      22.716  74.055  14.911  1.00  0.00     0.041 C 
ATOM      8  O   UNL     1      23.330  75.061  15.353  1.00  0.00    -0.550 OA
ATOM      9  O   UNL     1      21.620  74.234  14.075  1.00  0.00    -0.550 OA
ENDBRANCH   6   7
ENDBRANCH   5   6
ENDBRANCH   4   5
ENDBRANCH   3   4
ENDBRANCH   2   3
ENDBRANCH   1   2
BRANCH   1  10
ATOM     10  C   UNL     1      21.870  66.098  15.517  1.00  0.00     0.000 C 
BRANCH  10  11
ATOM     11  C   UNL     1      23.145  66.596  16.232  1.00  0.00    -0.000 C 
BRANCH  11  12
ATOM     12  C   UNL     1      23.148  66.322  17.746  1.00  0.00    -0.000 C 
BRANCH  12  13
ATOM     13  C   UNL     1      22.779  67.561  18.578  1.00  0.00    -0.000 C 
BRANCH  13  14
ATOM     14  C   UNL     1      21.402  67.432  19.250  1.00  0.00    -0.000 C 
BRANCH  14  15
ATOM     15  C   UNL     1      20.788  66.031  19.080  1.00  0.00    -0.000 C 
BRANCH  15  16
ATOM     16  C   UNL     1      19.283  66.081  18.779  1.00  0.00    -0.003 C 
ATOM     17  C   UNL     1      18.747  67.510  18.690  1.00  0.00     0.004 C 
ENDBRANCH  15  16
ENDBRANCH  14  15
ENDBRANCH  13  14
ENDBRANCH  12  13
ENDBRANCH  11  12
ENDBRANCH  10  11
ENDBRANCH   1  10
TORSDOF 13
ENDMDL
MODEL 8
REMARK VINA RESULT:    -2.485      2.002      3.497
REMARK INTER + INTRA:          -6.842
REMARK INTER:                  -4.713
REMARK INTRA:                  -2.129
REMARK UNBOUND:                -2.469
REMARK SMILES CCCCCCCCCCCCCCC(=O)[O-]
REMARK SMILES IDX 9 1 10 2 11 3 12 4 13 5 14 6 15 7 16 8 17 9 8 10 7 11 6 12
REMARK SMILES IDX 5 13 4 14 3 15 2 16 1 17
REMARK H PARENT
REMARK Flexibility Score: inf
ROOT
ATOM      1  C   UNL     1      22.745  68.105  17.554  1.00  0.00     0.000 C 
ENDROOT
BRANCH   1   2
ATOM      2  C   UNL     1      22.384  69.313  18.437  1.00  0.00     0.000 C 
BRANCH   2   3
ATOM      3  C   UNL     1      21.704  70.481  17.695  1.00  0.00     0.000 C 
BRANCH   3   4
ATOM      4  C   UNL     1      21.779  70.417  16.158  1.00  0.00     0.000 C 
BRANCH   4   5
ATOM      5  C   UNL     1      20.556  70.987  15.415  1.00  0.00     0.006 C 
BRANCH   5   6
ATOM      6  C   UNL     1      20.104  72.368  15.921  1.00  0.00     0.053 C 
BRANCH   6   7
ATOM      7  C   UNL     1      18.855  72.296  16.746  1.00  0.00     0.041 C 
ATOM      8  O   UNL     1      17.996  71.404  16.523  1.00  0.00    -0.550 OA
ATOM      9  O   UNL     1      18.623  73.237  17.742  1.00  0.00    -0.550 OA
ENDBRANCH   6   7
ENDBRANCH   5   6
ENDBRANCH   4   5
ENDBRANCH   3   4
ENDBRANCH   2   3
ENDBRANCH   1   2
BRANCH   1  10
ATOM     10  C   UNL     1      22.715  66.773  18.324  1.00  0.00     0.000 C 
BRANCH  10  11
ATOM     11  C   UNL     1      21.462  66.645  19.216  1.00  0.00    -0.000 C 
BRANCH  11  12
ATOM     12  C   UNL     1      20.526  65.497  18.802  1.00  0.00    -0.000 C 
BRANCH  12  13
ATOM     13  C   UNL     1      19.125  65.985  18.399  1.00  0.00    -0.000 C 
BRANCH  13  14
ATOM     14  C   UNL     1      19.050  67.514  18.258  1.00  0.00    -0.000 C 
BRANCH  14  15
ATOM     15  C   UNL     1      19.025  67.974  16.789  1.00  0.00    -0.000 C 
BRANCH  15  16
ATOM     16  C   UNL     1      19.346  66.834  15.811  1.00  0.00    -0.003 C 
ATOM     17  C   UNL     1      20.480  67.184  14.848  1.00  0.00     0.004 C 
ENDBRANCH  15  16
ENDBRANCH  14  15
ENDBRANCH  13  14
ENDBRANCH  12  13
ENDBRANCH  11  12
ENDBRANCH  10  11
ENDBRANCH   1  10
TORSDOF 13
ENDMDL
MODEL 9
REMARK VINA RESULT:    -2.451      2.672      4.579
REMARK INTER + INTRA:          -6.783
REMARK INTER:                  -4.431
REMARK INTRA:                  -2.352
REMARK UNBOUND:                -2.469
REMARK SMILES CCCCCCCCCCCCCCC(=O)[O-]
REMARK SMILES IDX 9 1 10 2 11 3 12 4 13 5 14 6 15 7 16 8 17 9 8 10 7 11 6 12
REMARK SMILES IDX 5 13 4 14 3 15 2 16 1 17
REMARK H PARENT
REMARK Flexibility Score: inf
ROOT
ATOM      1  C   UNL     1      21.291  66.620  18.668  1.00  0.00     0.000 C 
ENDROOT
BRANCH   1   2
ATOM      2  C   UNL     1      20.106  67.502  19.099  1.00  0.00     0.000 C 
BRANCH   2   3
ATOM      3  C   UNL     1      19.115  67.857  17.973  1.00  0.00     0.000 C 
BRANCH   3   4
ATOM      4  C   UNL     1      19.299  67.070  16.662  1.00  0.00     0.000 C 
BRANCH   4   5
ATOM      5  C   UNL     1      19.465  67.931  15.395  1.00  0.00     0.006 C 
BRANCH   5   6
ATOM      6  C   UNL     1      20.838  67.786  14.716  1.00  0.00     0.053 C 
BRANCH   6   7
ATOM      7  C   UNL     1      21.269  66.356  14.593  1.00  0.00     0.041 C 
ATOM      8  O   UNL     1      22.297  65.949  15.195  1.00  0.00    -0.550 OA
ATOM      9  O   UNL     1      20.555  65.479  13.787  1.00  0.00    -0.550 OA
ENDBRANCH   6   7
ENDBRANCH   5   6
ENDBRANCH   4   5
ENDBRANCH   3   4
ENDBRANCH   2   3
ENDBRANCH   1   2
BRANCH   1  10
ATOM     10  C   UNL     1      22.640  67.358  18.737  1.00  0.00     0.000 C 
BRANCH  10  11
ATOM     11  C   UNL     1      22.770  68.434  17.638  1.00  0.00    -0.000 C 
BRANCH  11  12
ATOM     12  C   UNL     1      22.728  69.874  18.178  1.00  0.00    -0.000 C 
BRANCH  12  13
ATOM     13  C   UNL     1      21.532  70.678  17.643  1.00  0.00    -0.000 C 
BRANCH  13  14
ATOM     14  C   UNL     1      21.726  71.122  16.183  1.00  0.00    -0.000 C 
BRANCH  14  15
ATOM     15  C   UNL     1      20.408  71.553  15.514  1.00  0.00    -0.000 C 
BRANCH  15  16
ATOM     16  C   UNL     1      19.376  72.071  16.527  1.00  0.00    -0.003 C 
ATOM     17  C   UNL     1      18.090  71.246  16.533  1.00  0.00     0.004 C 
ENDBRANCH  15  16
ENDBRANCH  14  15
ENDBRANCH  13  14
ENDBRANCH  12  13
ENDBRANCH  11  12
ENDBRANCH  10  11
ENDBRANCH   1  10
TORSDOF 13
ENDMDL
