MODEL 1
REMARK VINA RESULT:    -7.170      0.000      0.000
REMARK INTER + INTRA:          -9.224
REMARK INTER:                  -8.846
REMARK INTRA:                  -0.378
REMARK UNBOUND:                -0.378
REMARK SMILES Oc1cc(O)c2cc(O)c(-c3cc(O)c(O)c(O)c3)[o+]c2c1.[Cl-]
REMARK SMILES IDX 10 1 20 2 21 3 22 4 2 5 3 6 4 7 6 8 7 9 8 10 11 11 12 12
REMARK SMILES IDX 13 13 19 14 15 15 17 16 14 17 16 19 18 21 9 23 1 25 5 27
REMARK H PARENT 14 18 16 20 18 22 9 24 1 26 5 28
REMARK Flexibility Score: inf
ROOT
ATOM      1  C   UNL     1       4.686  -0.402 -22.569  1.00  0.00     0.402 A 
ATOM      2  O   UNL     1       3.949   0.271 -23.449  1.00  0.00    -0.202 OA
ATOM      3  C   UNL     1       4.061   1.581 -23.643  1.00  0.00     0.368 A 
ATOM      4  C   UNL     1       3.244   2.200 -24.593  1.00  0.00     0.162 A 
ATOM      5  C   UNL     1       3.341   3.573 -24.822  1.00  0.00     0.128 A 
ATOM      6  C   UNL     1       4.262   4.336 -24.094  1.00  0.00     0.093 A 
ATOM      7  C   UNL     1       5.092   3.740 -23.137  1.00  0.00     0.136 A 
ATOM      8  C   UNL     1       4.994   2.344 -22.901  1.00  0.00     0.125 A 
ATOM      9  C   UNL     1       5.775   1.664 -21.952  1.00  0.00     0.078 A 
ATOM     10  C   UNL     1       5.619   0.287 -21.773  1.00  0.00     0.223 A 
ENDROOT
BRANCH   1  11
ATOM     11  C   UNL     1       4.476  -1.863 -22.452  1.00  0.00     0.091 A 
ATOM     12  C   UNL     1       3.544  -2.353 -21.528  1.00  0.00     0.068 A 
ATOM     13  C   UNL     1       3.310  -3.726 -21.408  1.00  0.00     0.162 A 
ATOM     14  C   UNL     1       5.148  -2.768 -23.287  1.00  0.00     0.068 A 
ATOM     15  C   UNL     1       4.001  -4.636 -22.228  1.00  0.00     0.200 A 
ATOM     16  C   UNL     1       4.925  -4.146 -23.183  1.00  0.00     0.162 A 
BRANCH  13  17
ATOM     17  O   UNL     1       2.384  -4.168 -20.463  1.00  0.00    -0.504 OA
ATOM     18  H   UNL     1       1.708  -4.894 -20.665  1.00  0.00     0.293 HD
ENDBRANCH  13  17
BRANCH  15  19
ATOM     19  O   UNL     1       3.746  -6.001 -22.070  1.00  0.00    -0.502 OA
ATOM     20  H   UNL     1       4.462  -6.703 -21.957  1.00  0.00     0.293 HD
ENDBRANCH  15  19
BRANCH  16  21
ATOM     21  O   UNL     1       5.632  -4.984 -24.049  1.00  0.00    -0.504 OA
ATOM     22  H   UNL     1       5.231  -5.785 -24.516  1.00  0.00     0.293 HD
ENDBRANCH  16  21
ENDBRANCH   1  11
BRANCH  10  23
ATOM     23  O   UNL     1       6.358  -0.380 -20.796  1.00  0.00    -0.500 OA
ATOM     24  H   UNL     1       6.929   0.121 -20.124  1.00  0.00     0.294 HD
ENDBRANCH  10  23
BRANCH   5  25
ATOM     25  O   UNL     1       2.518   4.171 -25.772  1.00  0.00    -0.507 OA
ATOM     26  H   UNL     1       2.570   3.918 -26.752  1.00  0.00     0.293 HD
ENDBRANCH   5  25
BRANCH   7  27
ATOM     27  O   UNL     1       5.987   4.569 -22.454  1.00  0.00    -0.507 OA
ATOM     28  H   UNL     1       6.988   4.558 -22.586  1.00  0.00     0.293 HD
ENDBRANCH   7  27
TORSDOF 7
ENDMDL
MODEL 2
REMARK VINA RESULT:    -7.134      0.106      1.808
REMARK INTER + INTRA:          -9.181
REMARK INTER:                  -8.810
REMARK INTRA:                  -0.370
REMARK UNBOUND:                -0.378
REMARK SMILES Oc1cc(O)c2cc(O)c(-c3cc(O)c(O)c(O)c3)[o+]c2c1.[Cl-]
REMARK SMILES IDX 10 1 20 2 21 3 22 4 2 5 3 6 4 7 6 8 7 9 8 10 11 11 12 12
REMARK SMILES IDX 13 13 19 14 15 15 17 16 14 17 16 19 18 21 9 23 1 25 5 27
REMARK H PARENT 14 18 16 20 18 22 9 24 1 26 5 28
REMARK Flexibility Score: inf
ROOT
ATOM      1  C   UNL     1       4.582  -0.390 -22.554  1.00  0.00     0.402 A 
ATOM      2  O   UNL     1       3.859   0.308 -23.427  1.00  0.00    -0.202 OA
ATOM      3  C   UNL     1       4.017   1.612 -23.628  1.00  0.00     0.368 A 
ATOM      4  C   UNL     1       3.213   2.257 -24.570  1.00  0.00     0.162 A 
ATOM      5  C   UNL     1       3.358   3.625 -24.805  1.00  0.00     0.128 A 
ATOM      6  C   UNL     1       4.316   4.355 -24.092  1.00  0.00     0.093 A 
ATOM      7  C   UNL     1       5.135   3.732 -23.142  1.00  0.00     0.136 A 
ATOM      8  C   UNL     1       4.987   2.342 -22.900  1.00  0.00     0.125 A 
ATOM      9  C   UNL     1       5.755   1.636 -21.959  1.00  0.00     0.078 A 
ATOM     10  C   UNL     1       5.549   0.266 -21.772  1.00  0.00     0.223 A 
ENDROOT
BRANCH   1  11
ATOM     11  C   UNL     1       4.318  -1.842 -22.429  1.00  0.00     0.091 A 
ATOM     12  C   UNL     1       4.989  -2.739 -23.271  1.00  0.00     0.068 A 
ATOM     13  C   UNL     1       4.775  -4.116 -23.163  1.00  0.00     0.162 A 
ATOM     14  C   UNL     1       3.454  -2.346 -21.446  1.00  0.00     0.068 A 
ATOM     15  C   UNL     1       3.890  -4.621 -22.193  1.00  0.00     0.200 A 
ATOM     16  C   UNL     1       3.230  -3.722 -21.321  1.00  0.00     0.162 A 
BRANCH  13  17
ATOM     17  O   UNL     1       5.452  -4.970 -24.034  1.00  0.00    -0.504 OA
ATOM     18  H   UNL     1       6.463  -4.993 -24.093  1.00  0.00     0.293 HD
ENDBRANCH  13  17
BRANCH  15  19
ATOM     19  O   UNL     1       3.696  -6.003 -22.125  1.00  0.00    -0.502 OA
ATOM     20  H   UNL     1       3.295  -6.558 -22.866  1.00  0.00     0.293 HD
ENDBRANCH  15  19
BRANCH  16  21
ATOM     21  O   UNL     1       2.355  -4.148 -20.318  1.00  0.00    -0.504 OA
ATOM     22  H   UNL     1       1.608  -3.585 -19.941  1.00  0.00     0.293 HD
ENDBRANCH  16  21
ENDBRANCH   1  11
BRANCH  10  23
ATOM     23  O   UNL     1       6.276  -0.425 -20.802  1.00  0.00    -0.500 OA
ATOM     24  H   UNL     1       7.151  -0.068 -20.437  1.00  0.00     0.294 HD
ENDBRANCH  10  23
BRANCH   5  25
ATOM     25  O   UNL     1       2.546   4.250 -25.748  1.00  0.00    -0.507 OA
ATOM     26  H   UNL     1       2.932   4.861 -26.458  1.00  0.00     0.293 HD
ENDBRANCH   5  25
BRANCH   7  27
ATOM     27  O   UNL     1       6.069   4.529 -22.475  1.00  0.00    -0.507 OA
ATOM     28  H   UNL     1       6.262   4.474 -21.486  1.00  0.00     0.293 HD
ENDBRANCH   7  27
TORSDOF 7
ENDMDL
MODEL 3
REMARK VINA RESULT:    -6.852      1.028      2.558
REMARK INTER + INTRA:          -8.832
REMARK INTER:                  -8.497
REMARK INTRA:                  -0.335
REMARK UNBOUND:                -0.378
REMARK SMILES Oc1cc(O)c2cc(O)c(-c3cc(O)c(O)c(O)c3)[o+]c2c1.[Cl-]
REMARK SMILES IDX 10 1 20 2 21 3 22 4 2 5 3 6 4 7 6 8 7 9 8 10 11 11 12 12
REMARK SMILES IDX 13 13 19 14 15 15 17 16 14 17 16 19 18 21 9 23 1 25 5 27
REMARK H PARENT 14 18 16 20 18 22 9 24 1 26 5 28
REMARK Flexibility Score: inf
ROOT
ATOM      1  C   UNL     1       4.014  -0.326 -23.465  1.00  0.00     0.402 A 
ATOM      2  O   UNL     1       4.689   0.547 -22.722  1.00  0.00    -0.202 OA
ATOM      3  C   UNL     1       4.722   1.851 -22.976  1.00  0.00     0.368 A 
ATOM      4  C   UNL     1       5.457   2.689 -22.135  1.00  0.00     0.162 A 
ATOM      5  C   UNL     1       5.508   4.062 -22.375  1.00  0.00     0.128 A 
ATOM      6  C   UNL     1       4.818   4.604 -23.466  1.00  0.00     0.093 A 
ATOM      7  C   UNL     1       4.073   3.785 -24.324  1.00  0.00     0.136 A 
ATOM      8  C   UNL     1       4.023   2.388 -24.083  1.00  0.00     0.125 A 
ATOM      9  C   UNL     1       3.313   1.489 -24.897  1.00  0.00     0.078 A 
ATOM     10  C   UNL     1       3.313   0.123 -24.599  1.00  0.00     0.223 A 
ENDROOT
BRANCH   1  11
ATOM     11  C   UNL     1       4.045  -1.753 -23.072  1.00  0.00     0.091 A 
ATOM     12  C   UNL     1       3.206  -2.204 -22.045  1.00  0.00     0.068 A 
ATOM     13  C   UNL     1       3.200  -3.549 -21.665  1.00  0.00     0.162 A 
ATOM     14  C   UNL     1       4.857  -2.679 -23.745  1.00  0.00     0.068 A 
ATOM     15  C   UNL     1       4.031  -4.474 -22.323  1.00  0.00     0.200 A 
ATOM     16  C   UNL     1       4.862  -4.031 -23.381  1.00  0.00     0.162 A 
BRANCH  13  17
ATOM     17  O   UNL     1       2.360  -3.949 -20.626  1.00  0.00    -0.504 OA
ATOM     18  H   UNL     1       1.490  -4.440 -20.792  1.00  0.00     0.293 HD
ENDBRANCH  13  17
BRANCH  15  19
ATOM     19  O   UNL     1       4.004  -5.808 -21.907  1.00  0.00    -0.502 OA
ATOM     20  H   UNL     1       3.161  -6.316 -21.683  1.00  0.00     0.293 HD
ENDBRANCH  15  19
BRANCH  16  21
ATOM     21  O   UNL     1       5.697  -4.892 -24.097  1.00  0.00    -0.504 OA
ATOM     22  H   UNL     1       6.034  -4.708 -25.031  1.00  0.00     0.293 HD
ENDBRANCH  16  21
ENDBRANCH   1  11
BRANCH  10  23
ATOM     23  O   UNL     1       2.651  -0.776 -25.436  1.00  0.00    -0.500 OA
ATOM     24  H   UNL     1       1.920  -1.387 -25.089  1.00  0.00     0.294 HD
ENDBRANCH  10  23
BRANCH   5  25
ATOM     25  O   UNL     1       6.247   4.882 -21.526  1.00  0.00    -0.507 OA
ATOM     26  H   UNL     1       5.818   5.651 -21.026  1.00  0.00     0.293 HD
ENDBRANCH   5  25
BRANCH   7  27
ATOM     27  O   UNL     1       3.410   4.402 -25.389  1.00  0.00    -0.507 OA
ATOM     28  H   UNL     1       2.648   5.055 -25.285  1.00  0.00     0.293 HD
ENDBRANCH   7  27
TORSDOF 7
ENDMDL
MODEL 4
REMARK VINA RESULT:    -6.805      6.052     11.288
REMARK INTER + INTRA:          -8.774
REMARK INTER:                  -8.470
REMARK INTRA:                  -0.304
REMARK UNBOUND:                -0.378
REMARK SMILES Oc1cc(O)c2cc(O)c(-c3cc(O)c(O)c(O)c3)[o+]c2c1.[Cl-]
REMARK SMILES IDX 10 1 20 2 21 3 22 4 2 5 3 6 4 7 6 8 7 9 8 10 11 11 12 12
REMARK SMILES IDX 13 13 19 14 15 15 17 16 14 17 16 19 18 21 9 23 1 25 5 27
REMARK H PARENT 14 18 16 20 18 22 9 24 1 26 5 28
REMARK Flexibility Score: inf
ROOT
ATOM      1  C   UNL     1       5.523   8.605 -23.819  1.00  0.00     0.402 A 
ATOM      2  O   UNL     1       4.608   7.980 -24.556  1.00  0.00    -0.202 OA
ATOM      3  C   UNL     1       4.059   6.820 -24.210  1.00  0.00     0.368 A 
ATOM      4  C   UNL     1       3.103   6.243 -25.049  1.00  0.00     0.162 A 
ATOM      5  C   UNL     1       2.508   5.027 -24.710  1.00  0.00     0.128 A 
ATOM      6  C   UNL     1       2.870   4.382 -23.521  1.00  0.00     0.093 A 
ATOM      7  C   UNL     1       3.825   4.941 -22.663  1.00  0.00     0.136 A 
ATOM      8  C   UNL     1       4.434   6.175 -23.007  1.00  0.00     0.125 A 
ATOM      9  C   UNL     1       5.410   6.802 -22.215  1.00  0.00     0.078 A 
ATOM     10  C   UNL     1       5.969   8.017 -22.622  1.00  0.00     0.223 A 
ENDROOT
BRANCH   1  11
ATOM     11  C   UNL     1       6.052   9.898 -24.308  1.00  0.00     0.091 A 
ATOM     12  C   UNL     1       6.827   9.929 -25.474  1.00  0.00     0.068 A 
ATOM     13  C   UNL     1       7.325  11.138 -25.970  1.00  0.00     0.162 A 
ATOM     14  C   UNL     1       5.745  11.105 -23.660  1.00  0.00     0.068 A 
ATOM     15  C   UNL     1       7.038  12.346 -25.308  1.00  0.00     0.200 A 
ATOM     16  C   UNL     1       6.232  12.325 -24.144  1.00  0.00     0.162 A 
BRANCH  13  17
ATOM     17  O   UNL     1       8.106  11.118 -27.125  1.00  0.00    -0.504 OA
ATOM     18  H   UNL     1       7.887  10.526 -27.917  1.00  0.00     0.293 HD
ENDBRANCH  13  17
BRANCH  15  19
ATOM     19  O   UNL     1       7.562  13.532 -25.830  1.00  0.00    -0.502 OA
ATOM     20  H   UNL     1       7.614  14.402 -25.322  1.00  0.00     0.293 HD
ENDBRANCH  15  19
BRANCH  16  21
ATOM     21  O   UNL     1       5.884  13.484 -23.446  1.00  0.00    -0.504 OA
ATOM     22  H   UNL     1       6.120  14.419 -23.746  1.00  0.00     0.293 HD
ENDBRANCH  16  21
ENDBRANCH   1  11
BRANCH  10  23
ATOM     23  O   UNL     1       6.974   8.615 -21.861  1.00  0.00    -0.500 OA
ATOM     24  H   UNL     1       6.762   9.170 -21.039  1.00  0.00     0.294 HD
ENDBRANCH  10  23
BRANCH   5  25
ATOM     25  O   UNL     1       1.557   4.467 -25.560  1.00  0.00    -0.507 OA
ATOM     26  H   UNL     1       1.584   3.486 -25.812  1.00  0.00     0.293 HD
ENDBRANCH   5  25
BRANCH   7  27
ATOM     27  O   UNL     1       4.131   4.237 -21.494  1.00  0.00    -0.507 OA
ATOM     28  H   UNL     1       4.536   4.652 -20.668  1.00  0.00     0.293 HD
ENDBRANCH   7  27
TORSDOF 7
ENDMDL
MODEL 5
REMARK VINA RESULT:    -6.757      1.184      7.204
REMARK INTER + INTRA:          -8.716
REMARK INTER:                  -8.337
REMARK INTRA:                  -0.378
REMARK UNBOUND:                -0.378
REMARK SMILES Oc1cc(O)c2cc(O)c(-c3cc(O)c(O)c(O)c3)[o+]c2c1.[Cl-]
REMARK SMILES IDX 10 1 20 2 21 3 22 4 2 5 3 6 4 7 6 8 7 9 8 10 11 11 12 12
REMARK SMILES IDX 13 13 19 14 15 15 17 16 14 17 16 19 18 21 9 23 1 25 5 27
REMARK H PARENT 14 18 16 20 18 22 9 24 1 26 5 28
REMARK Flexibility Score: inf
ROOT
ATOM      1  C   UNL     1       4.539   0.203 -23.252  1.00  0.00     0.402 A 
ATOM      2  O   UNL     1       3.858  -0.492 -22.345  1.00  0.00    -0.202 OA
ATOM      3  C   UNL     1       3.851  -1.820 -22.296  1.00  0.00     0.368 A 
ATOM      4  C   UNL     1       3.107  -2.461 -21.302  1.00  0.00     0.162 A 
ATOM      5  C   UNL     1       3.084  -3.853 -21.225  1.00  0.00     0.128 A 
ATOM      6  C   UNL     1       3.811  -4.615 -22.148  1.00  0.00     0.093 A 
ATOM      7  C   UNL     1       4.565  -3.996 -23.153  1.00  0.00     0.136 A 
ATOM      8  C   UNL     1       4.588  -2.580 -23.236  1.00  0.00     0.125 A 
ATOM      9  C   UNL     1       5.305  -1.875 -24.217  1.00  0.00     0.078 A 
ATOM     10  C   UNL     1       5.276  -0.478 -24.238  1.00  0.00     0.223 A 
ENDROOT
BRANCH   1  11
ATOM     11  C   UNL     1       4.475   1.681 -23.196  1.00  0.00     0.091 A 
ATOM     12  C   UNL     1       5.425   2.383 -22.442  1.00  0.00     0.068 A 
ATOM     13  C   UNL     1       5.401   3.780 -22.385  1.00  0.00     0.162 A 
ATOM     14  C   UNL     1       3.518   2.400 -23.928  1.00  0.00     0.068 A 
ATOM     15  C   UNL     1       4.427   4.501 -23.099  1.00  0.00     0.200 A 
ATOM     16  C   UNL     1       3.481   3.799 -23.885  1.00  0.00     0.162 A 
BRANCH  13  17
ATOM     17  O   UNL     1       6.356   4.435 -21.608  1.00  0.00    -0.504 OA
ATOM     18  H   UNL     1       6.110   4.970 -20.784  1.00  0.00     0.293 HD
ENDBRANCH  13  17
BRANCH  15  19
ATOM     19  O   UNL     1       4.431   5.895 -23.008  1.00  0.00    -0.502 OA
ATOM     20  H   UNL     1       4.185   6.515 -23.766  1.00  0.00     0.293 HD
ENDBRANCH  15  19
BRANCH  16  21
ATOM     21  O   UNL     1       2.499   4.444 -24.641  1.00  0.00    -0.504 OA
ATOM     22  H   UNL     1       1.521   4.473 -24.393  1.00  0.00     0.293 HD
ENDBRANCH  16  21
ENDBRANCH   1  11
BRANCH  10  23
ATOM     23  O   UNL     1       5.947   0.221 -25.243  1.00  0.00    -0.500 OA
ATOM     24  H   UNL     1       5.534   1.028 -25.697  1.00  0.00     0.294 HD
ENDBRANCH  10  23
BRANCH   5  25
ATOM     25  O   UNL     1       2.336  -4.473 -20.227  1.00  0.00    -0.507 OA
ATOM     26  H   UNL     1       1.522  -5.036 -20.447  1.00  0.00     0.293 HD
ENDBRANCH   5  25
BRANCH   7  27
ATOM     27  O   UNL     1       5.265  -4.825 -24.035  1.00  0.00    -0.507 OA
ATOM     28  H   UNL     1       5.412  -4.623 -25.012  1.00  0.00     0.293 HD
ENDBRANCH   7  27
TORSDOF 7
ENDMDL
MODEL 6
REMARK VINA RESULT:    -6.668      4.719     10.387
REMARK INTER + INTRA:          -8.606
REMARK INTER:                  -8.268
REMARK INTRA:                  -0.338
REMARK UNBOUND:                -0.378
REMARK SMILES Oc1cc(O)c2cc(O)c(-c3cc(O)c(O)c(O)c3)[o+]c2c1.[Cl-]
REMARK SMILES IDX 10 1 20 2 21 3 22 4 2 5 3 6 4 7 6 8 7 9 8 10 11 11 12 12
REMARK SMILES IDX 13 13 19 14 15 15 17 16 14 17 16 19 18 21 9 23 1 25 5 27
REMARK H PARENT 14 18 16 20 18 22 9 24 1 26 5 28
REMARK Flexibility Score: inf
ROOT
ATOM      1  C   UNL     1       4.512   7.441 -23.138  1.00  0.00     0.402 A 
ATOM      2  O   UNL     1       4.369   6.580 -24.142  1.00  0.00    -0.202 OA
ATOM      3  C   UNL     1       4.220   5.271 -23.966  1.00  0.00     0.368 A 
ATOM      4  C   UNL     1       4.073   4.447 -25.085  1.00  0.00     0.162 A 
ATOM      5  C   UNL     1       3.912   3.070 -24.931  1.00  0.00     0.128 A 
ATOM      6  C   UNL     1       3.898   2.510 -23.648  1.00  0.00     0.093 A 
ATOM      7  C   UNL     1       4.043   3.314 -22.511  1.00  0.00     0.136 A 
ATOM      8  C   UNL     1       4.210   4.715 -22.665  1.00  0.00     0.125 A 
ATOM      9  C   UNL     1       4.375   5.596 -21.584  1.00  0.00     0.078 A 
ATOM     10  C   UNL     1       4.539   6.966 -21.814  1.00  0.00     0.223 A 
ENDROOT
BRANCH   1  11
ATOM     11  C   UNL     1       4.659   8.878 -23.462  1.00  0.00     0.091 A 
ATOM     12  C   UNL     1       5.851   9.336 -24.040  1.00  0.00     0.068 A 
ATOM     13  C   UNL     1       6.012  10.683 -24.374  1.00  0.00     0.162 A 
ATOM     14  C   UNL     1       3.608   9.785 -23.258  1.00  0.00     0.068 A 
ATOM     15  C   UNL     1       4.967  11.598 -24.147  1.00  0.00     0.200 A 
ATOM     16  C   UNL     1       3.750  11.138 -23.590  1.00  0.00     0.162 A 
BRANCH  13  17
ATOM     17  O   UNL     1       7.222  11.096 -24.932  1.00  0.00    -0.504 OA
ATOM     18  H   UNL     1       8.116  10.856 -24.523  1.00  0.00     0.293 HD
ENDBRANCH  13  17
BRANCH  15  19
ATOM     19  O   UNL     1       5.171  12.938 -24.487  1.00  0.00    -0.502 OA
ATOM     20  H   UNL     1       5.289  13.683 -23.815  1.00  0.00     0.293 HD
ENDBRANCH  15  19
BRANCH  16  21
ATOM     21  O   UNL     1       2.660  11.980 -23.357  1.00  0.00    -0.504 OA
ATOM     22  H   UNL     1       1.859  11.729 -22.795  1.00  0.00     0.293 HD
ENDBRANCH  16  21
ENDBRANCH   1  11
BRANCH  10  23
ATOM     23  O   UNL     1       4.754   7.835 -20.744  1.00  0.00    -0.500 OA
ATOM     24  H   UNL     1       4.647   7.532 -19.782  1.00  0.00     0.294 HD
ENDBRANCH  10  23
BRANCH   5  25
ATOM     25  O   UNL     1       3.768   2.265 -26.058  1.00  0.00    -0.507 OA
ATOM     26  H   UNL     1       3.401   1.322 -25.993  1.00  0.00     0.293 HD
ENDBRANCH   5  25
BRANCH   7  27
ATOM     27  O   UNL     1       4.016   2.680 -21.265  1.00  0.00    -0.507 OA
ATOM     28  H   UNL     1       4.113   1.685 -21.130  1.00  0.00     0.293 HD
ENDBRANCH   7  27
TORSDOF 7
ENDMDL
MODEL 7
REMARK VINA RESULT:    -6.563      4.644     10.659
REMARK INTER + INTRA:          -8.475
REMARK INTER:                  -8.106
REMARK INTRA:                  -0.370
REMARK UNBOUND:                -0.378
REMARK SMILES Oc1cc(O)c2cc(O)c(-c3cc(O)c(O)c(O)c3)[o+]c2c1.[Cl-]
REMARK SMILES IDX 10 1 20 2 21 3 22 4 2 5 3 6 4 7 6 8 7 9 8 10 11 11 12 12
REMARK SMILES IDX 13 13 19 14 15 15 17 16 14 17 16 19 18 21 9 23 1 25 5 27
REMARK H PARENT 14 18 16 20 18 22 9 24 1 26 5 28
REMARK Flexibility Score: inf
ROOT
ATOM      1  C   UNL     1       4.454   7.427 -24.091  1.00  0.00     0.402 A 
ATOM      2  O   UNL     1       4.618   6.624 -23.043  1.00  0.00    -0.202 OA
ATOM      3  C   UNL     1       4.411   5.312 -23.089  1.00  0.00     0.368 A 
ATOM      4  C   UNL     1       4.614   4.551 -21.936  1.00  0.00     0.162 A 
ATOM      5  C   UNL     1       4.408   3.171 -21.955  1.00  0.00     0.128 A 
ATOM      6  C   UNL     1       3.995   2.545 -23.137  1.00  0.00     0.093 A 
ATOM      7  C   UNL     1       3.785   3.286 -24.307  1.00  0.00     0.136 A 
ATOM      8  C   UNL     1       3.992   4.690 -24.289  1.00  0.00     0.125 A 
ATOM      9  C   UNL     1       3.794   5.514 -25.409  1.00  0.00     0.078 A 
ATOM     10  C   UNL     1       4.014   6.891 -25.314  1.00  0.00     0.223 A 
ENDROOT
BRANCH   1  11
ATOM     11  C   UNL     1       4.727   8.872 -23.916  1.00  0.00     0.091 A 
ATOM     12  C   UNL     1       5.967   9.392 -24.310  1.00  0.00     0.068 A 
ATOM     13  C   UNL     1       6.247  10.754 -24.174  1.00  0.00     0.162 A 
ATOM     14  C   UNL     1       3.749   9.746 -23.416  1.00  0.00     0.068 A 
ATOM     15  C   UNL     1       5.275  11.627 -23.651  1.00  0.00     0.200 A 
ATOM     16  C   UNL     1       4.010  11.114 -23.276  1.00  0.00     0.162 A 
BRANCH  13  17
ATOM     17  O   UNL     1       7.500  11.223 -24.565  1.00  0.00    -0.504 OA
ATOM     18  H   UNL     1       7.816  12.163 -24.356  1.00  0.00     0.293 HD
ENDBRANCH  13  17
BRANCH  15  19
ATOM     19  O   UNL     1       5.597  12.981 -23.522  1.00  0.00    -0.502 OA
ATOM     20  H   UNL     1       6.374  13.427 -23.988  1.00  0.00     0.293 HD
ENDBRANCH  15  19
BRANCH  16  21
ATOM     21  O   UNL     1       2.987  11.920 -22.771  1.00  0.00    -0.504 OA
ATOM     22  H   UNL     1       2.074  11.579 -22.508  1.00  0.00     0.293 HD
ENDBRANCH  16  21
ENDBRANCH   1  11
BRANCH  10  23
ATOM     23  O   UNL     1       3.768   7.716 -26.412  1.00  0.00    -0.500 OA
ATOM     24  H   UNL     1       3.255   8.586 -26.321  1.00  0.00     0.294 HD
ENDBRANCH  10  23
BRANCH   5  25
ATOM     25  O   UNL     1       4.614   2.429 -20.795  1.00  0.00    -0.507 OA
ATOM     26  H   UNL     1       3.844   2.003 -20.293  1.00  0.00     0.293 HD
ENDBRANCH   5  25
BRANCH   7  27
ATOM     27  O   UNL     1       3.376   2.588 -25.447  1.00  0.00    -0.507 OA
ATOM     28  H   UNL     1       2.616   2.871 -26.047  1.00  0.00     0.293 HD
ENDBRANCH   7  27
TORSDOF 7
ENDMDL
MODEL 8
REMARK VINA RESULT:    -6.458      4.645     10.536
REMARK INTER + INTRA:          -8.346
REMARK INTER:                  -7.980
REMARK INTRA:                  -0.366
REMARK UNBOUND:                -0.378
REMARK SMILES Oc1cc(O)c2cc(O)c(-c3cc(O)c(O)c(O)c3)[o+]c2c1.[Cl-]
REMARK SMILES IDX 10 1 20 2 21 3 22 4 2 5 3 6 4 7 6 8 7 9 8 10 11 11 12 12
REMARK SMILES IDX 13 13 19 14 15 15 17 16 14 17 16 19 18 21 9 23 1 25 5 27
REMARK H PARENT 14 18 16 20 18 22 9 24 1 26 5 28
REMARK Flexibility Score: inf
ROOT
ATOM      1  C   UNL     1       4.428   7.428 -24.225  1.00  0.00     0.402 A 
ATOM      2  O   UNL     1       4.633   6.665 -23.154  1.00  0.00    -0.202 OA
ATOM      3  C   UNL     1       4.402   5.356 -23.135  1.00  0.00     0.368 A 
ATOM      4  C   UNL     1       4.652   4.639 -21.963  1.00  0.00     0.162 A 
ATOM      5  C   UNL     1       4.423   3.263 -21.915  1.00  0.00     0.128 A 
ATOM      6  C   UNL     1       3.940   2.597 -23.047  1.00  0.00     0.093 A 
ATOM      7  C   UNL     1       3.682   3.294 -24.235  1.00  0.00     0.136 A 
ATOM      8  C   UNL     1       3.912   4.693 -24.286  1.00  0.00     0.125 A 
ATOM      9  C   UNL     1       3.670   5.474 -25.428  1.00  0.00     0.078 A 
ATOM     10  C   UNL     1       3.916   6.850 -25.402  1.00  0.00     0.223 A 
ENDROOT
BRANCH   1  11
ATOM     11  C   UNL     1       4.733   8.873 -24.125  1.00  0.00     0.091 A 
ATOM     12  C   UNL     1       3.847   9.718 -23.444  1.00  0.00     0.068 A 
ATOM     13  C   UNL     1       4.117  11.083 -23.316  1.00  0.00     0.162 A 
ATOM     14  C   UNL     1       5.920   9.408 -24.647  1.00  0.00     0.068 A 
ATOM     15  C   UNL     1       5.295  11.625 -23.860  1.00  0.00     0.200 A 
ATOM     16  C   UNL     1       6.209  10.773 -24.526  1.00  0.00     0.162 A 
BRANCH  13  17
ATOM     17  O   UNL     1       3.198  11.889 -22.644  1.00  0.00    -0.504 OA
ATOM     18  H   UNL     1       2.639  11.545 -21.872  1.00  0.00     0.293 HD
ENDBRANCH  13  17
BRANCH  15  19
ATOM     19  O   UNL     1       5.524  12.997 -23.720  1.00  0.00    -0.502 OA
ATOM     20  H   UNL     1       4.822  13.664 -23.435  1.00  0.00     0.293 HD
ENDBRANCH  15  19
BRANCH  16  21
ATOM     21  O   UNL     1       7.410  11.231 -25.072  1.00  0.00    -0.504 OA
ATOM     22  H   UNL     1       8.274  11.310 -24.555  1.00  0.00     0.293 HD
ENDBRANCH  16  21
ENDBRANCH   1  11
BRANCH  10  23
ATOM     23  O   UNL     1       3.628   7.634 -26.519  1.00  0.00    -0.500 OA
ATOM     24  H   UNL     1       2.688   7.706 -26.892  1.00  0.00     0.294 HD
ENDBRANCH  10  23
BRANCH   5  25
ATOM     25  O   UNL     1       4.677   2.566 -20.736  1.00  0.00    -0.507 OA
ATOM     26  H   UNL     1       5.124   1.656 -20.744  1.00  0.00     0.293 HD
ENDBRANCH   5  25
BRANCH   7  27
ATOM     27  O   UNL     1       3.204   2.557 -25.323  1.00  0.00    -0.507 OA
ATOM     28  H   UNL     1       2.779   2.963 -26.143  1.00  0.00     0.293 HD
ENDBRANCH   7  27
TORSDOF 7
ENDMDL
MODEL 9
REMARK VINA RESULT:    -6.355      6.988      9.566
REMARK INTER + INTRA:          -8.219
REMARK INTER:                  -7.835
REMARK INTRA:                  -0.384
REMARK UNBOUND:                -0.378
REMARK SMILES Oc1cc(O)c2cc(O)c(-c3cc(O)c(O)c(O)c3)[o+]c2c1.[Cl-]
REMARK SMILES IDX 10 1 20 2 21 3 22 4 2 5 3 6 4 7 6 8 7 9 8 10 11 11 12 12
REMARK SMILES IDX 13 13 19 14 15 15 17 16 14 17 16 19 18 21 9 23 1 25 5 27
REMARK H PARENT 14 18 16 20 18 22 9 24 1 26 5 28
REMARK Flexibility Score: inf
ROOT
ATOM      1  C   UNL     1       4.689   8.565 -24.190  1.00  0.00     0.402 A 
ATOM      2  O   UNL     1       4.773   9.527 -25.105  1.00  0.00    -0.202 OA
ATOM      3  C   UNL     1       5.648  10.525 -25.037  1.00  0.00     0.368 A 
ATOM      4  C   UNL     1       5.663  11.487 -26.050  1.00  0.00     0.162 A 
ATOM      5  C   UNL     1       6.573  12.544 -26.007  1.00  0.00     0.128 A 
ATOM      6  C   UNL     1       7.477  12.642 -24.942  1.00  0.00     0.093 A 
ATOM      7  C   UNL     1       7.483  11.690 -23.915  1.00  0.00     0.136 A 
ATOM      8  C   UNL     1       6.557  10.616 -23.955  1.00  0.00     0.125 A 
ATOM      9  C   UNL     1       6.481   9.623 -22.964  1.00  0.00     0.078 A 
ATOM     10  C   UNL     1       5.539   8.596 -23.070  1.00  0.00     0.223 A 
ENDROOT
BRANCH   1  11
ATOM     11  C   UNL     1       3.678   7.501 -24.384  1.00  0.00     0.091 A 
ATOM     12  C   UNL     1       2.349   7.736 -24.006  1.00  0.00     0.068 A 
ATOM     13  C   UNL     1       1.369   6.757 -24.194  1.00  0.00     0.162 A 
ATOM     14  C   UNL     1       4.009   6.280 -24.991  1.00  0.00     0.068 A 
ATOM     15  C   UNL     1       1.705   5.523 -24.781  1.00  0.00     0.200 A 
ATOM     16  C   UNL     1       3.040   5.289 -25.190  1.00  0.00     0.162 A 
BRANCH  13  17
ATOM     17  O   UNL     1       0.063   7.030 -23.788  1.00  0.00    -0.504 OA
ATOM     18  H   UNL     1      -0.728   6.942 -24.414  1.00  0.00     0.293 HD
ENDBRANCH  13  17
BRANCH  15  19
ATOM     19  O   UNL     1       0.698   4.567 -24.942  1.00  0.00    -0.502 OA
ATOM     20  H   UNL     1      -0.235   4.774 -25.265  1.00  0.00     0.293 HD
ENDBRANCH  15  19
BRANCH  16  21
ATOM     21  O   UNL     1       3.446   4.100 -25.800  1.00  0.00    -0.504 OA
ATOM     22  H   UNL     1       4.266   4.012 -26.382  1.00  0.00     0.293 HD
ENDBRANCH  16  21
ENDBRANCH   1  11
BRANCH  10  23
ATOM     23  O   UNL     1       5.430   7.640 -22.060  1.00  0.00    -0.500 OA
ATOM     24  H   UNL     1       5.133   7.886 -21.122  1.00  0.00     0.294 HD
ENDBRANCH  10  23
BRANCH   5  25
ATOM     25  O   UNL     1       6.571  13.494 -27.025  1.00  0.00    -0.507 OA
ATOM     26  H   UNL     1       6.778  14.469 -26.842  1.00  0.00     0.293 HD
ENDBRANCH   5  25
BRANCH   7  27
ATOM     27  O   UNL     1       8.418  11.855 -22.889  1.00  0.00    -0.507 OA
ATOM     28  H   UNL     1       8.746  12.749 -22.556  1.00  0.00     0.293 HD
ENDBRANCH   7  27
TORSDOF 7
ENDMDL
