MODEL 1
REMARK VINA RESULT:    -4.662      0.000      0.000
REMARK INTER + INTRA:          -5.102
REMARK INTER:                  -4.935
REMARK INTRA:                  -0.167
REMARK UNBOUND:                -0.167
REMARK SMILES CC1=CC=C(C(C)C)CC1
REMARK SMILES IDX 1 1 2 2 3 3 4 4 5 5 9 6 10 7 6 8 7 9 8 10
REMARK H PARENT
REMARK Flexibility Score: inf
ROOT
ATOM      1  C   UNL     1      33.105  11.791  31.552  1.00  0.00     0.039 C 
ATOM      2  C   UNL     1      32.607  10.935  32.679  1.00  0.00    -0.073 C 
ATOM      3  C   UNL     1      32.176  11.507  33.813  1.00  0.00    -0.001 C 
ATOM      4  C   UNL     1      31.677  10.686  34.932  1.00  0.00    -0.001 C 
ATOM      5  C   UNL     1      31.427   9.373  34.770  1.00  0.00    -0.067 C 
ATOM      6  C   UNL     1      31.557   8.762  33.390  1.00  0.00     0.035 C 
ATOM      7  C   UNL     1      32.684   9.428  32.585  1.00  0.00     0.035 C 
ENDROOT
BRANCH   5   8
ATOM      8  C   UNL     1      30.932   8.516  35.921  1.00  0.00     0.009 C 
ATOM      9  C   UNL     1      31.470   7.083  35.817  1.00  0.00     0.012 C 
ATOM     10  C   UNL     1      31.282   9.140  37.278  1.00  0.00     0.012 C 
ENDBRANCH   5   8
TORSDOF 1
ENDMDL
MODEL 2
REMARK VINA RESULT:    -4.417      1.797      3.063
REMARK INTER + INTRA:          -4.842
REMARK INTER:                  -4.675
REMARK INTRA:                  -0.167
REMARK UNBOUND:                -0.167
REMARK SMILES CC1=CC=C(C(C)C)CC1
REMARK SMILES IDX 1 1 2 2 3 3 4 4 5 5 9 6 10 7 6 8 7 9 8 10
REMARK H PARENT
REMARK Flexibility Score: inf
ROOT
ATOM      1  C   UNL     1      33.119  12.965  30.747  1.00  0.00     0.039 C 
ATOM      2  C   UNL     1      32.651  11.640  31.271  1.00  0.00    -0.073 C 
ATOM      3  C   UNL     1      32.040  10.773  30.448  1.00  0.00    -0.001 C 
ATOM      4  C   UNL     1      31.577   9.462  30.940  1.00  0.00    -0.001 C 
ATOM      5  C   UNL     1      31.948   9.006  32.151  1.00  0.00    -0.067 C 
ATOM      6  C   UNL     1      32.944   9.805  32.967  1.00  0.00     0.035 C 
ATOM      7  C   UNL     1      32.770  11.315  32.743  1.00  0.00     0.035 C 
ENDROOT
BRANCH   5   8
ATOM      8  C   UNL     1      31.461   7.666  32.673  1.00  0.00     0.009 C 
ATOM      9  C   UNL     1      31.457   7.638  34.207  1.00  0.00     0.012 C 
ATOM     10  C   UNL     1      30.079   7.313  32.110  1.00  0.00     0.012 C 
ENDBRANCH   5   8
TORSDOF 1
ENDMDL
MODEL 3
REMARK VINA RESULT:    -4.405      2.916      6.025
REMARK INTER + INTRA:          -4.830
REMARK INTER:                  -4.664
REMARK INTRA:                  -0.166
REMARK UNBOUND:                -0.167
REMARK SMILES CC1=CC=C(C(C)C)CC1
REMARK SMILES IDX 1 1 2 2 3 3 4 4 5 5 9 6 10 7 6 8 7 9 8 10
REMARK H PARENT
REMARK Flexibility Score: inf
ROOT
ATOM      1  C   UNL     1      32.730  11.148  33.596  1.00  0.00     0.039 C 
ATOM      2  C   UNL     1      32.505  10.964  32.124  1.00  0.00    -0.073 C 
ATOM      3  C   UNL     1      31.827   9.894  31.680  1.00  0.00    -0.001 C 
ATOM      4  C   UNL     1      31.589   9.695  30.238  1.00  0.00    -0.001 C 
ATOM      5  C   UNL     1      31.840  10.678  29.353  1.00  0.00    -0.067 C 
ATOM      6  C   UNL     1      32.266  12.039  29.863  1.00  0.00     0.035 C 
ATOM      7  C   UNL     1      33.125  11.920  31.131  1.00  0.00     0.035 C 
ENDROOT
BRANCH   5   8
ATOM      8  C   UNL     1      31.617  10.475  27.865  1.00  0.00     0.009 C 
ATOM      9  C   UNL     1      32.383  11.519  27.042  1.00  0.00     0.012 C 
ATOM     10  C   UNL     1      31.983   9.051  27.430  1.00  0.00     0.012 C 
ENDBRANCH   5   8
TORSDOF 1
ENDMDL
MODEL 4
REMARK VINA RESULT:    -4.346      2.283      4.520
REMARK INTER + INTRA:          -4.767
REMARK INTER:                  -4.605
REMARK INTRA:                  -0.162
REMARK UNBOUND:                -0.167
REMARK SMILES CC1=CC=C(C(C)C)CC1
REMARK SMILES IDX 1 1 2 2 3 3 4 4 5 5 9 6 10 7 6 8 7 9 8 10
REMARK H PARENT
REMARK Flexibility Score: inf
ROOT
ATOM      1  C   UNL     1      29.485   6.463  30.716  1.00  0.00     0.039 C 
ATOM      2  C   UNL     1      30.354   7.598  31.172  1.00  0.00    -0.073 C 
ATOM      3  C   UNL     1      31.162   7.437  32.232  1.00  0.00    -0.001 C 
ATOM      4  C   UNL     1      32.030   8.536  32.695  1.00  0.00    -0.001 C 
ATOM      5  C   UNL     1      32.208   9.640  31.945  1.00  0.00    -0.067 C 
ATOM      6  C   UNL     1      31.594   9.700  30.561  1.00  0.00     0.035 C 
ATOM      7  C   UNL     1      30.252   8.952  30.509  1.00  0.00     0.035 C 
ENDROOT
BRANCH   5   8
ATOM      8  C   UNL     1      33.084  10.785  32.422  1.00  0.00     0.009 C 
ATOM      9  C   UNL     1      33.056  11.955  31.430  1.00  0.00     0.012 C 
ATOM     10  C   UNL     1      32.689  11.245  33.831  1.00  0.00     0.012 C 
ENDBRANCH   5   8
TORSDOF 1
ENDMDL
MODEL 5
REMARK VINA RESULT:    -4.320      2.438      4.204
REMARK INTER + INTRA:          -4.740
REMARK INTER:                  -4.595
REMARK INTRA:                  -0.145
REMARK UNBOUND:                -0.167
REMARK SMILES CC1=CC=C(C(C)C)CC1
REMARK SMILES IDX 1 1 2 2 3 3 4 4 5 5 9 6 10 7 6 8 7 9 8 10
REMARK H PARENT
REMARK Flexibility Score: inf
ROOT
ATOM      1  C   UNL     1      32.294  11.567  27.087  1.00  0.00     0.039 C 
ATOM      2  C   UNL     1      32.146  11.224  28.539  1.00  0.00    -0.073 C 
ATOM      3  C   UNL     1      31.690  10.014  28.898  1.00  0.00    -0.001 C 
ATOM      4  C   UNL     1      31.542   9.652  30.320  1.00  0.00    -0.001 C 
ATOM      5  C   UNL     1      32.066  10.426  31.289  1.00  0.00    -0.067 C 
ATOM      6  C   UNL     1      32.911  11.623  30.903  1.00  0.00     0.035 C 
ATOM      7  C   UNL     1      32.409  12.267  29.601  1.00  0.00     0.035 C 
ENDROOT
BRANCH   5   8
ATOM      8  C   UNL     1      31.901  10.072  32.757  1.00  0.00     0.009 C 
ATOM      9  C   UNL     1      32.186   8.586  33.004  1.00  0.00     0.012 C 
ATOM     10  C   UNL     1      32.777  10.960  33.650  1.00  0.00     0.012 C 
ENDBRANCH   5   8
TORSDOF 1
ENDMDL
MODEL 6
REMARK VINA RESULT:    -4.320      2.376      4.134
REMARK INTER + INTRA:          -4.739
REMARK INTER:                  -4.594
REMARK INTRA:                  -0.145
REMARK UNBOUND:                -0.167
REMARK SMILES CC1=CC=C(C(C)C)CC1
REMARK SMILES IDX 1 1 2 2 3 3 4 4 5 5 9 6 10 7 6 8 7 9 8 10
REMARK H PARENT
REMARK Flexibility Score: inf
ROOT
ATOM      1  C   UNL     1      31.368  12.156  27.386  1.00  0.00     0.039 C 
ATOM      2  C   UNL     1      31.795  11.586  28.706  1.00  0.00    -0.073 C 
ATOM      3  C   UNL     1      32.418  12.367  29.601  1.00  0.00    -0.001 C 
ATOM      4  C   UNL     1      32.843  11.830  30.908  1.00  0.00    -0.001 C 
ATOM      5  C   UNL     1      32.422  10.623  31.330  1.00  0.00    -0.067 C 
ATOM      6  C   UNL     1      31.412   9.860  30.495  1.00  0.00     0.035 C 
ATOM      7  C   UNL     1      31.619  10.113  28.994  1.00  0.00     0.035 C 
ENDROOT
BRANCH   5   8
ATOM      8  C   UNL     1      32.868  10.053  32.664  1.00  0.00     0.009 C 
ATOM      9  C   UNL     1      32.839  11.124  33.761  1.00  0.00     0.012 C 
ATOM     10  C   UNL     1      32.032   8.830  33.061  1.00  0.00     0.012 C 
ENDBRANCH   5   8
TORSDOF 1
ENDMDL
MODEL 7
REMARK VINA RESULT:    -4.304      1.146      4.506
REMARK INTER + INTRA:          -4.722
REMARK INTER:                  -4.555
REMARK INTRA:                  -0.167
REMARK UNBOUND:                -0.167
REMARK SMILES CC1=CC=C(C(C)C)CC1
REMARK SMILES IDX 1 1 2 2 3 3 4 4 5 5 9 6 10 7 6 8 7 9 8 10
REMARK H PARENT
REMARK Flexibility Score: inf
ROOT
ATOM      1  C   UNL     1      30.508   9.388  38.930  1.00  0.00     0.039 C 
ATOM      2  C   UNL     1      30.894   9.235  37.488  1.00  0.00    -0.073 C 
ATOM      3  C   UNL     1      30.638   8.086  36.846  1.00  0.00    -0.001 C 
ATOM      4  C   UNL     1      31.004   7.915  35.427  1.00  0.00    -0.001 C 
ATOM      5  C   UNL     1      31.390   8.966  34.680  1.00  0.00    -0.067 C 
ATOM      6  C   UNL     1      31.341  10.356  35.281  1.00  0.00     0.035 C 
ATOM      7  C   UNL     1      31.662  10.330  36.783  1.00  0.00     0.035 C 
ENDROOT
BRANCH   5   8
ATOM      8  C   UNL     1      31.787   8.797  33.224  1.00  0.00     0.009 C 
ATOM      9  C   UNL     1      32.770   9.890  32.787  1.00  0.00     0.012 C 
ATOM     10  C   UNL     1      32.359   7.399  32.957  1.00  0.00     0.012 C 
ENDBRANCH   5   8
TORSDOF 1
ENDMDL
MODEL 8
REMARK VINA RESULT:    -4.254      1.186      4.270
REMARK INTER + INTRA:          -4.670
REMARK INTER:                  -4.505
REMARK INTRA:                  -0.165
REMARK UNBOUND:                -0.167
REMARK SMILES CC1=CC=C(C(C)C)CC1
REMARK SMILES IDX 1 1 2 2 3 3 4 4 5 5 9 6 10 7 6 8 7 9 8 10
REMARK H PARENT
REMARK Flexibility Score: inf
ROOT
ATOM      1  C   UNL     1      30.918   7.122  36.361  1.00  0.00     0.039 C 
ATOM      2  C   UNL     1      31.261   7.985  35.182  1.00  0.00    -0.073 C 
ATOM      3  C   UNL     1      31.326   9.317  35.326  1.00  0.00    -0.001 C 
ATOM      4  C   UNL     1      31.667  10.185  34.183  1.00  0.00    -0.001 C 
ATOM      5  C   UNL     1      32.140   9.664  33.035  1.00  0.00    -0.067 C 
ATOM      6  C   UNL     1      32.426   8.178  32.962  1.00  0.00     0.035 C 
ATOM      7  C   UNL     1      31.432   7.372  33.811  1.00  0.00     0.035 C 
ENDROOT
BRANCH   5   8
ATOM      8  C   UNL     1      32.475  10.548  31.846  1.00  0.00     0.009 C 
ATOM      9  C   UNL     1      31.720  10.096  30.590  1.00  0.00     0.012 C 
ATOM     10  C   UNL     1      32.205  12.026  32.151  1.00  0.00     0.012 C 
ENDBRANCH   5   8
TORSDOF 1
ENDMDL
MODEL 9
REMARK VINA RESULT:    -4.247      3.044      6.384
REMARK INTER + INTRA:          -4.662
REMARK INTER:                  -4.514
REMARK INTRA:                  -0.148
REMARK UNBOUND:                -0.167
REMARK SMILES CC1=CC=C(C(C)C)CC1
REMARK SMILES IDX 1 1 2 2 3 3 4 4 5 5 9 6 10 7 6 8 7 9 8 10
REMARK H PARENT
REMARK Flexibility Score: inf
ROOT
ATOM      1  C   UNL     1      32.632   9.672  32.832  1.00  0.00     0.039 C 
ATOM      2  C   UNL     1      32.360  10.446  31.576  1.00  0.00    -0.073 C 
ATOM      3  C   UNL     1      32.943  11.639  31.387  1.00  0.00    -0.001 C 
ATOM      4  C   UNL     1      32.695  12.416  30.158  1.00  0.00    -0.001 C 
ATOM      5  C   UNL     1      32.070  11.861  29.102  1.00  0.00    -0.067 C 
ATOM      6  C   UNL     1      31.718  10.388  29.144  1.00  0.00     0.035 C 
ATOM      7  C   UNL     1      31.355   9.938  30.568  1.00  0.00     0.035 C 
ENDROOT
BRANCH   5   8
ATOM      8  C   UNL     1      31.793  12.658  27.840  1.00  0.00     0.009 C 
ATOM      9  C   UNL     1      32.422  11.988  26.613  1.00  0.00     0.012 C 
ATOM     10  C   UNL     1      30.290  12.885  27.637  1.00  0.00     0.012 C 
ENDBRANCH   5   8
TORSDOF 1
ENDMDL
