MODEL 1
REMARK VINA RESULT:    -4.970      0.000      0.000
REMARK INTER + INTRA:          -6.094
REMARK INTER:                  -5.987
REMARK INTRA:                  -0.107
REMARK UNBOUND:                -0.107
REMARK SMILES OCCc1ccc(O)c(O)c1
REMARK SMILES IDX 3 1 4 2 5 3 6 4 7 5 11 6 9 7 8 8 10 10 2 12 1 13
REMARK H PARENT 8 9 10 11 1 14
REMARK Flexibility Score: inf
ROOT
ATOM      1  C   UNL     1      11.936  -1.749  19.508  1.00  0.00     0.064 C 
ENDROOT
BRANCH   1   2
ATOM      2  C   UNL     1      10.925  -2.027  18.427  1.00  0.00    -0.042 A 
ATOM      3  C   UNL     1       9.736  -2.706  18.730  1.00  0.00     0.008 A 
ATOM      4  C   UNL     1       8.784  -2.936  17.732  1.00  0.00     0.050 A 
ATOM      5  C   UNL     1       9.003  -2.484  16.427  1.00  0.00     0.157 A 
ATOM      6  C   UNL     1      11.140  -1.561  17.121  1.00  0.00     0.054 A 
ATOM      7  C   UNL     1      10.186  -1.791  16.118  1.00  0.00     0.157 A 
BRANCH   5   8
ATOM      8  O   UNL     1       8.035  -2.729  15.453  1.00  0.00    -0.504 OA
ATOM      9  H   UNL     1       8.260  -2.751  14.466  1.00  0.00     0.293 HD
ENDBRANCH   5   8
BRANCH   7  10
ATOM     10  O   UNL     1      10.408  -1.332  14.821  1.00  0.00    -0.504 OA
ATOM     11  H   UNL     1       9.806  -0.637  14.394  1.00  0.00     0.293 HD
ENDBRANCH   7  10
ENDBRANCH   1   2
BRANCH   1  12
ATOM     12  C   UNL     1      13.231  -2.521  19.250  1.00  0.00     0.161 C 
BRANCH  12  13
ATOM     13  O   UNL     1      13.009  -3.899  19.375  1.00  0.00    -0.396 OA
ATOM     14  H   UNL     1      12.535  -4.187  18.551  1.00  0.00     0.210 HD
ENDBRANCH  12  13
ENDBRANCH   1  12
TORSDOF 5
ENDMDL
MODEL 2
REMARK VINA RESULT:    -4.937      8.524     10.698
REMARK INTER + INTRA:          -6.054
REMARK INTER:                  -5.965
REMARK INTRA:                  -0.090
REMARK UNBOUND:                -0.107
REMARK SMILES OCCc1ccc(O)c(O)c1
REMARK SMILES IDX 3 1 4 2 5 3 6 4 7 5 11 6 9 7 8 8 10 10 2 12 1 13
REMARK H PARENT 8 9 10 11 1 14
REMARK Flexibility Score: inf
ROOT
ATOM      1  C   UNL     1       5.903   5.354   9.627  1.00  0.00     0.064 C 
ENDROOT
BRANCH   1   2
ATOM      2  C   UNL     1       6.669   4.143  10.087  1.00  0.00    -0.042 A 
ATOM      3  C   UNL     1       7.675   4.269  11.057  1.00  0.00     0.008 A 
ATOM      4  C   UNL     1       8.365   3.140  11.506  1.00  0.00     0.050 A 
ATOM      5  C   UNL     1       8.054   1.873  11.001  1.00  0.00     0.157 A 
ATOM      6  C   UNL     1       6.348   2.871   9.589  1.00  0.00     0.054 A 
ATOM      7  C   UNL     1       7.039   1.736  10.038  1.00  0.00     0.157 A 
BRANCH   5   8
ATOM      8  O   UNL     1       8.761   0.765  11.468  1.00  0.00    -0.504 OA
ATOM      9  H   UNL     1       8.436  -0.182  11.317  1.00  0.00     0.293 HD
ENDBRANCH   5   8
BRANCH   7  10
ATOM     10  O   UNL     1       6.720   0.476   9.535  1.00  0.00    -0.504 OA
ATOM     11  H   UNL     1       6.530   0.330   8.550  1.00  0.00     0.293 HD
ENDBRANCH   7  10
ENDBRANCH   1   2
BRANCH   1  12
ATOM     12  C   UNL     1       6.369   6.606  10.373  1.00  0.00     0.161 C 
BRANCH  12  13
ATOM     13  O   UNL     1       6.705   7.617   9.463  1.00  0.00    -0.396 OA
ATOM     14  H   UNL     1       7.690   7.576   9.343  1.00  0.00     0.210 HD
ENDBRANCH  12  13
ENDBRANCH   1  12
TORSDOF 5
ENDMDL
MODEL 3
REMARK VINA RESULT:    -4.881      8.145     10.123
REMARK INTER + INTRA:          -5.987
REMARK INTER:                  -5.905
REMARK INTRA:                  -0.081
REMARK UNBOUND:                -0.107
REMARK SMILES OCCc1ccc(O)c(O)c1
REMARK SMILES IDX 3 1 4 2 5 3 6 4 7 5 11 6 9 7 8 8 10 10 2 12 1 13
REMARK H PARENT 8 9 10 11 1 14
REMARK Flexibility Score: inf
ROOT
ATOM      1  C   UNL     1       7.882   5.417  11.456  1.00  0.00     0.064 C 
ENDROOT
BRANCH   1   2
ATOM      2  C   UNL     1       7.595   4.027  10.956  1.00  0.00    -0.042 A 
ATOM      3  C   UNL     1       6.646   3.822   9.943  1.00  0.00     0.008 A 
ATOM      4  C   UNL     1       6.402   2.534   9.458  1.00  0.00     0.050 A 
ATOM      5  C   UNL     1       7.106   1.440   9.970  1.00  0.00     0.157 A 
ATOM      6  C   UNL     1       8.311   2.930  11.461  1.00  0.00     0.054 A 
ATOM      7  C   UNL     1       8.068   1.638  10.976  1.00  0.00     0.157 A 
BRANCH   5   8
ATOM      8  O   UNL     1       6.840   0.167   9.466  1.00  0.00    -0.504 OA
ATOM      9  H   UNL     1       6.123   0.004   8.770  1.00  0.00     0.293 HD
ENDBRANCH   5   8
BRANCH   7  10
ATOM     10  O   UNL     1       8.778   0.552  11.485  1.00  0.00    -0.504 OA
ATOM     11  H   UNL     1       9.685   0.669  11.923  1.00  0.00     0.293 HD
ENDBRANCH   7  10
ENDBRANCH   1   2
BRANCH   1  12
ATOM     12  C   UNL     1       7.005   6.444  10.736  1.00  0.00     0.161 C 
BRANCH  12  13
ATOM     13  O   UNL     1       7.730   7.619  10.496  1.00  0.00    -0.396 OA
ATOM     14  H   UNL     1       8.132   7.886  11.364  1.00  0.00     0.210 HD
ENDBRANCH  12  13
ENDBRANCH   1  12
TORSDOF 5
ENDMDL
MODEL 4
REMARK VINA RESULT:    -4.832      9.462     11.219
REMARK INTER + INTRA:          -5.928
REMARK INTER:                  -5.840
REMARK INTRA:                  -0.088
REMARK UNBOUND:                -0.107
REMARK SMILES OCCc1ccc(O)c(O)c1
REMARK SMILES IDX 3 1 4 2 5 3 6 4 7 5 11 6 9 7 8 8 10 10 2 12 1 13
REMARK H PARENT 8 9 10 11 1 14
REMARK Flexibility Score: inf
ROOT
ATOM      1  C   UNL     1      19.871 -11.064  17.736  1.00  0.00     0.064 C 
ENDROOT
BRANCH   1   2
ATOM      2  C   UNL     1      19.297  -9.783  18.278  1.00  0.00    -0.042 A 
ATOM      3  C   UNL     1      18.758  -9.742  19.573  1.00  0.00     0.008 A 
ATOM      4  C   UNL     1      18.253  -8.545  20.088  1.00  0.00     0.050 A 
ATOM      5  C   UNL     1      18.290  -7.375  19.323  1.00  0.00     0.157 A 
ATOM      6  C   UNL     1      19.346  -8.606  17.515  1.00  0.00     0.054 A 
ATOM      7  C   UNL     1      18.840  -7.403  18.030  1.00  0.00     0.157 A 
BRANCH   5   8
ATOM      8  O   UNL     1      17.778  -6.195  19.863  1.00  0.00    -0.504 OA
ATOM      9  H   UNL     1      16.800  -5.947  19.782  1.00  0.00     0.293 HD
ENDBRANCH   5   8
BRANCH   7  10
ATOM     10  O   UNL     1      18.885  -6.239  17.264  1.00  0.00    -0.504 OA
ATOM     11  H   UNL     1      19.730  -5.954  16.782  1.00  0.00     0.293 HD
ENDBRANCH   7  10
ENDBRANCH   1   2
BRANCH   1  12
ATOM     12  C   UNL     1      21.215 -10.808  17.051  1.00  0.00     0.161 C 
BRANCH  12  13
ATOM     13  O   UNL     1      21.134 -11.125  15.688  1.00  0.00    -0.396 OA
ATOM     14  H   UNL     1      21.688 -11.938  15.553  1.00  0.00     0.210 HD
ENDBRANCH  12  13
ENDBRANCH   1  12
TORSDOF 5
ENDMDL
MODEL 5
REMARK VINA RESULT:    -4.727      0.987      1.024
REMARK INTER + INTRA:          -5.800
REMARK INTER:                  -5.728
REMARK INTRA:                  -0.073
REMARK UNBOUND:                -0.107
REMARK SMILES OCCc1ccc(O)c(O)c1
REMARK SMILES IDX 3 1 4 2 5 3 6 4 7 5 11 6 9 7 8 8 10 10 2 12 1 13
REMARK H PARENT 8 9 10 11 1 14
REMARK Flexibility Score: inf
ROOT
ATOM      1  C   UNL     1      11.955  -1.762  19.405  1.00  0.00     0.064 C 
ENDROOT
BRANCH   1   2
ATOM      2  C   UNL     1      10.921  -2.034  18.345  1.00  0.00    -0.042 A 
ATOM      3  C   UNL     1       9.730  -2.698  18.674  1.00  0.00     0.008 A 
ATOM      4  C   UNL     1       8.756  -2.923  17.696  1.00  0.00     0.050 A 
ATOM      5  C   UNL     1       8.955  -2.479  16.385  1.00  0.00     0.157 A 
ATOM      6  C   UNL     1      11.115  -1.577  17.032  1.00  0.00     0.054 A 
ATOM      7  C   UNL     1      10.140  -1.801  16.050  1.00  0.00     0.157 A 
BRANCH   5   8
ATOM      8  O   UNL     1       7.966  -2.718  15.431  1.00  0.00    -0.504 OA
ATOM      9  H   UNL     1       7.393  -1.974  15.053  1.00  0.00     0.293 HD
ENDBRANCH   5   8
BRANCH   7  10
ATOM     10  O   UNL     1      10.341  -1.350  14.746  1.00  0.00    -0.504 OA
ATOM     11  H   UNL     1      11.191  -1.565  14.236  1.00  0.00     0.293 HD
ENDBRANCH   7  10
ENDBRANCH   1   2
BRANCH   1  12
ATOM     12  C   UNL     1      12.994  -0.757  18.902  1.00  0.00     0.161 C 
BRANCH  12  13
ATOM     13  O   UNL     1      14.194  -1.412  18.597  1.00  0.00    -0.396 OA
ATOM     14  H   UNL     1      14.926  -0.844  18.954  1.00  0.00     0.210 HD
ENDBRANCH  12  13
ENDBRANCH   1  12
TORSDOF 5
ENDMDL
MODEL 6
REMARK VINA RESULT:    -4.522      1.367      4.753
REMARK INTER + INTRA:          -5.554
REMARK INTER:                  -5.451
REMARK INTRA:                  -0.103
REMARK UNBOUND:                -0.107
REMARK SMILES OCCc1ccc(O)c(O)c1
REMARK SMILES IDX 3 1 4 2 5 3 6 4 7 5 11 6 9 7 8 8 10 10 2 12 1 13
REMARK H PARENT 8 9 10 11 1 14
REMARK Flexibility Score: inf
ROOT
ATOM      1  C   UNL     1       9.520  -1.449  17.125  1.00  0.00     0.064 C 
ENDROOT
BRANCH   1   2
ATOM      2  C   UNL     1      10.862  -1.440  17.807  1.00  0.00    -0.042 A 
ATOM      3  C   UNL     1      11.539  -0.229  18.019  1.00  0.00     0.008 A 
ATOM      4  C   UNL     1      12.770  -0.219  18.680  1.00  0.00     0.050 A 
ATOM      5  C   UNL     1      13.334  -1.411  19.145  1.00  0.00     0.157 A 
ATOM      6  C   UNL     1      11.421  -2.635  18.285  1.00  0.00     0.054 A 
ATOM      7  C   UNL     1      12.656  -2.627  18.949  1.00  0.00     0.157 A 
BRANCH   5   8
ATOM      8  O   UNL     1      14.564  -1.369  19.801  1.00  0.00    -0.504 OA
ATOM      9  H   UNL     1      14.697  -1.773  20.720  1.00  0.00     0.293 HD
ENDBRANCH   5   8
BRANCH   7  10
ATOM     10  O   UNL     1      13.210  -3.818  19.415  1.00  0.00    -0.504 OA
ATOM     11  H   UNL     1      12.636  -4.541  19.834  1.00  0.00     0.293 HD
ENDBRANCH   7  10
ENDBRANCH   1   2
BRANCH   1  12
ATOM     12  C   UNL     1       9.612  -2.128  15.757  1.00  0.00     0.161 C 
BRANCH  12  13
ATOM     13  O   UNL     1      10.395  -1.360  14.885  1.00  0.00    -0.396 OA
ATOM     14  H   UNL     1       9.870  -0.543  14.676  1.00  0.00     0.210 HD
ENDBRANCH  12  13
ENDBRANCH   1  12
TORSDOF 5
ENDMDL
MODEL 7
REMARK VINA RESULT:    -4.520      2.072      3.541
REMARK INTER + INTRA:          -5.552
REMARK INTER:                  -5.459
REMARK INTRA:                  -0.093
REMARK UNBOUND:                -0.107
REMARK SMILES OCCc1ccc(O)c(O)c1
REMARK SMILES IDX 3 1 4 2 5 3 6 4 7 5 11 6 9 7 8 8 10 10 2 12 1 13
REMARK H PARENT 8 9 10 11 1 14
REMARK Flexibility Score: inf
ROOT
ATOM      1  C   UNL     1       8.378  -3.876  20.015  1.00  0.00     0.064 C 
ENDROOT
BRANCH   1   2
ATOM      2  C   UNL     1       8.938  -3.186  18.799  1.00  0.00    -0.042 A 
ATOM      3  C   UNL     1      10.198  -2.571  18.853  1.00  0.00     0.008 A 
ATOM      4  C   UNL     1      10.731  -1.958  17.716  1.00  0.00     0.050 A 
ATOM      5  C   UNL     1      10.020  -1.961  16.511  1.00  0.00     0.157 A 
ATOM      6  C   UNL     1       8.230  -3.201  17.588  1.00  0.00     0.054 A 
ATOM      7  C   UNL     1       8.763  -2.587  16.445  1.00  0.00     0.157 A 
BRANCH   5   8
ATOM      8  O   UNL     1      10.577  -1.341  15.394  1.00  0.00    -0.504 OA
ATOM      9  H   UNL     1      11.503  -0.932  15.412  1.00  0.00     0.293 HD
ENDBRANCH   5   8
BRANCH   7  10
ATOM     10  O   UNL     1       8.052  -2.599  15.246  1.00  0.00    -0.504 OA
ATOM     11  H   UNL     1       7.961  -3.443  14.691  1.00  0.00     0.293 HD
ENDBRANCH   7  10
ENDBRANCH   1   2
BRANCH   1  12
ATOM     12  C   UNL     1       7.116  -4.663  19.657  1.00  0.00     0.161 C 
BRANCH  12  13
ATOM     13  O   UNL     1       7.353  -6.039  19.776  1.00  0.00    -0.396 OA
ATOM     14  H   UNL     1       8.244  -6.210  19.372  1.00  0.00     0.210 HD
ENDBRANCH  12  13
ENDBRANCH   1  12
TORSDOF 5
ENDMDL
MODEL 8
REMARK VINA RESULT:    -4.472      2.085      3.316
REMARK INTER + INTRA:          -5.494
REMARK INTER:                  -5.401
REMARK INTRA:                  -0.093
REMARK UNBOUND:                -0.107
REMARK SMILES OCCc1ccc(O)c(O)c1
REMARK SMILES IDX 3 1 4 2 5 3 6 4 7 5 11 6 9 7 8 8 10 10 2 12 1 13
REMARK H PARENT 8 9 10 11 1 14
REMARK Flexibility Score: inf
ROOT
ATOM      1  C   UNL     1       8.542  -3.462  19.827  1.00  0.00     0.064 C 
ENDROOT
BRANCH   1   2
ATOM      2  C   UNL     1       9.061  -2.916  18.524  1.00  0.00    -0.042 A 
ATOM      3  C   UNL     1       8.363  -3.153  17.330  1.00  0.00     0.008 A 
ATOM      4  C   UNL     1       8.828  -2.619  16.125  1.00  0.00     0.050 A 
ATOM      5  C   UNL     1       9.987  -1.836  16.099  1.00  0.00     0.157 A 
ATOM      6  C   UNL     1      10.216  -2.119  18.500  1.00  0.00     0.054 A 
ATOM      7  C   UNL     1      10.685  -1.582  17.292  1.00  0.00     0.157 A 
BRANCH   5   8
ATOM      8  O   UNL     1      10.427  -1.317  14.881  1.00  0.00    -0.504 OA
ATOM      9  H   UNL     1      10.061  -1.643  13.995  1.00  0.00     0.293 HD
ENDBRANCH   5   8
BRANCH   7  10
ATOM     10  O   UNL     1      11.837  -0.798  17.274  1.00  0.00    -0.504 OA
ATOM     11  H   UNL     1      11.789   0.215  17.276  1.00  0.00     0.293 HD
ENDBRANCH   7  10
ENDBRANCH   1   2
BRANCH   1  12
ATOM     12  C   UNL     1       7.236  -4.231  19.610  1.00  0.00     0.161 C 
BRANCH  12  13
ATOM     13  O   UNL     1       7.461  -5.610  19.718  1.00  0.00    -0.396 OA
ATOM     14  H   UNL     1       8.333  -5.790  19.279  1.00  0.00     0.210 HD
ENDBRANCH  12  13
ENDBRANCH   1  12
TORSDOF 5
ENDMDL
MODEL 9
REMARK VINA RESULT:    -4.461      2.156      4.441
REMARK INTER + INTRA:          -5.480
REMARK INTER:                  -5.370
REMARK INTRA:                  -0.110
REMARK UNBOUND:                -0.107
REMARK SMILES OCCc1ccc(O)c(O)c1
REMARK SMILES IDX 3 1 4 2 5 3 6 4 7 5 11 6 9 7 8 8 10 10 2 12 1 13
REMARK H PARENT 8 9 10 11 1 14
REMARK Flexibility Score: inf
ROOT
ATOM      1  C   UNL     1       8.743  -2.547  16.375  1.00  0.00     0.064 C 
ENDROOT
BRANCH   1   2
ATOM      2  C   UNL     1       9.772  -1.670  17.037  1.00  0.00    -0.042 A 
ATOM      3  C   UNL     1       9.398  -0.436  17.590  1.00  0.00     0.008 A 
ATOM      4  C   UNL     1      10.349   0.364  18.231  1.00  0.00     0.050 A 
ATOM      5  C   UNL     1      11.676  -0.062  18.337  1.00  0.00     0.157 A 
ATOM      6  C   UNL     1      11.102  -2.103  17.154  1.00  0.00     0.054 A 
ATOM      7  C   UNL     1      12.056  -1.303  17.798  1.00  0.00     0.157 A 
BRANCH   5   8
ATOM      8  O   UNL     1      12.601   0.758  18.983  1.00  0.00    -0.504 OA
ATOM      9  H   UNL     1      13.398   1.153  18.499  1.00  0.00     0.293 HD
ENDBRANCH   5   8
BRANCH   7  10
ATOM     10  O   UNL     1      13.377  -1.736  17.906  1.00  0.00    -0.504 OA
ATOM     11  H   UNL     1      14.063  -1.218  18.443  1.00  0.00     0.293 HD
ENDBRANCH   7  10
ENDBRANCH   1   2
BRANCH   1  12
ATOM     12  C   UNL     1       9.108  -2.800  14.911  1.00  0.00     0.161 C 
BRANCH  12  13
ATOM     13  O   UNL     1       8.885  -1.646  14.148  1.00  0.00    -0.396 OA
ATOM     14  H   UNL     1       9.158  -0.876  14.713  1.00  0.00     0.210 HD
ENDBRANCH  12  13
ENDBRANCH   1  12
TORSDOF 5
ENDMDL
