MODEL 1
REMARK VINA RESULT:    -3.566      0.000      0.000
REMARK INTER + INTRA:          -5.313
REMARK INTER:                  -5.026
REMARK INTRA:                  -0.288
REMARK UNBOUND:                -0.288
REMARK SMILES CCCCCCCCC=O
REMARK SMILES IDX 5 1 4 2 3 3 2 4 1 5 6 6 7 7 8 8 9 9 10 10
REMARK H PARENT
REMARK Flexibility Score: inf
ROOT
ATOM      1  C   UNL     1     165.769 165.880 167.297  1.00  0.00     0.000 C 
ENDROOT
BRANCH   1   2
ATOM      2  C   UNL     1     165.164 164.909 166.265  1.00  0.00    -0.000 C 
BRANCH   2   3
ATOM      3  C   UNL     1     163.739 164.462 166.626  1.00  0.00    -0.000 C 
BRANCH   3   4
ATOM      4  C   UNL     1     162.922 164.165 165.364  1.00  0.00    -0.003 C 
ATOM      5  C   UNL     1     161.433 164.392 165.605  1.00  0.00     0.004 C 
ENDBRANCH   3   4
ENDBRANCH   2   3
ENDBRANCH   1   2
BRANCH   1   6
ATOM      6  C   UNL     1     166.529 167.076 166.696  1.00  0.00     0.000 C 
BRANCH   6   7
ATOM      7  C   UNL     1     166.824 166.905 165.195  1.00  0.00     0.008 C 
BRANCH   7   8
ATOM      8  C   UNL     1     168.331 166.859 164.905  1.00  0.00     0.072 C 
BRANCH   8   9
ATOM      9  C   UNL     1     169.152 166.797 166.163  1.00  0.00     0.224 C 
ATOM     10  O   UNL     1     170.236 167.355 166.208  1.00  0.00    -0.303 OA
ENDBRANCH   8   9
ENDBRANCH   7   8
ENDBRANCH   6   7
ENDBRANCH   1   6
TORSDOF 7
ENDMDL
MODEL 2
REMARK VINA RESULT:    -3.456      2.913      5.702
REMARK INTER + INTRA:          -5.158
REMARK INTER:                  -4.879
REMARK INTRA:                  -0.280
REMARK UNBOUND:                -0.288
REMARK SMILES CCCCCCCCC=O
REMARK SMILES IDX 5 1 4 2 3 3 2 4 1 5 6 6 7 7 8 8 9 9 10 10
REMARK H PARENT
REMARK Flexibility Score: inf
ROOT
ATOM      1  C   UNL     1     165.898 166.434 166.445  1.00  0.00     0.000 C 
ENDROOT
BRANCH   1   2
ATOM      2  C   UNL     1     167.432 166.514 166.552  1.00  0.00    -0.000 C 
BRANCH   2   3
ATOM      3  C   UNL     1     168.098 167.011 165.260  1.00  0.00    -0.000 C 
BRANCH   3   4
ATOM      4  C   UNL     1     169.610 166.760 165.291  1.00  0.00    -0.003 C 
ATOM      5  C   UNL     1     170.186 167.034 166.678  1.00  0.00     0.004 C 
ENDBRANCH   3   4
ENDBRANCH   2   3
ENDBRANCH   1   2
BRANCH   1   6
ATOM      6  C   UNL     1     165.220 165.516 167.478  1.00  0.00     0.000 C 
BRANCH   6   7
ATOM      7  C   UNL     1     164.898 164.119 166.917  1.00  0.00     0.008 C 
BRANCH   7   8
ATOM      8  C   UNL     1     164.827 164.117 165.384  1.00  0.00     0.072 C 
BRANCH   8   9
ATOM      9  C   UNL     1     163.427 164.327 164.878  1.00  0.00     0.224 C 
ATOM     10  O   UNL     1     162.484 163.838 165.478  1.00  0.00    -0.303 OA
ENDBRANCH   8   9
ENDBRANCH   7   8
ENDBRANCH   6   7
ENDBRANCH   1   6
TORSDOF 7
ENDMDL
MODEL 3
REMARK VINA RESULT:    -3.392      2.729      4.608
REMARK INTER + INTRA:          -5.067
REMARK INTER:                  -4.819
REMARK INTRA:                  -0.248
REMARK UNBOUND:                -0.288
REMARK SMILES CCCCCCCCC=O
REMARK SMILES IDX 5 1 4 2 3 3 2 4 1 5 6 6 7 7 8 8 9 9 10 10
REMARK H PARENT
REMARK Flexibility Score: inf
ROOT
ATOM      1  C   UNL     1     169.347 166.745 166.631  1.00  0.00     0.000 C 
ENDROOT
BRANCH   1   2
ATOM      2  C   UNL     1     168.668 166.941 165.263  1.00  0.00    -0.000 C 
BRANCH   2   3
ATOM      3  C   UNL     1     167.142 166.778 165.321  1.00  0.00    -0.000 C 
BRANCH   3   4
ATOM      4  C   UNL     1     166.672 166.525 166.758  1.00  0.00    -0.003 C 
ATOM      5  C   UNL     1     165.516 165.530 166.794  1.00  0.00     0.004 C 
ENDBRANCH   3   4
ENDBRANCH   2   3
ENDBRANCH   1   2
BRANCH   1   6
ATOM      6  C   UNL     1     170.833 167.143 166.683  1.00  0.00     0.000 C 
BRANCH   6   7
ATOM      7  C   UNL     1     171.291 167.564 168.091  1.00  0.00     0.008 C 
BRANCH   7   8
ATOM      8  C   UNL     1     172.784 167.916 168.131  1.00  0.00     0.072 C 
BRANCH   8   9
ATOM      9  C   UNL     1     173.625 166.925 167.376  1.00  0.00     0.224 C 
ATOM     10  O   UNL     1     174.285 166.100 167.986  1.00  0.00    -0.303 OA
ENDBRANCH   8   9
ENDBRANCH   7   8
ENDBRANCH   6   7
ENDBRANCH   1   6
TORSDOF 7
ENDMDL
MODEL 4
REMARK VINA RESULT:    -3.358      5.061      8.035
REMARK INTER + INTRA:          -5.020
REMARK INTER:                  -4.764
REMARK INTRA:                  -0.256
REMARK UNBOUND:                -0.288
REMARK SMILES CCCCCCCCC=O
REMARK SMILES IDX 5 1 4 2 3 3 2 4 1 5 6 6 7 7 8 8 9 9 10 10
REMARK H PARENT
REMARK Flexibility Score: inf
ROOT
ATOM      1  C   UNL     1     161.605 164.366 166.640  1.00  0.00     0.000 C 
ENDROOT
BRANCH   1   2
ATOM      2  C   UNL     1     162.163 164.364 165.204  1.00  0.00    -0.000 C 
BRANCH   2   3
ATOM      3  C   UNL     1     163.539 163.690 165.097  1.00  0.00    -0.000 C 
BRANCH   3   4
ATOM      4  C   UNL     1     164.438 164.090 166.272  1.00  0.00    -0.003 C 
ATOM      5  C   UNL     1     165.276 165.320 165.932  1.00  0.00     0.004 C 
ENDBRANCH   3   4
ENDBRANCH   2   3
ENDBRANCH   1   2
BRANCH   1   6
ATOM      6  C   UNL     1     160.099 164.065 166.753  1.00  0.00     0.000 C 
BRANCH   6   7
ATOM      7  C   UNL     1     159.739 163.292 168.034  1.00  0.00     0.008 C 
BRANCH   7   8
ATOM      8  C   UNL     1     158.290 163.548 168.473  1.00  0.00     0.072 C 
BRANCH   8   9
ATOM      9  C   UNL     1     157.456 164.140 167.372  1.00  0.00     0.224 C 
ATOM     10  O   UNL     1     156.592 163.467 166.836  1.00  0.00    -0.303 OA
ENDBRANCH   8   9
ENDBRANCH   7   8
ENDBRANCH   6   7
ENDBRANCH   1   6
TORSDOF 7
ENDMDL
MODEL 5
REMARK VINA RESULT:    -3.320      3.491      5.878
REMARK INTER + INTRA:          -4.967
REMARK INTER:                  -4.634
REMARK INTRA:                  -0.333
REMARK UNBOUND:                -0.288
REMARK SMILES CCCCCCCCC=O
REMARK SMILES IDX 5 1 4 2 3 3 2 4 1 5 6 6 7 7 8 8 9 9 10 10
REMARK H PARENT
REMARK Flexibility Score: inf
ROOT
ATOM      1  C   UNL     1     165.128 165.556 166.634  1.00  0.00     0.000 C 
ENDROOT
BRANCH   1   2
ATOM      2  C   UNL     1     166.418 166.395 166.574  1.00  0.00    -0.000 C 
BRANCH   2   3
ATOM      3  C   UNL     1     166.920 166.622 165.140  1.00  0.00    -0.000 C 
BRANCH   3   4
ATOM      4  C   UNL     1     167.174 168.110 164.877  1.00  0.00    -0.003 C 
ATOM      5  C   UNL     1     165.975 168.957 165.296  1.00  0.00     0.004 C 
ENDBRANCH   3   4
ENDBRANCH   2   3
ENDBRANCH   1   2
BRANCH   1   6
ATOM      6  C   UNL     1     165.060 164.394 165.626  1.00  0.00     0.000 C 
BRANCH   6   7
ATOM      7  C   UNL     1     163.617 164.013 165.249  1.00  0.00     0.008 C 
BRANCH   7   8
ATOM      8  C   UNL     1     162.606 164.457 166.315  1.00  0.00     0.072 C 
BRANCH   8   9
ATOM      9  C   UNL     1     161.195 164.458 165.798  1.00  0.00     0.224 C 
ATOM     10  O   UNL     1     160.278 164.133 166.535  1.00  0.00    -0.303 OA
ENDBRANCH   8   9
ENDBRANCH   7   8
ENDBRANCH   6   7
ENDBRANCH   1   6
TORSDOF 7
ENDMDL
MODEL 6
REMARK VINA RESULT:    -3.312      1.391      2.015
REMARK INTER + INTRA:          -4.955
REMARK INTER:                  -4.612
REMARK INTRA:                  -0.344
REMARK UNBOUND:                -0.288
REMARK SMILES CCCCCCCCC=O
REMARK SMILES IDX 5 1 4 2 3 3 2 4 1 5 6 6 7 7 8 8 9 9 10 10
REMARK H PARENT
REMARK Flexibility Score: inf
ROOT
ATOM      1  C   UNL     1     167.024 166.441 166.931  1.00  0.00     0.000 C 
ENDROOT
BRANCH   1   2
ATOM      2  C   UNL     1     165.546 166.188 167.282  1.00  0.00    -0.000 C 
BRANCH   2   3
ATOM      3  C   UNL     1     165.195 164.695 167.361  1.00  0.00    -0.000 C 
BRANCH   3   4
ATOM      4  C   UNL     1     164.258 164.291 166.218  1.00  0.00    -0.003 C 
ATOM      5  C   UNL     1     165.039 164.013 164.936  1.00  0.00     0.004 C 
ENDBRANCH   3   4
ENDBRANCH   2   3
ENDBRANCH   1   2
BRANCH   1   6
ATOM      6  C   UNL     1     167.257 167.266 165.653  1.00  0.00     0.000 C 
BRANCH   6   7
ATOM      7  C   UNL     1     168.510 166.824 164.875  1.00  0.00     0.008 C 
BRANCH   7   8
ATOM      8  C   UNL     1     169.786 166.951 165.718  1.00  0.00     0.072 C 
BRANCH   8   9
ATOM      9  C   UNL     1     170.974 166.312 165.055  1.00  0.00     0.224 C 
ATOM     10  O   UNL     1     172.061 166.328 165.610  1.00  0.00    -0.303 OA
ENDBRANCH   8   9
ENDBRANCH   7   8
ENDBRANCH   6   7
ENDBRANCH   1   6
TORSDOF 7
ENDMDL
MODEL 7
REMARK VINA RESULT:    -3.147      3.337      5.713
REMARK INTER + INTRA:          -4.723
REMARK INTER:                  -4.259
REMARK INTRA:                  -0.464
REMARK UNBOUND:                -0.288
REMARK SMILES CCCCCCCCC=O
REMARK SMILES IDX 5 1 4 2 3 3 2 4 1 5 6 6 7 7 8 8 9 9 10 10
REMARK H PARENT
REMARK Flexibility Score: inf
ROOT
ATOM      1  C   UNL     1     165.931 164.951 165.095  1.00  0.00     0.000 C 
ENDROOT
BRANCH   1   2
ATOM      2  C   UNL     1     165.735 166.462 164.875  1.00  0.00    -0.000 C 
BRANCH   2   3
ATOM      3  C   UNL     1     166.195 167.308 166.072  1.00  0.00    -0.000 C 
BRANCH   3   4
ATOM      4  C   UNL     1     166.835 166.428 167.151  1.00  0.00    -0.003 C 
ATOM      5  C   UNL     1     166.230 166.710 168.524  1.00  0.00     0.004 C 
ENDBRANCH   3   4
ENDBRANCH   2   3
ENDBRANCH   1   2
BRANCH   1   6
ATOM      6  C   UNL     1     164.670 164.093 164.884  1.00  0.00     0.000 C 
BRANCH   6   7
ATOM      7  C   UNL     1     163.548 164.423 165.884  1.00  0.00     0.008 C 
BRANCH   7   8
ATOM      8  C   UNL     1     162.169 164.462 165.211  1.00  0.00     0.072 C 
BRANCH   8   9
ATOM      9  C   UNL     1     161.054 164.168 166.175  1.00  0.00     0.224 C 
ATOM     10  O   UNL     1     161.199 164.411 167.362  1.00  0.00    -0.303 OA
ENDBRANCH   8   9
ENDBRANCH   7   8
ENDBRANCH   6   7
ENDBRANCH   1   6
TORSDOF 7
ENDMDL
MODEL 8
REMARK VINA RESULT:    -3.125      2.365      2.997
REMARK INTER + INTRA:          -4.691
REMARK INTER:                  -4.448
REMARK INTRA:                  -0.243
REMARK UNBOUND:                -0.288
REMARK SMILES CCCCCCCCC=O
REMARK SMILES IDX 5 1 4 2 3 3 2 4 1 5 6 6 7 7 8 8 9 9 10 10
REMARK H PARENT
REMARK Flexibility Score: inf
ROOT
ATOM      1  C   UNL     1     165.233 165.260 165.487  1.00  0.00     0.000 C 
ENDROOT
BRANCH   1   2
ATOM      2  C   UNL     1     164.126 164.468 166.208  1.00  0.00    -0.000 C 
BRANCH   2   3
ATOM      3  C   UNL     1     163.152 163.781 165.240  1.00  0.00    -0.000 C 
BRANCH   3   4
ATOM      4  C   UNL     1     161.811 164.521 165.194  1.00  0.00    -0.003 C 
ATOM      5  C   UNL     1     160.941 164.160 166.396  1.00  0.00     0.004 C 
ENDBRANCH   3   4
ENDBRANCH   2   3
ENDBRANCH   1   2
BRANCH   1   6
ATOM      6  C   UNL     1     166.016 166.243 166.376  1.00  0.00     0.000 C 
BRANCH   6   7
ATOM      7  C   UNL     1     165.984 165.857 167.866  1.00  0.00     0.008 C 
BRANCH   7   8
ATOM      8  C   UNL     1     167.020 166.639 168.686  1.00  0.00     0.072 C 
BRANCH   8   9
ATOM      9  C   UNL     1     166.385 167.451 169.780  1.00  0.00     0.224 C 
ATOM     10  O   UNL     1     165.732 168.442 169.499  1.00  0.00    -0.303 OA
ENDBRANCH   8   9
ENDBRANCH   7   8
ENDBRANCH   6   7
ENDBRANCH   1   6
TORSDOF 7
ENDMDL
MODEL 9
REMARK VINA RESULT:    -3.062      3.795      4.829
REMARK INTER + INTRA:          -4.602
REMARK INTER:                  -4.062
REMARK INTRA:                  -0.541
REMARK UNBOUND:                -0.288
REMARK SMILES CCCCCCCCC=O
REMARK SMILES IDX 5 1 4 2 3 3 2 4 1 5 6 6 7 7 8 8 9 9 10 10
REMARK H PARENT
REMARK Flexibility Score: inf
ROOT
ATOM      1  C   UNL     1     165.157 164.855 166.574  1.00  0.00     0.000 C 
ENDROOT
BRANCH   1   2
ATOM      2  C   UNL     1     164.451 164.784 165.207  1.00  0.00    -0.000 C 
BRANCH   2   3
ATOM      3  C   UNL     1     163.296 163.772 165.179  1.00  0.00    -0.000 C 
BRANCH   3   4
ATOM      4  C   UNL     1     161.941 164.487 165.167  1.00  0.00    -0.003 C 
ATOM      5  C   UNL     1     161.161 164.211 166.450  1.00  0.00     0.004 C 
ENDBRANCH   3   4
ENDBRANCH   2   3
ENDBRANCH   1   2
BRANCH   1   6
ATOM      6  C   UNL     1     165.288 163.508 167.309  1.00  0.00     0.000 C 
BRANCH   6   7
ATOM      7  C   UNL     1     165.238 163.654 168.840  1.00  0.00     0.008 C 
BRANCH   7   8
ATOM      8  C   UNL     1     164.309 164.794 169.280  1.00  0.00     0.072 C 
BRANCH   8   9
ATOM      9  C   UNL     1     163.072 164.288 169.969  1.00  0.00     0.224 C 
ATOM     10  O   UNL     1     163.149 163.834 171.099  1.00  0.00    -0.303 OA
ENDBRANCH   8   9
ENDBRANCH   7   8
ENDBRANCH   6   7
ENDBRANCH   1   6
TORSDOF 7
ENDMDL
