MODEL 1
REMARK VINA RESULT:    -4.117      0.000      0.000
REMARK INTER + INTRA:          -9.073
REMARK INTER:                  -7.486
REMARK INTRA:                  -1.588
REMARK UNBOUND:                -1.588
REMARK SMILES CCCCCC=CCC=CCCCCCCCC(=O)[O-]
REMARK SMILES IDX 11 1 12 2 13 3 14 4 15 5 16 6 17 7 18 8 19 9 20 10 10 11
REMARK SMILES IDX 9 12 8 13 7 14 6 15 5 16 4 17 3 18 2 19 1 20
REMARK H PARENT
REMARK Flexibility Score: inf
ROOT
ATOM      1  C   UNL     1      47.271  16.929  -4.596  1.00  0.00     0.027 C 
ENDROOT
BRANCH   1   2
ATOM      2  C   UNL     1      48.250  17.279  -5.726  1.00  0.00     0.004 C 
BRANCH   2   3
ATOM      3  C   UNL     1      49.560  16.481  -5.625  1.00  0.00     0.000 C 
BRANCH   3   4
ATOM      4  C   UNL     1      49.582  15.614  -4.358  1.00  0.00     0.000 C 
BRANCH   4   5
ATOM      5  C   UNL     1      49.396  14.113  -4.672  1.00  0.00     0.000 C 
BRANCH   5   6
ATOM      6  C   UNL     1      49.034  13.268  -3.436  1.00  0.00     0.006 C 
BRANCH   6   7
ATOM      7  C   UNL     1      47.909  13.865  -2.577  1.00  0.00     0.053 C 
BRANCH   7   8
ATOM      8  C   UNL     1      47.073  12.801  -1.933  1.00  0.00     0.041 C 
ATOM      9  O   UNL     1      45.975  12.463  -2.447  1.00  0.00    -0.550 OA
ATOM     10  O   UNL     1      47.514  12.169  -0.778  1.00  0.00    -0.550 OA
ENDBRANCH   7   8
ENDBRANCH   6   7
ENDBRANCH   5   6
ENDBRANCH   4   5
ENDBRANCH   3   4
ENDBRANCH   2   3
ENDBRANCH   1   2
BRANCH   1  11
ATOM     11  C   UNL     1      46.061  16.185  -5.106  1.00  0.00    -0.031 C 
ATOM     12  C   UNL     1      45.049  15.748  -4.333  1.00  0.00    -0.027 C 
BRANCH  12  13
ATOM     13  C   UNL     1      44.931  15.999  -2.850  1.00  0.00     0.054 C 
BRANCH  13  14
ATOM     14  C   UNL     1      43.836  16.982  -2.549  1.00  0.00    -0.027 C 
ATOM     15  C   UNL     1      43.708  18.125  -3.242  1.00  0.00    -0.031 C 
BRANCH  15  16
ATOM     16  C   UNL     1      42.673  19.155  -2.876  1.00  0.00     0.027 C 
BRANCH  16  17
ATOM     17  C   UNL     1      43.309  20.363  -2.173  1.00  0.00     0.004 C 
BRANCH  17  18
ATOM     18  C   UNL     1      42.690  20.624  -0.789  1.00  0.00     0.000 C 
BRANCH  18  19
ATOM     19  C   UNL     1      41.468  19.734  -0.512  1.00  0.00    -0.003 C 
ATOM     20  C   UNL     1      40.210  20.540  -0.192  1.00  0.00     0.004 C 
ENDBRANCH  18  19
ENDBRANCH  17  18
ENDBRANCH  16  17
ENDBRANCH  15  16
ENDBRANCH  13  14
ENDBRANCH  12  13
ENDBRANCH   1  11
TORSDOF 14
ENDMDL
MODEL 2
REMARK VINA RESULT:    -4.061      1.313      1.905
REMARK INTER + INTRA:          -8.971
REMARK INTER:                  -7.674
REMARK INTRA:                  -1.298
REMARK UNBOUND:                -1.588
REMARK SMILES CCCCCC=CCC=CCCCCCCCC(=O)[O-]
REMARK SMILES IDX 11 1 12 2 13 3 14 4 15 5 16 6 17 7 18 8 19 9 20 10 10 11
REMARK SMILES IDX 9 12 8 13 7 14 6 15 5 16 4 17 3 18 2 19 1 20
REMARK H PARENT
REMARK Flexibility Score: inf
ROOT
ATOM      1  C   UNL     1      48.669  17.176  -5.395  1.00  0.00     0.027 C 
ENDROOT
BRANCH   1   2
ATOM      2  C   UNL     1      49.732  16.159  -5.836  1.00  0.00     0.004 C 
BRANCH   2   3
ATOM      3  C   UNL     1      50.596  15.677  -4.661  1.00  0.00     0.000 C 
BRANCH   3   4
ATOM      4  C   UNL     1      50.786  14.154  -4.705  1.00  0.00     0.000 C 
BRANCH   4   5
ATOM      5  C   UNL     1      49.627  13.439  -5.435  1.00  0.00     0.000 C 
BRANCH   5   6
ATOM      6  C   UNL     1      48.828  12.482  -4.531  1.00  0.00     0.006 C 
BRANCH   6   7
ATOM      7  C   UNL     1      48.871  12.848  -3.039  1.00  0.00     0.053 C 
BRANCH   7   8
ATOM      8  C   UNL     1      47.555  13.378  -2.556  1.00  0.00     0.041 C 
ATOM      9  O   UNL     1      47.458  13.876  -1.404  1.00  0.00    -0.550 OA
ATOM     10  O   UNL     1      46.441  13.341  -3.384  1.00  0.00    -0.550 OA
ENDBRANCH   7   8
ENDBRANCH   6   7
ENDBRANCH   5   6
ENDBRANCH   4   5
ENDBRANCH   3   4
ENDBRANCH   2   3
ENDBRANCH   1   2
BRANCH   1  11
ATOM     11  C   UNL     1      47.620  16.548  -4.509  1.00  0.00    -0.031 C 
ATOM     12  C   UNL     1      46.322  16.903  -4.490  1.00  0.00    -0.027 C 
BRANCH  12  13
ATOM     13  C   UNL     1      45.699  17.931  -5.404  1.00  0.00     0.054 C 
BRANCH  13  14
ATOM     14  C   UNL     1      44.535  18.613  -4.743  1.00  0.00    -0.027 C 
ATOM     15  C   UNL     1      44.222  19.890  -5.015  1.00  0.00    -0.031 C 
BRANCH  15  16
ATOM     16  C   UNL     1      43.118  20.603  -4.280  1.00  0.00     0.027 C 
BRANCH  16  17
ATOM     17  C   UNL     1      43.482  20.833  -2.807  1.00  0.00     0.004 C 
BRANCH  17  18
ATOM     18  C   UNL     1      42.680  19.925  -1.860  1.00  0.00     0.000 C 
BRANCH  18  19
ATOM     19  C   UNL     1      42.157  20.676  -0.625  1.00  0.00    -0.003 C 
ATOM     20  C   UNL     1      40.650  20.515  -0.428  1.00  0.00     0.004 C 
ENDBRANCH  18  19
ENDBRANCH  17  18
ENDBRANCH  16  17
ENDBRANCH  15  16
ENDBRANCH  13  14
ENDBRANCH  12  13
ENDBRANCH   1  11
TORSDOF 14
ENDMDL
MODEL 3
REMARK VINA RESULT:    -4.018      1.863      6.976
REMARK INTER + INTRA:          -8.894
REMARK INTER:                  -7.156
REMARK INTRA:                  -1.738
REMARK UNBOUND:                -1.588
REMARK SMILES CCCCCC=CCC=CCCCCCCCC(=O)[O-]
REMARK SMILES IDX 11 1 12 2 13 3 14 4 15 5 16 6 17 7 18 8 19 9 20 10 10 11
REMARK SMILES IDX 9 12 8 13 7 14 6 15 5 16 4 17 3 18 2 19 1 20
REMARK H PARENT
REMARK Flexibility Score: inf
ROOT
ATOM      1  C   UNL     1      43.391  20.418  -1.950  1.00  0.00     0.027 C 
ENDROOT
BRANCH   1   2
ATOM      2  C   UNL     1      42.204  20.588  -0.991  1.00  0.00     0.004 C 
BRANCH   2   3
ATOM      3  C   UNL     1      41.546  19.245  -0.639  1.00  0.00     0.000 C 
BRANCH   3   4
ATOM      4  C   UNL     1      41.495  18.318  -1.863  1.00  0.00     0.000 C 
BRANCH   4   5
ATOM      5  C   UNL     1      42.120  16.935  -1.577  1.00  0.00     0.000 C 
BRANCH   5   6
ATOM      6  C   UNL     1      42.926  16.368  -2.762  1.00  0.00     0.006 C 
BRANCH   6   7
ATOM      7  C   UNL     1      44.441  16.302  -2.514  1.00  0.00     0.053 C 
BRANCH   7   8
ATOM      8  C   UNL     1      44.999  14.947  -2.828  1.00  0.00     0.041 C 
ATOM      9  O   UNL     1      46.244  14.758  -2.815  1.00  0.00    -0.550 OA
ATOM     10  O   UNL     1      44.146  13.889  -3.115  1.00  0.00    -0.550 OA
ENDBRANCH   7   8
ENDBRANCH   6   7
ENDBRANCH   5   6
ENDBRANCH   4   5
ENDBRANCH   3   4
ENDBRANCH   2   3
ENDBRANCH   1   2
BRANCH   1  11
ATOM     11  C   UNL     1      43.243  21.268  -3.188  1.00  0.00    -0.031 C 
ATOM     12  C   UNL     1      43.332  20.805  -4.450  1.00  0.00    -0.027 C 
BRANCH  12  13
ATOM     13  C   UNL     1      43.518  19.355  -4.821  1.00  0.00     0.054 C 
BRANCH  13  14
ATOM     14  C   UNL     1      44.876  19.115  -5.418  1.00  0.00    -0.027 C 
ATOM     15  C   UNL     1      45.374  17.876  -5.555  1.00  0.00    -0.031 C 
BRANCH  15  16
ATOM     16  C   UNL     1      46.773  17.642  -6.059  1.00  0.00     0.027 C 
BRANCH  16  17
ATOM     17  C   UNL     1      47.671  17.044  -4.968  1.00  0.00     0.004 C 
BRANCH  17  18
ATOM     18  C   UNL     1      49.109  16.807  -5.460  1.00  0.00     0.000 C 
BRANCH  18  19
ATOM     19  C   UNL     1      49.876  15.807  -4.581  1.00  0.00    -0.003 C 
ATOM     20  C   UNL     1      51.358  15.716  -4.943  1.00  0.00     0.004 C 
ENDBRANCH  18  19
ENDBRANCH  17  18
ENDBRANCH  16  17
ENDBRANCH  15  16
ENDBRANCH  13  14
ENDBRANCH  12  13
ENDBRANCH   1  11
TORSDOF 14
ENDMDL
MODEL 4
REMARK VINA RESULT:    -3.983      1.732      5.892
REMARK INTER + INTRA:          -8.830
REMARK INTER:                  -6.802
REMARK INTRA:                  -2.028
REMARK UNBOUND:                -1.588
REMARK SMILES CCCCCC=CCC=CCCCCCCCC(=O)[O-]
REMARK SMILES IDX 11 1 12 2 13 3 14 4 15 5 16 6 17 7 18 8 19 9 20 10 10 11
REMARK SMILES IDX 9 12 8 13 7 14 6 15 5 16 4 17 3 18 2 19 1 20
REMARK H PARENT
REMARK Flexibility Score: inf
ROOT
ATOM      1  C   UNL     1      40.561  19.158  -1.536  1.00  0.00     0.027 C 
ENDROOT
BRANCH   1   2
ATOM      2  C   UNL     1      40.897  17.870  -2.301  1.00  0.00     0.004 C 
BRANCH   2   3
ATOM      3  C   UNL     1      41.923  17.004  -1.554  1.00  0.00     0.000 C 
BRANCH   3   4
ATOM      4  C   UNL     1      43.181  16.782  -2.406  1.00  0.00     0.000 C 
BRANCH   4   5
ATOM      5  C   UNL     1      43.000  15.641  -3.432  1.00  0.00     0.000 C 
BRANCH   5   6
ATOM      6  C   UNL     1      43.686  14.326  -3.015  1.00  0.00     0.006 C 
BRANCH   6   7
ATOM      7  C   UNL     1      45.062  14.105  -3.660  1.00  0.00     0.053 C 
BRANCH   7   8
ATOM      8  C   UNL     1      45.986  13.344  -2.758  1.00  0.00     0.041 C 
ATOM      9  O   UNL     1      45.610  12.263  -2.234  1.00  0.00    -0.550 OA
ATOM     10  O   UNL     1      47.268  13.818  -2.511  1.00  0.00    -0.550 OA
ENDBRANCH   7   8
ENDBRANCH   6   7
ENDBRANCH   5   6
ENDBRANCH   4   5
ENDBRANCH   3   4
ENDBRANCH   2   3
ENDBRANCH   1   2
BRANCH   1  11
ATOM     11  C   UNL     1      41.743  19.674  -0.751  1.00  0.00    -0.031 C 
ATOM     12  C   UNL     1      42.677  20.513  -1.236  1.00  0.00    -0.027 C 
BRANCH  12  13
ATOM     13  C   UNL     1      42.648  21.127  -2.614  1.00  0.00     0.054 C 
BRANCH  13  14
ATOM     14  C   UNL     1      43.427  20.299  -3.596  1.00  0.00    -0.027 C 
ATOM     15  C   UNL     1      43.913  20.827  -4.730  1.00  0.00    -0.031 C 
BRANCH  15  16
ATOM     16  C   UNL     1      44.607  19.977  -5.761  1.00  0.00     0.027 C 
BRANCH  16  17
ATOM     17  C   UNL     1      44.564  18.490  -5.382  1.00  0.00     0.004 C 
BRANCH  17  18
ATOM     18  C   UNL     1      45.886  17.769  -5.697  1.00  0.00     0.000 C 
BRANCH  18  19
ATOM     19  C   UNL     1      46.579  17.229  -4.436  1.00  0.00    -0.003 C 
ATOM     20  C   UNL     1      47.954  16.630  -4.727  1.00  0.00     0.004 C 
ENDBRANCH  18  19
ENDBRANCH  17  18
ENDBRANCH  16  17
ENDBRANCH  15  16
ENDBRANCH  13  14
ENDBRANCH  12  13
ENDBRANCH   1  11
TORSDOF 14
ENDMDL
MODEL 5
REMARK VINA RESULT:    -3.966      1.215      2.231
REMARK INTER + INTRA:          -8.799
REMARK INTER:                  -7.065
REMARK INTRA:                  -1.735
REMARK UNBOUND:                -1.588
REMARK SMILES CCCCCC=CCC=CCCCCCCCC(=O)[O-]
REMARK SMILES IDX 11 1 12 2 13 3 14 4 15 5 16 6 17 7 18 8 19 9 20 10 10 11
REMARK SMILES IDX 9 12 8 13 7 14 6 15 5 16 4 17 3 18 2 19 1 20
REMARK H PARENT
REMARK Flexibility Score: inf
ROOT
ATOM      1  C   UNL     1      45.005  15.285  -4.449  1.00  0.00     0.027 C 
ENDROOT
BRANCH   1   2
ATOM      2  C   UNL     1      45.401  16.471  -5.340  1.00  0.00     0.004 C 
BRANCH   2   3
ATOM      3  C   UNL     1      46.608  17.239  -4.779  1.00  0.00     0.000 C 
BRANCH   3   4
ATOM      4  C   UNL     1      47.855  17.016  -5.647  1.00  0.00     0.000 C 
BRANCH   4   5
ATOM      5  C   UNL     1      49.035  16.434  -4.838  1.00  0.00     0.000 C 
BRANCH   5   6
ATOM      6  C   UNL     1      48.615  15.337  -3.841  1.00  0.00     0.006 C 
BRANCH   6   7
ATOM      7  C   UNL     1      48.498  13.937  -4.463  1.00  0.00     0.053 C 
BRANCH   7   8
ATOM      8  C   UNL     1      48.834  12.858  -3.478  1.00  0.00     0.041 C 
ATOM      9  O   UNL     1      49.629  11.936  -3.797  1.00  0.00    -0.550 OA
ATOM     10  O   UNL     1      48.286  12.882  -2.202  1.00  0.00    -0.550 OA
ENDBRANCH   7   8
ENDBRANCH   6   7
ENDBRANCH   5   6
ENDBRANCH   4   5
ENDBRANCH   3   4
ENDBRANCH   2   3
ENDBRANCH   1   2
BRANCH   1  11
ATOM     11  C   UNL     1      44.820  15.697  -3.009  1.00  0.00    -0.031 C 
ATOM     12  C   UNL     1      43.766  16.391  -2.540  1.00  0.00    -0.027 C 
BRANCH  12  13
ATOM     13  C   UNL     1      42.571  16.799  -3.366  1.00  0.00     0.054 C 
BRANCH  13  14
ATOM     14  C   UNL     1      42.435  18.294  -3.426  1.00  0.00    -0.027 C 
ATOM     15  C   UNL     1      43.495  19.103  -3.276  1.00  0.00    -0.031 C 
BRANCH  15  16
ATOM     16  C   UNL     1      43.344  20.600  -3.237  1.00  0.00     0.027 C 
BRANCH  16  17
ATOM     17  C   UNL     1      42.180  21.022  -2.329  1.00  0.00     0.004 C 
BRANCH  17  18
ATOM     18  C   UNL     1      42.428  20.655  -0.856  1.00  0.00     0.000 C 
BRANCH  18  19
ATOM     19  C   UNL     1      41.290  19.813  -0.258  1.00  0.00    -0.003 C 
ATOM     20  C   UNL     1      39.981  20.592  -0.132  1.00  0.00     0.004 C 
ENDBRANCH  18  19
ENDBRANCH  17  18
ENDBRANCH  16  17
ENDBRANCH  15  16
ENDBRANCH  13  14
ENDBRANCH  12  13
ENDBRANCH   1  11
TORSDOF 14
ENDMDL
MODEL 6
REMARK VINA RESULT:    -3.949      2.608      5.682
REMARK INTER + INTRA:          -8.768
REMARK INTER:                  -6.317
REMARK INTRA:                  -2.451
REMARK UNBOUND:                -1.588
REMARK SMILES CCCCCC=CCC=CCCCCCCCC(=O)[O-]
REMARK SMILES IDX 11 1 12 2 13 3 14 4 15 5 16 6 17 7 18 8 19 9 20 10 10 11
REMARK SMILES IDX 9 12 8 13 7 14 6 15 5 16 4 17 3 18 2 19 1 20
REMARK H PARENT
REMARK Flexibility Score: inf
ROOT
ATOM      1  C   UNL     1      42.662  21.072  -2.315  1.00  0.00     0.027 C 
ENDROOT
BRANCH   1   2
ATOM      2  C   UNL     1      43.624  20.312  -3.239  1.00  0.00     0.004 C 
BRANCH   2   3
ATOM      3  C   UNL     1      43.725  20.959  -4.629  1.00  0.00     0.000 C 
BRANCH   3   4
ATOM      4  C   UNL     1      44.417  20.019  -5.626  1.00  0.00     0.000 C 
BRANCH   4   5
ATOM      5  C   UNL     1      44.562  18.583  -5.074  1.00  0.00     0.000 C 
BRANCH   5   6
ATOM      6  C   UNL     1      45.869  17.889  -5.504  1.00  0.00     0.006 C 
BRANCH   6   7
ATOM      7  C   UNL     1      46.396  16.863  -4.489  1.00  0.00     0.053 C 
BRANCH   7   8
ATOM      8  C   UNL     1      47.859  16.596  -4.674  1.00  0.00     0.041 C 
ATOM      9  O   UNL     1      48.554  17.357  -5.396  1.00  0.00    -0.550 OA
ATOM     10  O   UNL     1      48.458  15.519  -4.034  1.00  0.00    -0.550 OA
ENDBRANCH   7   8
ENDBRANCH   6   7
ENDBRANCH   5   6
ENDBRANCH   4   5
ENDBRANCH   3   4
ENDBRANCH   2   3
ENDBRANCH   1   2
BRANCH   1  11
ATOM     11  C   UNL     1      42.411  20.329  -1.025  1.00  0.00    -0.031 C 
ATOM     12  C   UNL     1      41.263  19.700  -0.714  1.00  0.00    -0.027 C 
BRANCH  12  13
ATOM     13  C   UNL     1      40.075  19.576  -1.637  1.00  0.00     0.054 C 
BRANCH  13  14
ATOM     14  C   UNL     1      40.287  18.492  -2.656  1.00  0.00    -0.027 C 
ATOM     15  C   UNL     1      40.442  18.774  -3.959  1.00  0.00    -0.031 C 
BRANCH  15  16
ATOM     16  C   UNL     1      40.555  17.684  -4.992  1.00  0.00     0.027 C 
BRANCH  16  17
ATOM     17  C   UNL     1      40.716  16.305  -4.337  1.00  0.00     0.004 C 
BRANCH  17  18
ATOM     18  C   UNL     1      42.179  15.831  -4.329  1.00  0.00     0.000 C 
BRANCH  18  19
ATOM     19  C   UNL     1      42.688  15.511  -2.915  1.00  0.00    -0.003 C 
ATOM     20  C   UNL     1      43.432  16.683  -2.274  1.00  0.00     0.004 C 
ENDBRANCH  18  19
ENDBRANCH  17  18
ENDBRANCH  16  17
ENDBRANCH  15  16
ENDBRANCH  13  14
ENDBRANCH  12  13
ENDBRANCH   1  11
TORSDOF 14
ENDMDL
MODEL 7
REMARK VINA RESULT:    -3.940      3.154      7.399
REMARK INTER + INTRA:          -8.751
REMARK INTER:                  -6.808
REMARK INTRA:                  -1.943
REMARK UNBOUND:                -1.588
REMARK SMILES CCCCCC=CCC=CCCCCCCCC(=O)[O-]
REMARK SMILES IDX 11 1 12 2 13 3 14 4 15 5 16 6 17 7 18 8 19 9 20 10 10 11
REMARK SMILES IDX 9 12 8 13 7 14 6 15 5 16 4 17 3 18 2 19 1 20
REMARK H PARENT
REMARK Flexibility Score: inf
ROOT
ATOM      1  C   UNL     1      43.728  17.283  -4.420  1.00  0.00     0.027 C 
ENDROOT
BRANCH   1   2
ATOM      2  C   UNL     1      44.734  17.535  -5.552  1.00  0.00     0.004 C 
BRANCH   2   3
ATOM      3  C   UNL     1      45.010  19.032  -5.759  1.00  0.00     0.000 C 
BRANCH   3   4
ATOM      4  C   UNL     1      43.737  19.863  -5.541  1.00  0.00     0.000 C 
BRANCH   4   5
ATOM      5  C   UNL     1      43.934  20.967  -4.479  1.00  0.00     0.000 C 
BRANCH   5   6
ATOM      6  C   UNL     1      42.824  20.998  -3.412  1.00  0.00     0.006 C 
BRANCH   6   7
ATOM      7  C   UNL     1      43.248  20.428  -2.050  1.00  0.00     0.053 C 
BRANCH   7   8
ATOM      8  C   UNL     1      42.070  19.968  -1.245  1.00  0.00     0.041 C 
ATOM      9  O   UNL     1      41.935  18.749  -0.962  1.00  0.00    -0.550 OA
ATOM     10  O   UNL     1      41.133  20.887  -0.791  1.00  0.00    -0.550 OA
ENDBRANCH   7   8
ENDBRANCH   6   7
ENDBRANCH   5   6
ENDBRANCH   4   5
ENDBRANCH   3   4
ENDBRANCH   2   3
ENDBRANCH   1   2
BRANCH   1  11
ATOM     11  C   UNL     1      44.403  17.199  -3.072  1.00  0.00    -0.031 C 
ATOM     12  C   UNL     1      44.745  16.052  -2.457  1.00  0.00    -0.027 C 
BRANCH  12  13
ATOM     13  C   UNL     1      44.576  14.675  -3.052  1.00  0.00     0.054 C 
BRANCH  13  14
ATOM     14  C   UNL     1      45.903  14.074  -3.421  1.00  0.00    -0.027 C 
ATOM     15  C   UNL     1      46.891  13.946  -2.522  1.00  0.00    -0.031 C 
BRANCH  15  16
ATOM     16  C   UNL     1      48.252  13.437  -2.916  1.00  0.00     0.027 C 
BRANCH  16  17
ATOM     17  C   UNL     1      48.584  13.791  -4.372  1.00  0.00     0.004 C 
BRANCH  17  18
ATOM     18  C   UNL     1      49.896  14.585  -4.494  1.00  0.00     0.000 C 
BRANCH  18  19
ATOM     19  C   UNL     1      49.665  16.104  -4.534  1.00  0.00    -0.003 C 
ATOM     20  C   UNL     1      48.237  16.475  -4.933  1.00  0.00     0.004 C 
ENDBRANCH  18  19
ENDBRANCH  17  18
ENDBRANCH  16  17
ENDBRANCH  15  16
ENDBRANCH  13  14
ENDBRANCH  12  13
ENDBRANCH   1  11
TORSDOF 14
ENDMDL
MODEL 8
REMARK VINA RESULT:    -3.929      1.869      7.086
REMARK INTER + INTRA:          -8.733
REMARK INTER:                  -7.082
REMARK INTRA:                  -1.651
REMARK UNBOUND:                -1.588
REMARK SMILES CCCCCC=CCC=CCCCCCCCC(=O)[O-]
REMARK SMILES IDX 11 1 12 2 13 3 14 4 15 5 16 6 17 7 18 8 19 9 20 10 10 11
REMARK SMILES IDX 9 12 8 13 7 14 6 15 5 16 4 17 3 18 2 19 1 20
REMARK H PARENT
REMARK Flexibility Score: inf
ROOT
ATOM      1  C   UNL     1      43.619  20.659  -2.998  1.00  0.00     0.027 C 
ENDROOT
BRANCH   1   2
ATOM      2  C   UNL     1      42.225  21.026  -2.470  1.00  0.00     0.004 C 
BRANCH   2   3
ATOM      3  C   UNL     1      42.059  20.679  -0.982  1.00  0.00     0.000 C 
BRANCH   3   4
ATOM      4  C   UNL     1      41.682  19.202  -0.799  1.00  0.00     0.000 C 
BRANCH   4   5
ATOM      5  C   UNL     1      40.858  18.656  -1.986  1.00  0.00     0.000 C 
BRANCH   5   6
ATOM      6  C   UNL     1      41.489  17.420  -2.655  1.00  0.00     0.006 C 
BRANCH   6   7
ATOM      7  C   UNL     1      42.777  16.929  -1.977  1.00  0.00     0.053 C 
BRANCH   7   8
ATOM      8  C   UNL     1      43.335  15.713  -2.652  1.00  0.00     0.041 C 
ATOM      9  O   UNL     1      42.563  14.882  -3.197  1.00  0.00    -0.550 OA
ATOM     10  O   UNL     1      44.708  15.507  -2.696  1.00  0.00    -0.550 OA
ENDBRANCH   7   8
ENDBRANCH   6   7
ENDBRANCH   5   6
ENDBRANCH   4   5
ENDBRANCH   3   4
ENDBRANCH   2   3
ENDBRANCH   1   2
BRANCH   1  11
ATOM     11  C   UNL     1      43.711  20.803  -4.498  1.00  0.00    -0.031 C 
ATOM     12  C   UNL     1      44.158  19.846  -5.333  1.00  0.00    -0.027 C 
BRANCH  12  13
ATOM     13  C   UNL     1      44.564  18.457  -4.909  1.00  0.00     0.054 C 
BRANCH  13  14
ATOM     14  C   UNL     1      45.815  18.015  -5.614  1.00  0.00    -0.027 C 
ATOM     15  C   UNL     1      46.779  17.334  -4.975  1.00  0.00    -0.031 C 
BRANCH  15  16
ATOM     16  C   UNL     1      48.074  16.978  -5.654  1.00  0.00     0.027 C 
BRANCH  16  17
ATOM     17  C   UNL     1      48.964  16.116  -4.749  1.00  0.00     0.004 C 
BRANCH  17  18
ATOM     18  C   UNL     1      48.161  15.412  -3.642  1.00  0.00     0.000 C 
BRANCH  18  19
ATOM     19  C   UNL     1      48.587  13.948  -3.444  1.00  0.00    -0.003 C 
ATOM     20  C   UNL     1      47.555  13.131  -2.667  1.00  0.00     0.004 C 
ENDBRANCH  18  19
ENDBRANCH  17  18
ENDBRANCH  16  17
ENDBRANCH  15  16
ENDBRANCH  13  14
ENDBRANCH  12  13
ENDBRANCH   1  11
TORSDOF 14
ENDMDL
MODEL 9
REMARK VINA RESULT:    -3.912      1.574      3.164
REMARK INTER + INTRA:          -8.702
REMARK INTER:                  -6.921
REMARK INTRA:                  -1.781
REMARK UNBOUND:                -1.588
REMARK SMILES CCCCCC=CCC=CCCCCCCCC(=O)[O-]
REMARK SMILES IDX 11 1 12 2 13 3 14 4 15 5 16 6 17 7 18 8 19 9 20 10 10 11
REMARK SMILES IDX 9 12 8 13 7 14 6 15 5 16 4 17 3 18 2 19 1 20
REMARK H PARENT
REMARK Flexibility Score: inf
ROOT
ATOM      1  C   UNL     1      44.653  17.650  -3.807  1.00  0.00     0.027 C 
ENDROOT
BRANCH   1   2
ATOM      2  C   UNL     1      45.666  16.592  -4.268  1.00  0.00     0.004 C 
BRANCH   2   3
ATOM      3  C   UNL     1      47.011  17.215  -4.671  1.00  0.00     0.000 C 
BRANCH   3   4
ATOM      4  C   UNL     1      47.429  16.763  -6.078  1.00  0.00     0.000 C 
BRANCH   4   5
ATOM      5  C   UNL     1      48.791  16.035  -6.079  1.00  0.00     0.000 C 
BRANCH   5   6
ATOM      6  C   UNL     1      49.396  15.860  -4.673  1.00  0.00     0.006 C 
BRANCH   6   7
ATOM      7  C   UNL     1      49.948  14.453  -4.399  1.00  0.00     0.053 C 
BRANCH   7   8
ATOM      8  C   UNL     1      49.025  13.649  -3.535  1.00  0.00     0.041 C 
ATOM      9  O   UNL     1      47.973  14.169  -3.079  1.00  0.00    -0.550 OA
ATOM     10  O   UNL     1      49.315  12.322  -3.248  1.00  0.00    -0.550 OA
ENDBRANCH   7   8
ENDBRANCH   6   7
ENDBRANCH   5   6
ENDBRANCH   4   5
ENDBRANCH   3   4
ENDBRANCH   2   3
ENDBRANCH   1   2
BRANCH   1  11
ATOM     11  C   UNL     1      43.794  18.144  -4.946  1.00  0.00    -0.031 C 
ATOM     12  C   UNL     1      43.476  19.434  -5.162  1.00  0.00    -0.027 C 
BRANCH  12  13
ATOM     13  C   UNL     1      43.990  20.593  -4.344  1.00  0.00     0.054 C 
BRANCH  13  14
ATOM     14  C   UNL     1      43.058  20.917  -3.211  1.00  0.00    -0.027 C 
ATOM     15  C   UNL     1      43.317  20.524  -1.955  1.00  0.00    -0.031 C 
BRANCH  15  16
ATOM     16  C   UNL     1      42.335  20.761  -0.838  1.00  0.00     0.027 C 
BRANCH  16  17
ATOM     17  C   UNL     1      41.547  19.487  -0.503  1.00  0.00     0.004 C 
BRANCH  17  18
ATOM     18  C   UNL     1      40.520  19.134  -1.593  1.00  0.00     0.000 C 
BRANCH  18  19
ATOM     19  C   UNL     1      40.933  17.904  -2.416  1.00  0.00    -0.003 C 
ATOM     20  C   UNL     1      41.838  16.949  -1.639  1.00  0.00     0.004 C 
ENDBRANCH  18  19
ENDBRANCH  17  18
ENDBRANCH  16  17
ENDBRANCH  15  16
ENDBRANCH  13  14
ENDBRANCH  12  13
ENDBRANCH   1  11
TORSDOF 14
ENDMDL
