MODEL 1
REMARK VINA RESULT:    -1.599      0.000      0.000
REMARK INTER + INTRA:          -4.508
REMARK INTER:                  -3.469
REMARK INTRA:                  -1.039
REMARK UNBOUND:                -1.039
REMARK SMILES CCCCCCCCCCCCCCCCCCCCCC(=O)[O-]
REMARK SMILES IDX 12 1 11 2 10 3 9 4 8 5 7 6 6 7 5 8 4 9 3 10 2 11 1 12 13 13
REMARK SMILES IDX 14 14 15 15 16 16 17 17 18 18 19 19 20 20 21 21 22 22 23 23
REMARK SMILES IDX 24 24
REMARK H PARENT
REMARK Flexibility Score: inf
ROOT
ATOM      1  C   UNL     1      13.632  28.927  20.069  1.00  0.00     0.000 C 
ENDROOT
BRANCH   1   2
ATOM      2  C   UNL     1      12.357  29.094  20.911  1.00  0.00     0.000 C 
BRANCH   2   3
ATOM      3  C   UNL     1      12.638  29.036  22.422  1.00  0.00     0.000 C 
BRANCH   3   4
ATOM      4  C   UNL     1      13.845  29.898  22.835  1.00  0.00    -0.000 C 
BRANCH   4   5
ATOM      5  C   UNL     1      13.792  30.436  24.279  1.00  0.00    -0.000 C 
BRANCH   5   6
ATOM      6  C   UNL     1      14.721  29.720  25.281  1.00  0.00    -0.000 C 
BRANCH   6   7
ATOM      7  C   UNL     1      14.342  28.261  25.595  1.00  0.00    -0.000 C 
BRANCH   7   8
ATOM      8  C   UNL     1      15.012  27.254  24.643  1.00  0.00    -0.000 C 
BRANCH   8   9
ATOM      9  C   UNL     1      14.092  26.071  24.296  1.00  0.00    -0.000 C 
BRANCH   9  10
ATOM     10  C   UNL     1      13.818  25.163  25.508  1.00  0.00    -0.000 C 
BRANCH  10  11
ATOM     11  C   UNL     1      14.982  24.205  25.802  1.00  0.00    -0.003 C 
ATOM     12  C   UNL     1      14.633  23.149  26.850  1.00  0.00     0.004 C 
ENDBRANCH  10  11
ENDBRANCH   9  10
ENDBRANCH   8   9
ENDBRANCH   7   8
ENDBRANCH   6   7
ENDBRANCH   5   6
ENDBRANCH   4   5
ENDBRANCH   3   4
ENDBRANCH   2   3
ENDBRANCH   1   2
BRANCH   1  13
ATOM     13  C   UNL     1      13.878  30.119  19.131  1.00  0.00     0.000 C 
BRANCH  13  14
ATOM     14  C   UNL     1      14.532  29.661  17.822  1.00  0.00     0.000 C 
BRANCH  14  15
ATOM     15  C   UNL     1      13.516  29.662  16.670  1.00  0.00     0.000 C 
BRANCH  15  16
ATOM     16  C   UNL     1      13.145  31.081  16.211  1.00  0.00     0.000 C 
BRANCH  16  17
ATOM     17  C   UNL     1      12.586  31.111  14.776  1.00  0.00     0.000 C 
BRANCH  17  18
ATOM     18  C   UNL     1      13.694  31.046  13.712  1.00  0.00     0.000 C 
BRANCH  18  19
ATOM     19  C   UNL     1      13.138  31.085  12.279  1.00  0.00     0.000 C 
BRANCH  19  20
ATOM     20  C   UNL     1      14.091  30.445  11.254  1.00  0.00     0.006 C 
BRANCH  20  21
ATOM     21  C   UNL     1      13.417  30.035   9.934  1.00  0.00     0.053 C 
BRANCH  21  22
ATOM     22  C   UNL     1      12.848  28.651  10.000  1.00  0.00     0.041 C 
ATOM     23  O   UNL     1      11.612  28.482  10.170  1.00  0.00    -0.550 OA
ATOM     24  O   UNL     1      13.679  27.549   9.842  1.00  0.00    -0.550 OA
ENDBRANCH  21  22
ENDBRANCH  20  21
ENDBRANCH  19  20
ENDBRANCH  18  19
ENDBRANCH  17  18
ENDBRANCH  16  17
ENDBRANCH  15  16
ENDBRANCH  14  15
ENDBRANCH  13  14
ENDBRANCH   1  13
TORSDOF 20
ENDMDL
MODEL 2
REMARK VINA RESULT:    -0.874      4.354      5.548
REMARK INTER + INTRA:          -2.935
REMARK INTER:                  -1.804
REMARK INTRA:                  -1.131
REMARK UNBOUND:                -1.039
REMARK SMILES CCCCCCCCCCCCCCCCCCCCCC(=O)[O-]
REMARK SMILES IDX 12 1 11 2 10 3 9 4 8 5 7 6 6 7 5 8 4 9 3 10 2 11 1 12 13 13
REMARK SMILES IDX 14 14 15 15 16 16 17 17 18 18 19 19 20 20 21 21 22 22 23 23
REMARK SMILES IDX 24 24
REMARK H PARENT
REMARK Flexibility Score: inf
ROOT
ATOM      1  C   UNL     1      13.853  26.234  22.023  1.00  0.00     0.000 C 
ENDROOT
BRANCH   1   2
ATOM      2  C   UNL     1      12.395  26.499  22.428  1.00  0.00     0.000 C 
BRANCH   2   3
ATOM      3  C   UNL     1      12.282  27.433  23.646  1.00  0.00     0.000 C 
BRANCH   3   4
ATOM      4  C   UNL     1      13.609  28.137  23.980  1.00  0.00    -0.000 C 
BRANCH   4   5
ATOM      5  C   UNL     1      13.854  28.377  25.482  1.00  0.00    -0.000 C 
BRANCH   5   6
ATOM      6  C   UNL     1      14.696  27.295  26.192  1.00  0.00    -0.000 C 
BRANCH   6   7
ATOM      7  C   UNL     1      15.125  26.114  25.301  1.00  0.00    -0.000 C 
BRANCH   7   8
ATOM      8  C   UNL     1      14.277  24.852  25.536  1.00  0.00    -0.000 C 
BRANCH   8   9
ATOM      9  C   UNL     1      14.566  24.193  26.896  1.00  0.00    -0.000 C 
BRANCH   9  10
ATOM     10  C   UNL     1      14.984  22.719  26.758  1.00  0.00    -0.000 C 
BRANCH  10  11
ATOM     11  C   UNL     1      14.947  21.968  28.098  1.00  0.00    -0.003 C 
ATOM     12  C   UNL     1      14.965  20.450  27.929  1.00  0.00     0.004 C 
ENDBRANCH  10  11
ENDBRANCH   9  10
ENDBRANCH   8   9
ENDBRANCH   7   8
ENDBRANCH   6   7
ENDBRANCH   5   6
ENDBRANCH   4   5
ENDBRANCH   3   4
ENDBRANCH   2   3
ENDBRANCH   1   2
BRANCH   1  13
ATOM     13  C   UNL     1      14.247  26.962  20.728  1.00  0.00     0.000 C 
BRANCH  13  14
ATOM     14  C   UNL     1      15.088  26.054  19.824  1.00  0.00     0.000 C 
BRANCH  14  15
ATOM     15  C   UNL     1      15.044  26.537  18.366  1.00  0.00     0.000 C 
BRANCH  15  16
ATOM     16  C   UNL     1      15.124  28.067  18.247  1.00  0.00     0.000 C 
BRANCH  16  17
ATOM     17  C   UNL     1      13.939  28.662  17.466  1.00  0.00     0.000 C 
BRANCH  17  18
ATOM     18  C   UNL     1      14.169  30.131  17.077  1.00  0.00     0.000 C 
BRANCH  18  19
ATOM     19  C   UNL     1      13.157  31.083  17.738  1.00  0.00     0.000 C 
BRANCH  19  20
ATOM     20  C   UNL     1      11.868  30.366  18.177  1.00  0.00     0.006 C 
BRANCH  20  21
ATOM     21  C   UNL     1      11.304  30.848  19.524  1.00  0.00     0.053 C 
BRANCH  21  22
ATOM     22  C   UNL     1      12.248  30.579  20.656  1.00  0.00     0.041 C 
ATOM     23  O   UNL     1      11.810  30.467  21.832  1.00  0.00    -0.550 OA
ATOM     24  O   UNL     1      13.606  30.421  20.408  1.00  0.00    -0.550 OA
ENDBRANCH  21  22
ENDBRANCH  20  21
ENDBRANCH  19  20
ENDBRANCH  18  19
ENDBRANCH  17  18
ENDBRANCH  16  17
ENDBRANCH  15  16
ENDBRANCH  14  15
ENDBRANCH  13  14
ENDBRANCH   1  13
TORSDOF 20
ENDMDL
MODEL 3
REMARK VINA RESULT:    -0.317      4.122      6.070
REMARK INTER + INTRA:          -1.726
REMARK INTER:                  -1.517
REMARK INTRA:                  -0.209
REMARK UNBOUND:                -1.039
REMARK SMILES CCCCCCCCCCCCCCCCCCCCCC(=O)[O-]
REMARK SMILES IDX 12 1 11 2 10 3 9 4 8 5 7 6 6 7 5 8 4 9 3 10 2 11 1 12 13 13
REMARK SMILES IDX 14 14 15 15 16 16 17 17 18 18 19 19 20 20 21 21 22 22 23 23
REMARK SMILES IDX 24 24
REMARK H PARENT
REMARK Flexibility Score: inf
ROOT
ATOM      1  C   UNL     1      14.425  25.947  20.691  1.00  0.00     0.000 C 
ENDROOT
BRANCH   1   2
ATOM      2  C   UNL     1      14.122  26.930  21.832  1.00  0.00     0.000 C 
BRANCH   2   3
ATOM      3  C   UNL     1      15.117  26.802  22.999  1.00  0.00     0.000 C 
BRANCH   3   4
ATOM      4  C   UNL     1      14.973  25.471  23.758  1.00  0.00    -0.000 C 
BRANCH   4   5
ATOM      5  C   UNL     1      14.169  25.558  25.070  1.00  0.00    -0.000 C 
BRANCH   5   6
ATOM      6  C   UNL     1      15.012  25.528  26.362  1.00  0.00    -0.000 C 
BRANCH   6   7
ATOM      7  C   UNL     1      15.080  26.863  27.127  1.00  0.00    -0.000 C 
BRANCH   7   8
ATOM      8  C   UNL     1      15.067  28.086  26.194  1.00  0.00    -0.000 C 
BRANCH   8   9
ATOM      9  C   UNL     1      13.810  28.954  26.377  1.00  0.00    -0.000 C 
BRANCH   9  10
ATOM     10  C   UNL     1      14.008  30.391  25.864  1.00  0.00    -0.000 C 
BRANCH  10  11
ATOM     11  C   UNL     1      15.079  30.483  24.767  1.00  0.00    -0.003 C 
ATOM     12  C   UNL     1      14.539  30.136  23.380  1.00  0.00     0.004 C 
ENDBRANCH  10  11
ENDBRANCH   9  10
ENDBRANCH   8   9
ENDBRANCH   7   8
ENDBRANCH   6   7
ENDBRANCH   5   6
ENDBRANCH   4   5
ENDBRANCH   3   4
ENDBRANCH   2   3
ENDBRANCH   1   2
BRANCH   1  13
ATOM     13  C   UNL     1      14.413  26.624  19.311  1.00  0.00     0.000 C 
BRANCH  13  14
ATOM     14  C   UNL     1      15.125  27.980  19.360  1.00  0.00     0.000 C 
BRANCH  14  15
ATOM     15  C   UNL     1      14.494  28.969  18.369  1.00  0.00     0.000 C 
BRANCH  15  16
ATOM     16  C   UNL     1      14.760  28.588  16.904  1.00  0.00     0.000 C 
BRANCH  16  17
ATOM     17  C   UNL     1      14.410  29.724  15.925  1.00  0.00     0.000 C 
BRANCH  17  18
ATOM     18  C   UNL     1      13.011  30.310  16.179  1.00  0.00     0.000 C 
BRANCH  18  19
ATOM     19  C   UNL     1      12.942  31.125  17.482  1.00  0.00     0.000 C 
BRANCH  19  20
ATOM     20  C   UNL     1      11.984  30.510  18.517  1.00  0.00     0.006 C 
BRANCH  20  21
ATOM     21  C   UNL     1      12.345  30.824  19.978  1.00  0.00     0.053 C 
BRANCH  21  22
ATOM     22  C   UNL     1      11.142  30.805  20.871  1.00  0.00     0.041 C 
ATOM     23  O   UNL     1       9.991  30.964  20.386  1.00  0.00    -0.550 OA
ATOM     24  O   UNL     1      11.290  30.578  22.234  1.00  0.00    -0.550 OA
ENDBRANCH  21  22
ENDBRANCH  20  21
ENDBRANCH  19  20
ENDBRANCH  18  19
ENDBRANCH  17  18
ENDBRANCH  16  17
ENDBRANCH  15  16
ENDBRANCH  14  15
ENDBRANCH  13  14
ENDBRANCH   1  13
TORSDOF 20
ENDMDL
