MODEL 1
REMARK VINA RESULT:    -4.713      0.000      0.000
REMARK INTER + INTRA:          -4.850
REMARK INTER:                  -4.850
REMARK INTRA:                   0.000
REMARK UNBOUND:                 0.000
REMARK SMILES Cc1ccccc1O
REMARK SMILES IDX 1 1 2 2 3 3 4 4 5 5 6 6 7 7 8 8
REMARK H PARENT 8 9
REMARK Flexibility Score: inf
ROOT
ATOM      1  C   UNL     1     -10.853  -4.801  -8.987  1.00  0.00     0.048 C 
ATOM      2  C   UNL     1     -10.366  -3.714  -9.905  1.00  0.00    -0.009 A 
ATOM      3  C   UNL     1     -10.968  -3.546 -11.165  1.00  0.00     0.007 A 
ATOM      4  C   UNL     1     -10.530  -2.543 -12.032  1.00  0.00     0.001 A 
ATOM      5  C   UNL     1      -9.487  -1.697 -11.653  1.00  0.00     0.004 A 
ATOM      6  C   UNL     1      -8.880  -1.851 -10.405  1.00  0.00     0.046 A 
ATOM      7  C   UNL     1      -9.309  -2.853  -9.525  1.00  0.00     0.118 A 
ENDROOT
BRANCH   7   8
ATOM      8  O   UNL     1      -8.671  -2.968  -8.289  1.00  0.00    -0.508 OA
ATOM      9  H   UNL     1      -8.224  -2.188  -7.825  1.00  0.00     0.293 HD
ENDBRANCH   7   8
TORSDOF 1
ENDMDL
MODEL 2
REMARK VINA RESULT:    -4.576      2.250      2.785
REMARK INTER + INTRA:          -4.710
REMARK INTER:                  -4.710
REMARK INTRA:                   0.000
REMARK UNBOUND:                 0.000
REMARK SMILES Cc1ccccc1O
REMARK SMILES IDX 1 1 2 2 3 3 4 4 5 5 6 6 7 7 8 8
REMARK H PARENT 8 9
REMARK Flexibility Score: inf
ROOT
ATOM      1  C   UNL     1     -10.129  -5.487 -10.863  1.00  0.00     0.048 C 
ATOM      2  C   UNL     1     -10.222  -3.986 -10.895  1.00  0.00    -0.009 A 
ATOM      3  C   UNL     1      -9.850  -3.243  -9.760  1.00  0.00     0.007 A 
ATOM      4  C   UNL     1      -9.930  -1.848  -9.769  1.00  0.00     0.001 A 
ATOM      5  C   UNL     1     -10.381  -1.180 -10.908  1.00  0.00     0.004 A 
ATOM      6  C   UNL     1     -10.753  -1.905 -12.042  1.00  0.00     0.046 A 
ATOM      7  C   UNL     1     -10.678  -3.304 -12.047  1.00  0.00     0.118 A 
ENDROOT
BRANCH   7   8
ATOM      8  O   UNL     1     -11.062  -3.984 -13.205  1.00  0.00    -0.508 OA
ATOM      9  H   UNL     1     -11.933  -4.492 -13.283  1.00  0.00     0.293 HD
ENDBRANCH   7   8
TORSDOF 1
ENDMDL
MODEL 3
REMARK VINA RESULT:    -4.570      1.657      2.273
REMARK INTER + INTRA:          -4.704
REMARK INTER:                  -4.704
REMARK INTRA:                   0.000
REMARK UNBOUND:                 0.000
REMARK SMILES Cc1ccccc1O
REMARK SMILES IDX 1 1 2 2 3 3 4 4 5 5 6 6 7 7 8 8
REMARK H PARENT 8 9
REMARK Flexibility Score: inf
ROOT
ATOM      1  C   UNL     1     -10.179  -4.275  -8.479  1.00  0.00     0.048 C 
ATOM      2  C   UNL     1      -9.986  -3.251  -9.563  1.00  0.00    -0.009 A 
ATOM      3  C   UNL     1      -8.702  -2.729  -9.806  1.00  0.00     0.007 A 
ATOM      4  C   UNL     1      -8.502  -1.777 -10.808  1.00  0.00     0.001 A 
ATOM      5  C   UNL     1      -9.579  -1.335 -11.579  1.00  0.00     0.004 A 
ATOM      6  C   UNL     1     -10.858  -1.846 -11.350  1.00  0.00     0.046 A 
ATOM      7  C   UNL     1     -11.074  -2.801 -10.348  1.00  0.00     0.118 A 
ENDROOT
BRANCH   7   8
ATOM      8  O   UNL     1     -12.371  -3.280 -10.157  1.00  0.00    -0.508 OA
ATOM      9  H   UNL     1     -12.774  -3.433  -9.242  1.00  0.00     0.293 HD
ENDBRANCH   7   8
TORSDOF 1
ENDMDL
MODEL 4
REMARK VINA RESULT:    -4.542      1.465      2.743
REMARK INTER + INTRA:          -4.674
REMARK INTER:                  -4.674
REMARK INTRA:                   0.000
REMARK UNBOUND:                 0.000
REMARK SMILES Cc1ccccc1O
REMARK SMILES IDX 1 1 2 2 3 3 4 4 5 5 6 6 7 7 8 8
REMARK H PARENT 8 9
REMARK Flexibility Score: inf
ROOT
ATOM      1  C   UNL     1     -10.865  -3.514 -12.305  1.00  0.00     0.048 C 
ATOM      2  C   UNL     1     -10.371  -3.504 -10.885  1.00  0.00    -0.009 A 
ATOM      3  C   UNL     1     -10.925  -4.398  -9.950  1.00  0.00     0.007 A 
ATOM      4  C   UNL     1     -10.479  -4.404  -8.626  1.00  0.00     0.001 A 
ATOM      5  C   UNL     1      -9.478  -3.521  -8.220  1.00  0.00     0.004 A 
ATOM      6  C   UNL     1      -8.919  -2.629  -9.138  1.00  0.00     0.046 A 
ATOM      7  C   UNL     1      -9.356  -2.611 -10.469  1.00  0.00     0.118 A 
ENDROOT
BRANCH   7   8
ATOM      8  O   UNL     1      -8.766  -1.700 -11.348  1.00  0.00    -0.508 OA
ATOM      9  H   UNL     1      -7.928  -1.907 -11.876  1.00  0.00     0.293 HD
ENDBRANCH   7   8
TORSDOF 1
ENDMDL
MODEL 5
REMARK VINA RESULT:    -4.532      1.864      3.532
REMARK INTER + INTRA:          -4.664
REMARK INTER:                  -4.664
REMARK INTRA:                   0.000
REMARK UNBOUND:                 0.000
REMARK SMILES Cc1ccccc1O
REMARK SMILES IDX 1 1 2 2 3 3 4 4 5 5 6 6 7 7 8 8
REMARK H PARENT 8 9
REMARK Flexibility Score: inf
ROOT
ATOM      1  C   UNL     1      -8.607  -1.370 -11.408  1.00  0.00     0.048 C 
ATOM      2  C   UNL     1      -9.384  -2.397 -10.632  1.00  0.00    -0.009 A 
ATOM      3  C   UNL     1      -9.031  -2.675  -9.299  1.00  0.00     0.007 A 
ATOM      4  C   UNL     1      -9.741  -3.625  -8.562  1.00  0.00     0.001 A 
ATOM      5  C   UNL     1     -10.809  -4.309  -9.144  1.00  0.00     0.004 A 
ATOM      6  C   UNL     1     -11.171  -4.042 -10.466  1.00  0.00     0.046 A 
ATOM      7  C   UNL     1     -10.468  -3.091 -11.218  1.00  0.00     0.118 A 
ENDROOT
BRANCH   7   8
ATOM      8  O   UNL     1     -10.869  -2.861 -12.536  1.00  0.00    -0.508 OA
ATOM      9  H   UNL     1     -10.229  -2.883 -13.319  1.00  0.00     0.293 HD
ENDBRANCH   7   8
TORSDOF 1
ENDMDL
MODEL 6
REMARK VINA RESULT:    -4.438      2.010      3.169
REMARK INTER + INTRA:          -4.568
REMARK INTER:                  -4.568
REMARK INTRA:                   0.000
REMARK UNBOUND:                 0.000
REMARK SMILES Cc1ccccc1O
REMARK SMILES IDX 1 1 2 2 3 3 4 4 5 5 6 6 7 7 8 8
REMARK H PARENT 8 9
REMARK Flexibility Score: inf
ROOT
ATOM      1  C   UNL     1     -11.938  -0.244 -11.246  1.00  0.00     0.048 C 
ATOM      2  C   UNL     1     -10.785  -1.141 -10.887  1.00  0.00    -0.009 A 
ATOM      3  C   UNL     1      -9.467  -0.676 -11.049  1.00  0.00     0.007 A 
ATOM      4  C   UNL     1      -8.382  -1.494 -10.721  1.00  0.00     0.001 A 
ATOM      5  C   UNL     1      -8.600  -2.781 -10.228  1.00  0.00     0.004 A 
ATOM      6  C   UNL     1      -9.903  -3.255 -10.062  1.00  0.00     0.046 A 
ATOM      7  C   UNL     1     -11.000  -2.446 -10.386  1.00  0.00     0.118 A 
ENDROOT
BRANCH   7   8
ATOM      8  O   UNL     1     -12.284  -2.965 -10.202  1.00  0.00    -0.508 OA
ATOM      9  H   UNL     1     -12.510  -3.940 -10.348  1.00  0.00     0.293 HD
ENDBRANCH   7   8
TORSDOF 1
ENDMDL
MODEL 7
REMARK VINA RESULT:    -4.392      0.920      2.628
REMARK INTER + INTRA:          -4.520
REMARK INTER:                  -4.520
REMARK INTRA:                   0.000
REMARK UNBOUND:                 0.000
REMARK SMILES Cc1ccccc1O
REMARK SMILES IDX 1 1 2 2 3 3 4 4 5 5 6 6 7 7 8 8
REMARK H PARENT 8 9
REMARK Flexibility Score: inf
ROOT
ATOM      1  C   UNL     1      -8.306  -0.493 -11.251  1.00  0.00     0.048 C 
ATOM      2  C   UNL     1      -9.157  -1.706 -10.994  1.00  0.00    -0.009 A 
ATOM      3  C   UNL     1     -10.033  -2.165 -11.995  1.00  0.00     0.007 A 
ATOM      4  C   UNL     1     -10.831  -3.290 -11.776  1.00  0.00     0.001 A 
ATOM      5  C   UNL     1     -10.766  -3.969 -10.558  1.00  0.00     0.004 A 
ATOM      6  C   UNL     1      -9.900  -3.525  -9.557  1.00  0.00     0.046 A 
ATOM      7  C   UNL     1      -9.093  -2.399  -9.762  1.00  0.00     0.118 A 
ENDROOT
BRANCH   7   8
ATOM      8  O   UNL     1      -8.244  -1.994  -8.730  1.00  0.00    -0.508 OA
ATOM      9  H   UNL     1      -8.007  -1.026  -8.558  1.00  0.00     0.293 HD
ENDBRANCH   7   8
TORSDOF 1
ENDMDL
MODEL 8
REMARK VINA RESULT:    -4.386      1.067      1.524
REMARK INTER + INTRA:          -4.514
REMARK INTER:                  -4.514
REMARK INTRA:                   0.000
REMARK UNBOUND:                 0.000
REMARK SMILES Cc1ccccc1O
REMARK SMILES IDX 1 1 2 2 3 3 4 4 5 5 6 6 7 7 8 8
REMARK H PARENT 8 9
REMARK Flexibility Score: inf
ROOT
ATOM      1  C   UNL     1      -9.388  -3.469  -7.995  1.00  0.00     0.048 C 
ATOM      2  C   UNL     1      -9.753  -3.107  -9.408  1.00  0.00    -0.009 A 
ATOM      3  C   UNL     1     -10.485  -4.016 -10.192  1.00  0.00     0.007 A 
ATOM      4  C   UNL     1     -10.834  -3.698 -11.507  1.00  0.00     0.001 A 
ATOM      5  C   UNL     1     -10.456  -2.472 -12.054  1.00  0.00     0.004 A 
ATOM      6  C   UNL     1      -9.729  -1.559 -11.287  1.00  0.00     0.046 A 
ATOM      7  C   UNL     1      -9.372  -1.864  -9.967  1.00  0.00     0.118 A 
ENDROOT
BRANCH   7   8
ATOM      8  O   UNL     1      -8.645  -0.918  -9.241  1.00  0.00    -0.508 OA
ATOM      9  H   UNL     1      -8.098  -1.152  -8.424  1.00  0.00     0.293 HD
ENDBRANCH   7   8
TORSDOF 1
ENDMDL
MODEL 9
REMARK VINA RESULT:    -4.347      1.514      2.519
REMARK INTER + INTRA:          -4.475
REMARK INTER:                  -4.475
REMARK INTRA:                   0.000
REMARK UNBOUND:                 0.000
REMARK SMILES Cc1ccccc1O
REMARK SMILES IDX 1 1 2 2 3 3 4 4 5 5 6 6 7 7 8 8
REMARK H PARENT 8 9
REMARK Flexibility Score: inf
ROOT
ATOM      1  C   UNL     1     -10.957  -3.607 -12.785  1.00  0.00     0.048 C 
ATOM      2  C   UNL     1     -10.352  -2.917 -11.593  1.00  0.00    -0.009 A 
ATOM      3  C   UNL     1     -10.140  -1.527 -11.628  1.00  0.00     0.007 A 
ATOM      4  C   UNL     1      -9.579  -0.868 -10.532  1.00  0.00     0.001 A 
ATOM      5  C   UNL     1      -9.224  -1.586  -9.389  1.00  0.00     0.004 A 
ATOM      6  C   UNL     1      -9.430  -2.967  -9.340  1.00  0.00     0.046 A 
ATOM      7  C   UNL     1      -9.991  -3.641 -10.432  1.00  0.00     0.118 A 
ENDROOT
BRANCH   7   8
ATOM      8  O   UNL     1     -10.177  -5.022 -10.335  1.00  0.00    -0.508 OA
ATOM      9  H   UNL     1     -10.877  -5.523 -10.865  1.00  0.00     0.293 HD
ENDBRANCH   7   8
TORSDOF 1
ENDMDL
