MODEL 1
REMARK VINA RESULT:    -7.448      0.000      0.000
REMARK INTER + INTRA:          -8.966
REMARK INTER:                  -8.754
REMARK INTRA:                  -0.212
REMARK UNBOUND:                -0.212
REMARK SMILES O=c1c(O)c(-c2ccc(O)c(O)c2)oc2cc(O)ccc12
REMARK SMILES IDX 5 1 3 2 2 3 1 4 21 5 15 6 14 7 16 8 17 9 19 10 20 11 6 12
REMARK SMILES IDX 7 13 8 14 9 15 13 16 11 17 10 18 12 20 4 22 18 24
REMARK H PARENT 10 19 12 21 4 23 18 25
REMARK Flexibility Score: inf
ROOT
ATOM      1  C   UNL     1     -15.613  27.274 -22.693  1.00  0.00     0.180 A 
ATOM      2  C   UNL     1     -16.276  27.234 -23.937  1.00  0.00     0.208 A 
ATOM      3  C   UNL     1     -17.657  26.986 -23.959  1.00  0.00     0.235 A 
ATOM      4  O   UNL     1     -18.275  26.955 -25.060  1.00  0.00    -0.285 OA
ATOM      5  C   UNL     1     -18.338  26.764 -22.752  1.00  0.00     0.069 A 
ATOM      6  C   UNL     1     -17.599  26.798 -21.550  1.00  0.00     0.142 A 
ATOM      7  O   UNL     1     -16.294  27.044 -21.571  1.00  0.00    -0.452 OA
ATOM      8  C   UNL     1     -18.239  26.572 -20.328  1.00  0.00     0.094 A 
ATOM      9  C   UNL     1     -19.617  26.315 -20.289  1.00  0.00     0.119 A 
ATOM     10  C   UNL     1     -20.352  26.283 -21.479  1.00  0.00     0.047 A 
ATOM     11  C   UNL     1     -19.720  26.505 -22.706  1.00  0.00     0.020 A 
ENDROOT
BRANCH   1  12
ATOM     12  C   UNL     1     -14.162  27.548 -22.584  1.00  0.00     0.025 A 
ATOM     13  C   UNL     1     -13.683  28.746 -22.026  1.00  0.00     0.016 A 
ATOM     14  C   UNL     1     -12.308  28.972 -21.912  1.00  0.00     0.051 A 
ATOM     15  C   UNL     1     -11.394  28.003 -22.339  1.00  0.00     0.157 A 
ATOM     16  C   UNL     1     -13.242  26.569 -22.993  1.00  0.00     0.062 A 
ATOM     17  C   UNL     1     -11.862  26.794 -22.880  1.00  0.00     0.158 A 
BRANCH  15  18
ATOM     18  O   UNL     1     -10.029  28.258 -22.215  1.00  0.00    -0.504 OA
ATOM     19  H   UNL     1      -9.678  29.118 -21.811  1.00  0.00     0.293 HD
ENDBRANCH  15  18
BRANCH  17  20
ATOM     20  O   UNL     1     -10.957  25.821 -23.300  1.00  0.00    -0.504 OA
ATOM     21  H   UNL     1     -10.839  25.593 -24.281  1.00  0.00     0.293 HD
ENDBRANCH  17  20
ENDBRANCH   1  12
BRANCH   2  22
ATOM     22  O   UNL     1     -15.563  27.409 -25.125  1.00  0.00    -0.502 OA
ATOM     23  H   UNL     1     -14.881  28.149 -25.244  1.00  0.00     0.293 HD
ENDBRANCH   2  22
BRANCH   9  24
ATOM     24  O   UNL     1     -20.264  26.089 -19.076  1.00  0.00    -0.508 OA
ATOM     25  H   UNL     1     -21.221  25.756 -19.041  1.00  0.00     0.293 HD
ENDBRANCH   9  24
TORSDOF 5
ENDMDL
MODEL 2
REMARK VINA RESULT:    -7.440      1.873      6.695
REMARK INTER + INTRA:          -8.957
REMARK INTER:                  -8.876
REMARK INTRA:                  -0.081
REMARK UNBOUND:                -0.212
REMARK SMILES O=c1c(O)c(-c2ccc(O)c(O)c2)oc2cc(O)ccc12
REMARK SMILES IDX 5 1 3 2 2 3 1 4 21 5 15 6 14 7 16 8 17 9 19 10 20 11 6 12
REMARK SMILES IDX 7 13 8 14 9 15 13 16 11 17 10 18 12 20 4 22 18 24
REMARK H PARENT 10 19 12 21 4 23 18 25
REMARK Flexibility Score: inf
ROOT
ATOM      1  C   UNL     1     -15.521  26.620 -21.336  1.00  0.00     0.180 A 
ATOM      2  C   UNL     1     -15.261  26.870 -22.700  1.00  0.00     0.208 A 
ATOM      3  C   UNL     1     -13.927  26.975 -23.126  1.00  0.00     0.235 A 
ATOM      4  O   UNL     1     -13.669  27.189 -24.343  1.00  0.00    -0.285 OA
ATOM      5  C   UNL     1     -12.891  26.848 -22.187  1.00  0.00     0.069 A 
ATOM      6  C   UNL     1     -13.235  26.621 -20.838  1.00  0.00     0.142 A 
ATOM      7  O   UNL     1     -14.509  26.520 -20.477  1.00  0.00    -0.452 OA
ATOM      8  C   UNL     1     -12.231  26.499 -19.871  1.00  0.00     0.094 A 
ATOM      9  C   UNL     1     -10.882  26.599 -20.237  1.00  0.00     0.119 A 
ATOM     10  C   UNL     1     -10.539  26.822 -21.576  1.00  0.00     0.047 A 
ATOM     11  C   UNL     1     -11.535  26.948 -22.548  1.00  0.00     0.020 A 
ENDROOT
BRANCH   1  12
ATOM     12  C   UNL     1     -16.898  26.478 -20.813  1.00  0.00     0.025 A 
ATOM     13  C   UNL     1     -17.849  27.502 -20.967  1.00  0.00     0.016 A 
ATOM     14  C   UNL     1     -19.151  27.336 -20.486  1.00  0.00     0.051 A 
ATOM     15  C   UNL     1     -19.526  26.143 -19.859  1.00  0.00     0.157 A 
ATOM     16  C   UNL     1     -17.284  25.274 -20.201  1.00  0.00     0.062 A 
ATOM     17  C   UNL     1     -18.590  25.105 -19.717  1.00  0.00     0.158 A 
BRANCH  15  18
ATOM     18  O   UNL     1     -20.831  26.008 -19.387  1.00  0.00    -0.504 OA
ATOM     19  H   UNL     1     -21.035  25.639 -18.466  1.00  0.00     0.293 HD
ENDBRANCH  15  18
BRANCH  17  20
ATOM     20  O   UNL     1     -18.960  23.911 -19.100  1.00  0.00    -0.504 OA
ATOM     21  H   UNL     1     -18.851  23.774 -18.102  1.00  0.00     0.293 HD
ENDBRANCH  17  20
ENDBRANCH   1  12
BRANCH   2  22
ATOM     22  O   UNL     1     -16.314  27.041 -23.602  1.00  0.00    -0.502 OA
ATOM     23  H   UNL     1     -16.506  26.376 -24.343  1.00  0.00     0.293 HD
ENDBRANCH   2  22
BRANCH   9  24
ATOM     24  O   UNL     1      -9.875  26.478 -19.282  1.00  0.00    -0.508 OA
ATOM     25  H   UNL     1      -8.897  26.435 -19.546  1.00  0.00     0.293 HD
ENDBRANCH   9  24
TORSDOF 5
ENDMDL
MODEL 3
REMARK VINA RESULT:    -6.976      1.728      2.823
REMARK INTER + INTRA:          -8.412
REMARK INTER:                  -8.130
REMARK INTRA:                  -0.282
REMARK UNBOUND:                -0.212
REMARK SMILES O=c1c(O)c(-c2ccc(O)c(O)c2)oc2cc(O)ccc12
REMARK SMILES IDX 5 1 3 2 2 3 1 4 21 5 15 6 14 7 16 8 17 9 19 10 20 11 6 12
REMARK SMILES IDX 7 13 8 14 9 15 13 16 11 17 10 18 12 20 4 22 18 24
REMARK H PARENT 10 19 12 21 4 23 18 25
REMARK Flexibility Score: inf
ROOT
ATOM      1  C   UNL     1     -15.918  27.483 -22.984  1.00  0.00     0.180 A 
ATOM      2  C   UNL     1     -16.200  27.774 -21.633  1.00  0.00     0.208 A 
ATOM      3  C   UNL     1     -17.500  27.552 -21.151  1.00  0.00     0.235 A 
ATOM      4  O   UNL     1     -17.774  27.796 -19.943  1.00  0.00    -0.285 OA
ATOM      5  C   UNL     1     -18.486  27.068 -22.024  1.00  0.00     0.069 A 
ATOM      6  C   UNL     1     -18.130  26.823 -23.367  1.00  0.00     0.142 A 
ATOM      7  O   UNL     1     -16.887  27.038 -23.782  1.00  0.00    -0.452 OA
ATOM      8  C   UNL     1     -19.087  26.350 -24.270  1.00  0.00     0.094 A 
ATOM      9  C   UNL     1     -20.402  26.114 -23.847  1.00  0.00     0.119 A 
ATOM     10  C   UNL     1     -20.757  26.355 -22.514  1.00  0.00     0.047 A 
ATOM     11  C   UNL     1     -19.808  26.830 -21.605  1.00  0.00     0.020 A 
ENDROOT
BRANCH   1  12
ATOM     12  C   UNL     1     -14.568  27.673 -23.563  1.00  0.00     0.025 A 
ATOM     13  C   UNL     1     -14.248  28.816 -24.315  1.00  0.00     0.016 A 
ATOM     14  C   UNL     1     -12.960  28.985 -24.830  1.00  0.00     0.051 A 
ATOM     15  C   UNL     1     -11.971  28.025 -24.592  1.00  0.00     0.157 A 
ATOM     16  C   UNL     1     -13.568  26.721 -23.308  1.00  0.00     0.062 A 
ATOM     17  C   UNL     1     -12.274  26.888 -23.825  1.00  0.00     0.158 A 
BRANCH  15  18
ATOM     18  O   UNL     1     -10.696  28.219 -25.121  1.00  0.00    -0.504 OA
ATOM     19  H   UNL     1     -10.541  28.757 -25.965  1.00  0.00     0.293 HD
ENDBRANCH  15  18
BRANCH  17  20
ATOM     20  O   UNL     1     -11.292  25.930 -23.577  1.00  0.00    -0.504 OA
ATOM     21  H   UNL     1     -10.996  25.705 -22.634  1.00  0.00     0.293 HD
ENDBRANCH  17  20
ENDBRANCH   1  12
BRANCH   2  22
ATOM     22  O   UNL     1     -15.210  28.302 -20.801  1.00  0.00    -0.502 OA
ATOM     23  H   UNL     1     -15.413  28.994 -20.088  1.00  0.00     0.293 HD
ENDBRANCH   2  22
BRANCH   9  24
ATOM     24  O   UNL     1     -21.362  25.642 -24.738  1.00  0.00    -0.508 OA
ATOM     25  H   UNL     1     -21.261  25.766 -25.740  1.00  0.00     0.293 HD
ENDBRANCH   9  24
TORSDOF 5
ENDMDL
MODEL 4
REMARK VINA RESULT:    -6.966      2.245      2.347
REMARK INTER + INTRA:          -8.400
REMARK INTER:                  -8.090
REMARK INTRA:                  -0.310
REMARK UNBOUND:                -0.212
REMARK SMILES O=c1c(O)c(-c2ccc(O)c(O)c2)oc2cc(O)ccc12
REMARK SMILES IDX 5 1 3 2 2 3 1 4 21 5 15 6 14 7 16 8 17 9 19 10 20 11 6 12
REMARK SMILES IDX 7 13 8 14 9 15 13 16 11 17 10 18 12 20 4 22 18 24
REMARK H PARENT 10 19 12 21 4 23 18 25
REMARK Flexibility Score: inf
ROOT
ATOM      1  C   UNL     1     -15.823  27.143 -20.894  1.00  0.00     0.180 A 
ATOM      2  C   UNL     1     -16.072  27.565 -22.217  1.00  0.00     0.208 A 
ATOM      3  C   UNL     1     -17.297  27.232 -22.814  1.00  0.00     0.235 A 
ATOM      4  O   UNL     1     -17.547  27.607 -23.994  1.00  0.00    -0.285 OA
ATOM      5  C   UNL     1     -18.234  26.476 -22.092  1.00  0.00     0.069 A 
ATOM      6  C   UNL     1     -17.901  26.073 -20.781  1.00  0.00     0.142 A 
ATOM      7  O   UNL     1     -16.733  26.415 -20.250  1.00  0.00    -0.452 OA
ATOM      8  C   UNL     1     -18.804  25.309 -20.034  1.00  0.00     0.094 A 
ATOM      9  C   UNL     1     -20.042  24.944 -20.580  1.00  0.00     0.119 A 
ATOM     10  C   UNL     1     -20.374  25.344 -21.879  1.00  0.00     0.047 A 
ATOM     11  C   UNL     1     -19.478  26.105 -22.635  1.00  0.00     0.020 A 
ENDROOT
BRANCH   1  12
ATOM     12  C   UNL     1     -14.563  27.469 -20.189  1.00  0.00     0.025 A 
ATOM     13  C   UNL     1     -14.474  28.571 -19.321  1.00  0.00     0.016 A 
ATOM     14  C   UNL     1     -13.281  28.844 -18.647  1.00  0.00     0.051 A 
ATOM     15  C   UNL     1     -12.165  28.017 -18.819  1.00  0.00     0.157 A 
ATOM     16  C   UNL     1     -13.449  26.629 -20.343  1.00  0.00     0.062 A 
ATOM     17  C   UNL     1     -12.249  26.902 -19.668  1.00  0.00     0.158 A 
BRANCH  15  18
ATOM     18  O   UNL     1     -10.988  28.317 -18.135  1.00  0.00    -0.504 OA
ATOM     19  H   UNL     1     -10.074  28.139 -18.534  1.00  0.00     0.293 HD
ENDBRANCH  15  18
BRANCH  17  20
ATOM     20  O   UNL     1     -11.144  26.069 -19.838  1.00  0.00    -0.504 OA
ATOM     21  H   UNL     1     -10.429  26.270 -20.528  1.00  0.00     0.293 HD
ENDBRANCH  17  20
ENDBRANCH   1  12
BRANCH   2  22
ATOM     22  O   UNL     1     -15.100  28.274 -22.928  1.00  0.00    -0.502 OA
ATOM     23  H   UNL     1     -14.839  28.033 -23.877  1.00  0.00     0.293 HD
ENDBRANCH   2  22
BRANCH   9  24
ATOM     24  O   UNL     1     -20.947  24.184 -19.843  1.00  0.00    -0.508 OA
ATOM     25  H   UNL     1     -21.018  23.180 -19.965  1.00  0.00     0.293 HD
ENDBRANCH   9  24
TORSDOF 5
ENDMDL
MODEL 5
REMARK VINA RESULT:    -6.632      2.320      7.209
REMARK INTER + INTRA:          -8.007
REMARK INTER:                  -7.729
REMARK INTRA:                  -0.278
REMARK UNBOUND:                -0.212
REMARK SMILES O=c1c(O)c(-c2ccc(O)c(O)c2)oc2cc(O)ccc12
REMARK SMILES IDX 5 1 3 2 2 3 1 4 21 5 15 6 14 7 16 8 17 9 19 10 20 11 6 12
REMARK SMILES IDX 7 13 8 14 9 15 13 16 11 17 10 18 12 20 4 22 18 24
REMARK H PARENT 10 19 12 21 4 23 18 25
REMARK Flexibility Score: inf
ROOT
ATOM      1  C   UNL     1     -15.451  27.105 -20.385  1.00  0.00     0.180 A 
ATOM      2  C   UNL     1     -14.802  28.007 -19.515  1.00  0.00     0.208 A 
ATOM      3  C   UNL     1     -13.452  28.314 -19.744  1.00  0.00     0.235 A 
ATOM      4  O   UNL     1     -12.852  29.125 -18.985  1.00  0.00    -0.285 OA
ATOM      5  C   UNL     1     -12.778  27.705 -20.814  1.00  0.00     0.069 A 
ATOM      6  C   UNL     1     -13.491  26.797 -21.625  1.00  0.00     0.142 A 
ATOM      7  O   UNL     1     -14.771  26.540 -21.380  1.00  0.00    -0.452 OA
ATOM      8  C   UNL     1     -12.851  26.163 -22.695  1.00  0.00     0.094 A 
ATOM      9  C   UNL     1     -11.502  26.427 -22.969  1.00  0.00     0.119 A 
ATOM     10  C   UNL     1     -10.794  27.329 -22.167  1.00  0.00     0.047 A 
ATOM     11  C   UNL     1     -11.424  27.966 -21.094  1.00  0.00     0.020 A 
ENDROOT
BRANCH   1  12
ATOM     12  C   UNL     1     -16.878  26.745 -20.221  1.00  0.00     0.025 A 
ATOM     13  C   UNL     1     -17.904  27.626 -20.605  1.00  0.00     0.016 A 
ATOM     14  C   UNL     1     -19.244  27.254 -20.464  1.00  0.00     0.051 A 
ATOM     15  C   UNL     1     -19.579  25.996 -19.952  1.00  0.00     0.157 A 
ATOM     16  C   UNL     1     -17.217  25.475 -19.727  1.00  0.00     0.062 A 
ATOM     17  C   UNL     1     -18.561  25.100 -19.583  1.00  0.00     0.158 A 
BRANCH  15  18
ATOM     18  O   UNL     1     -20.924  25.654 -19.820  1.00  0.00    -0.504 OA
ATOM     19  H   UNL     1     -21.340  25.444 -18.921  1.00  0.00     0.293 HD
ENDBRANCH  15  18
BRANCH  17  20
ATOM     20  O   UNL     1     -18.887  23.842 -19.079  1.00  0.00    -0.504 OA
ATOM     21  H   UNL     1     -18.223  23.077 -19.092  1.00  0.00     0.293 HD
ENDBRANCH  17  20
ENDBRANCH   1  12
BRANCH   2  22
ATOM     22  O   UNL     1     -15.486  28.558 -18.429  1.00  0.00    -0.502 OA
ATOM     23  H   UNL     1     -15.073  29.264 -17.830  1.00  0.00     0.293 HD
ENDBRANCH   2  22
BRANCH   9  24
ATOM     24  O   UNL     1     -10.857  25.801 -24.032  1.00  0.00    -0.508 OA
ATOM     25  H   UNL     1      -9.876  25.968 -24.228  1.00  0.00     0.293 HD
ENDBRANCH   9  24
TORSDOF 5
ENDMDL
MODEL 6
REMARK VINA RESULT:    -6.576      1.966      6.837
REMARK INTER + INTRA:          -7.941
REMARK INTER:                  -7.964
REMARK INTRA:                   0.023
REMARK UNBOUND:                -0.212
REMARK SMILES O=c1c(O)c(-c2ccc(O)c(O)c2)oc2cc(O)ccc12
REMARK SMILES IDX 5 1 3 2 2 3 1 4 21 5 15 6 14 7 16 8 17 9 19 10 20 11 6 12
REMARK SMILES IDX 7 13 8 14 9 15 13 16 11 17 10 18 12 20 4 22 18 24
REMARK H PARENT 10 19 12 21 4 23 18 25
REMARK Flexibility Score: inf
ROOT
ATOM      1  C   UNL     1     -15.371  26.571 -21.169  1.00  0.00     0.180 A 
ATOM      2  C   UNL     1     -15.035  26.811 -22.518  1.00  0.00     0.208 A 
ATOM      3  C   UNL     1     -13.685  26.985 -22.858  1.00  0.00     0.235 A 
ATOM      4  O   UNL     1     -13.359  27.191 -24.060  1.00  0.00    -0.285 OA
ATOM      5  C   UNL     1     -12.708  26.938 -21.851  1.00  0.00     0.069 A 
ATOM      6  C   UNL     1     -13.127  26.717 -20.522  1.00  0.00     0.142 A 
ATOM      7  O   UNL     1     -14.414  26.548 -20.243  1.00  0.00    -0.452 OA
ATOM      8  C   UNL     1     -12.184  26.673 -19.490  1.00  0.00     0.094 A 
ATOM      9  C   UNL     1     -10.821  26.845 -19.769  1.00  0.00     0.119 A 
ATOM     10  C   UNL     1     -10.404  27.063 -21.087  1.00  0.00     0.047 A 
ATOM     11  C   UNL     1     -11.339  27.110 -22.125  1.00  0.00     0.020 A 
ENDROOT
BRANCH   1  12
ATOM     12  C   UNL     1     -16.769  26.359 -20.733  1.00  0.00     0.025 A 
ATOM     13  C   UNL     1     -17.127  25.266 -19.924  1.00  0.00     0.016 A 
ATOM     14  C   UNL     1     -18.449  25.100 -19.505  1.00  0.00     0.051 A 
ATOM     15  C   UNL     1     -19.430  26.026 -19.874  1.00  0.00     0.157 A 
ATOM     16  C   UNL     1     -17.752  27.298 -21.084  1.00  0.00     0.062 A 
ATOM     17  C   UNL     1     -19.081  27.133 -20.665  1.00  0.00     0.158 A 
BRANCH  15  18
ATOM     18  O   UNL     1     -20.742  25.832 -19.442  1.00  0.00    -0.504 OA
ATOM     19  H   UNL     1     -21.423  25.332 -20.001  1.00  0.00     0.293 HD
ENDBRANCH  15  18
BRANCH  17  20
ATOM     20  O   UNL     1     -20.052  28.064 -21.030  1.00  0.00    -0.504 OA
ATOM     21  H   UNL     1     -20.348  28.798 -20.397  1.00  0.00     0.293 HD
ENDBRANCH  17  20
ENDBRANCH   1  12
BRANCH   2  22
ATOM     22  O   UNL     1     -16.034  26.902 -23.490  1.00  0.00    -0.502 OA
ATOM     23  H   UNL     1     -16.108  27.693 -24.119  1.00  0.00     0.293 HD
ENDBRANCH   2  22
BRANCH   9  24
ATOM     24  O   UNL     1      -9.875  26.802 -18.748  1.00  0.00    -0.508 OA
ATOM     25  H   UNL     1      -9.843  27.513 -18.026  1.00  0.00     0.293 HD
ENDBRANCH   9  24
TORSDOF 5
ENDMDL
MODEL 7
REMARK VINA RESULT:    -6.240      1.515      3.054
REMARK INTER + INTRA:          -7.546
REMARK INTER:                  -7.230
REMARK INTRA:                  -0.316
REMARK UNBOUND:                -0.212
REMARK SMILES O=c1c(O)c(-c2ccc(O)c(O)c2)oc2cc(O)ccc12
REMARK SMILES IDX 5 1 3 2 2 3 1 4 21 5 15 6 14 7 16 8 17 9 19 10 20 11 6 12
REMARK SMILES IDX 7 13 8 14 9 15 13 16 11 17 10 18 12 20 4 22 18 24
REMARK H PARENT 10 19 12 21 4 23 18 25
REMARK Flexibility Score: inf
ROOT
ATOM      1  C   UNL     1     -16.555  26.766 -21.625  1.00  0.00     0.180 A 
ATOM      2  C   UNL     1     -17.036  26.089 -20.485  1.00  0.00     0.208 A 
ATOM      3  C   UNL     1     -18.343  25.578 -20.503  1.00  0.00     0.235 A 
ATOM      4  O   UNL     1     -18.792  24.960 -19.499  1.00  0.00    -0.285 OA
ATOM      5  C   UNL     1     -19.142  25.768 -21.641  1.00  0.00     0.069 A 
ATOM      6  C   UNL     1     -18.595  26.476 -22.733  1.00  0.00     0.142 A 
ATOM      7  O   UNL     1     -17.351  26.936 -22.679  1.00  0.00    -0.452 OA
ATOM      8  C   UNL     1     -19.364  26.694 -23.881  1.00  0.00     0.094 A 
ATOM      9  C   UNL     1     -20.677  26.210 -23.955  1.00  0.00     0.119 A 
ATOM     10  C   UNL     1     -21.221  25.506 -22.874  1.00  0.00     0.047 A 
ATOM     11  C   UNL     1     -20.461  25.285 -21.722  1.00  0.00     0.020 A 
ENDROOT
BRANCH   1  12
ATOM     12  C   UNL     1     -15.183  27.318 -21.690  1.00  0.00     0.025 A 
ATOM     13  C   UNL     1     -14.903  28.634 -21.285  1.00  0.00     0.016 A 
ATOM     14  C   UNL     1     -13.595  29.125 -21.332  1.00  0.00     0.051 A 
ATOM     15  C   UNL     1     -12.548  28.307 -21.770  1.00  0.00     0.157 A 
ATOM     16  C   UNL     1     -14.126  26.493 -22.110  1.00  0.00     0.062 A 
ATOM     17  C   UNL     1     -12.813  26.984 -22.159  1.00  0.00     0.158 A 
BRANCH  15  18
ATOM     18  O   UNL     1     -11.254  28.826 -21.809  1.00  0.00    -0.504 OA
ATOM     19  H   UNL     1     -10.451  28.292 -21.496  1.00  0.00     0.293 HD
ENDBRANCH  15  18
BRANCH  17  20
ATOM     20  O   UNL     1     -11.773  26.161 -22.589  1.00  0.00    -0.504 OA
ATOM     21  H   UNL     1     -10.802  26.413 -22.445  1.00  0.00     0.293 HD
ENDBRANCH  17  20
ENDBRANCH   1  12
BRANCH   2  22
ATOM     22  O   UNL     1     -16.234  25.959 -19.349  1.00  0.00    -0.502 OA
ATOM     23  H   UNL     1     -15.222  25.931 -19.399  1.00  0.00     0.293 HD
ENDBRANCH   2  22
BRANCH   9  24
ATOM     24  O   UNL     1     -21.450  26.422 -25.094  1.00  0.00    -0.508 OA
ATOM     25  H   UNL     1     -22.358  26.870 -25.041  1.00  0.00     0.293 HD
ENDBRANCH   9  24
TORSDOF 5
ENDMDL
MODEL 8
REMARK VINA RESULT:    -6.069      1.816      7.086
REMARK INTER + INTRA:          -7.346
REMARK INTER:                  -7.616
REMARK INTRA:                   0.270
REMARK UNBOUND:                -0.212
REMARK SMILES O=c1c(O)c(-c2ccc(O)c(O)c2)oc2cc(O)ccc12
REMARK SMILES IDX 5 1 3 2 2 3 1 4 21 5 15 6 14 7 16 8 17 9 19 10 20 11 6 12
REMARK SMILES IDX 7 13 8 14 9 15 13 16 11 17 10 18 12 20 4 22 18 24
REMARK H PARENT 10 19 12 21 4 23 18 25
REMARK Flexibility Score: inf
ROOT
ATOM      1  C   UNL     1     -16.585  27.374 -22.874  1.00  0.00     0.180 A 
ATOM      2  C   UNL     1     -16.390  27.989 -21.619  1.00  0.00     0.208 A 
ATOM      3  C   UNL     1     -15.124  28.511 -21.312  1.00  0.00     0.235 A 
ATOM      4  O   UNL     1     -14.928  29.074 -20.199  1.00  0.00    -0.285 OA
ATOM      5  C   UNL     1     -14.083  28.393 -22.245  1.00  0.00     0.069 A 
ATOM      6  C   UNL     1     -14.352  27.744 -23.470  1.00  0.00     0.142 A 
ATOM      7  O   UNL     1     -15.566  27.271 -23.726  1.00  0.00    -0.452 OA
ATOM      8  C   UNL     1     -13.338  27.598 -24.422  1.00  0.00     0.094 A 
ATOM      9  C   UNL     1     -12.053  28.096 -24.168  1.00  0.00     0.119 A 
ATOM     10  C   UNL     1     -11.785  28.741 -22.955  1.00  0.00     0.047 A 
ATOM     11  C   UNL     1     -12.791  28.890 -21.996  1.00  0.00     0.020 A 
ENDROOT
BRANCH   1  12
ATOM     12  C   UNL     1     -17.894  26.816 -23.280  1.00  0.00     0.025 A 
ATOM     13  C   UNL     1     -18.309  26.824 -24.623  1.00  0.00     0.016 A 
ATOM     14  C   UNL     1     -19.539  26.269 -24.986  1.00  0.00     0.051 A 
ATOM     15  C   UNL     1     -20.365  25.686 -24.019  1.00  0.00     0.157 A 
ATOM     16  C   UNL     1     -18.716  26.212 -22.315  1.00  0.00     0.062 A 
ATOM     17  C   UNL     1     -19.952  25.655 -22.677  1.00  0.00     0.158 A 
BRANCH  15  18
ATOM     18  O   UNL     1     -21.588  25.143 -24.412  1.00  0.00    -0.504 OA
ATOM     19  H   UNL     1     -22.106  25.501 -25.205  1.00  0.00     0.293 HD
ENDBRANCH  15  18
BRANCH  17  20
ATOM     20  O   UNL     1     -20.767  25.069 -21.710  1.00  0.00    -0.504 OA
ATOM     21  H   UNL     1     -21.320  24.244 -21.910  1.00  0.00     0.293 HD
ENDBRANCH  17  20
ENDBRANCH   1  12
BRANCH   2  22
ATOM     22  O   UNL     1     -17.432  28.048 -20.691  1.00  0.00    -0.502 OA
ATOM     23  H   UNL     1     -17.297  27.831 -19.710  1.00  0.00     0.293 HD
ENDBRANCH   2  22
BRANCH   9  24
ATOM     24  O   UNL     1     -11.037  27.956 -25.110  1.00  0.00    -0.508 OA
ATOM     25  H   UNL     1     -10.094  27.699 -24.838  1.00  0.00     0.293 HD
ENDBRANCH   9  24
TORSDOF 5
ENDMDL
MODEL 9
REMARK VINA RESULT:    -6.010      1.814      6.574
REMARK INTER + INTRA:          -7.276
REMARK INTER:                  -7.459
REMARK INTRA:                   0.183
REMARK UNBOUND:                -0.212
REMARK SMILES O=c1c(O)c(-c2ccc(O)c(O)c2)oc2cc(O)ccc12
REMARK SMILES IDX 5 1 3 2 2 3 1 4 21 5 15 6 14 7 16 8 17 9 19 10 20 11 6 12
REMARK SMILES IDX 7 13 8 14 9 15 13 16 11 17 10 18 12 20 4 22 18 24
REMARK H PARENT 10 19 12 21 4 23 18 25
REMARK Flexibility Score: inf
ROOT
ATOM      1  C   UNL     1     -15.428  27.072 -22.845  1.00  0.00     0.180 A 
ATOM      2  C   UNL     1     -14.761  27.548 -23.993  1.00  0.00     0.208 A 
ATOM      3  C   UNL     1     -13.359  27.618 -23.981  1.00  0.00     0.235 A 
ATOM      4  O   UNL     1     -12.739  28.031 -25.000  1.00  0.00    -0.285 OA
ATOM      5  C   UNL     1     -12.659  27.234 -22.826  1.00  0.00     0.069 A 
ATOM      6  C   UNL     1     -13.401  26.790 -21.711  1.00  0.00     0.142 A 
ATOM      7  O   UNL     1     -14.727  26.731 -21.766  1.00  0.00    -0.452 OA
ATOM      8  C   UNL     1     -12.741  26.408 -20.538  1.00  0.00     0.094 A 
ATOM      9  C   UNL     1     -11.342  26.461 -20.466  1.00  0.00     0.119 A 
ATOM     10  C   UNL     1     -10.604  26.899 -21.572  1.00  0.00     0.047 A 
ATOM     11  C   UNL     1     -11.256  27.285 -22.747  1.00  0.00     0.020 A 
ENDROOT
BRANCH   1  12
ATOM     12  C   UNL     1     -16.902  26.951 -22.787  1.00  0.00     0.025 A 
ATOM     13  C   UNL     1     -17.652  26.586 -23.918  1.00  0.00     0.016 A 
ATOM     14  C   UNL     1     -19.041  26.454 -23.833  1.00  0.00     0.051 A 
ATOM     15  C   UNL     1     -19.699  26.671 -22.617  1.00  0.00     0.157 A 
ATOM     16  C   UNL     1     -17.563  27.147 -21.564  1.00  0.00     0.062 A 
ATOM     17  C   UNL     1     -18.958  27.017 -21.476  1.00  0.00     0.158 A 
BRANCH  15  18
ATOM     18  O   UNL     1     -21.085  26.534 -22.564  1.00  0.00    -0.504 OA
ATOM     19  H   UNL     1     -21.530  25.658 -22.317  1.00  0.00     0.293 HD
ENDBRANCH  15  18
BRANCH  17  20
ATOM     20  O   UNL     1     -19.605  27.227 -20.260  1.00  0.00    -0.504 OA
ATOM     21  H   UNL     1     -19.826  26.459 -19.636  1.00  0.00     0.293 HD
ENDBRANCH  17  20
ENDBRANCH   1  12
BRANCH   2  22
ATOM     22  O   UNL     1     -15.487  27.970 -25.110  1.00  0.00    -0.502 OA
ATOM     23  H   UNL     1     -15.652  28.949 -25.311  1.00  0.00     0.293 HD
ENDBRANCH   2  22
BRANCH   9  24
ATOM     24  O   UNL     1     -10.675  26.082 -19.304  1.00  0.00    -0.508 OA
ATOM     25  H   UNL     1     -10.893  26.503 -18.407  1.00  0.00     0.293 HD
ENDBRANCH   9  24
TORSDOF 5
ENDMDL
