MODEL 1
REMARK VINA RESULT:    -3.627      0.000      0.000
REMARK INTER + INTRA:          -7.769
REMARK INTER:                  -6.596
REMARK INTRA:                  -1.174
REMARK UNBOUND:                -1.174
REMARK SMILES CCCCCCCCCCCCCC[C@H](C)C(=O)[O-]
REMARK SMILES IDX 9 1 10 2 11 3 12 4 13 5 14 6 15 7 16 8 17 9 18 10 19 11 8 12
REMARK SMILES IDX 7 13 6 14 5 15 4 16 3 17 2 18 1 19
REMARK H PARENT
REMARK Flexibility Score: inf
ROOT
ATOM      1  C   UNL     1      14.597  -8.277   6.882  1.00  0.00     0.000 C 
ENDROOT
BRANCH   1   2
ATOM      2  C   UNL     1      13.072  -8.259   6.682  1.00  0.00     0.000 C 
BRANCH   2   3
ATOM      3  C   UNL     1      12.674  -8.249   5.197  1.00  0.00     0.000 C 
BRANCH   3   4
ATOM      4  C   UNL     1      11.197  -8.623   4.981  1.00  0.00     0.000 C 
BRANCH   4   5
ATOM      5  C   UNL     1      10.305  -8.219   6.165  1.00  0.00     0.001 C 
BRANCH   5   6
ATOM      6  C   UNL     1       9.152  -9.213   6.401  1.00  0.00     0.009 C 
BRANCH   6   7
ATOM      7  C   UNL     1       7.930  -8.607   7.127  1.00  0.00     0.032 C 
ATOM      8  C   UNL     1       7.273  -9.595   8.101  1.00  0.00     0.014 C 
BRANCH   7   9
ATOM      9  C   UNL     1       6.931  -8.038   6.153  1.00  0.00     0.044 C 
ATOM     10  O   UNL     1       6.082  -7.195   6.548  1.00  0.00    -0.550 OA
ATOM     11  O   UNL     1       6.961  -8.395   4.810  1.00  0.00    -0.550 OA
ENDBRANCH   7   9
ENDBRANCH   6   7
ENDBRANCH   5   6
ENDBRANCH   4   5
ENDBRANCH   3   4
ENDBRANCH   2   3
ENDBRANCH   1   2
BRANCH   1  12
ATOM     12  C   UNL     1      15.375  -8.085   5.568  1.00  0.00     0.000 C 
BRANCH  12  13
ATOM     13  C   UNL     1      16.050  -6.709   5.409  1.00  0.00    -0.000 C 
BRANCH  13  14
ATOM     14  C   UNL     1      16.858  -6.524   4.109  1.00  0.00    -0.000 C 
BRANCH  14  15
ATOM     15  C   UNL     1      18.262  -7.165   4.151  1.00  0.00    -0.000 C 
BRANCH  15  16
ATOM     16  C   UNL     1      19.019  -6.845   5.450  1.00  0.00    -0.000 C 
BRANCH  16  17
ATOM     17  C   UNL     1      19.538  -8.106   6.164  1.00  0.00    -0.000 C 
BRANCH  17  18
ATOM     18  C   UNL     1      19.060  -8.226   7.626  1.00  0.00    -0.003 C 
ATOM     19  C   UNL     1      18.718  -6.869   8.239  1.00  0.00     0.004 C 
ENDBRANCH  17  18
ENDBRANCH  16  17
ENDBRANCH  15  16
ENDBRANCH  14  15
ENDBRANCH  13  14
ENDBRANCH  12  13
ENDBRANCH   1  12
TORSDOF 14
ENDMDL
MODEL 2
REMARK VINA RESULT:    -3.522      4.452      9.618
REMARK INTER + INTRA:          -7.578
REMARK INTER:                  -6.715
REMARK INTRA:                  -0.863
REMARK UNBOUND:                -1.174
REMARK SMILES CCCCCCCCCCCCCC[C@H](C)C(=O)[O-]
REMARK SMILES IDX 9 1 10 2 11 3 12 4 13 5 14 6 15 7 16 8 17 9 18 10 19 11 8 12
REMARK SMILES IDX 7 13 6 14 5 15 4 16 3 17 2 18 1 19
REMARK H PARENT
REMARK Flexibility Score: inf
ROOT
ATOM      1  C   UNL     1      12.493  -7.993   5.865  1.00  0.00     0.000 C 
ENDROOT
BRANCH   1   2
ATOM      2  C   UNL     1      13.358  -7.556   4.670  1.00  0.00     0.000 C 
BRANCH   2   3
ATOM      3  C   UNL     1      14.857  -7.525   5.010  1.00  0.00     0.000 C 
BRANCH   3   4
ATOM      4  C   UNL     1      15.118  -7.498   6.527  1.00  0.00     0.000 C 
BRANCH   4   5
ATOM      5  C   UNL     1      16.583  -7.190   6.869  1.00  0.00     0.001 C 
BRANCH   5   6
ATOM      6  C   UNL     1      17.479  -7.118   5.617  1.00  0.00     0.009 C 
BRANCH   6   7
ATOM      7  C   UNL     1      18.994  -7.148   5.918  1.00  0.00     0.032 C 
ATOM      8  C   UNL     1      19.847  -6.824   4.683  1.00  0.00     0.014 C 
BRANCH   7   9
ATOM      9  C   UNL     1      19.409  -8.449   6.554  1.00  0.00     0.044 C 
ATOM     10  O   UNL     1      19.738  -9.425   5.827  1.00  0.00    -0.550 OA
ATOM     11  O   UNL     1      19.480  -8.577   7.937  1.00  0.00    -0.550 OA
ENDBRANCH   7   9
ENDBRANCH   6   7
ENDBRANCH   5   6
ENDBRANCH   4   5
ENDBRANCH   3   4
ENDBRANCH   2   3
ENDBRANCH   1   2
BRANCH   1  12
ATOM     12  C   UNL     1      11.016  -7.588   5.714  1.00  0.00     0.000 C 
BRANCH  12  13
ATOM     13  C   UNL     1      10.674  -6.865   4.396  1.00  0.00    -0.000 C 
BRANCH  13  14
ATOM     14  C   UNL     1       9.170  -6.639   4.146  1.00  0.00    -0.000 C 
BRANCH  14  15
ATOM     15  C   UNL     1       8.290  -7.857   4.497  1.00  0.00    -0.000 C 
BRANCH  15  16
ATOM     16  C   UNL     1       7.091  -7.484   5.384  1.00  0.00    -0.000 C 
BRANCH  16  17
ATOM     17  C   UNL     1       6.691  -8.612   6.352  1.00  0.00    -0.000 C 
BRANCH  17  18
ATOM     18  C   UNL     1       7.459  -8.577   7.689  1.00  0.00    -0.003 C 
ATOM     19  C   UNL     1       7.331  -9.886   8.468  1.00  0.00     0.004 C 
ENDBRANCH  17  18
ENDBRANCH  16  17
ENDBRANCH  15  16
ENDBRANCH  14  15
ENDBRANCH  13  14
ENDBRANCH  12  13
ENDBRANCH   1  12
TORSDOF 14
ENDMDL
MODEL 3
REMARK VINA RESULT:    -3.494      4.520      9.713
REMARK INTER + INTRA:          -7.527
REMARK INTER:                  -6.310
REMARK INTRA:                  -1.217
REMARK UNBOUND:                -1.174
REMARK SMILES CCCCCCCCCCCCCC[C@H](C)C(=O)[O-]
REMARK SMILES IDX 9 1 10 2 11 3 12 4 13 5 14 6 15 7 16 8 17 9 18 10 19 11 8 12
REMARK SMILES IDX 7 13 6 14 5 15 4 16 3 17 2 18 1 19
REMARK H PARENT
REMARK Flexibility Score: inf
ROOT
ATOM      1  C   UNL     1      12.779  -7.590   5.109  1.00  0.00     0.000 C 
ENDROOT
BRANCH   1   2
ATOM      2  C   UNL     1      13.321  -8.256   6.385  1.00  0.00     0.000 C 
BRANCH   2   3
ATOM      3  C   UNL     1      14.823  -7.997   6.590  1.00  0.00     0.000 C 
BRANCH   3   4
ATOM      4  C   UNL     1      15.392  -6.990   5.574  1.00  0.00     0.000 C 
BRANCH   4   5
ATOM      5  C   UNL     1      16.848  -7.296   5.191  1.00  0.00     0.001 C 
BRANCH   5   6
ATOM      6  C   UNL     1      17.502  -8.323   6.135  1.00  0.00     0.009 C 
BRANCH   6   7
ATOM      7  C   UNL     1      18.846  -7.861   6.743  1.00  0.00     0.032 C 
ATOM      8  C   UNL     1      18.657  -6.965   7.975  1.00  0.00     0.014 C 
BRANCH   7   9
ATOM      9  C   UNL     1      19.727  -7.208   5.710  1.00  0.00     0.044 C 
ATOM     10  O   UNL     1      20.071  -6.004   5.852  1.00  0.00    -0.550 OA
ATOM     11  O   UNL     1      20.208  -7.929   4.623  1.00  0.00    -0.550 OA
ENDBRANCH   7   9
ENDBRANCH   6   7
ENDBRANCH   5   6
ENDBRANCH   4   5
ENDBRANCH   3   4
ENDBRANCH   2   3
ENDBRANCH   1   2
BRANCH   1  12
ATOM     12  C   UNL     1      11.263  -7.331   5.168  1.00  0.00     0.000 C 
BRANCH  12  13
ATOM     13  C   UNL     1      10.504  -8.164   6.219  1.00  0.00    -0.000 C 
BRANCH  13  14
ATOM     14  C   UNL     1       9.591  -9.266   5.646  1.00  0.00    -0.000 C 
BRANCH  14  15
ATOM     15  C   UNL     1       8.548  -9.797   6.651  1.00  0.00    -0.000 C 
BRANCH  15  16
ATOM     16  C   UNL     1       7.616  -8.692   7.176  1.00  0.00    -0.000 C 
BRANCH  16  17
ATOM     17  C   UNL     1       6.458  -8.381   6.212  1.00  0.00    -0.000 C 
BRANCH  17  18
ATOM     18  C   UNL     1       6.517  -6.957   5.619  1.00  0.00    -0.003 C 
ATOM     19  C   UNL     1       6.900  -6.959   4.140  1.00  0.00     0.004 C 
ENDBRANCH  17  18
ENDBRANCH  16  17
ENDBRANCH  15  16
ENDBRANCH  14  15
ENDBRANCH  13  14
ENDBRANCH  12  13
ENDBRANCH   1  12
TORSDOF 14
ENDMDL
MODEL 4
REMARK VINA RESULT:    -3.437      1.591      3.058
REMARK INTER + INTRA:          -7.423
REMARK INTER:                  -6.558
REMARK INTRA:                  -0.865
REMARK UNBOUND:                -1.174
REMARK SMILES CCCCCCCCCCCCCC[C@H](C)C(=O)[O-]
REMARK SMILES IDX 9 1 10 2 11 3 12 4 13 5 14 6 15 7 16 8 17 9 18 10 19 11 8 12
REMARK SMILES IDX 7 13 6 14 5 15 4 16 3 17 2 18 1 19
REMARK H PARENT
REMARK Flexibility Score: inf
ROOT
ATOM      1  C   UNL     1      10.918  -7.626   5.904  1.00  0.00     0.000 C 
ENDROOT
BRANCH   1   2
ATOM      2  C   UNL     1       9.839  -8.201   4.971  1.00  0.00     0.000 C 
BRANCH   2   3
ATOM      3  C   UNL     1       9.056  -9.356   5.618  1.00  0.00     0.000 C 
BRANCH   3   4
ATOM      4  C   UNL     1       8.574  -9.016   7.040  1.00  0.00     0.000 C 
BRANCH   4   5
ATOM      5  C   UNL     1       7.045  -8.883   7.129  1.00  0.00     0.001 C 
BRANCH   5   6
ATOM      6  C   UNL     1       6.355  -9.090   5.767  1.00  0.00     0.009 C 
BRANCH   6   7
ATOM      7  C   UNL     1       5.714  -7.813   5.180  1.00  0.00     0.032 C 
ATOM      8  C   UNL     1       5.956  -6.576   6.056  1.00  0.00     0.014 C 
BRANCH   7   9
ATOM      9  C   UNL     1       4.249  -8.009   4.889  1.00  0.00     0.044 C 
ATOM     10  O   UNL     1       3.595  -7.093   4.323  1.00  0.00    -0.550 OA
ATOM     11  O   UNL     1       3.616  -9.209   5.193  1.00  0.00    -0.550 OA
ENDBRANCH   7   9
ENDBRANCH   6   7
ENDBRANCH   5   6
ENDBRANCH   4   5
ENDBRANCH   3   4
ENDBRANCH   2   3
ENDBRANCH   1   2
BRANCH   1  12
ATOM     12  C   UNL     1      12.325  -7.658   5.282  1.00  0.00     0.000 C 
BRANCH  12  13
ATOM     13  C   UNL     1      13.411  -8.299   6.168  1.00  0.00    -0.000 C 
BRANCH  13  14
ATOM     14  C   UNL     1      14.806  -8.403   5.521  1.00  0.00    -0.000 C 
BRANCH  14  15
ATOM     15  C   UNL     1      15.893  -7.584   6.248  1.00  0.00    -0.000 C 
BRANCH  15  16
ATOM     16  C   UNL     1      16.920  -6.974   5.279  1.00  0.00    -0.000 C 
BRANCH  16  17
ATOM     17  C   UNL     1      18.373  -7.192   5.735  1.00  0.00    -0.000 C 
BRANCH  17  18
ATOM     18  C   UNL     1      18.490  -7.864   7.120  1.00  0.00    -0.003 C 
ATOM     19  C   UNL     1      18.795  -6.860   8.229  1.00  0.00     0.004 C 
ENDBRANCH  17  18
ENDBRANCH  16  17
ENDBRANCH  15  16
ENDBRANCH  14  15
ENDBRANCH  13  14
ENDBRANCH  12  13
ENDBRANCH   1  12
TORSDOF 14
ENDMDL
MODEL 5
REMARK VINA RESULT:    -3.434      1.186      1.860
REMARK INTER + INTRA:          -7.418
REMARK INTER:                  -6.082
REMARK INTRA:                  -1.336
REMARK UNBOUND:                -1.174
REMARK SMILES CCCCCCCCCCCCCC[C@H](C)C(=O)[O-]
REMARK SMILES IDX 9 1 10 2 11 3 12 4 13 5 14 6 15 7 16 8 17 9 18 10 19 11 8 12
REMARK SMILES IDX 7 13 6 14 5 15 4 16 3 17 2 18 1 19
REMARK H PARENT
REMARK Flexibility Score: inf
ROOT
ATOM      1  C   UNL     1      15.856  -8.409   6.119  1.00  0.00     0.000 C 
ENDROOT
BRANCH   1   2
ATOM      2  C   UNL     1      14.526  -9.174   6.228  1.00  0.00     0.000 C 
BRANCH   2   3
ATOM      3  C   UNL     1      13.334  -8.245   6.508  1.00  0.00     0.000 C 
BRANCH   3   4
ATOM      4  C   UNL     1      12.344  -8.185   5.332  1.00  0.00     0.000 C 
BRANCH   4   5
ATOM      5  C   UNL     1      10.993  -7.569   5.727  1.00  0.00     0.001 C 
BRANCH   5   6
ATOM      6  C   UNL     1       9.979  -8.628   6.202  1.00  0.00     0.009 C 
BRANCH   6   7
ATOM      7  C   UNL     1       8.598  -8.537   5.515  1.00  0.00     0.032 C 
ATOM      8  C   UNL     1       8.480  -7.319   4.589  1.00  0.00     0.014 C 
BRANCH   7   9
ATOM      9  C   UNL     1       7.474  -8.584   6.518  1.00  0.00     0.044 C 
ATOM     10  O   UNL     1       6.281  -8.643   6.118  1.00  0.00    -0.550 OA
ATOM     11  O   UNL     1       7.737  -8.612   7.883  1.00  0.00    -0.550 OA
ENDBRANCH   7   9
ENDBRANCH   6   7
ENDBRANCH   5   6
ENDBRANCH   4   5
ENDBRANCH   3   4
ENDBRANCH   2   3
ENDBRANCH   1   2
BRANCH   1  12
ATOM     12  C   UNL     1      15.663  -6.918   5.791  1.00  0.00     0.000 C 
BRANCH  12  13
ATOM     13  C   UNL     1      16.354  -6.444   4.498  1.00  0.00    -0.000 C 
BRANCH  13  14
ATOM     14  C   UNL     1      17.615  -7.238   4.101  1.00  0.00    -0.000 C 
BRANCH  14  15
ATOM     15  C   UNL     1      18.928  -6.443   4.258  1.00  0.00    -0.000 C 
BRANCH  15  16
ATOM     16  C   UNL     1      19.875  -7.065   5.297  1.00  0.00    -0.000 C 
BRANCH  16  17
ATOM     17  C   UNL     1      19.240  -7.173   6.695  1.00  0.00    -0.000 C 
BRANCH  17  18
ATOM     18  C   UNL     1      19.363  -8.579   7.319  1.00  0.00    -0.003 C 
ATOM     19  C   UNL     1      19.501  -9.675   6.263  1.00  0.00     0.004 C 
ENDBRANCH  17  18
ENDBRANCH  16  17
ENDBRANCH  15  16
ENDBRANCH  14  15
ENDBRANCH  13  14
ENDBRANCH  12  13
ENDBRANCH   1  12
TORSDOF 14
ENDMDL
MODEL 6
REMARK VINA RESULT:    -3.433      1.367      2.043
REMARK INTER + INTRA:          -7.416
REMARK INTER:                  -6.325
REMARK INTRA:                  -1.091
REMARK UNBOUND:                -1.174
REMARK SMILES CCCCCCCCCCCCCC[C@H](C)C(=O)[O-]
REMARK SMILES IDX 9 1 10 2 11 3 12 4 13 5 14 6 15 7 16 8 17 9 18 10 19 11 8 12
REMARK SMILES IDX 7 13 6 14 5 15 4 16 3 17 2 18 1 19
REMARK H PARENT
REMARK Flexibility Score: inf
ROOT
ATOM      1  C   UNL     1      13.042  -8.225   6.142  1.00  0.00     0.000 C 
ENDROOT
BRANCH   1   2
ATOM      2  C   UNL     1      11.549  -7.872   6.251  1.00  0.00     0.000 C 
BRANCH   2   3
ATOM      3  C   UNL     1      10.988  -7.280   4.948  1.00  0.00     0.000 C 
BRANCH   3   4
ATOM      4  C   UNL     1      10.173  -8.304   4.138  1.00  0.00     0.000 C 
BRANCH   4   5
ATOM      5  C   UNL     1       9.528  -9.381   5.024  1.00  0.00     0.001 C 
BRANCH   5   6
ATOM      6  C   UNL     1       8.004  -9.198   5.158  1.00  0.00     0.009 C 
BRANCH   6   7
ATOM      7  C   UNL     1       7.576  -8.244   6.295  1.00  0.00     0.032 C 
ATOM      8  C   UNL     1       7.611  -8.918   7.674  1.00  0.00     0.014 C 
BRANCH   7   9
ATOM      9  C   UNL     1       6.236  -7.615   6.018  1.00  0.00     0.044 C 
ATOM     10  O   UNL     1       5.331  -8.290   5.458  1.00  0.00    -0.550 OA
ATOM     11  O   UNL     1       5.964  -6.310   6.416  1.00  0.00    -0.550 OA
ENDBRANCH   7   9
ENDBRANCH   6   7
ENDBRANCH   5   6
ENDBRANCH   4   5
ENDBRANCH   3   4
ENDBRANCH   2   3
ENDBRANCH   1   2
BRANCH   1  12
ATOM     12  C   UNL     1      13.736  -7.528   4.959  1.00  0.00     0.000 C 
BRANCH  12  13
ATOM     13  C   UNL     1      15.275  -7.496   5.039  1.00  0.00    -0.000 C 
BRANCH  13  14
ATOM     14  C   UNL     1      15.850  -6.953   6.362  1.00  0.00    -0.000 C 
BRANCH  14  15
ATOM     15  C   UNL     1      17.320  -7.353   6.614  1.00  0.00    -0.000 C 
BRANCH  15  16
ATOM     16  C   UNL     1      17.893  -8.233   5.492  1.00  0.00    -0.000 C 
BRANCH  16  17
ATOM     17  C   UNL     1      19.097  -7.587   4.784  1.00  0.00    -0.000 C 
BRANCH  17  18
ATOM     18  C   UNL     1      19.791  -6.493   5.623  1.00  0.00    -0.003 C 
ATOM     19  C   UNL     1      20.863  -5.746   4.832  1.00  0.00     0.004 C 
ENDBRANCH  17  18
ENDBRANCH  16  17
ENDBRANCH  15  16
ENDBRANCH  14  15
ENDBRANCH  13  14
ENDBRANCH  12  13
ENDBRANCH   1  12
TORSDOF 14
ENDMDL
MODEL 7
REMARK VINA RESULT:    -3.412      1.710      2.442
REMARK INTER + INTRA:          -7.379
REMARK INTER:                  -6.555
REMARK INTRA:                  -0.824
REMARK UNBOUND:                -1.174
REMARK SMILES CCCCCCCCCCCCCC[C@H](C)C(=O)[O-]
REMARK SMILES IDX 9 1 10 2 11 3 12 4 13 5 14 6 15 7 16 8 17 9 18 10 19 11 8 12
REMARK SMILES IDX 7 13 6 14 5 15 4 16 3 17 2 18 1 19
REMARK H PARENT
REMARK Flexibility Score: inf
ROOT
ATOM      1  C   UNL     1      14.151  -8.261   6.857  1.00  0.00     0.000 C 
ENDROOT
BRANCH   1   2
ATOM      2  C   UNL     1      13.187  -7.925   5.708  1.00  0.00     0.000 C 
BRANCH   2   3
ATOM      3  C   UNL     1      11.716  -7.922   6.156  1.00  0.00     0.000 C 
BRANCH   3   4
ATOM      4  C   UNL     1      10.802  -7.168   5.173  1.00  0.00     0.000 C 
BRANCH   4   5
ATOM      5  C   UNL     1       9.896  -8.112   4.367  1.00  0.00     0.001 C 
BRANCH   5   6
ATOM      6  C   UNL     1       9.421  -9.323   5.194  1.00  0.00     0.009 C 
BRANCH   6   7
ATOM      7  C   UNL     1       8.014  -9.158   5.810  1.00  0.00     0.032 C 
ATOM      8  C   UNL     1       7.302  -7.888   5.323  1.00  0.00     0.014 C 
BRANCH   7   9
ATOM      9  C   UNL     1       8.054  -9.229   7.315  1.00  0.00     0.044 C 
ATOM     10  O   UNL     1       8.737 -10.125   7.881  1.00  0.00    -0.550 OA
ATOM     11  O   UNL     1       7.385  -8.290   8.092  1.00  0.00    -0.550 OA
ENDBRANCH   7   9
ENDBRANCH   6   7
ENDBRANCH   5   6
ENDBRANCH   4   5
ENDBRANCH   3   4
ENDBRANCH   2   3
ENDBRANCH   1   2
BRANCH   1  12
ATOM     12  C   UNL     1      15.411  -7.377   6.858  1.00  0.00     0.000 C 
BRANCH  12  13
ATOM     13  C   UNL     1      15.976  -7.052   5.461  1.00  0.00    -0.000 C 
BRANCH  13  14
ATOM     14  C   UNL     1      17.340  -7.696   5.142  1.00  0.00    -0.000 C 
BRANCH  14  15
ATOM     15  C   UNL     1      18.398  -7.495   6.248  1.00  0.00    -0.000 C 
BRANCH  15  16
ATOM     16  C   UNL     1      19.794  -7.981   5.826  1.00  0.00    -0.000 C 
BRANCH  16  17
ATOM     17  C   UNL     1      20.452  -7.066   4.777  1.00  0.00    -0.000 C 
BRANCH  17  18
ATOM     18  C   UNL     1      20.551  -5.592   5.222  1.00  0.00    -0.003 C 
ATOM     19  C   UNL     1      21.169  -4.701   4.146  1.00  0.00     0.004 C 
ENDBRANCH  17  18
ENDBRANCH  16  17
ENDBRANCH  15  16
ENDBRANCH  14  15
ENDBRANCH  13  14
ENDBRANCH  12  13
ENDBRANCH   1  12
TORSDOF 14
ENDMDL
MODEL 8
REMARK VINA RESULT:    -3.351      4.338      8.819
REMARK INTER + INTRA:          -7.268
REMARK INTER:                  -5.902
REMARK INTRA:                  -1.365
REMARK UNBOUND:                -1.174
REMARK SMILES CCCCCCCCCCCCCC[C@H](C)C(=O)[O-]
REMARK SMILES IDX 9 1 10 2 11 3 12 4 13 5 14 6 15 7 16 8 17 9 18 10 19 11 8 12
REMARK SMILES IDX 7 13 6 14 5 15 4 16 3 17 2 18 1 19
REMARK H PARENT
REMARK Flexibility Score: inf
ROOT
ATOM      1  C   UNL     1      13.299  -8.393   6.075  1.00  0.00     0.000 C 
ENDROOT
BRANCH   1   2
ATOM      2  C   UNL     1      14.252  -9.465   5.522  1.00  0.00     0.000 C 
BRANCH   2   3
ATOM      3  C   UNL     1      15.025  -8.983   4.284  1.00  0.00     0.000 C 
BRANCH   3   4
ATOM      4  C   UNL     1      16.508  -9.395   4.317  1.00  0.00     0.000 C 
BRANCH   4   5
ATOM      5  C   UNL     1      17.453  -8.228   3.989  1.00  0.00     0.001 C 
BRANCH   5   6
ATOM      6  C   UNL     1      17.334  -7.071   5.000  1.00  0.00     0.009 C 
BRANCH   6   7
ATOM      7  C   UNL     1      17.347  -7.518   6.480  1.00  0.00     0.032 C 
ATOM      8  C   UNL     1      16.284  -6.799   7.322  1.00  0.00     0.014 C 
BRANCH   7   9
ATOM      9  C   UNL     1      18.720  -7.389   7.087  1.00  0.00     0.044 C 
ATOM     10  O   UNL     1      18.840  -7.036   8.291  1.00  0.00    -0.550 OA
ATOM     11  O   UNL     1      19.858  -7.699   6.352  1.00  0.00    -0.550 OA
ENDBRANCH   7   9
ENDBRANCH   6   7
ENDBRANCH   5   6
ENDBRANCH   4   5
ENDBRANCH   3   4
ENDBRANCH   2   3
ENDBRANCH   1   2
BRANCH   1  12
ATOM     12  C   UNL     1      12.740  -7.467   4.980  1.00  0.00     0.000 C 
BRANCH  12  13
ATOM     13  C   UNL     1      11.445  -7.966   4.310  1.00  0.00    -0.000 C 
BRANCH  13  14
ATOM     14  C   UNL     1      10.238  -7.013   4.429  1.00  0.00    -0.000 C 
BRANCH  14  15
ATOM     15  C   UNL     1       8.940  -7.707   4.894  1.00  0.00    -0.000 C 
BRANCH  15  16
ATOM     16  C   UNL     1       9.187  -9.128   5.424  1.00  0.00    -0.000 C 
BRANCH  16  17
ATOM     17  C   UNL     1       9.055  -9.225   6.955  1.00  0.00    -0.000 C 
BRANCH  17  18
ATOM     18  C   UNL     1       7.636  -8.905   7.472  1.00  0.00    -0.003 C 
ATOM     19  C   UNL     1       7.180  -9.879   8.557  1.00  0.00     0.004 C 
ENDBRANCH  17  18
ENDBRANCH  16  17
ENDBRANCH  15  16
ENDBRANCH  14  15
ENDBRANCH  13  14
ENDBRANCH  12  13
ENDBRANCH   1  12
TORSDOF 14
ENDMDL
MODEL 9
REMARK VINA RESULT:    -3.258      1.521      3.247
REMARK INTER + INTRA:          -7.098
REMARK INTER:                  -5.673
REMARK INTRA:                  -1.425
REMARK UNBOUND:                -1.174
REMARK SMILES CCCCCCCCCCCCCC[C@H](C)C(=O)[O-]
REMARK SMILES IDX 9 1 10 2 11 3 12 4 13 5 14 6 15 7 16 8 17 9 18 10 19 11 8 12
REMARK SMILES IDX 7 13 6 14 5 15 4 16 3 17 2 18 1 19
REMARK H PARENT
REMARK Flexibility Score: inf
ROOT
ATOM      1  C   UNL     1      16.630  -7.122   7.237  1.00  0.00     0.000 C 
ENDROOT
BRANCH   1   2
ATOM      2  C   UNL     1      16.129  -6.726   5.838  1.00  0.00     0.000 C 
BRANCH   2   3
ATOM      3  C   UNL     1      15.164  -7.764   5.243  1.00  0.00     0.000 C 
BRANCH   3   4
ATOM      4  C   UNL     1      13.832  -7.839   6.011  1.00  0.00     0.000 C 
BRANCH   4   5
ATOM      5  C   UNL     1      12.611  -7.849   5.078  1.00  0.00     0.001 C 
BRANCH   5   6
ATOM      6  C   UNL     1      11.278  -7.830   5.851  1.00  0.00     0.009 C 
BRANCH   6   7
ATOM      7  C   UNL     1      10.023  -7.815   4.950  1.00  0.00     0.032 C 
ATOM      8  C   UNL     1       9.825  -6.470   4.237  1.00  0.00     0.014 C 
BRANCH   7   9
ATOM      9  C   UNL     1       8.789  -8.228   5.710  1.00  0.00     0.044 C 
ATOM     10  O   UNL     1       8.899  -8.948   6.738  1.00  0.00    -0.550 OA
ATOM     11  O   UNL     1       7.529  -7.787   5.319  1.00  0.00    -0.550 OA
ENDBRANCH   7   9
ENDBRANCH   6   7
ENDBRANCH   5   6
ENDBRANCH   4   5
ENDBRANCH   3   4
ENDBRANCH   2   3
ENDBRANCH   1   2
BRANCH   1  12
ATOM     12  C   UNL     1      18.134  -6.861   7.429  1.00  0.00     0.000 C 
BRANCH  12  13
ATOM     13  C   UNL     1      19.007  -8.129   7.512  1.00  0.00    -0.000 C 
BRANCH  13  14
ATOM     14  C   UNL     1      18.644  -9.239   6.505  1.00  0.00    -0.000 C 
BRANCH  14  15
ATOM     15  C   UNL     1      19.761  -9.543   5.484  1.00  0.00    -0.000 C 
BRANCH  15  16
ATOM     16  C   UNL     1      20.452  -8.271   4.966  1.00  0.00    -0.000 C 
BRANCH  16  17
ATOM     17  C   UNL     1      19.586  -7.489   3.962  1.00  0.00    -0.000 C 
BRANCH  17  18
ATOM     18  C   UNL     1      19.699  -5.958   4.113  1.00  0.00    -0.003 C 
ATOM     19  C   UNL     1      20.812  -5.550   5.078  1.00  0.00     0.004 C 
ENDBRANCH  17  18
ENDBRANCH  16  17
ENDBRANCH  15  16
ENDBRANCH  14  15
ENDBRANCH  13  14
ENDBRANCH  12  13
ENDBRANCH   1  12
TORSDOF 14
ENDMDL
