MODEL 1
REMARK VINA RESULT:    -4.932      0.000      0.000
REMARK INTER + INTRA:          -6.700
REMARK INTER:                  -6.951
REMARK INTRA:                   0.251
REMARK UNBOUND:                 0.251
REMARK SMILES CC1=CCC(=C(C)C)C(=O)CC(C)=CCC1
REMARK SMILES IDX 12 1 14 2 13 3 15 4 16 5 2 6 1 7 3 8 11 10 9 11 10 12 5 13
REMARK SMILES IDX 6 14 7 15 8 16 4 17
REMARK H PARENT
REMARK Flexibility Score: 60.00
ROOT
ATOM      1  C   UNL     1     134.556 134.514 112.685  1.00  0.00    -0.070 C 
ATOM      2  C   UNL     1     134.632 133.534 113.611  1.00  0.00    -0.027 C 
ATOM      3  C   UNL     1     135.348 134.347 111.413  1.00  0.00     0.039 C 
ENDROOT
BRANCH   2   4
ATOM      4  C   UNL     1     133.842 133.472 114.900  1.00  0.00     0.032 C 
BRANCH   4   5
ATOM      5  C   UNL     1     134.339 134.422 116.010  1.00  0.00     0.034 C 
BRANCH   5   6
ATOM      6  C   UNL     1     135.839 134.650 115.974  1.00  0.00    -0.077 C 
ATOM      7  C   UNL     1     136.731 133.525 116.436  1.00  0.00     0.039 C 
ATOM      8  C   UNL     1     136.430 135.770 115.490  1.00  0.00    -0.023 CG0
ATOM      9  G   UNL     1     135.741 137.026 114.995  1.00  0.00     0.000 G0
ENDBRANCH   5   6
ENDBRANCH   4   5
ENDBRANCH   2   4
BRANCH   1  10
ATOM     10  C   UNL     1     133.647 135.718 112.822  1.00  0.00     0.111 C 
BRANCH  10  11
ATOM     11  C   UNL     1     134.425 137.007 112.801  1.00  0.00     0.163 C 
ATOM     12  O   UNL     1     133.908 138.005 112.228  1.00  0.00    -0.294 OA
BRANCH  11  13
ATOM     13  C   UNL     1     135.744 137.158 113.484  1.00  0.00    -0.002 C 
ATOM     14  C   UNL     1     136.868 137.474 112.772  1.00  0.00    -0.069 C 
ATOM     15  C   UNL     1     138.184 137.788 113.449  1.00  0.00     0.039 C 
ATOM     16  C   UNL     1     136.849 137.527 111.259  1.00  0.00     0.039 C 
BRANCH  13  17
ATOM     17  C   UNL     1     135.761 137.040 115.000  1.00  0.00     0.066 CG0
ATOM     18  G   UNL     1     136.438 135.769 115.470  1.00  0.00     0.000 G0
ENDBRANCH  13  17
ENDBRANCH  11  13
ENDBRANCH  10  11
ENDBRANCH   1  10
TORSDOF 0
ENDMDL
MODEL 2
REMARK VINA RESULT:    -4.578      2.078      3.960
REMARK INTER + INTRA:          -6.200
REMARK INTER:                  -6.716
REMARK INTRA:                   0.517
REMARK UNBOUND:                 0.251
REMARK SMILES CC1=CCC(=C(C)C)C(=O)CC(C)=CCC1
REMARK SMILES IDX 12 1 14 2 13 3 15 4 16 5 2 6 1 7 3 8 11 10 9 11 10 12 5 13
REMARK SMILES IDX 6 14 7 15 8 16 4 17
REMARK H PARENT
REMARK Flexibility Score: 60.00
ROOT
ATOM      1  C   UNL     1     133.776 135.570 115.349  1.00  0.00    -0.070 C 
ATOM      2  C   UNL     1     132.929 135.706 114.306  1.00  0.00    -0.027 C 
ATOM      3  C   UNL     1     133.691 136.581 116.464  1.00  0.00     0.039 C 
ENDROOT
BRANCH   2   4
ATOM      4  C   UNL     1     132.795 134.745 113.144  1.00  0.00     0.032 C 
BRANCH   4   5
ATOM      5  C   UNL     1     133.606 135.128 111.889  1.00  0.00     0.034 C 
BRANCH   5   6
ATOM      6  C   UNL     1     134.072 136.573 111.898  1.00  0.00    -0.077 C 
ATOM      7  C   UNL     1     133.056 137.640 111.573  1.00  0.00     0.039 C 
ATOM      8  C   UNL     1     135.321 136.971 112.244  1.00  0.00    -0.023 CG0
ATOM      9  G   UNL     1     136.501 136.084 112.586  1.00  0.00     0.000 G0
ENDBRANCH   5   6
ENDBRANCH   4   5
ENDBRANCH   2   4
BRANCH   1  10
ATOM     10  C   UNL     1     134.735 134.406 115.495  1.00  0.00     0.111 C 
BRANCH  10  11
ATOM     11  C   UNL     1     135.803 134.430 114.434  1.00  0.00     0.163 C 
ATOM     12  O   UNL     1     136.054 133.358 113.817  1.00  0.00    -0.294 OA
BRANCH  11  13
ATOM     13  C   UNL     1     136.523 135.680 114.048  1.00  0.00    -0.002 C 
ATOM     14  C   UNL     1     137.243 136.386 114.971  1.00  0.00    -0.069 C 
ATOM     15  C   UNL     1     138.108 137.565 114.582  1.00  0.00     0.039 C 
ATOM     16  C   UNL     1     137.210 136.018 116.439  1.00  0.00     0.039 C 
BRANCH  13  17
ATOM     17  C   UNL     1     136.495 136.075 112.580  1.00  0.00     0.066 CG0
ATOM     18  G   UNL     1     135.332 136.989 112.251  1.00  0.00     0.000 G0
ENDBRANCH  13  17
ENDBRANCH  11  13
ENDBRANCH  10  11
ENDBRANCH   1  10
TORSDOF 0
ENDMDL
MODEL 3
REMARK VINA RESULT:    -4.494      5.157      8.251
REMARK INTER + INTRA:          -6.082
REMARK INTER:                  -6.675
REMARK INTRA:                   0.592
REMARK UNBOUND:                 0.251
REMARK SMILES CC1=CCC(=C(C)C)C(=O)CC(C)=CCC1
REMARK SMILES IDX 12 1 14 2 13 3 15 4 16 5 2 6 1 7 3 8 11 10 9 11 10 12 5 13
REMARK SMILES IDX 6 14 7 15 8 16 4 17
REMARK H PARENT
REMARK Flexibility Score: 60.00
ROOT
ATOM      1  C   UNL     1     143.337 140.917 113.121  1.00  0.00    -0.070 C 
ATOM      2  C   UNL     1     143.612 141.675 114.204  1.00  0.00    -0.027 C 
ATOM      3  C   UNL     1     144.351 139.879 112.710  1.00  0.00     0.039 C 
ENDROOT
BRANCH   2   4
ATOM      4  C   UNL     1     142.685 142.697 114.826  1.00  0.00     0.032 C 
BRANCH   4   5
ATOM      5  C   UNL     1     141.773 142.149 115.944  1.00  0.00     0.034 C 
BRANCH   5   6
ATOM      6  C   UNL     1     140.301 142.166 115.574  1.00  0.00    -0.077 C 
ATOM      7  C   UNL     1     139.536 143.447 115.797  1.00  0.00     0.039 C 
ATOM      8  C   UNL     1     139.647 141.129 114.995  1.00  0.00    -0.023 CG0
ATOM      9  G   UNL     1     140.200 139.751 114.697  1.00  0.00     0.000 G0
ENDBRANCH   5   6
ENDBRANCH   4   5
ENDBRANCH   2   4
BRANCH   1  10
ATOM     10  C   UNL     1     142.028 140.994 112.363  1.00  0.00     0.111 C 
BRANCH  10  11
ATOM     11  C   UNL     1     141.310 139.670 112.356  1.00  0.00     0.163 C 
ATOM     12  O   UNL     1     141.781 138.743 111.643  1.00  0.00    -0.294 OA
BRANCH  11  13
ATOM     13  C   UNL     1     140.111 139.404 113.205  1.00  0.00    -0.002 C 
ATOM     14  C   UNL     1     139.006 138.792 112.682  1.00  0.00    -0.069 C 
ATOM     15  C   UNL     1     137.840 138.366 113.549  1.00  0.00     0.039 C 
ATOM     16  C   UNL     1     138.895 138.506 111.200  1.00  0.00     0.039 C 
BRANCH  13  17
ATOM     17  C   UNL     1     140.211 139.755 114.681  1.00  0.00     0.066 CG0
ATOM     18  G   UNL     1     139.627 141.118 114.990  1.00  0.00     0.000 G0
ENDBRANCH  13  17
ENDBRANCH  11  13
ENDBRANCH  10  11
ENDBRANCH   1  10
TORSDOF 0
ENDMDL
MODEL 4
REMARK VINA RESULT:    -4.394      1.366      1.931
REMARK INTER + INTRA:          -5.942
REMARK INTER:                  -6.980
REMARK INTRA:                   1.039
REMARK UNBOUND:                 0.251
REMARK SMILES CC1=CCC(=C(C)C)C(=O)CC(C)=CCC1
REMARK SMILES IDX 12 1 14 2 13 3 15 4 16 5 2 6 1 7 3 8 11 10 9 11 10 12 5 13
REMARK SMILES IDX 6 14 7 15 8 16 4 17
REMARK H PARENT
REMARK Flexibility Score: 60.00
ROOT
ATOM      1  C   UNL     1     133.667 135.211 113.273  1.00  0.00    -0.070 C 
ATOM      2  C   UNL     1     133.085 134.964 114.467  1.00  0.00    -0.027 C 
ATOM      3  C   UNL     1     133.172 136.393 112.478  1.00  0.00     0.039 C 
ENDROOT
BRANCH   2   4
ATOM      4  C   UNL     1     133.504 133.890 115.448  1.00  0.00     0.032 C 
BRANCH   4   5
ATOM      5  C   UNL     1     134.839 134.158 116.172  1.00  0.00     0.034 C 
BRANCH   5   6
ATOM      6  C   UNL     1     135.168 135.635 116.289  1.00  0.00    -0.077 C 
ATOM      7  C   UNL     1     134.389 136.450 117.291  1.00  0.00     0.039 C 
ATOM      8  C   UNL     1     136.161 136.254 115.603  1.00  0.00    -0.023 CG0
ATOM      9  G   UNL     1     137.053 135.646 114.539  1.00  0.00     0.000 G0
ENDBRANCH   5   6
ENDBRANCH   4   5
ENDBRANCH   2   4
BRANCH   1  10
ATOM     10  C   UNL     1     134.844 134.420 112.742  1.00  0.00     0.111 C 
BRANCH  10  11
ATOM     11  C   UNL     1     135.936 135.323 112.231  1.00  0.00     0.163 C 
ATOM     12  O   UNL     1     136.115 135.393 110.985  1.00  0.00    -0.294 OA
BRANCH  11  13
ATOM     13  C   UNL     1     136.760 136.177 113.138  1.00  0.00    -0.002 C 
ATOM     14  C   UNL     1     137.161 137.425 112.750  1.00  0.00    -0.069 C 
ATOM     15  C   UNL     1     137.860 138.373 113.700  1.00  0.00     0.039 C 
ATOM     16  C   UNL     1     136.923 137.922 111.340  1.00  0.00     0.039 C 
BRANCH  13  17
ATOM     17  C   UNL     1     137.047 135.638 114.531  1.00  0.00     0.066 CG0
ATOM     18  G   UNL     1     136.149 136.256 115.583  1.00  0.00     0.000 G0
ENDBRANCH  13  17
ENDBRANCH  11  13
ENDBRANCH  10  11
ENDBRANCH   1  10
TORSDOF 0
ENDMDL
MODEL 5
REMARK VINA RESULT:    -4.391      6.403      8.798
REMARK INTER + INTRA:          -5.936
REMARK INTER:                  -6.542
REMARK INTRA:                   0.606
REMARK UNBOUND:                 0.251
REMARK SMILES CC1=CCC(=C(C)C)C(=O)CC(C)=CCC1
REMARK SMILES IDX 12 1 14 2 13 3 15 4 16 5 2 6 1 7 3 8 11 10 9 11 10 12 5 13
REMARK SMILES IDX 6 14 7 15 8 16 4 17
REMARK H PARENT
REMARK Flexibility Score: 60.00
ROOT
ATOM      1  C   UNL     1     139.680 140.622 113.712  1.00  0.00    -0.070 C 
ATOM      2  C   UNL     1     140.212 140.505 112.476  1.00  0.00    -0.027 C 
ATOM      3  C   UNL     1     139.059 139.396 114.332  1.00  0.00     0.039 C 
ENDROOT
BRANCH   2   4
ATOM      4  C   UNL     1     140.960 141.589 111.730  1.00  0.00     0.032 C 
BRANCH   4   5
ATOM      5  C   UNL     1     142.491 141.408 111.688  1.00  0.00     0.034 C 
BRANCH   5   6
ATOM      6  C   UNL     1     142.958 140.120 112.342  1.00  0.00    -0.077 C 
ATOM      7  C   UNL     1     142.975 138.870 111.499  1.00  0.00     0.039 C 
ATOM      8  C   UNL     1     143.425 140.034 113.612  1.00  0.00    -0.023 CG0
ATOM      9  G   UNL     1     143.483 141.144 114.642  1.00  0.00     0.000 G0
ENDBRANCH   5   6
ENDBRANCH   4   5
ENDBRANCH   2   4
BRANCH   1  10
ATOM     10  C   UNL     1     139.761 141.891 114.536  1.00  0.00     0.111 C 
BRANCH  10  11
ATOM     11  C   UNL     1     141.187 142.279 114.821  1.00  0.00     0.163 C 
ATOM     12  O   UNL     1     141.534 143.472 114.605  1.00  0.00    -0.294 OA
BRANCH  11  13
ATOM     13  C   UNL     1     142.176 141.324 115.405  1.00  0.00    -0.002 C 
ATOM     14  C   UNL     1     141.866 140.587 116.513  1.00  0.00    -0.069 C 
ATOM     15  C   UNL     1     142.781 139.500 117.035  1.00  0.00     0.039 C 
ATOM     16  C   UNL     1     140.581 140.823 117.278  1.00  0.00     0.039 C 
BRANCH  13  17
ATOM     17  C   UNL     1     143.491 141.143 114.662  1.00  0.00     0.066 CG0
ATOM     18  G   UNL     1     143.412 140.057 113.609  1.00  0.00     0.000 G0
ENDBRANCH  13  17
ENDBRANCH  11  13
ENDBRANCH  10  11
ENDBRANCH   1  10
TORSDOF 0
ENDMDL
MODEL 6
REMARK VINA RESULT:    -4.321      2.162      4.494
REMARK INTER + INTRA:          -5.838
REMARK INTER:                  -6.529
REMARK INTRA:                   0.691
REMARK UNBOUND:                 0.251
REMARK SMILES CC1=CCC(=C(C)C)C(=O)CC(C)=CCC1
REMARK SMILES IDX 12 1 14 2 13 3 15 4 16 5 2 6 1 7 3 8 11 10 9 11 10 12 5 13
REMARK SMILES IDX 6 14 7 15 8 16 4 17
REMARK H PARENT
REMARK Flexibility Score: 60.00
ROOT
ATOM      1  C   UNL     1     136.802 136.283 113.585  1.00  0.00    -0.070 C 
ATOM      2  C   UNL     1     136.239 136.279 112.357  1.00  0.00    -0.027 C 
ATOM      3  C   UNL     1     137.287 137.601 114.134  1.00  0.00     0.039 C 
ENDROOT
BRANCH   2   4
ATOM      4  C   UNL     1     135.609 135.083 111.677  1.00  0.00     0.032 C 
BRANCH   4   5
ATOM      5  C   UNL     1     134.067 135.072 111.683  1.00  0.00     0.034 C 
BRANCH   5   6
ATOM      6  C   UNL     1     133.464 136.312 112.319  1.00  0.00    -0.077 C 
ATOM      7  C   UNL     1     133.291 137.532 111.450  1.00  0.00     0.039 C 
ATOM      8  C   UNL     1     133.008 136.371 113.595  1.00  0.00    -0.023 CG0
ATOM      9  G   UNL     1     133.094 135.285 114.647  1.00  0.00     0.000 G0
ENDBRANCH   5   6
ENDBRANCH   4   5
ENDBRANCH   2   4
BRANCH   1  10
ATOM     10  C   UNL     1     136.882 135.054 114.466  1.00  0.00     0.111 C 
BRANCH  10  11
ATOM     11  C   UNL     1     135.520 134.468 114.728  1.00  0.00     0.163 C 
ATOM     12  O   UNL     1     135.327 133.257 114.432  1.00  0.00    -0.294 OA
BRANCH  11  13
ATOM     13  C   UNL     1     134.424 135.246 115.378  1.00  0.00    -0.002 C 
ATOM     14  C   UNL     1     134.653 135.949 116.528  1.00  0.00    -0.069 C 
ATOM     15  C   UNL     1     133.611 136.872 117.124  1.00  0.00     0.039 C 
ATOM     16  C   UNL     1     135.970 135.840 117.265  1.00  0.00     0.039 C 
BRANCH  13  17
ATOM     17  C   UNL     1     133.085 135.296 114.660  1.00  0.00     0.066 CG0
ATOM     18  G   UNL     1     133.038 136.380 113.602  1.00  0.00     0.000 G0
ENDBRANCH  13  17
ENDBRANCH  11  13
ENDBRANCH  10  11
ENDBRANCH   1  10
TORSDOF 0
ENDMDL
MODEL 7
REMARK VINA RESULT:    -4.295      1.936      4.313
REMARK INTER + INTRA:          -5.802
REMARK INTER:                  -6.175
REMARK INTRA:                   0.373
REMARK UNBOUND:                 0.251
REMARK SMILES CC1=CCC(=C(C)C)C(=O)CC(C)=CCC1
REMARK SMILES IDX 12 1 14 2 13 3 15 4 16 5 2 6 1 7 3 8 11 10 9 11 10 12 5 13
REMARK SMILES IDX 6 14 7 15 8 16 4 17
REMARK H PARENT
REMARK Flexibility Score: 60.00
ROOT
ATOM      1  C   UNL     1     136.101 137.395 112.479  1.00  0.00    -0.070 C 
ATOM      2  C   UNL     1     135.157 137.213 111.531  1.00  0.00    -0.027 C 
ATOM      3  C   UNL     1     137.474 137.829 112.033  1.00  0.00     0.039 C 
ENDROOT
BRANCH   2   4
ATOM      4  C   UNL     1     133.703 136.874 111.784  1.00  0.00     0.032 C 
BRANCH   4   5
ATOM      5  C   UNL     1     133.441 135.411 112.194  1.00  0.00     0.034 C 
BRANCH   5   6
ATOM      6  C   UNL     1     132.758 135.283 113.544  1.00  0.00    -0.077 C 
ATOM      7  C   UNL     1     131.341 135.784 113.664  1.00  0.00     0.039 C 
ATOM      8  C   UNL     1     133.314 134.688 114.628  1.00  0.00    -0.023 CG0
ATOM      9  G   UNL     1     134.719 134.134 114.747  1.00  0.00     0.000 G0
ENDBRANCH   5   6
ENDBRANCH   4   5
ENDBRANCH   2   4
BRANCH   1  10
ATOM     10  C   UNL     1     135.822 137.278 113.964  1.00  0.00     0.111 C 
BRANCH  10  11
ATOM     11  C   UNL     1     136.440 136.036 114.548  1.00  0.00     0.163 C 
ATOM     12  O   UNL     1     137.662 135.816 114.322  1.00  0.00    -0.294 OA
BRANCH  11  13
ATOM     13  C   UNL     1     135.680 135.100 115.429  1.00  0.00    -0.002 C 
ATOM     14  C   UNL     1     135.787 135.177 116.790  1.00  0.00    -0.069 C 
ATOM     15  C   UNL     1     134.914 134.353 117.711  1.00  0.00     0.039 C 
ATOM     16  C   UNL     1     136.791 136.101 117.446  1.00  0.00     0.039 C 
BRANCH  13  17
ATOM     17  C   UNL     1     134.721 134.132 114.753  1.00  0.00     0.066 CG0
ATOM     18  G   UNL     1     133.317 134.691 114.648  1.00  0.00     0.000 G0
ENDBRANCH  13  17
ENDBRANCH  11  13
ENDBRANCH  10  11
ENDBRANCH   1  10
TORSDOF 0
ENDMDL
MODEL 8
REMARK VINA RESULT:    -4.286      2.069      4.435
REMARK INTER + INTRA:          -5.789
REMARK INTER:                  -6.319
REMARK INTRA:                   0.531
REMARK UNBOUND:                 0.251
REMARK SMILES CC1=CCC(=C(C)C)C(=O)CC(C)=CCC1
REMARK SMILES IDX 12 1 14 2 13 3 15 4 16 5 2 6 1 7 3 8 11 10 9 11 10 12 5 13
REMARK SMILES IDX 6 14 7 15 8 16 4 17
REMARK H PARENT
REMARK Flexibility Score: 60.00
ROOT
ATOM      1  C   UNL     1     135.255 135.505 116.748  1.00  0.00    -0.070 C 
ATOM      2  C   UNL     1     136.443 136.100 116.508  1.00  0.00    -0.027 C 
ATOM      3  C   UNL     1     135.109 134.706 118.019  1.00  0.00     0.039 C 
ENDROOT
BRANCH   2   4
ATOM      4  C   UNL     1     136.754 137.016 115.344  1.00  0.00     0.032 C 
BRANCH   4   5
ATOM      5  C   UNL     1     137.531 136.355 114.187  1.00  0.00     0.034 C 
BRANCH   5   6
ATOM      6  C   UNL     1     137.030 136.771 112.816  1.00  0.00    -0.077 C 
ATOM      7  C   UNL     1     137.628 138.009 112.197  1.00  0.00     0.039 C 
ATOM      8  C   UNL     1     136.132 136.067 112.084  1.00  0.00    -0.023 CG0
ATOM      9  G   UNL     1     135.390 134.815 112.507  1.00  0.00     0.000 G0
ENDBRANCH   5   6
ENDBRANCH   4   5
ENDBRANCH   2   4
BRANCH   1  10
ATOM     10  C   UNL     1     134.043 135.679 115.856  1.00  0.00     0.111 C 
BRANCH  10  11
ATOM     11  C   UNL     1     134.045 134.694 114.717  1.00  0.00     0.163 C 
ATOM     12  O   UNL     1     133.943 133.467 114.991  1.00  0.00    -0.294 OA
BRANCH  11  13
ATOM     13  C   UNL     1     134.101 135.121 113.288  1.00  0.00    -0.002 C 
ATOM     14  C   UNL     1     133.077 135.836 112.731  1.00  0.00    -0.069 C 
ATOM     15  C   UNL     1     133.171 136.418 111.337  1.00  0.00     0.039 C 
ATOM     16  C   UNL     1     131.791 136.084 113.489  1.00  0.00     0.039 C 
BRANCH  13  17
ATOM     17  C   UNL     1     135.374 134.810 112.516  1.00  0.00     0.066 CG0
ATOM     18  G   UNL     1     136.105 136.064 112.082  1.00  0.00     0.000 G0
ENDBRANCH  13  17
ENDBRANCH  11  13
ENDBRANCH  10  11
ENDBRANCH   1  10
TORSDOF 0
ENDMDL
MODEL 9
REMARK VINA RESULT:    -4.116      6.008      9.065
REMARK INTER + INTRA:          -5.549
REMARK INTER:                  -6.328
REMARK INTRA:                   0.778
REMARK UNBOUND:                 0.251
REMARK SMILES CC1=CCC(=C(C)C)C(=O)CC(C)=CCC1
REMARK SMILES IDX 12 1 14 2 13 3 15 4 16 5 2 6 1 7 3 8 11 10 9 11 10 12 5 13
REMARK SMILES IDX 6 14 7 15 8 16 4 17
REMARK H PARENT
REMARK Flexibility Score: 60.00
ROOT
ATOM      1  C   UNL     1     142.057 142.688 114.776  1.00  0.00    -0.070 C 
ATOM      2  C   UNL     1     142.855 142.493 113.704  1.00  0.00    -0.027 C 
ATOM      3  C   UNL     1     140.914 143.662 114.637  1.00  0.00     0.039 C 
ENDROOT
BRANCH   2   4
ATOM      4  C   UNL     1     143.988 141.493 113.615  1.00  0.00     0.032 C 
BRANCH   4   5
ATOM      5  C   UNL     1     143.655 140.204 112.836  1.00  0.00     0.034 C 
BRANCH   5   6
ATOM      6  C   UNL     1     142.273 140.227 112.207  1.00  0.00    -0.077 C 
ATOM      7  C   UNL     1     142.120 140.919 110.876  1.00  0.00     0.039 C 
ATOM      8  C   UNL     1     141.186 139.609 112.729  1.00  0.00    -0.023 CG0
ATOM      9  G   UNL     1     141.098 138.877 114.053  1.00  0.00     0.000 G0
ENDBRANCH   5   6
ENDBRANCH   4   5
ENDBRANCH   2   4
BRANCH   1  10
ATOM     10  C   UNL     1     142.198 141.913 116.070  1.00  0.00     0.111 C 
BRANCH  10  11
ATOM     11  C   UNL     1     142.085 140.429 115.843  1.00  0.00     0.163 C 
ATOM     12  O   UNL     1     143.033 139.694 116.234  1.00  0.00    -0.294 OA
BRANCH  11  13
ATOM     13  C   UNL     1     140.874 139.801 115.236  1.00  0.00    -0.002 C 
ATOM     14  C   UNL     1     139.622 140.124 115.680  1.00  0.00    -0.069 C 
ATOM     15  C   UNL     1     138.372 139.628 114.985  1.00  0.00     0.039 C 
ATOM     16  C   UNL     1     139.423 141.003 116.896  1.00  0.00     0.039 C 
BRANCH  13  17
ATOM     17  C   UNL     1     141.091 138.869 114.054  1.00  0.00     0.066 CG0
ATOM     18  G   UNL     1     141.184 139.617 112.740  1.00  0.00     0.000 G0
ENDBRANCH  13  17
ENDBRANCH  11  13
ENDBRANCH  10  11
ENDBRANCH   1  10
TORSDOF 0
ENDMDL
