MODEL 1
REMARK VINA RESULT:    -3.363      0.000      0.000
REMARK INTER + INTRA:         -10.447
REMARK INTER:                  -7.296
REMARK INTRA:                  -3.151
REMARK UNBOUND:                -3.151
REMARK SMILES CCCCCCCCCCCCCCCCCCCCCC(=O)[O-]
REMARK SMILES IDX 12 1 11 2 10 3 9 4 8 5 7 6 6 7 5 8 4 9 3 10 2 11 1 12 13 13
REMARK SMILES IDX 14 14 15 15 16 16 17 17 18 18 19 19 20 20 21 21 22 22 23 23
REMARK SMILES IDX 24 24
REMARK H PARENT
REMARK Flexibility Score: inf
ROOT
ATOM      1  C   UNL     1      58.879  27.055  53.186  1.00  0.00     0.000 C 
ENDROOT
BRANCH   1   2
ATOM      2  C   UNL     1      58.369  28.445  53.610  1.00  0.00     0.000 C 
BRANCH   2   3
ATOM      3  C   UNL     1      57.836  29.324  52.463  1.00  0.00     0.000 C 
BRANCH   3   4
ATOM      4  C   UNL     1      58.903  29.690  51.409  1.00  0.00    -0.000 C 
BRANCH   4   5
ATOM      5  C   UNL     1      58.420  29.449  49.968  1.00  0.00    -0.000 C 
BRANCH   5   6
ATOM      6  C   UNL     1      59.582  29.134  49.003  1.00  0.00    -0.000 C 
BRANCH   6   7
ATOM      7  C   UNL     1      60.826  28.558  49.702  1.00  0.00    -0.000 C 
BRANCH   7   8
ATOM      8  C   UNL     1      61.111  27.101  49.312  1.00  0.00    -0.000 C 
BRANCH   8   9
ATOM      9  C   UNL     1      62.336  26.516  50.034  1.00  0.00    -0.000 C 
BRANCH   9  10
ATOM     10  C   UNL     1      62.020  25.259  50.872  1.00  0.00    -0.000 C 
BRANCH  10  11
ATOM     11  C   UNL     1      61.551  24.080  50.005  1.00  0.00    -0.003 C 
ATOM     12  C   UNL     1      62.503  22.891  50.131  1.00  0.00     0.004 C 
ENDBRANCH  10  11
ENDBRANCH   9  10
ENDBRANCH   8   9
ENDBRANCH   7   8
ENDBRANCH   6   7
ENDBRANCH   5   6
ENDBRANCH   4   5
ENDBRANCH   3   4
ENDBRANCH   2   3
ENDBRANCH   1   2
BRANCH   1  13
ATOM     13  C   UNL     1      57.846  26.175  52.453  1.00  0.00     0.000 C 
BRANCH  13  14
ATOM     14  C   UNL     1      58.350  25.512  51.157  1.00  0.00     0.000 C 
BRANCH  14  15
ATOM     15  C   UNL     1      57.636  25.964  49.871  1.00  0.00     0.000 C 
BRANCH  15  16
ATOM     16  C   UNL     1      56.201  26.453  50.129  1.00  0.00     0.000 C 
BRANCH  16  17
ATOM     17  C   UNL     1      55.194  25.937  49.085  1.00  0.00     0.000 C 
BRANCH  17  18
ATOM     18  C   UNL     1      53.815  26.627  49.097  1.00  0.00     0.000 C 
BRANCH  18  19
ATOM     19  C   UNL     1      53.567  27.580  50.279  1.00  0.00     0.000 C 
BRANCH  19  20
ATOM     20  C   UNL     1      53.566  29.060  49.865  1.00  0.00     0.006 C 
BRANCH  20  21
ATOM     21  C   UNL     1      54.686  29.854  50.552  1.00  0.00     0.053 C 
BRANCH  21  22
ATOM     22  C   UNL     1      54.181  30.624  51.733  1.00  0.00     0.041 C 
ATOM     23  O   UNL     1      53.273  30.142  52.460  1.00  0.00    -0.550 OA
ATOM     24  O   UNL     1      54.691  31.886  52.015  1.00  0.00    -0.550 OA
ENDBRANCH  21  22
ENDBRANCH  20  21
ENDBRANCH  19  20
ENDBRANCH  18  19
ENDBRANCH  17  18
ENDBRANCH  16  17
ENDBRANCH  15  16
ENDBRANCH  14  15
ENDBRANCH  13  14
ENDBRANCH   1  13
TORSDOF 20
ENDMDL
MODEL 2
REMARK VINA RESULT:    -3.329     11.141     13.677
REMARK INTER + INTRA:         -10.372
REMARK INTER:                  -6.842
REMARK INTRA:                  -3.530
REMARK UNBOUND:                -3.151
REMARK SMILES CCCCCCCCCCCCCCCCCCCCCC(=O)[O-]
REMARK SMILES IDX 12 1 11 2 10 3 9 4 8 5 7 6 6 7 5 8 4 9 3 10 2 11 1 12 13 13
REMARK SMILES IDX 14 14 15 15 16 16 17 17 18 18 19 19 20 20 21 21 22 22 23 23
REMARK SMILES IDX 24 24
REMARK H PARENT
REMARK Flexibility Score: inf
ROOT
ATOM      1  C   UNL     1      62.366  32.596  58.249  1.00  0.00     0.000 C 
ENDROOT
BRANCH   1   2
ATOM      2  C   UNL     1      63.782  32.019  58.062  1.00  0.00     0.000 C 
BRANCH   2   3
ATOM      3  C   UNL     1      64.902  32.788  58.787  1.00  0.00     0.000 C 
BRANCH   3   4
ATOM      4  C   UNL     1      64.478  33.367  60.154  1.00  0.00    -0.000 C 
BRANCH   4   5
ATOM      5  C   UNL     1      64.908  34.833  60.335  1.00  0.00    -0.000 C 
BRANCH   5   6
ATOM      6  C   UNL     1      63.825  35.682  61.033  1.00  0.00    -0.000 C 
BRANCH   6   7
ATOM      7  C   UNL     1      62.402  35.420  60.508  1.00  0.00    -0.000 C 
BRANCH   7   8
ATOM      8  C   UNL     1      61.846  36.587  59.680  1.00  0.00    -0.000 C 
BRANCH   8   9
ATOM      9  C   UNL     1      61.879  36.317  58.167  1.00  0.00    -0.000 C 
BRANCH   9  10
ATOM     10  C   UNL     1      63.191  36.760  57.486  1.00  0.00    -0.000 C 
BRANCH  10  11
ATOM     11  C   UNL     1      63.894  35.602  56.761  1.00  0.00    -0.003 C 
ATOM     12  C   UNL     1      65.395  35.858  56.640  1.00  0.00     0.004 C 
ENDBRANCH  10  11
ENDBRANCH   9  10
ENDBRANCH   8   9
ENDBRANCH   7   8
ENDBRANCH   6   7
ENDBRANCH   5   6
ENDBRANCH   4   5
ENDBRANCH   3   4
ENDBRANCH   2   3
ENDBRANCH   1   2
BRANCH   1  13
ATOM     13  C   UNL     1      61.360  31.651  58.938  1.00  0.00     0.000 C 
BRANCH  13  14
ATOM     14  C   UNL     1      61.084  31.954  60.423  1.00  0.00     0.000 C 
BRANCH  14  15
ATOM     15  C   UNL     1      61.180  30.742  61.366  1.00  0.00     0.000 C 
BRANCH  15  16
ATOM     16  C   UNL     1      62.197  29.694  60.884  1.00  0.00     0.000 C 
BRANCH  16  17
ATOM     17  C   UNL     1      63.648  30.050  61.254  1.00  0.00     0.000 C 
BRANCH  17  18
ATOM     18  C   UNL     1      64.737  29.314  60.448  1.00  0.00     0.000 C 
BRANCH  18  19
ATOM     19  C   UNL     1      64.677  27.778  60.511  1.00  0.00     0.000 C 
BRANCH  19  20
ATOM     20  C   UNL     1      65.778  27.100  59.680  1.00  0.00     0.006 C 
BRANCH  20  21
ATOM     21  C   UNL     1      67.037  27.971  59.566  1.00  0.00     0.053 C 
BRANCH  21  22
ATOM     22  C   UNL     1      68.017  27.680  60.661  1.00  0.00     0.041 C 
ATOM     23  O   UNL     1      68.106  28.452  61.651  1.00  0.00    -0.550 OA
ATOM     24  O   UNL     1      68.853  26.573  60.574  1.00  0.00    -0.550 OA
ENDBRANCH  21  22
ENDBRANCH  20  21
ENDBRANCH  19  20
ENDBRANCH  18  19
ENDBRANCH  17  18
ENDBRANCH  16  17
ENDBRANCH  15  16
ENDBRANCH  14  15
ENDBRANCH  13  14
ENDBRANCH   1  13
TORSDOF 20
ENDMDL
MODEL 3
REMARK VINA RESULT:    -3.304     10.611     13.036
REMARK INTER + INTRA:         -10.319
REMARK INTER:                  -6.920
REMARK INTRA:                  -3.399
REMARK UNBOUND:                -3.151
REMARK SMILES CCCCCCCCCCCCCCCCCCCCCC(=O)[O-]
REMARK SMILES IDX 12 1 11 2 10 3 9 4 8 5 7 6 6 7 5 8 4 9 3 10 2 11 1 12 13 13
REMARK SMILES IDX 14 14 15 15 16 16 17 17 18 18 19 19 20 20 21 21 22 22 23 23
REMARK SMILES IDX 24 24
REMARK H PARENT
REMARK Flexibility Score: inf
ROOT
ATOM      1  C   UNL     1      61.207  35.432  60.195  1.00  0.00     0.000 C 
ENDROOT
BRANCH   1   2
ATOM      2  C   UNL     1      61.081  35.053  58.708  1.00  0.00     0.000 C 
BRANCH   2   3
ATOM      3  C   UNL     1      61.206  33.548  58.404  1.00  0.00     0.000 C 
BRANCH   3   4
ATOM      4  C   UNL     1      61.159  32.652  59.661  1.00  0.00    -0.000 C 
BRANCH   4   5
ATOM      5  C   UNL     1      60.852  31.181  59.328  1.00  0.00    -0.000 C 
BRANCH   5   6
ATOM      6  C   UNL     1      60.722  30.306  60.592  1.00  0.00    -0.000 C 
BRANCH   6   7
ATOM      7  C   UNL     1      61.908  30.445  61.563  1.00  0.00    -0.000 C 
BRANCH   7   8
ATOM      8  C   UNL     1      63.140  29.642  61.122  1.00  0.00    -0.000 C 
BRANCH   8   9
ATOM      9  C   UNL     1      62.782  28.426  60.251  1.00  0.00    -0.000 C 
BRANCH   9  10
ATOM     10  C   UNL     1      63.087  27.071  60.922  1.00  0.00    -0.000 C 
BRANCH  10  11
ATOM     11  C   UNL     1      61.863  26.486  61.643  1.00  0.00    -0.003 C 
ATOM     12  C   UNL     1      60.613  26.575  60.769  1.00  0.00     0.004 C 
ENDBRANCH  10  11
ENDBRANCH   9  10
ENDBRANCH   8   9
ENDBRANCH   7   8
ENDBRANCH   6   7
ENDBRANCH   5   6
ENDBRANCH   4   5
ENDBRANCH   3   4
ENDBRANCH   2   3
ENDBRANCH   1   2
BRANCH   1  13
ATOM     13  C   UNL     1      62.136  36.627  60.490  1.00  0.00     0.000 C 
BRANCH  13  14
ATOM     14  C   UNL     1      63.600  36.447  60.043  1.00  0.00     0.000 C 
BRANCH  14  15
ATOM     15  C   UNL     1      64.546  35.880  61.116  1.00  0.00     0.000 C 
BRANCH  15  16
ATOM     16  C   UNL     1      64.614  34.344  61.095  1.00  0.00     0.000 C 
BRANCH  16  17
ATOM     17  C   UNL     1      64.702  33.766  59.671  1.00  0.00     0.000 C 
BRANCH  17  18
ATOM     18  C   UNL     1      64.811  32.230  59.584  1.00  0.00     0.000 C 
BRANCH  18  19
ATOM     19  C   UNL     1      64.486  31.624  58.208  1.00  0.00     0.000 C 
BRANCH  19  20
ATOM     20  C   UNL     1      65.147  30.254  57.985  1.00  0.00     0.006 C 
BRANCH  20  21
ATOM     21  C   UNL     1      66.162  29.914  59.085  1.00  0.00     0.053 C 
BRANCH  21  22
ATOM     22  C   UNL     1      66.278  28.436  59.299  1.00  0.00     0.041 C 
ATOM     23  O   UNL     1      66.890  27.989  60.304  1.00  0.00    -0.550 OA
ATOM     24  O   UNL     1      65.735  27.552  58.375  1.00  0.00    -0.550 OA
ENDBRANCH  21  22
ENDBRANCH  20  21
ENDBRANCH  19  20
ENDBRANCH  18  19
ENDBRANCH  17  18
ENDBRANCH  16  17
ENDBRANCH  15  16
ENDBRANCH  14  15
ENDBRANCH  13  14
ENDBRANCH   1  13
TORSDOF 20
ENDMDL
MODEL 4
REMARK VINA RESULT:    -3.303      4.604      7.855
REMARK INTER + INTRA:         -10.317
REMARK INTER:                  -8.310
REMARK INTRA:                  -2.007
REMARK UNBOUND:                -3.151
REMARK SMILES CCCCCCCCCCCCCCCCCCCCCC(=O)[O-]
REMARK SMILES IDX 12 1 11 2 10 3 9 4 8 5 7 6 6 7 5 8 4 9 3 10 2 11 1 12 13 13
REMARK SMILES IDX 14 14 15 15 16 16 17 17 18 18 19 19 20 20 21 21 22 22 23 23
REMARK SMILES IDX 24 24
REMARK H PARENT
REMARK Flexibility Score: inf
ROOT
ATOM      1  C   UNL     1      60.668  24.508  50.806  1.00  0.00     0.000 C 
ENDROOT
BRANCH   1   2
ATOM      2  C   UNL     1      59.350  25.201  50.411  1.00  0.00     0.000 C 
BRANCH   2   3
ATOM      3  C   UNL     1      59.498  26.368  49.418  1.00  0.00     0.000 C 
BRANCH   3   4
ATOM      4  C   UNL     1      60.809  27.166  49.582  1.00  0.00    -0.000 C 
BRANCH   4   5
ATOM      5  C   UNL     1      60.660  28.641  49.170  1.00  0.00    -0.000 C 
BRANCH   5   6
ATOM      6  C   UNL     1      59.222  29.165  49.368  1.00  0.00    -0.000 C 
BRANCH   6   7
ATOM      7  C   UNL     1      58.896  29.541  50.825  1.00  0.00    -0.000 C 
BRANCH   7   8
ATOM      8  C   UNL     1      57.543  28.991  51.297  1.00  0.00    -0.000 C 
BRANCH   8   9
ATOM      9  C   UNL     1      56.599  28.644  50.134  1.00  0.00    -0.000 C 
BRANCH   9  10
ATOM     10  C   UNL     1      55.504  27.622  50.508  1.00  0.00    -0.000 C 
BRANCH  10  11
ATOM     11  C   UNL     1      55.812  26.213  49.977  1.00  0.00    -0.003 C 
ATOM     12  C   UNL     1      54.771  25.772  48.950  1.00  0.00     0.004 C 
ENDBRANCH  10  11
ENDBRANCH   9  10
ENDBRANCH   8   9
ENDBRANCH   7   8
ENDBRANCH   6   7
ENDBRANCH   5   6
ENDBRANCH   4   5
ENDBRANCH   3   4
ENDBRANCH   2   3
ENDBRANCH   1   2
BRANCH   1  13
ATOM     13  C   UNL     1      61.249  23.552  49.745  1.00  0.00     0.000 C 
BRANCH  13  14
ATOM     14  C   UNL     1      61.972  22.311  50.303  1.00  0.00     0.000 C 
BRANCH  14  15
ATOM     15  C   UNL     1      61.332  21.690  51.557  1.00  0.00     0.000 C 
BRANCH  15  16
ATOM     16  C   UNL     1      60.380  20.529  51.224  1.00  0.00     0.000 C 
BRANCH  16  17
ATOM     17  C   UNL     1      61.050  19.149  51.353  1.00  0.00     0.000 C 
BRANCH  17  18
ATOM     18  C   UNL     1      60.713  18.142  50.234  1.00  0.00     0.000 C 
BRANCH  18  19
ATOM     19  C   UNL     1      59.441  18.456  49.428  1.00  0.00     0.000 C 
BRANCH  19  20
ATOM     20  C   UNL     1      58.194  17.742  49.973  1.00  0.00     0.006 C 
BRANCH  20  21
ATOM     21  C   UNL     1      57.020  18.708  50.187  1.00  0.00     0.053 C 
BRANCH  21  22
ATOM     22  C   UNL     1      56.822  19.032  51.636  1.00  0.00     0.041 C 
ATOM     23  O   UNL     1      57.682  18.682  52.486  1.00  0.00    -0.550 OA
ATOM     24  O   UNL     1      55.674  19.696  52.053  1.00  0.00    -0.550 OA
ENDBRANCH  21  22
ENDBRANCH  20  21
ENDBRANCH  19  20
ENDBRANCH  18  19
ENDBRANCH  17  18
ENDBRANCH  16  17
ENDBRANCH  15  16
ENDBRANCH  14  15
ENDBRANCH  13  14
ENDBRANCH   1  13
TORSDOF 20
ENDMDL
MODEL 5
REMARK VINA RESULT:    -3.303      2.289      5.048
REMARK INTER + INTRA:         -10.316
REMARK INTER:                  -6.320
REMARK INTRA:                  -3.996
REMARK UNBOUND:                -3.151
REMARK SMILES CCCCCCCCCCCCCCCCCCCCCC(=O)[O-]
REMARK SMILES IDX 12 1 11 2 10 3 9 4 8 5 7 6 6 7 5 8 4 9 3 10 2 11 1 12 13 13
REMARK SMILES IDX 14 14 15 15 16 16 17 17 18 18 19 19 20 20 21 21 22 22 23 23
REMARK SMILES IDX 24 24
REMARK H PARENT
REMARK Flexibility Score: inf
ROOT
ATOM      1  C   UNL     1      56.286  26.084  50.227  1.00  0.00     0.000 C 
ENDROOT
BRANCH   1   2
ATOM      2  C   UNL     1      57.751  25.962  49.768  1.00  0.00     0.000 C 
BRANCH   2   3
ATOM      3  C   UNL     1      58.747  25.551  50.869  1.00  0.00     0.000 C 
BRANCH   3   4
ATOM      4  C   UNL     1      60.144  26.191  50.717  1.00  0.00    -0.000 C 
BRANCH   4   5
ATOM      5  C   UNL     1      60.376  26.780  49.314  1.00  0.00    -0.000 C 
BRANCH   5   6
ATOM      6  C   UNL     1      60.677  28.294  49.354  1.00  0.00    -0.000 C 
BRANCH   6   7
ATOM      7  C   UNL     1      59.475  29.172  48.964  1.00  0.00    -0.000 C 
BRANCH   7   8
ATOM      8  C   UNL     1      58.549  29.481  50.149  1.00  0.00    -0.000 C 
BRANCH   8   9
ATOM      9  C   UNL     1      59.317  29.868  51.424  1.00  0.00    -0.000 C 
BRANCH   9  10
ATOM     10  C   UNL     1      58.892  29.066  52.672  1.00  0.00    -0.000 C 
BRANCH  10  11
ATOM     11  C   UNL     1      57.406  28.673  52.638  1.00  0.00    -0.003 C 
ATOM     12  C   UNL     1      57.114  27.538  53.618  1.00  0.00     0.004 C 
ENDBRANCH  10  11
ENDBRANCH   9  10
ENDBRANCH   8   9
ENDBRANCH   7   8
ENDBRANCH   6   7
ENDBRANCH   5   6
ENDBRANCH   4   5
ENDBRANCH   3   4
ENDBRANCH   2   3
ENDBRANCH   1   2
BRANCH   1  13
ATOM     13  C   UNL     1      55.542  27.334  49.714  1.00  0.00     0.000 C 
BRANCH  13  14
ATOM     14  C   UNL     1      54.314  27.754  50.544  1.00  0.00     0.000 C 
BRANCH  14  15
ATOM     15  C   UNL     1      53.608  29.035  50.064  1.00  0.00     0.000 C 
BRANCH  15  16
ATOM     16  C   UNL     1      54.292  30.315  50.571  1.00  0.00     0.000 C 
BRANCH  16  17
ATOM     17  C   UNL     1      54.404  30.369  52.106  1.00  0.00     0.000 C 
BRANCH  17  18
ATOM     18  C   UNL     1      54.994  31.671  52.682  1.00  0.00     0.000 C 
BRANCH  18  19
ATOM     19  C   UNL     1      55.471  31.587  54.143  1.00  0.00     0.000 C 
BRANCH  19  20
ATOM     20  C   UNL     1      56.958  31.938  54.310  1.00  0.00     0.006 C 
BRANCH  20  21
ATOM     21  C   UNL     1      57.554  32.556  53.038  1.00  0.00     0.053 C 
BRANCH  21  22
ATOM     22  C   UNL     1      58.633  33.546  53.351  1.00  0.00     0.041 C 
ATOM     23  O   UNL     1      59.788  33.394  52.874  1.00  0.00    -0.550 OA
ATOM     24  O   UNL     1      58.373  34.620  54.194  1.00  0.00    -0.550 OA
ENDBRANCH  21  22
ENDBRANCH  20  21
ENDBRANCH  19  20
ENDBRANCH  18  19
ENDBRANCH  17  18
ENDBRANCH  16  17
ENDBRANCH  15  16
ENDBRANCH  14  15
ENDBRANCH  13  14
ENDBRANCH   1  13
TORSDOF 20
ENDMDL
MODEL 6
REMARK VINA RESULT:    -3.286      9.463     12.712
REMARK INTER + INTRA:         -10.279
REMARK INTER:                  -6.598
REMARK INTRA:                  -3.681
REMARK UNBOUND:                -3.151
REMARK SMILES CCCCCCCCCCCCCCCCCCCCCC(=O)[O-]
REMARK SMILES IDX 12 1 11 2 10 3 9 4 8 5 7 6 6 7 5 8 4 9 3 10 2 11 1 12 13 13
REMARK SMILES IDX 14 14 15 15 16 16 17 17 18 18 19 19 20 20 21 21 22 22 23 23
REMARK SMILES IDX 24 24
REMARK H PARENT
REMARK Flexibility Score: inf
ROOT
ATOM      1  C   UNL     1      64.128  32.290  57.120  1.00  0.00     0.000 C 
ENDROOT
BRANCH   1   2
ATOM      2  C   UNL     1      64.190  33.502  58.068  1.00  0.00     0.000 C 
BRANCH   2   3
ATOM      3  C   UNL     1      64.564  33.172  59.525  1.00  0.00     0.000 C 
BRANCH   3   4
ATOM      4  C   UNL     1      63.588  33.758  60.569  1.00  0.00    -0.000 C 
BRANCH   4   5
ATOM      5  C   UNL     1      63.679  35.291  60.669  1.00  0.00    -0.000 C 
BRANCH   5   6
ATOM      6  C   UNL     1      62.318  35.977  60.424  1.00  0.00    -0.000 C 
BRANCH   6   7
ATOM      7  C   UNL     1      61.206  35.007  59.989  1.00  0.00    -0.000 C 
BRANCH   7   8
ATOM      8  C   UNL     1      60.596  35.368  58.628  1.00  0.00    -0.000 C 
BRANCH   8   9
ATOM      9  C   UNL     1      60.413  34.148  57.710  1.00  0.00    -0.000 C 
BRANCH   9  10
ATOM     10  C   UNL     1      59.553  34.435  56.461  1.00  0.00    -0.000 C 
BRANCH  10  11
ATOM     11  C   UNL     1      58.216  33.676  56.485  1.00  0.00    -0.003 C 
ATOM     12  C   UNL     1      58.395  32.261  57.031  1.00  0.00     0.004 C 
ENDBRANCH  10  11
ENDBRANCH   9  10
ENDBRANCH   8   9
ENDBRANCH   7   8
ENDBRANCH   6   7
ENDBRANCH   5   6
ENDBRANCH   4   5
ENDBRANCH   3   4
ENDBRANCH   2   3
ENDBRANCH   1   2
BRANCH   1  13
ATOM     13  C   UNL     1      63.420  31.046  57.692  1.00  0.00     0.000 C 
BRANCH  13  14
ATOM     14  C   UNL     1      61.884  31.052  57.576  1.00  0.00     0.000 C 
BRANCH  14  15
ATOM     15  C   UNL     1      61.137  30.379  58.741  1.00  0.00     0.000 C 
BRANCH  15  16
ATOM     16  C   UNL     1      60.866  31.343  59.908  1.00  0.00     0.000 C 
BRANCH  16  17
ATOM     17  C   UNL     1      61.397  30.819  61.255  1.00  0.00     0.000 C 
BRANCH  17  18
ATOM     18  C   UNL     1      62.389  29.641  61.163  1.00  0.00     0.000 C 
BRANCH  18  19
ATOM     19  C   UNL     1      63.877  30.032  61.180  1.00  0.00     0.000 C 
BRANCH  19  20
ATOM     20  C   UNL     1      64.789  28.944  60.590  1.00  0.00     0.006 C 
BRANCH  20  21
ATOM     21  C   UNL     1      65.989  29.537  59.840  1.00  0.00     0.053 C 
BRANCH  21  22
ATOM     22  C   UNL     1      67.174  28.622  59.871  1.00  0.00     0.041 C 
ATOM     23  O   UNL     1      67.226  27.682  60.706  1.00  0.00    -0.550 OA
ATOM     24  O   UNL     1      68.236  28.824  58.997  1.00  0.00    -0.550 OA
ENDBRANCH  21  22
ENDBRANCH  20  21
ENDBRANCH  19  20
ENDBRANCH  18  19
ENDBRANCH  17  18
ENDBRANCH  16  17
ENDBRANCH  15  16
ENDBRANCH  14  15
ENDBRANCH  13  14
ENDBRANCH   1  13
TORSDOF 20
ENDMDL
MODEL 7
REMARK VINA RESULT:    -3.268      8.967     12.320
REMARK INTER + INTRA:         -10.240
REMARK INTER:                  -6.417
REMARK INTRA:                  -3.823
REMARK UNBOUND:                -3.151
REMARK SMILES CCCCCCCCCCCCCCCCCCCCCC(=O)[O-]
REMARK SMILES IDX 12 1 11 2 10 3 9 4 8 5 7 6 6 7 5 8 4 9 3 10 2 11 1 12 13 13
REMARK SMILES IDX 14 14 15 15 16 16 17 17 18 18 19 19 20 20 21 21 22 22 23 23
REMARK SMILES IDX 24 24
REMARK H PARENT
REMARK Flexibility Score: inf
ROOT
ATOM      1  C   UNL     1      62.369  31.956  59.283  1.00  0.00     0.000 C 
ENDROOT
BRANCH   1   2
ATOM      2  C   UNL     1      63.696  32.736  59.227  1.00  0.00     0.000 C 
BRANCH   2   3
ATOM      3  C   UNL     1      64.354  33.005  60.594  1.00  0.00     0.000 C 
BRANCH   3   4
ATOM      4  C   UNL     1      64.489  34.504  60.938  1.00  0.00    -0.000 C 
BRANCH   4   5
ATOM      5  C   UNL     1      63.698  35.406  59.974  1.00  0.00    -0.000 C 
BRANCH   5   6
ATOM      6  C   UNL     1      62.457  36.035  60.643  1.00  0.00    -0.000 C 
BRANCH   6   7
ATOM      7  C   UNL     1      61.127  35.614  59.994  1.00  0.00    -0.000 C 
BRANCH   7   8
ATOM      8  C   UNL     1      61.210  35.521  58.464  1.00  0.00    -0.000 C 
BRANCH   8   9
ATOM      9  C   UNL     1      60.160  34.572  57.863  1.00  0.00    -0.000 C 
BRANCH   9  10
ATOM     10  C   UNL     1      60.654  33.810  56.616  1.00  0.00    -0.000 C 
BRANCH  10  11
ATOM     11  C   UNL     1      59.796  32.572  56.308  1.00  0.00    -0.003 C 
ATOM     12  C   UNL     1      59.138  32.029  57.575  1.00  0.00     0.004 C 
ENDBRANCH  10  11
ENDBRANCH   9  10
ENDBRANCH   8   9
ENDBRANCH   7   8
ENDBRANCH   6   7
ENDBRANCH   5   6
ENDBRANCH   4   5
ENDBRANCH   3   4
ENDBRANCH   2   3
ENDBRANCH   1   2
BRANCH   1  13
ATOM     13  C   UNL     1      61.580  32.100  60.600  1.00  0.00     0.000 C 
BRANCH  13  14
ATOM     14  C   UNL     1      60.961  30.798  61.142  1.00  0.00     0.000 C 
BRANCH  14  15
ATOM     15  C   UNL     1      61.443  29.509  60.453  1.00  0.00     0.000 C 
BRANCH  15  16
ATOM     16  C   UNL     1      62.517  28.768  61.267  1.00  0.00     0.000 C 
BRANCH  16  17
ATOM     17  C   UNL     1      63.309  27.748  60.429  1.00  0.00     0.000 C 
BRANCH  17  18
ATOM     18  C   UNL     1      64.828  27.999  60.341  1.00  0.00     0.000 C 
BRANCH  18  19
ATOM     19  C   UNL     1      65.253  29.477  60.361  1.00  0.00     0.000 C 
BRANCH  19  20
ATOM     20  C   UNL     1      66.080  29.879  59.129  1.00  0.00     0.006 C 
BRANCH  20  21
ATOM     21  C   UNL     1      65.705  29.061  57.886  1.00  0.00     0.053 C 
BRANCH  21  22
ATOM     22  C   UNL     1      64.611  29.714  57.098  1.00  0.00     0.041 C 
ATOM     23  O   UNL     1      63.411  29.387  57.291  1.00  0.00    -0.550 OA
ATOM     24  O   UNL     1      64.918  30.662  56.130  1.00  0.00    -0.550 OA
ENDBRANCH  21  22
ENDBRANCH  20  21
ENDBRANCH  19  20
ENDBRANCH  18  19
ENDBRANCH  17  18
ENDBRANCH  16  17
ENDBRANCH  15  16
ENDBRANCH  14  15
ENDBRANCH  13  14
ENDBRANCH   1  13
TORSDOF 20
ENDMDL
MODEL 8
REMARK VINA RESULT:    -3.252     11.062     12.921
REMARK INTER + INTRA:         -10.205
REMARK INTER:                  -7.068
REMARK INTRA:                  -3.138
REMARK UNBOUND:                -3.151
REMARK SMILES CCCCCCCCCCCCCCCCCCCCCC(=O)[O-]
REMARK SMILES IDX 12 1 11 2 10 3 9 4 8 5 7 6 6 7 5 8 4 9 3 10 2 11 1 12 13 13
REMARK SMILES IDX 14 14 15 15 16 16 17 17 18 18 19 19 20 20 21 21 22 22 23 23
REMARK SMILES IDX 24 24
REMARK H PARENT
REMARK Flexibility Score: inf
ROOT
ATOM      1  C   UNL     1      65.147  33.424  57.439  1.00  0.00     0.000 C 
ENDROOT
BRANCH   1   2
ATOM      2  C   UNL     1      64.742  32.714  58.745  1.00  0.00     0.000 C 
BRANCH   2   3
ATOM      3  C   UNL     1      63.258  32.316  58.839  1.00  0.00     0.000 C 
BRANCH   3   4
ATOM      4  C   UNL     1      62.724  32.234  60.285  1.00  0.00    -0.000 C 
BRANCH   4   5
ATOM      5  C   UNL     1      61.226  31.887  60.344  1.00  0.00    -0.000 C 
BRANCH   5   6
ATOM      6  C   UNL     1      60.963  30.525  61.021  1.00  0.00    -0.000 C 
BRANCH   6   7
ATOM      7  C   UNL     1      62.241  29.829  61.522  1.00  0.00    -0.000 C 
BRANCH   7   8
ATOM      8  C   UNL     1      62.466  28.454  60.877  1.00  0.00    -0.000 C 
BRANCH   8   9
ATOM      9  C   UNL     1      63.897  28.267  60.348  1.00  0.00    -0.000 C 
BRANCH   9  10
ATOM     10  C   UNL     1      64.855  29.415  60.729  1.00  0.00    -0.000 C 
BRANCH  10  11
ATOM     11  C   UNL     1      66.291  29.166  60.243  1.00  0.00    -0.003 C 
ATOM     12  C   UNL     1      66.400  29.346  58.730  1.00  0.00     0.004 C 
ENDBRANCH  10  11
ENDBRANCH   9  10
ENDBRANCH   8   9
ENDBRANCH   7   8
ENDBRANCH   6   7
ENDBRANCH   5   6
ENDBRANCH   4   5
ENDBRANCH   3   4
ENDBRANCH   2   3
ENDBRANCH   1   2
BRANCH   1  13
ATOM     13  C   UNL     1      66.057  34.655  57.619  1.00  0.00     0.000 C 
BRANCH  13  14
ATOM     14  C   UNL     1      65.322  36.005  57.733  1.00  0.00     0.000 C 
BRANCH  14  15
ATOM     15  C   UNL     1      65.583  36.783  59.034  1.00  0.00     0.000 C 
BRANCH  15  16
ATOM     16  C   UNL     1      66.021  35.872  60.193  1.00  0.00     0.000 C 
BRANCH  16  17
ATOM     17  C   UNL     1      65.146  36.035  61.449  1.00  0.00     0.000 C 
BRANCH  17  18
ATOM     18  C   UNL     1      63.724  36.578  61.199  1.00  0.00     0.000 C 
BRANCH  18  19
ATOM     19  C   UNL     1      62.719  35.557  60.639  1.00  0.00     0.000 C 
BRANCH  19  20
ATOM     20  C   UNL     1      61.389  36.197  60.212  1.00  0.00     0.006 C 
BRANCH  20  21
ATOM     21  C   UNL     1      60.777  35.503  58.987  1.00  0.00     0.053 C 
BRANCH  21  22
ATOM     22  C   UNL     1      61.538  35.811  57.734  1.00  0.00     0.041 C 
ATOM     23  O   UNL     1      61.939  36.983  57.510  1.00  0.00    -0.550 OA
ATOM     24  O   UNL     1      61.778  34.811  56.799  1.00  0.00    -0.550 OA
ENDBRANCH  21  22
ENDBRANCH  20  21
ENDBRANCH  19  20
ENDBRANCH  18  19
ENDBRANCH  17  18
ENDBRANCH  16  17
ENDBRANCH  15  16
ENDBRANCH  14  15
ENDBRANCH  13  14
ENDBRANCH   1  13
TORSDOF 20
ENDMDL
MODEL 9
REMARK VINA RESULT:    -3.212      1.862      6.166
REMARK INTER + INTRA:         -10.119
REMARK INTER:                  -6.636
REMARK INTRA:                  -3.483
REMARK UNBOUND:                -3.151
REMARK SMILES CCCCCCCCCCCCCCCCCCCCCC(=O)[O-]
REMARK SMILES IDX 12 1 11 2 10 3 9 4 8 5 7 6 6 7 5 8 4 9 3 10 2 11 1 12 13 13
REMARK SMILES IDX 14 14 15 15 16 16 17 17 18 18 19 19 20 20 21 21 22 22 23 23
REMARK SMILES IDX 24 24
REMARK H PARENT
REMARK Flexibility Score: inf
ROOT
ATOM      1  C   UNL     1      58.390  25.689  52.641  1.00  0.00     0.000 C 
ENDROOT
BRANCH   1   2
ATOM      2  C   UNL     1      57.312  26.424  51.822  1.00  0.00     0.000 C 
BRANCH   2   3
ATOM      3  C   UNL     1      57.088  25.878  50.400  1.00  0.00     0.000 C 
BRANCH   3   4
ATOM      4  C   UNL     1      56.080  26.700  49.567  1.00  0.00    -0.000 C 
BRANCH   4   5
ATOM      5  C   UNL     1      54.943  25.836  48.993  1.00  0.00    -0.000 C 
BRANCH   5   6
ATOM      6  C   UNL     1      53.560  26.501  49.155  1.00  0.00    -0.000 C 
BRANCH   6   7
ATOM      7  C   UNL     1      53.135  26.692  50.622  1.00  0.00    -0.000 C 
BRANCH   7   8
ATOM      8  C   UNL     1      52.896  28.163  50.990  1.00  0.00    -0.000 C 
BRANCH   8   9
ATOM      9  C   UNL     1      53.370  29.138  49.899  1.00  0.00    -0.000 C 
BRANCH   9  10
ATOM     10  C   UNL     1      54.635  29.933  50.285  1.00  0.00    -0.000 C 
BRANCH  10  11
ATOM     11  C   UNL     1      55.021  29.741  51.760  1.00  0.00    -0.003 C 
ATOM     12  C   UNL     1      54.837  31.034  52.551  1.00  0.00     0.004 C 
ENDBRANCH  10  11
ENDBRANCH   9  10
ENDBRANCH   8   9
ENDBRANCH   7   8
ENDBRANCH   6   7
ENDBRANCH   5   6
ENDBRANCH   4   5
ENDBRANCH   3   4
ENDBRANCH   2   3
ENDBRANCH   1   2
BRANCH   1  13
ATOM     13  C   UNL     1      59.749  26.412  52.731  1.00  0.00     0.000 C 
BRANCH  13  14
ATOM     14  C   UNL     1      60.891  25.769  51.921  1.00  0.00     0.000 C 
BRANCH  14  15
ATOM     15  C   UNL     1      60.854  26.044  50.407  1.00  0.00     0.000 C 
BRANCH  15  16
ATOM     16  C   UNL     1      61.041  27.532  50.069  1.00  0.00     0.000 C 
BRANCH  16  17
ATOM     17  C   UNL     1      60.063  28.030  48.989  1.00  0.00     0.000 C 
BRANCH  17  18
ATOM     18  C   UNL     1      59.355  29.364  49.300  1.00  0.00     0.000 C 
BRANCH  18  19
ATOM     19  C   UNL     1      58.606  29.414  50.644  1.00  0.00     0.000 C 
BRANCH  19  20
ATOM     20  C   UNL     1      59.387  30.161  51.737  1.00  0.00     0.006 C 
BRANCH  20  21
ATOM     21  C   UNL     1      58.458  30.813  52.770  1.00  0.00     0.053 C 
BRANCH  21  22
ATOM     22  C   UNL     1      58.735  32.277  52.923  1.00  0.00     0.041 C 
ATOM     23  O   UNL     1      59.915  32.708  52.858  1.00  0.00    -0.550 OA
ATOM     24  O   UNL     1      57.692  33.164  53.166  1.00  0.00    -0.550 OA
ENDBRANCH  21  22
ENDBRANCH  20  21
ENDBRANCH  19  20
ENDBRANCH  18  19
ENDBRANCH  17  18
ENDBRANCH  16  17
ENDBRANCH  15  16
ENDBRANCH  14  15
ENDBRANCH  13  14
ENDBRANCH   1  13
TORSDOF 20
ENDMDL
