MODEL 1
REMARK VINA RESULT:    -4.824      0.000      0.000
REMARK INTER + INTRA:         -11.570
REMARK INTER:                  -9.055
REMARK INTRA:                  -2.515
REMARK UNBOUND:                -2.515
REMARK SMILES CCCCCCCCC=CCCCCCCCC(=O)[O-]
REMARK SMILES IDX 10 1 9 2 11 3 12 4 13 5 14 6 15 7 16 8 17 9 18 10 19 11
REMARK SMILES IDX 20 12 8 13 7 14 6 15 5 16 4 17 3 18 2 19 1 20
REMARK H PARENT
REMARK Flexibility Score: inf
ROOT
ATOM      1  C   UNL     1      -5.310 -22.475 -12.374  1.00  0.00    -0.031 C 
ATOM      2  C   UNL     1      -3.998 -22.661 -12.168  1.00  0.00    -0.031 C 
ENDROOT
BRANCH   1   3
ATOM      3  C   UNL     1      -6.228 -22.051 -11.262  1.00  0.00     0.027 C 
BRANCH   3   4
ATOM      4  C   UNL     1      -5.464 -21.885  -9.944  1.00  0.00     0.004 C 
BRANCH   4   5
ATOM      5  C   UNL     1      -6.382 -21.353  -8.838  1.00  0.00     0.000 C 
BRANCH   5   6
ATOM      6  C   UNL     1      -7.315 -20.258  -9.376  1.00  0.00     0.000 C 
BRANCH   6   7
ATOM      7  C   UNL     1      -6.710 -18.847  -9.269  1.00  0.00     0.000 C 
BRANCH   7   8
ATOM      8  C   UNL     1      -7.695 -17.695  -9.539  1.00  0.00     0.006 C 
BRANCH   8   9
ATOM      9  C   UNL     1      -8.326 -17.762 -10.936  1.00  0.00     0.053 C 
BRANCH   9  10
ATOM     10  C   UNL     1      -8.505 -16.385 -11.494  1.00  0.00     0.041 C 
ATOM     11  O   UNL     1      -9.071 -15.492 -10.810  1.00  0.00    -0.550 OA
ATOM     12  O   UNL     1      -8.003 -16.075 -12.752  1.00  0.00    -0.550 OA
ENDBRANCH   9  10
ENDBRANCH   8   9
ENDBRANCH   7   8
ENDBRANCH   6   7
ENDBRANCH   5   6
ENDBRANCH   4   5
ENDBRANCH   3   4
ENDBRANCH   1   3
BRANCH   2  13
ATOM     13  C   UNL     1      -3.063 -23.024 -13.291  1.00  0.00     0.027 C 
BRANCH  13  14
ATOM     14  C   UNL     1      -3.399 -22.252 -14.573  1.00  0.00     0.004 C 
BRANCH  14  15
ATOM     15  C   UNL     1      -2.404 -21.110 -14.839  1.00  0.00     0.000 C 
BRANCH  15  16
ATOM     16  C   UNL     1      -2.823 -19.793 -14.167  1.00  0.00     0.000 C 
BRANCH  16  17
ATOM     17  C   UNL     1      -1.987 -19.477 -12.917  1.00  0.00    -0.000 C 
BRANCH  17  18
ATOM     18  C   UNL     1      -2.892 -19.119 -11.728  1.00  0.00    -0.000 C 
BRANCH  18  19
ATOM     19  C   UNL     1      -4.355 -18.900 -12.145  1.00  0.00    -0.003 C 
ATOM     20  C   UNL     1      -4.783 -17.436 -12.051  1.00  0.00     0.004 C 
ENDBRANCH  18  19
ENDBRANCH  17  18
ENDBRANCH  16  17
ENDBRANCH  15  16
ENDBRANCH  14  15
ENDBRANCH  13  14
ENDBRANCH   2  13
TORSDOF 15
ENDMDL
MODEL 2
REMARK VINA RESULT:    -4.822      3.334      6.487
REMARK INTER + INTRA:         -11.566
REMARK INTER:                  -8.871
REMARK INTRA:                  -2.696
REMARK UNBOUND:                -2.515
REMARK SMILES CCCCCCCCC=CCCCCCCCC(=O)[O-]
REMARK SMILES IDX 10 1 9 2 11 3 12 4 13 5 14 6 15 7 16 8 17 9 18 10 19 11
REMARK SMILES IDX 20 12 8 13 7 14 6 15 5 16 4 17 3 18 2 19 1 20
REMARK H PARENT
REMARK Flexibility Score: inf
ROOT
ATOM      1  C   UNL     1      -4.440 -19.712 -11.352  1.00  0.00    -0.031 C 
ATOM      2  C   UNL     1      -4.063 -18.451 -11.613  1.00  0.00    -0.031 C 
ENDROOT
BRANCH   1   3
ATOM      3  C   UNL     1      -3.490 -20.707 -10.746  1.00  0.00     0.027 C 
BRANCH   3   4
ATOM      4  C   UNL     1      -3.842 -22.138 -11.167  1.00  0.00     0.004 C 
BRANCH   4   5
ATOM      5  C   UNL     1      -4.557 -22.153 -12.523  1.00  0.00     0.000 C 
BRANCH   5   6
ATOM      6  C   UNL     1      -3.673 -22.790 -13.604  1.00  0.00     0.000 C 
BRANCH   6   7
ATOM      7  C   UNL     1      -2.588 -21.835 -14.135  1.00  0.00     0.000 C 
BRANCH   7   8
ATOM      8  C   UNL     1      -3.118 -20.623 -14.923  1.00  0.00     0.006 C 
BRANCH   8   9
ATOM      9  C   UNL     1      -2.295 -19.350 -14.686  1.00  0.00     0.053 C 
BRANCH   9  10
ATOM     10  C   UNL     1      -0.951 -19.469 -15.334  1.00  0.00     0.041 C 
ATOM     11  O   UNL     1      -0.840 -20.000 -16.471  1.00  0.00    -0.550 OA
ATOM     12  O   UNL     1       0.173 -18.951 -14.703  1.00  0.00    -0.550 OA
ENDBRANCH   9  10
ENDBRANCH   8   9
ENDBRANCH   7   8
ENDBRANCH   6   7
ENDBRANCH   5   6
ENDBRANCH   4   5
ENDBRANCH   3   4
ENDBRANCH   1   3
BRANCH   2  13
ATOM     13  C   UNL     1      -5.027 -17.434 -12.162  1.00  0.00     0.027 C 
BRANCH  13  14
ATOM     14  C   UNL     1      -6.315 -17.374 -11.331  1.00  0.00     0.004 C 
BRANCH  14  15
ATOM     15  C   UNL     1      -6.136 -16.553 -10.043  1.00  0.00     0.000 C 
BRANCH  15  16
ATOM     16  C   UNL     1      -6.430 -17.370  -8.775  1.00  0.00     0.000 C 
BRANCH  16  17
ATOM     17  C   UNL     1      -7.350 -18.570  -9.047  1.00  0.00    -0.000 C 
BRANCH  17  18
ATOM     18  C   UNL     1      -6.923 -19.788  -8.214  1.00  0.00    -0.000 C 
BRANCH  18  19
ATOM     19  C   UNL     1      -6.811 -21.069  -9.056  1.00  0.00    -0.003 C 
ATOM     20  C   UNL     1      -7.736 -21.060 -10.273  1.00  0.00     0.004 C 
ENDBRANCH  18  19
ENDBRANCH  17  18
ENDBRANCH  16  17
ENDBRANCH  15  16
ENDBRANCH  14  15
ENDBRANCH  13  14
ENDBRANCH   2  13
TORSDOF 15
ENDMDL
MODEL 3
REMARK VINA RESULT:    -4.800      3.207      6.743
REMARK INTER + INTRA:         -11.524
REMARK INTER:                  -9.176
REMARK INTRA:                  -2.348
REMARK UNBOUND:                -2.515
REMARK SMILES CCCCCCCCC=CCCCCCCCC(=O)[O-]
REMARK SMILES IDX 10 1 9 2 11 3 12 4 13 5 14 6 15 7 16 8 17 9 18 10 19 11
REMARK SMILES IDX 20 12 8 13 7 14 6 15 5 16 4 17 3 18 2 19 1 20
REMARK H PARENT
REMARK Flexibility Score: inf
ROOT
ATOM      1  C   UNL     1      -5.262 -19.034 -11.214  1.00  0.00    -0.031 C 
ATOM      2  C   UNL     1      -4.918 -20.021 -10.373  1.00  0.00    -0.031 C 
ENDROOT
BRANCH   1   3
ATOM      3  C   UNL     1      -4.247 -18.360 -12.093  1.00  0.00     0.027 C 
BRANCH   3   4
ATOM      4  C   UNL     1      -2.836 -18.893 -11.821  1.00  0.00     0.004 C 
BRANCH   4   5
ATOM      5  C   UNL     1      -2.171 -19.376 -13.115  1.00  0.00     0.000 C 
BRANCH   5   6
ATOM      6  C   UNL     1      -3.214 -19.928 -14.096  1.00  0.00     0.000 C 
BRANCH   6   7
ATOM      7  C   UNL     1      -2.717 -21.161 -14.873  1.00  0.00     0.000 C 
BRANCH   7   8
ATOM      8  C   UNL     1      -3.415 -22.484 -14.509  1.00  0.00     0.006 C 
BRANCH   8   9
ATOM      9  C   UNL     1      -3.822 -22.559 -13.032  1.00  0.00     0.053 C 
BRANCH   9  10
ATOM     10  C   UNL     1      -2.676 -23.037 -12.198  1.00  0.00     0.041 C 
ATOM     11  O   UNL     1      -1.910 -23.938 -12.631  1.00  0.00    -0.550 OA
ATOM     12  O   UNL     1      -2.425 -22.454 -10.962  1.00  0.00    -0.550 OA
ENDBRANCH   9  10
ENDBRANCH   8   9
ENDBRANCH   7   8
ENDBRANCH   6   7
ENDBRANCH   5   6
ENDBRANCH   4   5
ENDBRANCH   3   4
ENDBRANCH   1   3
BRANCH   2  13
ATOM     13  C   UNL     1      -5.940 -20.742  -9.536  1.00  0.00     0.027 C 
BRANCH  13  14
ATOM     14  C   UNL     1      -7.078 -19.806  -9.110  1.00  0.00     0.004 C 
BRANCH  14  15
ATOM     15  C   UNL     1      -6.676 -18.904  -7.930  1.00  0.00     0.000 C 
BRANCH  15  16
ATOM     16  C   UNL     1      -7.048 -17.431  -8.159  1.00  0.00     0.000 C 
BRANCH  16  17
ATOM     17  C   UNL     1      -8.061 -17.248  -9.300  1.00  0.00    -0.000 C 
BRANCH  17  18
ATOM     18  C   UNL     1      -7.585 -16.173 -10.288  1.00  0.00    -0.000 C 
BRANCH  18  19
ATOM     19  C   UNL     1      -6.195 -15.621  -9.936  1.00  0.00    -0.003 C 
ATOM     20  C   UNL     1      -5.550 -14.861 -11.095  1.00  0.00     0.004 C 
ENDBRANCH  18  19
ENDBRANCH  17  18
ENDBRANCH  16  17
ENDBRANCH  15  16
ENDBRANCH  14  15
ENDBRANCH  13  14
ENDBRANCH   2  13
TORSDOF 15
ENDMDL
MODEL 4
REMARK VINA RESULT:    -4.767      2.908      6.586
REMARK INTER + INTRA:         -11.463
REMARK INTER:                  -8.950
REMARK INTRA:                  -2.513
REMARK UNBOUND:                -2.515
REMARK SMILES CCCCCCCCC=CCCCCCCCC(=O)[O-]
REMARK SMILES IDX 10 1 9 2 11 3 12 4 13 5 14 6 15 7 16 8 17 9 18 10 19 11
REMARK SMILES IDX 20 12 8 13 7 14 6 15 5 16 4 17 3 18 2 19 1 20
REMARK H PARENT
REMARK Flexibility Score: inf
ROOT
ATOM      1  C   UNL     1      -5.374 -18.762 -11.401  1.00  0.00    -0.031 C 
ATOM      2  C   UNL     1      -5.587 -18.627 -10.083  1.00  0.00    -0.031 C 
ENDROOT
BRANCH   1   3
ATOM      3  C   UNL     1      -4.496 -17.805 -12.158  1.00  0.00     0.027 C 
BRANCH   3   4
ATOM      4  C   UNL     1      -3.453 -18.553 -12.997  1.00  0.00     0.004 C 
BRANCH   4   5
ATOM      5  C   UNL     1      -2.065 -18.470 -12.352  1.00  0.00     0.000 C 
BRANCH   5   6
ATOM      6  C   UNL     1      -1.466 -19.869 -12.154  1.00  0.00     0.000 C 
BRANCH   6   7
ATOM      7  C   UNL     1      -1.971 -20.565 -10.877  1.00  0.00     0.000 C 
BRANCH   7   8
ATOM      8  C   UNL     1      -2.556 -21.973 -11.091  1.00  0.00     0.006 C 
BRANCH   8   9
ATOM      9  C   UNL     1      -4.090 -21.991 -11.081  1.00  0.00     0.053 C 
BRANCH   9  10
ATOM     10  C   UNL     1      -4.616 -22.392 -12.423  1.00  0.00     0.041 C 
ATOM     11  O   UNL     1      -5.709 -23.011 -12.516  1.00  0.00    -0.550 OA
ATOM     12  O   UNL     1      -3.924 -22.040 -13.575  1.00  0.00    -0.550 OA
ENDBRANCH   9  10
ENDBRANCH   8   9
ENDBRANCH   7   8
ENDBRANCH   6   7
ENDBRANCH   5   6
ENDBRANCH   4   5
ENDBRANCH   3   4
ENDBRANCH   1   3
BRANCH   2  13
ATOM     13  C   UNL     1      -6.414 -19.618  -9.308  1.00  0.00     0.027 C 
BRANCH  13  14
ATOM     14  C   UNL     1      -6.885 -19.032  -7.971  1.00  0.00     0.004 C 
BRANCH  14  15
ATOM     15  C   UNL     1      -6.982 -17.497  -8.013  1.00  0.00     0.000 C 
BRANCH  15  16
ATOM     16  C   UNL     1      -8.428 -16.993  -7.883  1.00  0.00     0.000 C 
BRANCH  16  17
ATOM     17  C   UNL     1      -8.807 -15.996  -8.990  1.00  0.00    -0.000 C 
BRANCH  17  18
ATOM     18  C   UNL     1      -8.607 -16.619 -10.380  1.00  0.00    -0.000 C 
BRANCH  18  19
ATOM     19  C   UNL     1      -7.642 -15.807 -11.257  1.00  0.00    -0.003 C 
ATOM     20  C   UNL     1      -7.000 -14.639 -10.508  1.00  0.00     0.004 C 
ENDBRANCH  18  19
ENDBRANCH  17  18
ENDBRANCH  16  17
ENDBRANCH  15  16
ENDBRANCH  14  15
ENDBRANCH  13  14
ENDBRANCH   2  13
TORSDOF 15
ENDMDL
MODEL 5
REMARK VINA RESULT:    -4.759      2.311      5.724
REMARK INTER + INTRA:         -11.448
REMARK INTER:                  -8.960
REMARK INTRA:                  -2.488
REMARK UNBOUND:                -2.515
REMARK SMILES CCCCCCCCC=CCCCCCCCC(=O)[O-]
REMARK SMILES IDX 10 1 9 2 11 3 12 4 13 5 14 6 15 7 16 8 17 9 18 10 19 11
REMARK SMILES IDX 20 12 8 13 7 14 6 15 5 16 4 17 3 18 2 19 1 20
REMARK H PARENT
REMARK Flexibility Score: inf
ROOT
ATOM      1  C   UNL     1      -7.479 -20.173 -10.152  1.00  0.00    -0.031 C 
ATOM      2  C   UNL     1      -6.927 -19.756  -9.003  1.00  0.00    -0.031 C 
ENDROOT
BRANCH   1   3
ATOM      3  C   UNL     1      -7.888 -21.605 -10.353  1.00  0.00     0.027 C 
BRANCH   3   4
ATOM      4  C   UNL     1      -6.665 -22.513 -10.522  1.00  0.00     0.004 C 
BRANCH   4   5
ATOM      5  C   UNL     1      -6.244 -22.603 -11.994  1.00  0.00     0.000 C 
BRANCH   5   6
ATOM      6  C   UNL     1      -4.726 -22.433 -12.143  1.00  0.00     0.000 C 
BRANCH   6   7
ATOM      7  C   UNL     1      -4.315 -21.000 -12.527  1.00  0.00     0.000 C 
BRANCH   7   8
ATOM      8  C   UNL     1      -3.935 -20.093 -11.343  1.00  0.00     0.006 C 
BRANCH   8   9
ATOM      9  C   UNL     1      -4.232 -18.611 -11.606  1.00  0.00     0.053 C 
BRANCH   9  10
ATOM     10  C   UNL     1      -3.374 -18.096 -12.719  1.00  0.00     0.041 C 
ATOM     11  O   UNL     1      -3.900 -17.676 -13.783  1.00  0.00    -0.550 OA
ATOM     12  O   UNL     1      -1.994 -18.034 -12.561  1.00  0.00    -0.550 OA
ENDBRANCH   9  10
ENDBRANCH   8   9
ENDBRANCH   7   8
ENDBRANCH   6   7
ENDBRANCH   5   6
ENDBRANCH   4   5
ENDBRANCH   3   4
ENDBRANCH   1   3
BRANCH   2  13
ATOM     13  C   UNL     1      -6.573 -18.311  -8.772  1.00  0.00     0.027 C 
BRANCH  13  14
ATOM     14  C   UNL     1      -7.693 -17.570  -8.031  1.00  0.00     0.004 C 
BRANCH  14  15
ATOM     15  C   UNL     1      -8.201 -16.350  -8.819  1.00  0.00     0.000 C 
BRANCH  15  16
ATOM     16  C   UNL     1      -8.846 -16.739 -10.159  1.00  0.00     0.000 C 
BRANCH  16  17
ATOM     17  C   UNL     1      -8.401 -15.829 -11.314  1.00  0.00    -0.000 C 
BRANCH  17  18
ATOM     18  C   UNL     1      -7.133 -16.377 -11.986  1.00  0.00    -0.000 C 
BRANCH  18  19
ATOM     19  C   UNL     1      -5.969 -15.373 -11.959  1.00  0.00    -0.003 C 
ATOM     20  C   UNL     1      -6.213 -14.210 -10.998  1.00  0.00     0.004 C 
ENDBRANCH  18  19
ENDBRANCH  17  18
ENDBRANCH  16  17
ENDBRANCH  15  16
ENDBRANCH  14  15
ENDBRANCH  13  14
ENDBRANCH   2  13
TORSDOF 15
ENDMDL
MODEL 6
REMARK VINA RESULT:    -4.720      2.616      6.106
REMARK INTER + INTRA:         -11.375
REMARK INTER:                  -9.330
REMARK INTRA:                  -2.045
REMARK UNBOUND:                -2.515
REMARK SMILES CCCCCCCCC=CCCCCCCCC(=O)[O-]
REMARK SMILES IDX 10 1 9 2 11 3 12 4 13 5 14 6 15 7 16 8 17 9 18 10 19 11
REMARK SMILES IDX 20 12 8 13 7 14 6 15 5 16 4 17 3 18 2 19 1 20
REMARK H PARENT
REMARK Flexibility Score: inf
ROOT
ATOM      1  C   UNL     1      -7.236 -19.587  -8.862  1.00  0.00    -0.031 C 
ATOM      2  C   UNL     1      -6.633 -18.598  -8.186  1.00  0.00    -0.031 C 
ENDROOT
BRANCH   1   3
ATOM      3  C   UNL     1      -7.028 -21.030  -8.498  1.00  0.00     0.027 C 
BRANCH   3   4
ATOM      4  C   UNL     1      -8.102 -21.922  -9.130  1.00  0.00     0.004 C 
BRANCH   4   5
ATOM      5  C   UNL     1      -8.142 -21.743 -10.652  1.00  0.00     0.000 C 
BRANCH   5   6
ATOM      6  C   UNL     1      -7.823 -23.062 -11.370  1.00  0.00     0.000 C 
BRANCH   6   7
ATOM      7  C   UNL     1      -6.633 -22.946 -12.339  1.00  0.00     0.000 C 
BRANCH   7   8
ATOM      8  C   UNL     1      -5.441 -22.129 -11.811  1.00  0.00     0.006 C 
BRANCH   8   9
ATOM      9  C   UNL     1      -4.094 -22.600 -12.377  1.00  0.00     0.053 C 
BRANCH   9  10
ATOM     10  C   UNL     1      -3.810 -21.921 -13.680  1.00  0.00     0.041 C 
ATOM     11  O   UNL     1      -3.504 -22.600 -14.695  1.00  0.00    -0.550 OA
ATOM     12  O   UNL     1      -3.929 -20.540 -13.785  1.00  0.00    -0.550 OA
ENDBRANCH   9  10
ENDBRANCH   8   9
ENDBRANCH   7   8
ENDBRANCH   6   7
ENDBRANCH   5   6
ENDBRANCH   4   5
ENDBRANCH   3   4
ENDBRANCH   1   3
BRANCH   2  13
ATOM     13  C   UNL     1      -6.885 -17.149  -8.506  1.00  0.00     0.027 C 
BRANCH  13  14
ATOM     14  C   UNL     1      -8.377 -16.878  -8.740  1.00  0.00     0.004 C 
BRANCH  14  15
ATOM     15  C   UNL     1      -8.630 -16.137 -10.064  1.00  0.00     0.000 C 
BRANCH  15  16
ATOM     16  C   UNL     1      -8.251 -16.978 -11.293  1.00  0.00     0.000 C 
BRANCH  16  17
ATOM     17  C   UNL     1      -7.399 -16.194 -12.304  1.00  0.00    -0.000 C 
BRANCH  17  18
ATOM     18  C   UNL     1      -5.939 -16.103 -11.837  1.00  0.00    -0.000 C 
BRANCH  18  19
ATOM     19  C   UNL     1      -5.059 -17.217 -12.426  1.00  0.00    -0.003 C 
ATOM     20  C   UNL     1      -4.780 -18.341 -11.428  1.00  0.00     0.004 C 
ENDBRANCH  18  19
ENDBRANCH  17  18
ENDBRANCH  16  17
ENDBRANCH  15  16
ENDBRANCH  14  15
ENDBRANCH  13  14
ENDBRANCH   2  13
TORSDOF 15
ENDMDL
MODEL 7
REMARK VINA RESULT:    -4.700      2.841      4.092
REMARK INTER + INTRA:         -11.337
REMARK INTER:                  -8.494
REMARK INTRA:                  -2.844
REMARK UNBOUND:                -2.515
REMARK SMILES CCCCCCCCC=CCCCCCCCC(=O)[O-]
REMARK SMILES IDX 10 1 9 2 11 3 12 4 13 5 14 6 15 7 16 8 17 9 18 10 19 11
REMARK SMILES IDX 20 12 8 13 7 14 6 15 5 16 4 17 3 18 2 19 1 20
REMARK H PARENT
REMARK Flexibility Score: inf
ROOT
ATOM      1  C   UNL     1      -4.695 -20.132 -11.213  1.00  0.00    -0.031 C 
ATOM      2  C   UNL     1      -3.639 -20.761 -10.676  1.00  0.00    -0.031 C 
ENDROOT
BRANCH   1   3
ATOM      3  C   UNL     1      -4.850 -18.640 -11.124  1.00  0.00     0.027 C 
BRANCH   3   4
ATOM      4  C   UNL     1      -6.191 -18.258 -10.485  1.00  0.00     0.004 C 
BRANCH   4   5
ATOM      5  C   UNL     1      -6.264 -18.738  -9.031  1.00  0.00     0.000 C 
BRANCH   5   6
ATOM      6  C   UNL     1      -7.350 -19.809  -8.859  1.00  0.00     0.000 C 
BRANCH   6   7
ATOM      7  C   UNL     1      -6.805 -21.134  -8.296  1.00  0.00     0.000 C 
BRANCH   7   8
ATOM      8  C   UNL     1      -7.082 -22.373  -9.166  1.00  0.00     0.006 C 
BRANCH   8   9
ATOM      9  C   UNL     1      -7.699 -22.023 -10.526  1.00  0.00     0.053 C 
BRANCH   9  10
ATOM     10  C   UNL     1      -7.445 -23.120 -11.512  1.00  0.00     0.041 C 
ATOM     11  O   UNL     1      -8.245 -24.088 -11.605  1.00  0.00    -0.550 OA
ATOM     12  O   UNL     1      -6.349 -23.048 -12.364  1.00  0.00    -0.550 OA
ENDBRANCH   9  10
ENDBRANCH   8   9
ENDBRANCH   7   8
ENDBRANCH   6   7
ENDBRANCH   5   6
ENDBRANCH   4   5
ENDBRANCH   3   4
ENDBRANCH   1   3
BRANCH   2  13
ATOM     13  C   UNL     1      -3.446 -22.247 -10.816  1.00  0.00     0.027 C 
BRANCH  13  14
ATOM     14  C   UNL     1      -2.206 -22.576 -11.657  1.00  0.00     0.004 C 
BRANCH  14  15
ATOM     15  C   UNL     1      -2.568 -23.301 -12.965  1.00  0.00     0.000 C 
BRANCH  15  16
ATOM     16  C   UNL     1      -3.175 -22.358 -14.015  1.00  0.00     0.000 C 
BRANCH  16  17
ATOM     17  C   UNL     1      -2.281 -21.141 -14.301  1.00  0.00    -0.000 C 
BRANCH  17  18
ATOM     18  C   UNL     1      -3.122 -19.863 -14.437  1.00  0.00    -0.000 C 
BRANCH  18  19
ATOM     19  C   UNL     1      -2.326 -18.593 -14.101  1.00  0.00    -0.003 C 
ATOM     20  C   UNL     1      -1.445 -18.758 -12.862  1.00  0.00     0.004 C 
ENDBRANCH  18  19
ENDBRANCH  17  18
ENDBRANCH  16  17
ENDBRANCH  15  16
ENDBRANCH  14  15
ENDBRANCH  13  14
ENDBRANCH   2  13
TORSDOF 15
ENDMDL
MODEL 8
REMARK VINA RESULT:    -4.678      2.243      4.389
REMARK INTER + INTRA:         -11.295
REMARK INTER:                  -8.722
REMARK INTRA:                  -2.574
REMARK UNBOUND:                -2.515
REMARK SMILES CCCCCCCCC=CCCCCCCCC(=O)[O-]
REMARK SMILES IDX 10 1 9 2 11 3 12 4 13 5 14 6 15 7 16 8 17 9 18 10 19 11
REMARK SMILES IDX 20 12 8 13 7 14 6 15 5 16 4 17 3 18 2 19 1 20
REMARK H PARENT
REMARK Flexibility Score: inf
ROOT
ATOM      1  C   UNL     1      -4.554 -18.217 -12.281  1.00  0.00    -0.031 C 
ATOM      2  C   UNL     1      -3.533 -18.768 -11.607  1.00  0.00    -0.031 C 
ENDROOT
BRANCH   1   3
ATOM      3  C   UNL     1      -4.397 -16.923 -13.028  1.00  0.00     0.027 C 
BRANCH   3   4
ATOM      4  C   UNL     1      -4.990 -15.750 -12.238  1.00  0.00     0.004 C 
BRANCH   4   5
ATOM      5  C   UNL     1      -6.522 -15.763 -12.301  1.00  0.00     0.000 C 
BRANCH   5   6
ATOM      6  C   UNL     1      -7.130 -15.654 -10.895  1.00  0.00     0.000 C 
BRANCH   6   7
ATOM      7  C   UNL     1      -6.152 -16.072  -9.782  1.00  0.00     0.000 C 
BRANCH   7   8
ATOM      8  C   UNL     1      -6.556 -17.336  -9.002  1.00  0.00     0.006 C 
BRANCH   8   9
ATOM      9  C   UNL     1      -7.439 -18.287  -9.820  1.00  0.00     0.053 C 
BRANCH   9  10
ATOM     10  C   UNL     1      -7.191 -19.707  -9.418  1.00  0.00     0.041 C 
ATOM     11  O   UNL     1      -7.132 -20.019  -8.200  1.00  0.00    -0.550 OA
ATOM     12  O   UNL     1      -7.072 -20.694 -10.389  1.00  0.00    -0.550 OA
ENDBRANCH   9  10
ENDBRANCH   8   9
ENDBRANCH   7   8
ENDBRANCH   6   7
ENDBRANCH   5   6
ENDBRANCH   4   5
ENDBRANCH   3   4
ENDBRANCH   1   3
BRANCH   2  13
ATOM     13  C   UNL     1      -3.668 -20.095 -10.909  1.00  0.00     0.027 C 
BRANCH  13  14
ATOM     14  C   UNL     1      -2.372 -20.910 -10.999  1.00  0.00     0.004 C 
BRANCH  14  15
ATOM     15  C   UNL     1      -2.635 -22.425 -10.941  1.00  0.00     0.000 C 
BRANCH  15  16
ATOM     16  C   UNL     1      -3.126 -22.991 -12.283  1.00  0.00     0.000 C 
BRANCH  16  17
ATOM     17  C   UNL     1      -2.387 -22.384 -13.485  1.00  0.00    -0.000 C 
BRANCH  17  18
ATOM     18  C   UNL     1      -3.381 -21.823 -14.513  1.00  0.00    -0.000 C 
BRANCH  18  19
ATOM     19  C   UNL     1      -3.047 -20.383 -14.933  1.00  0.00    -0.003 C 
ATOM     20  C   UNL     1      -1.611 -19.985 -14.592  1.00  0.00     0.004 C 
ENDBRANCH  18  19
ENDBRANCH  17  18
ENDBRANCH  16  17
ENDBRANCH  15  16
ENDBRANCH  14  15
ENDBRANCH  13  14
ENDBRANCH   2  13
TORSDOF 15
ENDMDL
MODEL 9
REMARK VINA RESULT:    -4.663      3.350      6.027
REMARK INTER + INTRA:         -11.268
REMARK INTER:                  -9.070
REMARK INTRA:                  -2.198
REMARK UNBOUND:                -2.515
REMARK SMILES CCCCCCCCC=CCCCCCCCC(=O)[O-]
REMARK SMILES IDX 10 1 9 2 11 3 12 4 13 5 14 6 15 7 16 8 17 9 18 10 19 11
REMARK SMILES IDX 20 12 8 13 7 14 6 15 5 16 4 17 3 18 2 19 1 20
REMARK H PARENT
REMARK Flexibility Score: inf
ROOT
ATOM      1  C   UNL     1      -6.146 -17.598  -8.848  1.00  0.00    -0.031 C 
ATOM      2  C   UNL     1      -6.517 -16.861  -9.905  1.00  0.00    -0.031 C 
ENDROOT
BRANCH   1   3
ATOM      3  C   UNL     1      -6.500 -19.054  -8.741  1.00  0.00     0.027 C 
BRANCH   3   4
ATOM      4  C   UNL     1      -6.908 -19.628 -10.103  1.00  0.00     0.004 C 
BRANCH   4   5
ATOM      5  C   UNL     1      -7.663 -20.952  -9.939  1.00  0.00     0.000 C 
BRANCH   5   6
ATOM      6  C   UNL     1      -7.058 -22.044 -10.833  1.00  0.00     0.000 C 
BRANCH   6   7
ATOM      7  C   UNL     1      -5.654 -21.687 -11.354  1.00  0.00     0.000 C 
BRANCH   7   8
ATOM      8  C   UNL     1      -5.082 -22.660 -12.400  1.00  0.00     0.006 C 
BRANCH   8   9
ATOM      9  C   UNL     1      -4.078 -21.994 -13.350  1.00  0.00     0.053 C 
BRANCH   9  10
ATOM     10  C   UNL     1      -2.851 -22.839 -13.490  1.00  0.00     0.041 C 
ATOM     11  O   UNL     1      -1.970 -22.831 -12.590  1.00  0.00    -0.550 OA
ATOM     12  O   UNL     1      -2.703 -23.673 -14.591  1.00  0.00    -0.550 OA
ENDBRANCH   9  10
ENDBRANCH   8   9
ENDBRANCH   7   8
ENDBRANCH   6   7
ENDBRANCH   5   6
ENDBRANCH   4   5
ENDBRANCH   3   4
ENDBRANCH   1   3
BRANCH   2  13
ATOM     13  C   UNL     1      -6.112 -15.418 -10.047  1.00  0.00     0.027 C 
BRANCH  13  14
ATOM     14  C   UNL     1      -6.480 -14.865 -11.430  1.00  0.00     0.004 C 
BRANCH  14  15
ATOM     15  C   UNL     1      -6.052 -15.810 -12.565  1.00  0.00     0.000 C 
BRANCH  15  16
ATOM     16  C   UNL     1      -4.529 -15.838 -12.768  1.00  0.00     0.000 C 
BRANCH  16  17
ATOM     17  C   UNL     1      -4.032 -17.184 -13.318  1.00  0.00    -0.000 C 
BRANCH  17  18
ATOM     18  C   UNL     1      -4.380 -18.331 -12.358  1.00  0.00    -0.000 C 
BRANCH  18  19
ATOM     19  C   UNL     1      -3.148 -18.881 -11.622  1.00  0.00    -0.003 C 
ATOM     20  C   UNL     1      -1.926 -19.012 -12.531  1.00  0.00     0.004 C 
ENDBRANCH  18  19
ENDBRANCH  17  18
ENDBRANCH  16  17
ENDBRANCH  15  16
ENDBRANCH  14  15
ENDBRANCH  13  14
ENDBRANCH   2  13
TORSDOF 15
ENDMDL
