MODEL 1
REMARK VINA RESULT:    -5.288      0.000      0.000
REMARK INTER + INTRA:         -10.415
REMARK INTER:                  -9.616
REMARK INTRA:                  -0.798
REMARK UNBOUND:                -0.798
REMARK SMILES CCCCCCCCCCCCCC[C@H](C)C(=O)[O-]
REMARK SMILES IDX 9 1 10 2 11 3 12 4 13 5 14 6 15 7 16 8 17 9 18 10 19 11 8 12
REMARK SMILES IDX 7 13 6 14 5 15 4 16 3 17 2 18 1 19
REMARK H PARENT
REMARK Flexibility Score: inf
ROOT
ATOM      1  C   UNL     1      27.522  36.755  33.313  1.00  0.00     0.000 C 
ENDROOT
BRANCH   1   2
ATOM      2  C   UNL     1      26.926  38.170  33.359  1.00  0.00     0.000 C 
BRANCH   2   3
ATOM      3  C   UNL     1      28.037  39.231  33.412  1.00  0.00     0.000 C 
BRANCH   3   4
ATOM      4  C   UNL     1      27.876  40.311  32.331  1.00  0.00     0.000 C 
BRANCH   4   5
ATOM      5  C   UNL     1      27.742  41.724  32.920  1.00  0.00     0.001 C 
BRANCH   5   6
ATOM      6  C   UNL     1      27.242  41.669  34.371  1.00  0.00     0.009 C 
BRANCH   6   7
ATOM      7  C   UNL     1      26.390  42.900  34.741  1.00  0.00     0.032 C 
ATOM      8  C   UNL     1      27.211  43.895  35.568  1.00  0.00     0.014 C 
BRANCH   7   9
ATOM      9  C   UNL     1      25.155  42.503  35.504  1.00  0.00     0.044 C 
ATOM     10  O   UNL     1      24.801  43.159  36.518  1.00  0.00    -0.550 OA
ATOM     11  O   UNL     1      24.400  41.409  35.099  1.00  0.00    -0.550 OA
ENDBRANCH   7   9
ENDBRANCH   6   7
ENDBRANCH   5   6
ENDBRANCH   4   5
ENDBRANCH   3   4
ENDBRANCH   2   3
ENDBRANCH   1   2
BRANCH   1  12
ATOM     12  C   UNL     1      27.870  36.296  31.885  1.00  0.00     0.000 C 
BRANCH  12  13
ATOM     13  C   UNL     1      28.409  34.858  31.778  1.00  0.00    -0.000 C 
BRANCH  13  14
ATOM     14  C   UNL     1      28.874  34.496  30.359  1.00  0.00    -0.000 C 
BRANCH  14  15
ATOM     15  C   UNL     1      27.678  34.130  29.467  1.00  0.00    -0.000 C 
BRANCH  15  16
ATOM     16  C   UNL     1      26.634  33.270  30.197  1.00  0.00    -0.000 C 
BRANCH  16  17
ATOM     17  C   UNL     1      25.232  33.903  30.181  1.00  0.00    -0.000 C 
BRANCH  17  18
ATOM     18  C   UNL     1      24.210  33.051  29.412  1.00  0.00    -0.003 C 
ATOM     19  C   UNL     1      24.862  31.929  28.603  1.00  0.00     0.004 C 
ENDBRANCH  17  18
ENDBRANCH  16  17
ENDBRANCH  15  16
ENDBRANCH  14  15
ENDBRANCH  13  14
ENDBRANCH  12  13
ENDBRANCH   1  12
TORSDOF 14
ENDMDL
MODEL 2
REMARK VINA RESULT:    -5.259      1.347      2.189
REMARK INTER + INTRA:         -10.361
REMARK INTER:                  -9.664
REMARK INTRA:                  -0.697
REMARK UNBOUND:                -0.798
REMARK SMILES CCCCCCCCCCCCCC[C@H](C)C(=O)[O-]
REMARK SMILES IDX 9 1 10 2 11 3 12 4 13 5 14 6 15 7 16 8 17 9 18 10 19 11 8 12
REMARK SMILES IDX 7 13 6 14 5 15 4 16 3 17 2 18 1 19
REMARK H PARENT
REMARK Flexibility Score: inf
ROOT
ATOM      1  C   UNL     1      27.777  35.829  32.660  1.00  0.00     0.000 C 
ENDROOT
BRANCH   1   2
ATOM      2  C   UNL     1      27.458  37.325  32.521  1.00  0.00     0.000 C 
BRANCH   2   3
ATOM      3  C   UNL     1      27.479  38.019  33.891  1.00  0.00     0.000 C 
BRANCH   3   4
ATOM      4  C   UNL     1      28.195  39.379  33.855  1.00  0.00     0.000 C 
BRANCH   4   5
ATOM      5  C   UNL     1      27.560  40.356  32.854  1.00  0.00     0.001 C 
BRANCH   5   6
ATOM      6  C   UNL     1      27.688  41.807  33.344  1.00  0.00     0.009 C 
BRANCH   6   7
ATOM      7  C   UNL     1      27.029  42.015  34.723  1.00  0.00     0.032 C 
ATOM      8  C   UNL     1      25.574  41.536  34.703  1.00  0.00     0.014 C 
BRANCH   7   9
ATOM      9  C   UNL     1      27.082  43.460  35.142  1.00  0.00     0.044 C 
ATOM     10  O   UNL     1      27.575  44.324  34.371  1.00  0.00    -0.550 OA
ATOM     11  O   UNL     1      26.591  43.851  36.382  1.00  0.00    -0.550 OA
ENDBRANCH   7   9
ENDBRANCH   6   7
ENDBRANCH   5   6
ENDBRANCH   4   5
ENDBRANCH   3   4
ENDBRANCH   2   3
ENDBRANCH   1   2
BRANCH   1  12
ATOM     12  C   UNL     1      28.168  35.171  31.323  1.00  0.00     0.000 C 
BRANCH  12  13
ATOM     13  C   UNL     1      27.644  33.738  31.126  1.00  0.00    -0.000 C 
BRANCH  13  14
ATOM     14  C   UNL     1      26.858  33.562  29.818  1.00  0.00    -0.000 C 
BRANCH  14  15
ATOM     15  C   UNL     1      25.410  34.052  29.978  1.00  0.00    -0.000 C 
BRANCH  15  16
ATOM     16  C   UNL     1      24.375  32.960  29.662  1.00  0.00    -0.000 C 
BRANCH  16  17
ATOM     17  C   UNL     1      24.891  31.935  28.637  1.00  0.00    -0.000 C 
BRANCH  17  18
ATOM     18  C   UNL     1      23.773  31.396  27.731  1.00  0.00    -0.003 C 
ATOM     19  C   UNL     1      23.503  32.294  26.523  1.00  0.00     0.004 C 
ENDBRANCH  17  18
ENDBRANCH  16  17
ENDBRANCH  15  16
ENDBRANCH  14  15
ENDBRANCH  13  14
ENDBRANCH  12  13
ENDBRANCH   1  12
TORSDOF 14
ENDMDL
MODEL 3
REMARK VINA RESULT:    -5.120      4.429      9.817
REMARK INTER + INTRA:         -10.108
REMARK INTER:                  -9.336
REMARK INTRA:                  -0.773
REMARK UNBOUND:                -0.798
REMARK SMILES CCCCCCCCCCCCCC[C@H](C)C(=O)[O-]
REMARK SMILES IDX 9 1 10 2 11 3 12 4 13 5 14 6 15 7 16 8 17 9 18 10 19 11 8 12
REMARK SMILES IDX 7 13 6 14 5 15 4 16 3 17 2 18 1 19
REMARK H PARENT
REMARK Flexibility Score: inf
ROOT
ATOM      1  C   UNL     1      26.982  36.235  31.573  1.00  0.00     0.000 C 
ENDROOT
BRANCH   1   2
ATOM      2  C   UNL     1      28.084  35.453  30.843  1.00  0.00     0.000 C 
BRANCH   2   3
ATOM      3  C   UNL     1      27.484  34.539  29.763  1.00  0.00     0.000 C 
BRANCH   3   4
ATOM      4  C   UNL     1      26.653  33.389  30.355  1.00  0.00     0.000 C 
BRANCH   4   5
ATOM      5  C   UNL     1      25.175  33.452  29.941  1.00  0.00     0.001 C 
BRANCH   5   6
ATOM      6  C   UNL     1      24.850  32.374  28.895  1.00  0.00     0.009 C 
BRANCH   6   7
ATOM      7  C   UNL     1      23.365  31.961  28.926  1.00  0.00     0.032 C 
ATOM      8  C   UNL     1      23.227  30.475  29.272  1.00  0.00     0.014 C 
BRANCH   7   9
ATOM      9  C   UNL     1      22.692  32.241  27.609  1.00  0.00     0.044 C 
ATOM     10  O   UNL     1      21.436  32.299  27.542  1.00  0.00    -0.550 OA
ATOM     11  O   UNL     1      23.448  32.435  26.459  1.00  0.00    -0.550 OA
ENDBRANCH   7   9
ENDBRANCH   6   7
ENDBRANCH   5   6
ENDBRANCH   4   5
ENDBRANCH   3   4
ENDBRANCH   2   3
ENDBRANCH   1   2
BRANCH   1  12
ATOM     12  C   UNL     1      27.449  37.619  32.059  1.00  0.00     0.000 C 
BRANCH  12  13
ATOM     13  C   UNL     1      27.490  37.792  33.588  1.00  0.00    -0.000 C 
BRANCH  13  14
ATOM     14  C   UNL     1      27.852  39.221  34.021  1.00  0.00    -0.000 C 
BRANCH  14  15
ATOM     15  C   UNL     1      28.059  40.128  32.798  1.00  0.00    -0.000 C 
BRANCH  15  16
ATOM     16  C   UNL     1      27.577  41.568  33.038  1.00  0.00    -0.000 C 
BRANCH  16  17
ATOM     17  C   UNL     1      26.680  41.692  34.282  1.00  0.00    -0.000 C 
BRANCH  17  18
ATOM     18  C   UNL     1      26.950  42.979  35.076  1.00  0.00    -0.003 C 
ATOM     19  C   UNL     1      28.408  43.110  35.517  1.00  0.00     0.004 C 
ENDBRANCH  17  18
ENDBRANCH  16  17
ENDBRANCH  15  16
ENDBRANCH  14  15
ENDBRANCH  13  14
ENDBRANCH  12  13
ENDBRANCH   1  12
TORSDOF 14
ENDMDL
MODEL 4
REMARK VINA RESULT:    -5.115      2.843      4.654
REMARK INTER + INTRA:         -10.100
REMARK INTER:                  -9.541
REMARK INTRA:                  -0.559
REMARK UNBOUND:                -0.798
REMARK SMILES CCCCCCCCCCCCCC[C@H](C)C(=O)[O-]
REMARK SMILES IDX 9 1 10 2 11 3 12 4 13 5 14 6 15 7 16 8 17 9 18 10 19 11 8 12
REMARK SMILES IDX 7 13 6 14 5 15 4 16 3 17 2 18 1 19
REMARK H PARENT
REMARK Flexibility Score: inf
ROOT
ATOM      1  C   UNL     1      27.383  41.045  33.595  1.00  0.00     0.000 C 
ENDROOT
BRANCH   1   2
ATOM      2  C   UNL     1      27.116  42.086  34.692  1.00  0.00     0.000 C 
BRANCH   2   3
ATOM      3  C   UNL     1      25.634  42.086  35.098  1.00  0.00     0.000 C 
BRANCH   3   4
ATOM      4  C   UNL     1      25.180  43.434  35.682  1.00  0.00     0.000 C 
BRANCH   4   5
ATOM      5  C   UNL     1      23.693  43.719  35.426  1.00  0.00     0.001 C 
BRANCH   5   6
ATOM      6  C   UNL     1      23.159  44.776  36.406  1.00  0.00     0.009 C 
BRANCH   6   7
ATOM      7  C   UNL     1      22.361  45.884  35.690  1.00  0.00     0.032 C 
ATOM      8  C   UNL     1      22.097  47.058  36.640  1.00  0.00     0.014 C 
BRANCH   7   9
ATOM      9  C   UNL     1      21.055  45.360  35.156  1.00  0.00     0.044 C 
ATOM     10  O   UNL     1      20.184  44.912  35.946  1.00  0.00    -0.550 OA
ATOM     11  O   UNL     1      20.801  45.365  33.789  1.00  0.00    -0.550 OA
ENDBRANCH   7   9
ENDBRANCH   6   7
ENDBRANCH   5   6
ENDBRANCH   4   5
ENDBRANCH   3   4
ENDBRANCH   2   3
ENDBRANCH   1   2
BRANCH   1  12
ATOM     12  C   UNL     1      28.054  39.766  34.130  1.00  0.00     0.000 C 
BRANCH  12  13
ATOM     13  C   UNL     1      27.420  38.449  33.648  1.00  0.00    -0.000 C 
BRANCH  13  14
ATOM     14  C   UNL     1      27.578  38.225  32.137  1.00  0.00    -0.000 C 
BRANCH  14  15
ATOM     15  C   UNL     1      27.267  36.767  31.763  1.00  0.00    -0.000 C 
BRANCH  15  16
ATOM     16  C   UNL     1      27.680  35.772  32.859  1.00  0.00    -0.000 C 
BRANCH  16  17
ATOM     17  C   UNL     1      28.659  34.701  32.347  1.00  0.00    -0.000 C 
BRANCH  17  18
ATOM     18  C   UNL     1      27.956  33.380  31.998  1.00  0.00    -0.003 C 
ATOM     19  C   UNL     1      27.326  33.393  30.605  1.00  0.00     0.004 C 
ENDBRANCH  17  18
ENDBRANCH  16  17
ENDBRANCH  15  16
ENDBRANCH  14  15
ENDBRANCH  13  14
ENDBRANCH  12  13
ENDBRANCH   1  12
TORSDOF 14
ENDMDL
MODEL 5
REMARK VINA RESULT:    -5.087      4.199      8.229
REMARK INTER + INTRA:         -10.048
REMARK INTER:                  -8.840
REMARK INTRA:                  -1.208
REMARK UNBOUND:                -0.798
REMARK SMILES CCCCCCCCCCCCCC[C@H](C)C(=O)[O-]
REMARK SMILES IDX 9 1 10 2 11 3 12 4 13 5 14 6 15 7 16 8 17 9 18 10 19 11 8 12
REMARK SMILES IDX 7 13 6 14 5 15 4 16 3 17 2 18 1 19
REMARK H PARENT
REMARK Flexibility Score: inf
ROOT
ATOM      1  C   UNL     1      22.425  32.121  29.060  1.00  0.00     0.000 C 
ENDROOT
BRANCH   1   2
ATOM      2  C   UNL     1      23.566  32.166  28.034  1.00  0.00     0.000 C 
BRANCH   2   3
ATOM      3  C   UNL     1      24.930  32.257  28.735  1.00  0.00     0.000 C 
BRANCH   3   4
ATOM      4  C   UNL     1      24.955  33.317  29.848  1.00  0.00     0.000 C 
BRANCH   4   5
ATOM      5  C   UNL     1      26.363  33.875  30.103  1.00  0.00     0.001 C 
BRANCH   5   6
ATOM      6  C   UNL     1      26.295  35.291  30.697  1.00  0.00     0.009 C 
BRANCH   6   7
ATOM      7  C   UNL     1      27.692  35.854  31.023  1.00  0.00     0.032 C 
ATOM      8  C   UNL     1      28.662  34.720  31.373  1.00  0.00     0.014 C 
BRANCH   7   9
ATOM      9  C   UNL     1      27.634  36.840  32.159  1.00  0.00     0.044 C 
ATOM     10  O   UNL     1      27.599  36.432  33.349  1.00  0.00    -0.550 OA
ATOM     11  O   UNL     1      27.615  38.206  31.903  1.00  0.00    -0.550 OA
ENDBRANCH   7   9
ENDBRANCH   6   7
ENDBRANCH   5   6
ENDBRANCH   4   5
ENDBRANCH   3   4
ENDBRANCH   2   3
ENDBRANCH   1   2
BRANCH   1  12
ATOM     12  C   UNL     1      22.138  30.699  29.578  1.00  0.00     0.000 C 
BRANCH  12  13
ATOM     13  C   UNL     1      20.930  30.583  30.524  1.00  0.00    -0.000 C 
BRANCH  13  14
ATOM     14  C   UNL     1      19.884  29.567  30.040  1.00  0.00    -0.000 C 
BRANCH  14  15
ATOM     15  C   UNL     1      19.956  29.391  28.515  1.00  0.00    -0.000 C 
BRANCH  15  16
ATOM     16  C   UNL     1      18.720  29.950  27.793  1.00  0.00    -0.000 C 
BRANCH  16  17
ATOM     17  C   UNL     1      17.761  30.684  28.746  1.00  0.00    -0.000 C 
BRANCH  17  18
ATOM     18  C   UNL     1      17.606  32.172  28.395  1.00  0.00    -0.003 C 
ATOM     19  C   UNL     1      18.931  32.934  28.442  1.00  0.00     0.004 C 
ENDBRANCH  17  18
ENDBRANCH  16  17
ENDBRANCH  15  16
ENDBRANCH  14  15
ENDBRANCH  13  14
ENDBRANCH  12  13
ENDBRANCH   1  12
TORSDOF 14
ENDMDL
MODEL 6
REMARK VINA RESULT:    -4.999      4.968      9.596
REMARK INTER + INTRA:          -9.888
REMARK INTER:                  -8.817
REMARK INTRA:                  -1.071
REMARK UNBOUND:                -0.798
REMARK SMILES CCCCCCCCCCCCCC[C@H](C)C(=O)[O-]
REMARK SMILES IDX 9 1 10 2 11 3 12 4 13 5 14 6 15 7 16 8 17 9 18 10 19 11 8 12
REMARK SMILES IDX 7 13 6 14 5 15 4 16 3 17 2 18 1 19
REMARK H PARENT
REMARK Flexibility Score: inf
ROOT
ATOM      1  C   UNL     1      25.722  34.246  30.242  1.00  0.00     0.000 C 
ENDROOT
BRANCH   1   2
ATOM      2  C   UNL     1      24.487  33.421  29.848  1.00  0.00     0.000 C 
BRANCH   2   3
ATOM      3  C   UNL     1      24.850  32.361  28.796  1.00  0.00     0.000 C 
BRANCH   3   4
ATOM      4  C   UNL     1      23.612  31.689  28.182  1.00  0.00     0.000 C 
BRANCH   4   5
ATOM      5  C   UNL     1      23.361  30.282  28.746  1.00  0.00     0.001 C 
BRANCH   5   6
ATOM      6  C   UNL     1      21.991  30.203  29.438  1.00  0.00     0.009 C 
BRANCH   6   7
ATOM      7  C   UNL     1      21.335  31.590  29.592  1.00  0.00     0.032 C 
ATOM      8  C   UNL     1      20.850  31.801  31.030  1.00  0.00     0.014 C 
BRANCH   7   9
ATOM      9  C   UNL     1      20.183  31.760  28.638  1.00  0.00     0.044 C 
ATOM     10  O   UNL     1      19.859  32.908  28.237  1.00  0.00    -0.550 OA
ATOM     11  O   UNL     1      19.469  30.653  28.194  1.00  0.00    -0.550 OA
ENDBRANCH   7   9
ENDBRANCH   6   7
ENDBRANCH   5   6
ENDBRANCH   4   5
ENDBRANCH   3   4
ENDBRANCH   2   3
ENDBRANCH   1   2
BRANCH   1  12
ATOM     12  C   UNL     1      27.049  33.541  29.904  1.00  0.00     0.000 C 
BRANCH  12  13
ATOM     13  C   UNL     1      28.229  33.901  30.823  1.00  0.00    -0.000 C 
BRANCH  13  14
ATOM     14  C   UNL     1      28.155  33.211  32.193  1.00  0.00    -0.000 C 
BRANCH  14  15
ATOM     15  C   UNL     1      28.093  34.248  33.326  1.00  0.00    -0.000 C 
BRANCH  15  16
ATOM     16  C   UNL     1      27.777  35.664  32.819  1.00  0.00    -0.000 C 
BRANCH  16  17
ATOM     17  C   UNL     1      27.330  36.610  33.947  1.00  0.00    -0.000 C 
BRANCH  17  18
ATOM     18  C   UNL     1      27.581  38.087  33.610  1.00  0.00    -0.003 C 
ATOM     19  C   UNL     1      27.678  38.345  32.106  1.00  0.00     0.004 C 
ENDBRANCH  17  18
ENDBRANCH  16  17
ENDBRANCH  15  16
ENDBRANCH  14  15
ENDBRANCH  13  14
ENDBRANCH  12  13
ENDBRANCH   1  12
TORSDOF 14
ENDMDL
MODEL 7
REMARK VINA RESULT:    -4.980      5.267      8.971
REMARK INTER + INTRA:          -9.853
REMARK INTER:                  -9.134
REMARK INTRA:                  -0.719
REMARK UNBOUND:                -0.798
REMARK SMILES CCCCCCCCCCCCCC[C@H](C)C(=O)[O-]
REMARK SMILES IDX 9 1 10 2 11 3 12 4 13 5 14 6 15 7 16 8 17 9 18 10 19 11 8 12
REMARK SMILES IDX 7 13 6 14 5 15 4 16 3 17 2 18 1 19
REMARK H PARENT
REMARK Flexibility Score: inf
ROOT
ATOM      1  C   UNL     1      22.239  31.894  29.492  1.00  0.00     0.000 C 
ENDROOT
BRANCH   1   2
ATOM      2  C   UNL     1      23.241  32.011  28.335  1.00  0.00     0.000 C 
BRANCH   2   3
ATOM      3  C   UNL     1      24.658  32.283  28.863  1.00  0.00     0.000 C 
BRANCH   3   4
ATOM      4  C   UNL     1      24.699  33.432  29.883  1.00  0.00     0.000 C 
BRANCH   4   5
ATOM      5  C   UNL     1      26.131  33.889  30.203  1.00  0.00     0.001 C 
BRANCH   5   6
ATOM      6  C   UNL     1      26.152  35.359  30.652  1.00  0.00     0.009 C 
BRANCH   6   7
ATOM      7  C   UNL     1      27.586  35.880  30.873  1.00  0.00     0.032 C 
ATOM      8  C   UNL     1      28.473  35.546  29.669  1.00  0.00     0.014 C 
BRANCH   7   9
ATOM      9  C   UNL     1      28.192  35.302  32.124  1.00  0.00     0.044 C 
ATOM     10  O   UNL     1      27.790  35.683  33.255  1.00  0.00    -0.550 OA
ATOM     11  O   UNL     1      29.197  34.345  32.042  1.00  0.00    -0.550 OA
ENDBRANCH   7   9
ENDBRANCH   6   7
ENDBRANCH   5   6
ENDBRANCH   4   5
ENDBRANCH   3   4
ENDBRANCH   2   3
ENDBRANCH   1   2
BRANCH   1  12
ATOM     12  C   UNL     1      21.744  30.452  29.715  1.00  0.00     0.000 C 
BRANCH  12  13
ATOM     13  C   UNL     1      20.424  30.331  30.497  1.00  0.00    -0.000 C 
BRANCH  13  14
ATOM     14  C   UNL     1      19.267  29.796  29.641  1.00  0.00    -0.000 C 
BRANCH  14  15
ATOM     15  C   UNL     1      18.948  30.758  28.486  1.00  0.00    -0.000 C 
BRANCH  15  16
ATOM     16  C   UNL     1      17.451  30.799  28.143  1.00  0.00    -0.000 C 
BRANCH  16  17
ATOM     17  C   UNL     1      16.867  32.221  28.207  1.00  0.00    -0.000 C 
BRANCH  17  18
ATOM     18  C   UNL     1      15.453  32.251  28.807  1.00  0.00    -0.003 C 
ATOM     19  C   UNL     1      14.963  30.868  29.239  1.00  0.00     0.004 C 
ENDBRANCH  17  18
ENDBRANCH  16  17
ENDBRANCH  15  16
ENDBRANCH  14  15
ENDBRANCH  13  14
ENDBRANCH  12  13
ENDBRANCH   1  12
TORSDOF 14
ENDMDL
MODEL 8
REMARK VINA RESULT:    -4.893     10.993     14.740
REMARK INTER + INTRA:          -9.697
REMARK INTER:                  -7.281
REMARK INTRA:                  -2.416
REMARK UNBOUND:                -0.798
REMARK SMILES CCCCCCCCCCCCCC[C@H](C)C(=O)[O-]
REMARK SMILES IDX 9 1 10 2 11 3 12 4 13 5 14 6 15 7 16 8 17 9 18 10 19 11 8 12
REMARK SMILES IDX 7 13 6 14 5 15 4 16 3 17 2 18 1 19
REMARK H PARENT
REMARK Flexibility Score: inf
ROOT
ATOM      1  C   UNL     1      12.527  30.379  27.911  1.00  0.00     0.000 C 
ENDROOT
BRANCH   1   2
ATOM      2  C   UNL     1      14.037  30.101  27.942  1.00  0.00     0.000 C 
BRANCH   2   3
ATOM      3  C   UNL     1      14.688  30.747  29.175  1.00  0.00     0.000 C 
BRANCH   3   4
ATOM      4  C   UNL     1      16.155  31.138  28.934  1.00  0.00     0.000 C 
BRANCH   4   5
ATOM      5  C   UNL     1      16.740  30.493  27.668  1.00  0.00     0.001 C 
BRANCH   5   6
ATOM      6  C   UNL     1      18.249  30.760  27.562  1.00  0.00     0.009 C 
BRANCH   6   7
ATOM      7  C   UNL     1      18.757  31.687  28.685  1.00  0.00     0.032 C 
ATOM      8  C   UNL     1      19.258  33.013  28.103  1.00  0.00     0.014 C 
BRANCH   7   9
ATOM      9  C   UNL     1      19.856  31.034  29.478  1.00  0.00     0.044 C 
ATOM     10  O   UNL     1      20.974  31.601  29.594  1.00  0.00    -0.550 OA
ATOM     11  O   UNL     1      19.647  29.802  30.087  1.00  0.00    -0.550 OA
ENDBRANCH   7   9
ENDBRANCH   6   7
ENDBRANCH   5   6
ENDBRANCH   4   5
ENDBRANCH   3   4
ENDBRANCH   2   3
ENDBRANCH   1   2
BRANCH   1  12
ATOM     12  C   UNL     1      12.153  31.737  28.535  1.00  0.00     0.000 C 
BRANCH  12  13
ATOM     13  C   UNL     1      11.498  32.738  27.567  1.00  0.00    -0.000 C 
BRANCH  13  14
ATOM     14  C   UNL     1      12.269  34.063  27.462  1.00  0.00    -0.000 C 
BRANCH  14  15
ATOM     15  C   UNL     1      13.485  34.065  28.402  1.00  0.00    -0.000 C 
BRANCH  15  16
ATOM     16  C   UNL     1      14.812  34.276  27.656  1.00  0.00    -0.000 C 
BRANCH  16  17
ATOM     17  C   UNL     1      14.821  33.615  26.267  1.00  0.00    -0.000 C 
BRANCH  17  18
ATOM     18  C   UNL     1      16.240  33.451  25.702  1.00  0.00    -0.003 C 
ATOM     19  C   UNL     1      16.275  33.455  24.174  1.00  0.00     0.004 C 
ENDBRANCH  17  18
ENDBRANCH  16  17
ENDBRANCH  15  16
ENDBRANCH  14  15
ENDBRANCH  13  14
ENDBRANCH  12  13
ENDBRANCH   1  12
TORSDOF 14
ENDMDL
MODEL 9
REMARK VINA RESULT:    -4.892     12.482     15.606
REMARK INTER + INTRA:          -9.695
REMARK INTER:                  -6.871
REMARK INTRA:                  -2.824
REMARK UNBOUND:                -0.798
REMARK SMILES CCCCCCCCCCCCCC[C@H](C)C(=O)[O-]
REMARK SMILES IDX 9 1 10 2 11 3 12 4 13 5 14 6 15 7 16 8 17 9 18 10 19 11 8 12
REMARK SMILES IDX 7 13 6 14 5 15 4 16 3 17 2 18 1 19
REMARK H PARENT
REMARK Flexibility Score: inf
ROOT
ATOM      1  C   UNL     1      11.773  45.797  29.478  1.00  0.00     0.000 C 
ENDROOT
BRANCH   1   2
ATOM      2  C   UNL     1      12.245  47.013  30.289  1.00  0.00     0.000 C 
BRANCH   2   3
ATOM      3  C   UNL     1      13.609  46.740  30.941  1.00  0.00     0.000 C 
BRANCH   3   4
ATOM      4  C   UNL     1      14.340  45.545  30.307  1.00  0.00     0.000 C 
BRANCH   4   5
ATOM      5  C   UNL     1      15.156  44.740  31.330  1.00  0.00     0.001 C 
BRANCH   5   6
ATOM      6  C   UNL     1      15.927  45.674  32.277  1.00  0.00     0.009 C 
BRANCH   6   7
ATOM      7  C   UNL     1      16.903  44.903  33.188  1.00  0.00     0.032 C 
ATOM      8  C   UNL     1      16.278  44.664  34.567  1.00  0.00     0.014 C 
BRANCH   7   9
ATOM      9  C   UNL     1      18.206  45.641  33.343  1.00  0.00     0.044 C 
ATOM     10  O   UNL     1      19.225  45.261  32.710  1.00  0.00    -0.550 OA
ATOM     11  O   UNL     1      18.294  46.743  34.185  1.00  0.00    -0.550 OA
ENDBRANCH   7   9
ENDBRANCH   6   7
ENDBRANCH   5   6
ENDBRANCH   4   5
ENDBRANCH   3   4
ENDBRANCH   2   3
ENDBRANCH   1   2
BRANCH   1  12
ATOM     12  C   UNL     1      10.358  45.327  29.867  1.00  0.00     0.000 C 
BRANCH  12  13
ATOM     13  C   UNL     1      10.286  43.914  30.472  1.00  0.00    -0.000 C 
BRANCH  13  14
ATOM     14  C   UNL     1      11.481  43.032  30.081  1.00  0.00    -0.000 C 
BRANCH  14  15
ATOM     15  C   UNL     1      12.258  42.578  31.327  1.00  0.00    -0.000 C 
BRANCH  15  16
ATOM     16  C   UNL     1      11.614  43.059  32.637  1.00  0.00    -0.000 C 
BRANCH  16  17
ATOM     17  C   UNL     1      12.656  43.481  33.687  1.00  0.00    -0.000 C 
BRANCH  17  18
ATOM     18  C   UNL     1      12.616  44.989  33.981  1.00  0.00    -0.003 C 
ATOM     19  C   UNL     1      11.241  45.608  33.727  1.00  0.00     0.004 C 
ENDBRANCH  17  18
ENDBRANCH  16  17
ENDBRANCH  15  16
ENDBRANCH  14  15
ENDBRANCH  13  14
ENDBRANCH  12  13
ENDBRANCH   1  12
TORSDOF 14
ENDMDL
