MODEL 1
REMARK VINA RESULT:    -3.158      0.000      0.000
REMARK INTER + INTRA:          -4.262
REMARK INTER:                  -4.450
REMARK INTRA:                   0.188
REMARK UNBOUND:                 0.188
REMARK SMILES CC1=CCC(=C(C)C)C(=O)CC(C)=CCC1
REMARK SMILES IDX 12 1 14 2 13 3 15 4 16 5 2 6 1 7 3 8 11 10 9 11 10 12 5 13
REMARK SMILES IDX 6 14 7 15 8 16 4 17
REMARK H PARENT
REMARK Flexibility Score: 60.00
ROOT
ATOM      1  C   UNL     1     -28.896 -17.868  19.815  1.00  0.00    -0.070 C 
ATOM      2  C   UNL     1     -29.975 -18.431  19.227  1.00  0.00    -0.027 C 
ATOM      3  C   UNL     1     -27.979 -17.034  18.956  1.00  0.00     0.039 C 
ENDROOT
BRANCH   2   4
ATOM      4  C   UNL     1     -30.952 -19.374  19.895  1.00  0.00     0.032 C 
BRANCH   4   5
ATOM      5  C   UNL     1     -31.975 -18.693  20.827  1.00  0.00     0.034 C 
BRANCH   5   6
ATOM      6  C   UNL     1     -32.025 -19.311  22.213  1.00  0.00    -0.077 C 
ATOM      7  C   UNL     1     -32.538 -20.725  22.333  1.00  0.00     0.039 C 
ATOM      8  C   UNL     1     -31.705 -18.654  23.355  1.00  0.00    -0.023 CG0
ATOM      9  G   UNL     1     -31.155 -17.247  23.477  1.00  0.00     0.000 G0
ENDBRANCH   5   6
ENDBRANCH   4   5
ENDBRANCH   2   4
BRANCH   1  10
ATOM     10  C   UNL     1     -28.516 -18.109  21.262  1.00  0.00     0.111 C 
BRANCH  10  11
ATOM     11  C   UNL     1     -28.972 -16.982  22.151  1.00  0.00     0.163 C 
ATOM     12  O   UNL     1     -28.741 -15.799  21.776  1.00  0.00    -0.294 OA
BRANCH  11  13
ATOM     13  C   UNL     1     -29.623 -17.216  23.474  1.00  0.00    -0.002 C 
ATOM     14  C   UNL     1     -28.871 -17.476  24.587  1.00  0.00    -0.069 C 
ATOM     15  C   UNL     1     -29.502 -17.873  25.903  1.00  0.00     0.039 C 
ATOM     16  C   UNL     1     -27.361 -17.380  24.553  1.00  0.00     0.039 C 
BRANCH  13  17
ATOM     17  C   UNL     1     -31.142 -17.247  23.505  1.00  0.00     0.066 CG0
ATOM     18  G   UNL     1     -31.694 -18.650  23.341  1.00  0.00     0.000 G0
ENDBRANCH  13  17
ENDBRANCH  11  13
ENDBRANCH  10  11
ENDBRANCH   1  10
TORSDOF 0
ENDMDL
MODEL 2
REMARK VINA RESULT:    -3.061      1.529      2.468
REMARK INTER + INTRA:          -4.126
REMARK INTER:                  -4.298
REMARK INTRA:                   0.172
REMARK UNBOUND:                 0.188
REMARK SMILES CC1=CCC(=C(C)C)C(=O)CC(C)=CCC1
REMARK SMILES IDX 12 1 14 2 13 3 15 4 16 5 2 6 1 7 3 8 11 10 9 11 10 12 5 13
REMARK SMILES IDX 6 14 7 15 8 16 4 17
REMARK H PARENT
REMARK Flexibility Score: 60.00
ROOT
ATOM      1  C   UNL     1     -27.738 -17.672  21.715  1.00  0.00    -0.070 C 
ATOM      2  C   UNL     1     -28.160 -18.323  20.608  1.00  0.00    -0.027 C 
ATOM      3  C   UNL     1     -26.401 -18.059  22.295  1.00  0.00     0.039 C 
ENDROOT
BRANCH   2   4
ATOM      4  C   UNL     1     -29.506 -18.146  19.939  1.00  0.00     0.032 C 
BRANCH   4   5
ATOM      5  C   UNL     1     -30.590 -19.148  20.388  1.00  0.00     0.034 C 
BRANCH   5   6
ATOM      6  C   UNL     1     -31.882 -18.479  20.819  1.00  0.00    -0.077 C 
ATOM      7  C   UNL     1     -32.851 -18.064  19.740  1.00  0.00     0.039 C 
ATOM      8  C   UNL     1     -32.190 -18.166  22.102  1.00  0.00    -0.023 CG0
ATOM      9  G   UNL     1     -31.384 -18.498  23.342  1.00  0.00     0.000 G0
ENDBRANCH   5   6
ENDBRANCH   4   5
ENDBRANCH   2   4
BRANCH   1  10
ATOM     10  C   UNL     1     -28.578 -16.645  22.447  1.00  0.00     0.111 C 
BRANCH  10  11
ATOM     11  C   UNL     1     -29.177 -17.212  23.707  1.00  0.00     0.163 C 
ATOM     12  O   UNL     1     -28.393 -17.685  24.576  1.00  0.00    -0.294 OA
BRANCH  11  13
ATOM     13  C   UNL     1     -30.651 -17.290  23.930  1.00  0.00    -0.002 C 
ATOM     14  C   UNL     1     -31.294 -16.351  24.688  1.00  0.00    -0.069 C 
ATOM     15  C   UNL     1     -32.753 -16.489  25.064  1.00  0.00     0.039 C 
ATOM     16  C   UNL     1     -30.570 -15.122  25.196  1.00  0.00     0.039 C 
BRANCH  13  17
ATOM     17  C   UNL     1     -31.377 -18.498  23.361  1.00  0.00     0.066 CG0
ATOM     18  G   UNL     1     -32.183 -18.157  22.124  1.00  0.00     0.000 G0
ENDBRANCH  13  17
ENDBRANCH  11  13
ENDBRANCH  10  11
ENDBRANCH   1  10
TORSDOF 0
ENDMDL
MODEL 3
REMARK VINA RESULT:    -3.001      4.799      7.702
REMARK INTER + INTRA:          -4.042
REMARK INTER:                  -4.597
REMARK INTRA:                   0.556
REMARK UNBOUND:                 0.188
REMARK SMILES CC1=CCC(=C(C)C)C(=O)CC(C)=CCC1
REMARK SMILES IDX 12 1 14 2 13 3 15 4 16 5 2 6 1 7 3 8 11 10 9 11 10 12 5 13
REMARK SMILES IDX 6 14 7 15 8 16 4 17
REMARK H PARENT
REMARK Flexibility Score: 60.00
ROOT
ATOM      1  C   UNL     1     -30.606 -17.299  28.330  1.00  0.00    -0.070 C 
ATOM      2  C   UNL     1     -29.381 -16.879  28.719  1.00  0.00    -0.027 C 
ATOM      3  C   UNL     1     -30.684 -18.498  27.419  1.00  0.00     0.039 C 
ENDROOT
BRANCH   2   4
ATOM      4  C   UNL     1     -29.093 -15.646  29.548  1.00  0.00     0.032 C 
BRANCH   4   5
ATOM      5  C   UNL     1     -28.201 -14.594  28.856  1.00  0.00     0.034 C 
BRANCH   5   6
ATOM      6  C   UNL     1     -28.973 -13.380  28.372  1.00  0.00    -0.077 C 
ATOM      7  C   UNL     1     -28.836 -12.102  29.161  1.00  0.00     0.039 C 
ATOM      8  C   UNL     1     -29.830 -13.388  27.322  1.00  0.00    -0.023 CG0
ATOM      9  G   UNL     1     -30.112 -14.542  26.380  1.00  0.00     0.000 G0
ENDBRANCH   5   6
ENDBRANCH   4   5
ENDBRANCH   2   4
BRANCH   1  10
ATOM     10  C   UNL     1     -31.887 -16.574  28.690  1.00  0.00     0.111 C 
BRANCH  10  11
ATOM     11  C   UNL     1     -32.021 -15.277  27.938  1.00  0.00     0.163 C 
ATOM     12  O   UNL     1     -32.631 -14.325  28.500  1.00  0.00    -0.294 OA
BRANCH  11  13
ATOM     13  C   UNL     1     -31.518 -15.102  26.544  1.00  0.00    -0.002 C 
ATOM     14  C   UNL     1     -32.259 -15.525  25.475  1.00  0.00    -0.069 C 
ATOM     15  C   UNL     1     -31.711 -15.508  24.065  1.00  0.00     0.039 C 
ATOM     16  C   UNL     1     -33.672 -16.039  25.653  1.00  0.00     0.039 C 
BRANCH  13  17
ATOM     17  C   UNL     1     -30.121 -14.527  26.375  1.00  0.00     0.066 CG0
ATOM     18  G   UNL     1     -29.849 -13.383  27.333  1.00  0.00     0.000 G0
ENDBRANCH  13  17
ENDBRANCH  11  13
ENDBRANCH  10  11
ENDBRANCH   1  10
TORSDOF 0
ENDMDL
MODEL 4
REMARK VINA RESULT:    -2.931      1.943      3.808
REMARK INTER + INTRA:          -3.942
REMARK INTER:                  -4.370
REMARK INTRA:                   0.428
REMARK UNBOUND:                 0.188
REMARK SMILES CC1=CCC(=C(C)C)C(=O)CC(C)=CCC1
REMARK SMILES IDX 12 1 14 2 13 3 15 4 16 5 2 6 1 7 3 8 11 10 9 11 10 12 5 13
REMARK SMILES IDX 6 14 7 15 8 16 4 17
REMARK H PARENT
REMARK Flexibility Score: 60.00
ROOT
ATOM      1  C   UNL     1     -31.642 -16.814  23.254  1.00  0.00    -0.070 C 
ATOM      2  C   UNL     1     -32.647 -17.233  22.454  1.00  0.00    -0.027 C 
ATOM      3  C   UNL     1     -31.821 -16.954  24.745  1.00  0.00     0.039 C 
ENDROOT
BRANCH   2   4
ATOM      4  C   UNL     1     -32.695 -17.089  20.948  1.00  0.00     0.032 C 
BRANCH   4   5
ATOM      5  C   UNL     1     -32.845 -18.416  20.175  1.00  0.00     0.034 C 
BRANCH   5   6
ATOM      6  C   UNL     1     -31.745 -19.416  20.485  1.00  0.00    -0.077 C 
ATOM      7  C   UNL     1     -32.155 -20.769  21.011  1.00  0.00     0.039 C 
ATOM      8  C   UNL     1     -30.419 -19.149  20.387  1.00  0.00    -0.023 CG0
ATOM      9  G   UNL     1     -29.779 -17.876  19.870  1.00  0.00     0.000 G0
ENDBRANCH   5   6
ENDBRANCH   4   5
ENDBRANCH   2   4
BRANCH   1  10
ATOM     10  C   UNL     1     -30.393 -16.131  22.733  1.00  0.00     0.111 C 
BRANCH  10  11
ATOM     11  C   UNL     1     -29.349 -17.129  22.310  1.00  0.00     0.163 C 
ATOM     12  O   UNL     1     -28.847 -17.875  23.195  1.00  0.00    -0.294 OA
BRANCH  11  13
ATOM     13  C   UNL     1     -28.850 -17.221  20.906  1.00  0.00    -0.002 C 
ATOM     14  C   UNL     1     -27.652 -16.665  20.552  1.00  0.00    -0.069 C 
ATOM     15  C   UNL     1     -27.193 -16.603  19.112  1.00  0.00     0.039 C 
ATOM     16  C   UNL     1     -26.721 -16.079  21.592  1.00  0.00     0.039 C 
BRANCH  13  17
ATOM     17  C   UNL     1     -29.768 -17.869  19.882  1.00  0.00     0.066 CG0
ATOM     18  G   UNL     1     -30.394 -19.149  20.398  1.00  0.00     0.000 G0
ENDBRANCH  13  17
ENDBRANCH  11  13
ENDBRANCH  10  11
ENDBRANCH   1  10
TORSDOF 0
ENDMDL
MODEL 5
REMARK VINA RESULT:    -2.852      2.148      4.056
REMARK INTER + INTRA:          -3.832
REMARK INTER:                  -3.993
REMARK INTRA:                   0.161
REMARK UNBOUND:                 0.188
REMARK SMILES CC1=CCC(=C(C)C)C(=O)CC(C)=CCC1
REMARK SMILES IDX 12 1 14 2 13 3 15 4 16 5 2 6 1 7 3 8 11 10 9 11 10 12 5 13
REMARK SMILES IDX 6 14 7 15 8 16 4 17
REMARK H PARENT
REMARK Flexibility Score: 60.00
ROOT
ATOM      1  C   UNL     1     -27.756 -17.166  22.324  1.00  0.00    -0.070 C 
ATOM      2  C   UNL     1     -27.265 -17.297  23.577  1.00  0.00    -0.027 C 
ATOM      3  C   UNL     1     -26.827 -16.655  21.252  1.00  0.00     0.039 C 
ENDROOT
BRANCH   2   4
ATOM      4  C   UNL     1     -28.061 -17.699  24.799  1.00  0.00     0.032 C 
BRANCH   4   5
ATOM      5  C   UNL     1     -28.821 -16.545  25.486  1.00  0.00     0.034 C 
BRANCH   5   6
ATOM      6  C   UNL     1     -30.253 -16.900  25.841  1.00  0.00    -0.077 C 
ATOM      7  C   UNL     1     -30.475 -17.901  26.948  1.00  0.00     0.039 C 
ATOM      8  C   UNL     1     -31.342 -16.431  25.184  1.00  0.00    -0.023 CG0
ATOM      9  G   UNL     1     -31.364 -15.412  24.062  1.00  0.00     0.000 G0
ENDBRANCH   5   6
ENDBRANCH   4   5
ENDBRANCH   2   4
BRANCH   1  10
ATOM     10  C   UNL     1     -29.207 -17.419  21.968  1.00  0.00     0.111 C 
BRANCH  10  11
ATOM     11  C   UNL     1     -30.016 -16.150  22.001  1.00  0.00     0.163 C 
ATOM     12  O   UNL     1     -29.522 -15.116  21.470  1.00  0.00    -0.294 OA
BRANCH  11  13
ATOM     13  C   UNL     1     -31.339 -16.059  22.688  1.00  0.00    -0.002 C 
ATOM     14  C   UNL     1     -32.483 -16.463  22.057  1.00  0.00    -0.069 C 
ATOM     15  C   UNL     1     -33.851 -16.238  22.662  1.00  0.00     0.039 C 
ATOM     16  C   UNL     1     -32.435 -17.156  20.713  1.00  0.00     0.039 C 
BRANCH  13  17
ATOM     17  C   UNL     1     -31.364 -15.417  24.065  1.00  0.00     0.066 CG0
ATOM     18  G   UNL     1     -31.337 -16.444  25.181  1.00  0.00     0.000 G0
ENDBRANCH  13  17
ENDBRANCH  11  13
ENDBRANCH  10  11
ENDBRANCH   1  10
TORSDOF 0
ENDMDL
MODEL 6
REMARK VINA RESULT:    -2.824      1.997      4.763
REMARK INTER + INTRA:          -3.792
REMARK INTER:                  -4.165
REMARK INTRA:                   0.372
REMARK UNBOUND:                 0.188
REMARK SMILES CC1=CCC(=C(C)C)C(=O)CC(C)=CCC1
REMARK SMILES IDX 12 1 14 2 13 3 15 4 16 5 2 6 1 7 3 8 11 10 9 11 10 12 5 13
REMARK SMILES IDX 6 14 7 15 8 16 4 17
REMARK H PARENT
REMARK Flexibility Score: 60.00
ROOT
ATOM      1  C   UNL     1     -28.225 -17.244  24.343  1.00  0.00    -0.070 C 
ATOM      2  C   UNL     1     -27.098 -17.561  23.669  1.00  0.00    -0.027 C 
ATOM      3  C   UNL     1     -28.453 -17.895  25.684  1.00  0.00     0.039 C 
ENDROOT
BRANCH   2   4
ATOM      4  C   UNL     1     -26.740 -17.090  22.276  1.00  0.00     0.032 C 
BRANCH   4   5
ATOM      5  C   UNL     1     -27.325 -17.944  21.132  1.00  0.00     0.034 C 
BRANCH   5   6
ATOM      6  C   UNL     1     -28.210 -17.152  20.187  1.00  0.00    -0.077 C 
ATOM      7  C   UNL     1     -27.535 -16.244  19.190  1.00  0.00     0.039 C 
ATOM      8  C   UNL     1     -29.565 -17.155  20.226  1.00  0.00    -0.023 CG0
ATOM      9  G   UNL     1     -30.452 -17.995  21.123  1.00  0.00     0.000 G0
ENDBRANCH   5   6
ENDBRANCH   4   5
ENDBRANCH   2   4
BRANCH   1  10
ATOM     10  C   UNL     1     -29.305 -16.342  23.780  1.00  0.00     0.111 C 
BRANCH  10  11
ATOM     11  C   UNL     1     -30.582 -17.097  23.526  1.00  0.00     0.163 C 
ATOM     12  O   UNL     1     -31.111 -17.712  24.493  1.00  0.00    -0.294 OA
BRANCH  11  13
ATOM     13  C   UNL     1     -31.202 -17.192  22.171  1.00  0.00    -0.002 C 
ATOM     14  C   UNL     1     -32.424 -16.631  21.920  1.00  0.00    -0.069 C 
ATOM     15  C   UNL     1     -33.147 -16.845  20.608  1.00  0.00     0.039 C 
ATOM     16  C   UNL     1     -33.117 -15.766  22.950  1.00  0.00     0.039 C 
BRANCH  13  17
ATOM     17  C   UNL     1     -30.464 -18.012  21.125  1.00  0.00     0.066 CG0
ATOM     18  G   UNL     1     -29.570 -17.158  20.248  1.00  0.00     0.000 G0
ENDBRANCH  13  17
ENDBRANCH  11  13
ENDBRANCH  10  11
ENDBRANCH   1  10
TORSDOF 0
ENDMDL
MODEL 7
REMARK VINA RESULT:    -2.772      3.232      5.584
REMARK INTER + INTRA:          -3.719
REMARK INTER:                  -4.004
REMARK INTRA:                   0.286
REMARK UNBOUND:                 0.188
REMARK SMILES CC1=CCC(=C(C)C)C(=O)CC(C)=CCC1
REMARK SMILES IDX 12 1 14 2 13 3 15 4 16 5 2 6 1 7 3 8 11 10 9 11 10 12 5 13
REMARK SMILES IDX 6 14 7 15 8 16 4 17
REMARK H PARENT
REMARK Flexibility Score: 60.00
ROOT
ATOM      1  C   UNL     1     -29.915 -16.953  27.262  1.00  0.00    -0.070 C 
ATOM      2  C   UNL     1     -29.530 -17.791  26.275  1.00  0.00    -0.027 C 
ATOM      3  C   UNL     1     -29.833 -17.451  28.683  1.00  0.00     0.039 C 
ENDROOT
BRANCH   2   4
ATOM      4  C   UNL     1     -29.629 -17.512  24.791  1.00  0.00     0.032 C 
BRANCH   4   5
ATOM      5  C   UNL     1     -30.802 -18.214  24.076  1.00  0.00     0.034 C 
BRANCH   5   6
ATOM      6  C   UNL     1     -31.555 -17.302  23.126  1.00  0.00    -0.077 C 
ATOM      7  C   UNL     1     -31.068 -17.215  21.701  1.00  0.00     0.039 C 
ATOM      8  C   UNL     1     -32.593 -16.508  23.489  1.00  0.00    -0.023 CG0
ATOM      9  G   UNL     1     -33.259 -16.441  24.849  1.00  0.00     0.000 G0
ENDBRANCH   5   6
ENDBRANCH   4   5
ENDBRANCH   2   4
BRANCH   1  10
ATOM     10  C   UNL     1     -30.505 -15.581  27.006  1.00  0.00     0.111 C 
BRANCH  10  11
ATOM     11  C   UNL     1     -32.008 -15.627  26.930  1.00  0.00     0.163 C 
ATOM     12  O   UNL     1     -32.642 -16.027  27.946  1.00  0.00    -0.294 OA
BRANCH  11  13
ATOM     13  C   UNL     1     -32.759 -15.281  25.688  1.00  0.00    -0.002 C 
ATOM     14  C   UNL     1     -33.038 -13.978  25.379  1.00  0.00    -0.069 C 
ATOM     15  C   UNL     1     -33.931 -13.605  24.216  1.00  0.00     0.039 C 
ATOM     16  C   UNL     1     -32.467 -12.839  26.195  1.00  0.00     0.039 C 
BRANCH  13  17
ATOM     17  C   UNL     1     -33.275 -16.435  24.842  1.00  0.00     0.066 CG0
ATOM     18  G   UNL     1     -32.596 -16.506  23.489  1.00  0.00     0.000 G0
ENDBRANCH  13  17
ENDBRANCH  11  13
ENDBRANCH  10  11
ENDBRANCH   1  10
TORSDOF 0
ENDMDL
MODEL 8
REMARK VINA RESULT:    -2.756      2.644      3.801
REMARK INTER + INTRA:          -3.696
REMARK INTER:                  -4.176
REMARK INTRA:                   0.481
REMARK UNBOUND:                 0.188
REMARK SMILES CC1=CCC(=C(C)C)C(=O)CC(C)=CCC1
REMARK SMILES IDX 12 1 14 2 13 3 15 4 16 5 2 6 1 7 3 8 11 10 9 11 10 12 5 13
REMARK SMILES IDX 6 14 7 15 8 16 4 17
REMARK H PARENT
REMARK Flexibility Score: 60.00
ROOT
ATOM      1  C   UNL     1     -31.168 -19.669  20.398  1.00  0.00    -0.070 C 
ATOM      2  C   UNL     1     -32.354 -19.296  19.867  1.00  0.00    -0.027 C 
ATOM      3  C   UNL     1     -31.172 -20.767  21.432  1.00  0.00     0.039 C 
ENDROOT
BRANCH   2   4
ATOM      4  C   UNL     1     -32.566 -18.156  18.895  1.00  0.00     0.032 C 
BRANCH   4   5
ATOM      5  C   UNL     1     -33.558 -17.074  19.371  1.00  0.00     0.034 C 
BRANCH   5   6
ATOM      6  C   UNL     1     -33.115 -16.377  20.645  1.00  0.00    -0.077 C 
ATOM      7  C   UNL     1     -34.108 -16.288  21.777  1.00  0.00     0.039 C 
ATOM      8  C   UNL     1     -31.914 -15.770  20.807  1.00  0.00    -0.023 CG0
ATOM      9  G   UNL     1     -30.762 -15.746  19.822  1.00  0.00     0.000 G0
ENDBRANCH   5   6
ENDBRANCH   4   5
ENDBRANCH   2   4
BRANCH   1  10
ATOM     10  C   UNL     1     -29.858 -18.980  20.074  1.00  0.00     0.111 C 
BRANCH  10  11
ATOM     11  C   UNL     1     -29.636 -17.771  20.943  1.00  0.00     0.163 C 
ATOM     12  O   UNL     1     -29.620 -17.934  22.194  1.00  0.00    -0.294 OA
BRANCH  11  13
ATOM     13  C   UNL     1     -29.499 -16.394  20.382  1.00  0.00    -0.002 C 
ATOM     14  C   UNL     1     -28.308 -15.726  20.450  1.00  0.00    -0.069 C 
ATOM     15  C   UNL     1     -28.178 -14.277  20.036  1.00  0.00     0.039 C 
ATOM     16  C   UNL     1     -27.053 -16.409  20.951  1.00  0.00     0.039 C 
BRANCH  13  17
ATOM     17  C   UNL     1     -30.754 -15.743  19.824  1.00  0.00     0.066 CG0
ATOM     18  G   UNL     1     -31.906 -15.773  20.809  1.00  0.00     0.000 G0
ENDBRANCH  13  17
ENDBRANCH  11  13
ENDBRANCH  10  11
ENDBRANCH   1  10
TORSDOF 0
ENDMDL
MODEL 9
REMARK VINA RESULT:    -2.747      2.088      4.027
REMARK INTER + INTRA:          -3.683
REMARK INTER:                  -3.985
REMARK INTRA:                   0.302
REMARK UNBOUND:                 0.188
REMARK SMILES CC1=CCC(=C(C)C)C(=O)CC(C)=CCC1
REMARK SMILES IDX 12 1 14 2 13 3 15 4 16 5 2 6 1 7 3 8 11 10 9 11 10 12 5 13
REMARK SMILES IDX 6 14 7 15 8 16 4 17
REMARK H PARENT
REMARK Flexibility Score: 60.00
ROOT
ATOM      1  C   UNL     1     -30.235 -18.084  20.862  1.00  0.00    -0.070 C 
ATOM      2  C   UNL     1     -28.982 -18.121  20.356  1.00  0.00    -0.027 C 
ATOM      3  C   UNL     1     -31.273 -18.985  20.243  1.00  0.00     0.039 C 
ENDROOT
BRANCH   2   4
ATOM      4  C   UNL     1     -27.834 -17.229  20.775  1.00  0.00     0.032 C 
BRANCH   4   5
ATOM      5  C   UNL     1     -27.008 -17.754  21.968  1.00  0.00     0.034 C 
BRANCH   5   6
ATOM      6  C   UNL     1     -26.889 -16.750  23.100  1.00  0.00    -0.077 C 
ATOM      7  C   UNL     1     -25.901 -15.622  22.937  1.00  0.00     0.039 C 
ATOM      8  C   UNL     1     -27.560 -16.839  24.275  1.00  0.00    -0.023 CG0
ATOM      9  G   UNL     1     -28.608 -17.868  24.653  1.00  0.00     0.000 G0
ENDBRANCH   5   6
ENDBRANCH   4   5
ENDBRANCH   2   4
BRANCH   1  10
ATOM     10  C   UNL     1     -30.663 -17.122  21.952  1.00  0.00     0.111 C 
BRANCH  10  11
ATOM     11  C   UNL     1     -30.775 -17.809  23.287  1.00  0.00     0.163 C 
ATOM     12  O   UNL     1     -31.577 -18.777  23.392  1.00  0.00    -0.294 OA
BRANCH  11  13
ATOM     13  C   UNL     1     -30.023 -17.348  24.491  1.00  0.00    -0.002 C 
ATOM     14  C   UNL     1     -30.566 -16.427  25.344  1.00  0.00    -0.069 C 
ATOM     15  C   UNL     1     -29.770 -15.823  26.481  1.00  0.00     0.039 C 
ATOM     16  C   UNL     1     -31.997 -15.962  25.189  1.00  0.00     0.039 C 
BRANCH  13  17
ATOM     17  C   UNL     1     -28.607 -17.871  24.670  1.00  0.00     0.066 CG0
ATOM     18  G   UNL     1     -27.560 -16.842  24.293  1.00  0.00     0.000 G0
ENDBRANCH  13  17
ENDBRANCH  11  13
ENDBRANCH  10  11
ENDBRANCH   1  10
TORSDOF 0
ENDMDL
