MODEL 1
REMARK VINA RESULT:    -5.089      0.000      0.000
REMARK INTER + INTRA:          -5.089
REMARK INTER:                  -5.089
REMARK INTRA:                   0.000
REMARK UNBOUND:                 0.000
REMARK SMILES CC1=CC(=O)[C@@H]2C[C@H]1C2(C)C
REMARK SMILES IDX 1 1 2 2 3 3 4 4 5 5 6 6 7 7 8 8 9 9 10 10 11 11
REMARK H PARENT
REMARK Flexibility Score: inf
ROOT
ATOM      1  C   UNL     1      -3.524 -26.392  13.195  1.00  0.00     0.040 C 
ATOM      2  C   UNL     1      -2.387 -26.176  14.144  1.00  0.00    -0.066 C 
ATOM      3  C   UNL     1      -2.227 -26.927  15.270  1.00  0.00     0.047 C 
ATOM      4  C   UNL     1      -1.041 -26.595  16.123  1.00  0.00     0.159 C 
ATOM      5  O   UNL     1      -0.760 -27.243  17.166  1.00  0.00    -0.295 OA
ATOM      6  C   UNL     1      -0.196 -25.415  15.641  1.00  0.00     0.067 C 
ATOM      7  C   UNL     1      -1.234 -24.332  15.277  1.00  0.00     0.021 C 
ATOM      8  C   UNL     1      -1.368 -25.042  13.912  1.00  0.00     0.022 C 
ATOM      9  C   UNL     1       0.073 -25.590  14.119  1.00  0.00    -0.019 C 
ATOM     10  C   UNL     1       1.157 -24.614  13.595  1.00  0.00     0.012 C 
ATOM     11  C   UNL     1       0.401 -27.014  13.586  1.00  0.00     0.012 C 
ENDROOT
TORSDOF 0
ENDMDL
MODEL 2
REMARK VINA RESULT:    -4.920     17.307     19.250
REMARK INTER + INTRA:          -4.920
REMARK INTER:                  -4.920
REMARK INTRA:                   0.000
REMARK UNBOUND:                 0.000
REMARK SMILES CC1=CC(=O)[C@@H]2C[C@H]1C2(C)C
REMARK SMILES IDX 1 1 2 2 3 3 4 4 5 5 6 6 7 7 8 8 9 9 10 10 11 11
REMARK H PARENT
REMARK Flexibility Score: inf
ROOT
ATOM      1  C   UNL     1      10.123 -14.223  17.616  1.00  0.00     0.040 C 
ATOM      2  C   UNL     1      10.561 -12.836  17.261  1.00  0.00    -0.066 C 
ATOM      3  C   UNL     1      10.229 -12.249  16.076  1.00  0.00     0.047 C 
ATOM      4  C   UNL     1      10.738 -10.856  15.863  1.00  0.00     0.159 C 
ATOM      5  O   UNL     1      10.465 -10.192  14.828  1.00  0.00    -0.295 OA
ATOM      6  C   UNL     1      11.612 -10.298  16.986  1.00  0.00     0.067 C 
ATOM      7  C   UNL     1      12.584 -11.452  17.316  1.00  0.00     0.021 C 
ATOM      8  C   UNL     1      11.464 -12.025  18.212  1.00  0.00     0.022 C 
ATOM      9  C   UNL     1      10.908 -10.577  18.345  1.00  0.00    -0.019 C 
ATOM     10  C   UNL     1      11.559  -9.801  19.517  1.00  0.00     0.012 C 
ATOM     11  C   UNL     1       9.367 -10.387  18.431  1.00  0.00     0.012 C 
ENDROOT
TORSDOF 0
ENDMDL
MODEL 3
REMARK VINA RESULT:    -4.875      1.696      2.989
REMARK INTER + INTRA:          -4.875
REMARK INTER:                  -4.875
REMARK INTRA:                   0.000
REMARK UNBOUND:                 0.000
REMARK SMILES CC1=CC(=O)[C@@H]2C[C@H]1C2(C)C
REMARK SMILES IDX 1 1 2 2 3 3 4 4 5 5 6 6 7 7 8 8 9 9 10 10 11 11
REMARK H PARENT
REMARK Flexibility Score: inf
ROOT
ATOM      1  C   UNL     1      -1.093 -27.686  17.227  1.00  0.00     0.040 C 
ATOM      2  C   UNL     1      -1.236 -27.115  15.851  1.00  0.00    -0.066 C 
ATOM      3  C   UNL     1      -2.448 -26.985  15.240  1.00  0.00     0.047 C 
ATOM      4  C   UNL     1      -2.434 -26.396  13.863  1.00  0.00     0.159 C 
ATOM      5  O   UNL     1      -3.490 -26.186  13.210  1.00  0.00    -0.295 OA
ATOM      6  C   UNL     1      -1.049 -26.068  13.304  1.00  0.00     0.067 C 
ATOM      7  C   UNL     1      -0.203 -27.316  13.636  1.00  0.00     0.021 C 
ATOM      8  C   UNL     1       0.004 -26.696  15.036  1.00  0.00     0.022 C 
ATOM      9  C   UNL     1      -0.245 -25.301  14.393  1.00  0.00    -0.019 C 
ATOM     10  C   UNL     1       1.054 -24.669  13.833  1.00  0.00     0.012 C 
ATOM     11  C   UNL     1      -0.986 -24.225  15.237  1.00  0.00     0.012 C 
ENDROOT
TORSDOF 0
ENDMDL
MODEL 4
REMARK VINA RESULT:    -4.853      1.732      2.669
REMARK INTER + INTRA:          -4.853
REMARK INTER:                  -4.853
REMARK INTRA:                   0.000
REMARK UNBOUND:                 0.000
REMARK SMILES CC1=CC(=O)[C@@H]2C[C@H]1C2(C)C
REMARK SMILES IDX 1 1 2 2 3 3 4 4 5 5 6 6 7 7 8 8 9 9 10 10 11 11
REMARK H PARENT
REMARK Flexibility Score: inf
ROOT
ATOM      1  C   UNL     1      -3.356 -27.397  12.754  1.00  0.00     0.040 C 
ATOM      2  C   UNL     1      -2.321 -26.571  13.451  1.00  0.00    -0.066 C 
ATOM      3  C   UNL     1      -2.528 -25.261  13.766  1.00  0.00     0.047 C 
ATOM      4  C   UNL     1      -1.400 -24.563  14.464  1.00  0.00     0.159 C 
ATOM      5  O   UNL     1      -1.483 -23.366  14.845  1.00  0.00    -0.295 OA
ATOM      6  C   UNL     1      -0.142 -25.405  14.681  1.00  0.00     0.067 C 
ATOM      7  C   UNL     1       0.083 -26.104  13.322  1.00  0.00     0.021 C 
ATOM      8  C   UNL     1      -0.939 -27.162  13.795  1.00  0.00     0.022 C 
ATOM      9  C   UNL     1      -0.565 -26.786  15.258  1.00  0.00    -0.019 C 
ATOM     10  C   UNL     1       0.643 -27.601  15.786  1.00  0.00     0.012 C 
ATOM     11  C   UNL     1      -1.686 -26.824  16.336  1.00  0.00     0.012 C 
ENDROOT
TORSDOF 0
ENDMDL
MODEL 5
REMARK VINA RESULT:    -4.850      1.760      2.896
REMARK INTER + INTRA:          -4.850
REMARK INTER:                  -4.850
REMARK INTRA:                   0.000
REMARK UNBOUND:                 0.000
REMARK SMILES CC1=CC(=O)[C@@H]2C[C@H]1C2(C)C
REMARK SMILES IDX 1 1 2 2 3 3 4 4 5 5 6 6 7 7 8 8 9 9 10 10 11 11
REMARK H PARENT
REMARK Flexibility Score: inf
ROOT
ATOM      1  C   UNL     1      -1.870 -28.033  16.603  1.00  0.00     0.040 C 
ATOM      2  C   UNL     1      -1.161 -27.205  15.578  1.00  0.00    -0.066 C 
ATOM      3  C   UNL     1      -0.608 -27.750  14.457  1.00  0.00     0.047 C 
ATOM      4  C   UNL     1       0.068 -26.795  13.521  1.00  0.00     0.159 C 
ATOM      5  O   UNL     1       0.580 -27.169  12.433  1.00  0.00    -0.295 OA
ATOM      6  C   UNL     1       0.094 -25.336  13.979  1.00  0.00     0.067 C 
ATOM      7  C   UNL     1       0.510 -25.414  15.463  1.00  0.00     0.021 C 
ATOM      8  C   UNL     1      -0.977 -25.687  15.777  1.00  0.00     0.022 C 
ATOM      9  C   UNL     1      -1.333 -24.944  14.457  1.00  0.00    -0.019 C 
ATOM     10  C   UNL     1      -1.487 -23.415  14.664  1.00  0.00     0.012 C 
ATOM     11  C   UNL     1      -2.553 -25.449  13.636  1.00  0.00     0.012 C 
ENDROOT
TORSDOF 0
ENDMDL
MODEL 6
REMARK VINA RESULT:    -4.759     17.711     19.179
REMARK INTER + INTRA:          -4.759
REMARK INTER:                  -4.759
REMARK INTRA:                   0.000
REMARK UNBOUND:                 0.000
REMARK SMILES CC1=CC(=O)[C@@H]2C[C@H]1C2(C)C
REMARK SMILES IDX 1 1 2 2 3 3 4 4 5 5 6 6 7 7 8 8 9 9 10 10 11 11
REMARK H PARENT
REMARK Flexibility Score: inf
ROOT
ATOM      1  C   UNL     1      10.548 -10.012  14.681  1.00  0.00     0.040 C 
ATOM      2  C   UNL     1      10.492 -10.737  15.989  1.00  0.00    -0.066 C 
ATOM      3  C   UNL     1      10.429 -12.097  16.064  1.00  0.00     0.047 C 
ATOM      4  C   UNL     1      10.379 -12.682  17.442  1.00  0.00     0.159 C 
ATOM      5  O   UNL     1      10.360 -13.925  17.646  1.00  0.00    -0.295 OA
ATOM      6  C   UNL     1      10.351 -11.666  18.585  1.00  0.00     0.067 C 
ATOM      7  C   UNL     1       9.309 -10.620  18.134  1.00  0.00     0.021 C 
ATOM      8  C   UNL     1      10.447  -9.963  17.321  1.00  0.00     0.022 C 
ATOM      9  C   UNL     1      11.452 -10.600  18.325  1.00  0.00    -0.019 C 
ATOM     10  C   UNL     1      11.705  -9.698  19.559  1.00  0.00     0.012 C 
ATOM     11  C   UNL     1      12.829 -11.077  17.781  1.00  0.00     0.012 C 
ENDROOT
TORSDOF 0
ENDMDL
MODEL 7
REMARK VINA RESULT:    -4.748      1.301      2.972
REMARK INTER + INTRA:          -4.748
REMARK INTER:                  -4.748
REMARK INTRA:                   0.000
REMARK UNBOUND:                 0.000
REMARK SMILES CC1=CC(=O)[C@@H]2C[C@H]1C2(C)C
REMARK SMILES IDX 1 1 2 2 3 3 4 4 5 5 6 6 7 7 8 8 9 9 10 10 11 11
REMARK H PARENT
REMARK Flexibility Score: inf
ROOT
ATOM      1  C   UNL     1      -1.491 -23.159  15.023  1.00  0.00     0.040 C 
ATOM      2  C   UNL     1      -1.021 -24.574  14.890  1.00  0.00    -0.066 C 
ATOM      3  C   UNL     1      -0.056 -25.098  15.699  1.00  0.00     0.047 C 
ATOM      4  C   UNL     1       0.311 -26.529  15.448  1.00  0.00     0.159 C 
ATOM      5  O   UNL     1       1.156 -27.140  16.153  1.00  0.00    -0.295 OA
ATOM      6  C   UNL     1      -0.412 -27.196  14.277  1.00  0.00     0.067 C 
ATOM      7  C   UNL     1      -0.334 -26.151  13.142  1.00  0.00     0.021 C 
ATOM      8  C   UNL     1      -1.576 -25.491  13.783  1.00  0.00     0.022 C 
ATOM      9  C   UNL     1      -1.931 -26.880  14.389  1.00  0.00    -0.019 C 
ATOM     10  C   UNL     1      -2.786 -27.743  13.426  1.00  0.00     0.012 C 
ATOM     11  C   UNL     1      -2.591 -26.920  15.796  1.00  0.00     0.012 C 
ENDROOT
TORSDOF 0
ENDMDL
MODEL 8
REMARK VINA RESULT:    -4.721      1.302      2.495
REMARK INTER + INTRA:          -4.721
REMARK INTER:                  -4.721
REMARK INTRA:                   0.000
REMARK UNBOUND:                 0.000
REMARK SMILES CC1=CC(=O)[C@@H]2C[C@H]1C2(C)C
REMARK SMILES IDX 1 1 2 2 3 3 4 4 5 5 6 6 7 7 8 8 9 9 10 10 11 11
REMARK H PARENT
REMARK Flexibility Score: inf
ROOT
ATOM      1  C   UNL     1       0.746 -27.206  12.109  1.00  0.00     0.040 C 
ATOM      2  C   UNL     1      -0.240 -27.018  13.219  1.00  0.00    -0.066 C 
ATOM      3  C   UNL     1      -0.675 -28.056  13.989  1.00  0.00     0.047 C 
ATOM      4  C   UNL     1      -1.663 -27.714  15.063  1.00  0.00     0.159 C 
ATOM      5  O   UNL     1      -2.108 -28.576  15.866  1.00  0.00    -0.295 OA
ATOM      6  C   UNL     1      -2.094 -26.248  15.115  1.00  0.00     0.067 C 
ATOM      7  C   UNL     1      -2.374 -25.885  13.640  1.00  0.00     0.021 C 
ATOM      8  C   UNL     1      -0.855 -25.634  13.503  1.00  0.00     0.022 C 
ATOM      9  C   UNL     1      -0.822 -25.356  15.034  1.00  0.00    -0.019 C 
ATOM     10  C   UNL     1      -1.118 -23.873  15.372  1.00  0.00     0.012 C 
ATOM     11  C   UNL     1       0.439 -25.795  15.832  1.00  0.00     0.012 C 
ENDROOT
TORSDOF 0
ENDMDL
MODEL 9
REMARK VINA RESULT:    -4.715      1.858      2.777
REMARK INTER + INTRA:          -4.715
REMARK INTER:                  -4.715
REMARK INTRA:                   0.000
REMARK UNBOUND:                 0.000
REMARK SMILES CC1=CC(=O)[C@@H]2C[C@H]1C2(C)C
REMARK SMILES IDX 1 1 2 2 3 3 4 4 5 5 6 6 7 7 8 8 9 9 10 10 11 11
REMARK H PARENT
REMARK Flexibility Score: inf
ROOT
ATOM      1  C   UNL     1      -1.880 -23.102  14.335  1.00  0.00     0.040 C 
ATOM      2  C   UNL     1      -1.921 -24.598  14.369  1.00  0.00    -0.066 C 
ATOM      3  C   UNL     1      -2.693 -25.324  13.511  1.00  0.00     0.047 C 
ATOM      4  C   UNL     1      -2.630 -26.813  13.664  1.00  0.00     0.159 C 
ATOM      5  O   UNL     1      -3.263 -27.595  12.906  1.00  0.00    -0.295 OA
ATOM      6  C   UNL     1      -1.746 -27.318  14.806  1.00  0.00     0.067 C 
ATOM      7  C   UNL     1      -2.122 -26.417  16.001  1.00  0.00     0.021 C 
ATOM      8  C   UNL     1      -1.125 -25.386  15.428  1.00  0.00     0.022 C 
ATOM      9  C   UNL     1      -0.383 -26.571  14.742  1.00  0.00    -0.019 C 
ATOM     10  C   UNL     1       0.685 -27.211  15.665  1.00  0.00     0.012 C 
ATOM     11  C   UNL     1       0.261 -26.326  13.348  1.00  0.00     0.012 C 
ENDROOT
TORSDOF 0
ENDMDL
