MODEL 1
REMARK VINA RESULT:    -7.743      0.000      0.000
REMARK INTER + INTRA:          -9.587
REMARK INTER:                  -9.327
REMARK INTRA:                  -0.260
REMARK UNBOUND:                -0.260
REMARK SMILES O=c1c(O)c(-c2ccc(O)c(O)c2)oc2cc(O)cc(O)c12
REMARK SMILES IDX 5 1 3 2 2 3 1 4 22 5 20 6 19 7 17 8 16 9 15 10 14 11 6 12
REMARK SMILES IDX 7 13 8 14 9 15 13 16 11 17 10 18 12 20 4 22 21 24 18 26
REMARK H PARENT 10 19 12 21 4 23 21 25 18 27
REMARK Flexibility Score: inf
ROOT
ATOM      1  C   UNL     1      -2.959  68.001 -21.811  1.00  0.00     0.180 A 
ATOM      2  C   UNL     1      -3.457  68.433 -23.053  1.00  0.00     0.208 A 
ATOM      3  C   UNL     1      -4.840  68.629 -23.201  1.00  0.00     0.238 A 
ATOM      4  O   UNL     1      -5.275  69.068 -24.298  1.00  0.00    -0.285 OA
ATOM      5  C   UNL     1      -5.708  68.376 -22.112  1.00  0.00     0.111 A 
ATOM      6  C   UNL     1      -7.128  68.501 -22.161  1.00  0.00     0.134 A 
ATOM      7  C   UNL     1      -7.877  68.352 -20.987  1.00  0.00     0.093 A 
ATOM      8  C   UNL     1      -7.261  68.015 -19.779  1.00  0.00     0.123 A 
ATOM      9  C   UNL     1      -5.881  67.832 -19.733  1.00  0.00     0.094 A 
ATOM     10  C   UNL     1      -5.104  68.011 -20.880  1.00  0.00     0.146 A 
ATOM     11  O   UNL     1      -3.791  67.836 -20.790  1.00  0.00    -0.452 OA
ENDROOT
BRANCH   1  12
ATOM     12  C   UNL     1      -1.517  67.749 -21.585  1.00  0.00     0.025 A 
ATOM     13  C   UNL     1      -1.010  66.441 -21.485  1.00  0.00     0.016 A 
ATOM     14  C   UNL     1       0.351  66.228 -21.247  1.00  0.00     0.051 A 
ATOM     15  C   UNL     1       1.220  67.315 -21.094  1.00  0.00     0.157 A 
ATOM     16  C   UNL     1      -0.644  68.835 -21.410  1.00  0.00     0.062 A 
ATOM     17  C   UNL     1       0.722  68.621 -21.173  1.00  0.00     0.158 A 
BRANCH  15  18
ATOM     18  O   UNL     1       2.577  67.105 -20.859  1.00  0.00    -0.504 OA
ATOM     19  H   UNL     1       3.176  67.845 -20.511  1.00  0.00     0.293 HD
ENDBRANCH  15  18
BRANCH  17  20
ATOM     20  O   UNL     1       1.588  69.702 -21.013  1.00  0.00    -0.504 OA
ATOM     21  H   UNL     1       2.052  70.130 -21.804  1.00  0.00     0.293 HD
ENDBRANCH  17  20
ENDBRANCH   1  12
BRANCH   2  22
ATOM     22  O   UNL     1      -2.581  68.698 -24.109  1.00  0.00    -0.502 OA
ATOM     23  H   UNL     1      -1.866  69.414 -24.057  1.00  0.00     0.293 HD
ENDBRANCH   2  22
BRANCH   6  24
ATOM     24  O   UNL     1      -7.850  68.744 -23.334  1.00  0.00    -0.507 OA
ATOM     25  H   UNL     1      -7.721  68.246 -24.201  1.00  0.00     0.293 HD
ENDBRANCH   6  24
BRANCH   8  26
ATOM     26  O   UNL     1      -8.015  67.853 -18.618  1.00  0.00    -0.508 OA
ATOM     27  H   UNL     1      -7.575  67.699 -17.718  1.00  0.00     0.293 HD
ENDBRANCH   8  26
TORSDOF 6
ENDMDL
MODEL 2
REMARK VINA RESULT:    -7.688      1.977      3.122
REMARK INTER + INTRA:          -9.521
REMARK INTER:                  -9.692
REMARK INTRA:                   0.171
REMARK UNBOUND:                -0.260
REMARK SMILES O=c1c(O)c(-c2ccc(O)c(O)c2)oc2cc(O)cc(O)c12
REMARK SMILES IDX 5 1 3 2 2 3 1 4 22 5 20 6 19 7 17 8 16 9 15 10 14 11 6 12
REMARK SMILES IDX 7 13 8 14 9 15 13 16 11 17 10 18 12 20 4 22 21 24 18 26
REMARK H PARENT 10 19 12 21 4 23 21 25 18 27
REMARK Flexibility Score: inf
ROOT
ATOM      1  C   UNL     1      -2.757  67.065 -21.242  1.00  0.00     0.180 A 
ATOM      2  C   UNL     1      -3.030  65.716 -20.959  1.00  0.00     0.208 A 
ATOM      3  C   UNL     1      -4.340  65.236 -21.122  1.00  0.00     0.238 A 
ATOM      4  O   UNL     1      -4.567  64.015 -20.919  1.00  0.00    -0.285 OA
ATOM      5  C   UNL     1      -5.362  66.116 -21.552  1.00  0.00     0.111 A 
ATOM      6  C   UNL     1      -6.732  65.750 -21.712  1.00  0.00     0.134 A 
ATOM      7  C   UNL     1      -7.633  66.666 -22.268  1.00  0.00     0.093 A 
ATOM      8  C   UNL     1      -7.226  67.960 -22.606  1.00  0.00     0.123 A 
ATOM      9  C   UNL     1      -5.905  68.346 -22.398  1.00  0.00     0.094 A 
ATOM     10  C   UNL     1      -4.975  67.441 -21.879  1.00  0.00     0.146 A 
ATOM     11  O   UNL     1      -3.723  67.849 -21.706  1.00  0.00    -0.452 OA
ENDROOT
BRANCH   1  12
ATOM     12  C   UNL     1      -1.407  67.649 -21.070  1.00  0.00     0.025 A 
ATOM     13  C   UNL     1      -1.231  68.946 -20.553  1.00  0.00     0.016 A 
ATOM     14  C   UNL     1       0.052  69.486 -20.423  1.00  0.00     0.051 A 
ATOM     15  C   UNL     1       1.173  68.745 -20.816  1.00  0.00     0.157 A 
ATOM     16  C   UNL     1      -0.280  66.920 -21.482  1.00  0.00     0.062 A 
ATOM     17  C   UNL     1       1.007  67.461 -21.350  1.00  0.00     0.158 A 
BRANCH  15  18
ATOM     18  O   UNL     1       2.453  69.280 -20.686  1.00  0.00    -0.504 OA
ATOM     19  H   UNL     1       3.180  68.797 -20.171  1.00  0.00     0.293 HD
ENDBRANCH  15  18
BRANCH  17  20
ATOM     20  O   UNL     1       2.125  66.729 -21.748  1.00  0.00    -0.504 OA
ATOM     21  H   UNL     1       2.788  66.366 -21.074  1.00  0.00     0.293 HD
ENDBRANCH  17  20
ENDBRANCH   1  12
BRANCH   2  22
ATOM     22  O   UNL     1      -2.001  64.859 -20.556  1.00  0.00    -0.502 OA
ATOM     23  H   UNL     1      -1.607  64.882 -19.624  1.00  0.00     0.293 HD
ENDBRANCH   2  22
BRANCH   6  24
ATOM     24  O   UNL     1      -7.261  64.515 -21.321  1.00  0.00    -0.507 OA
ATOM     25  H   UNL     1      -7.078  64.067 -20.436  1.00  0.00     0.293 HD
ENDBRANCH   6  24
BRANCH   8  26
ATOM     26  O   UNL     1      -8.132  68.871 -23.144  1.00  0.00    -0.508 OA
ATOM     27  H   UNL     1      -8.712  69.455 -22.552  1.00  0.00     0.293 HD
ENDBRANCH   8  26
TORSDOF 6
ENDMDL
MODEL 3
REMARK VINA RESULT:    -7.686      2.291      7.192
REMARK INTER + INTRA:          -9.519
REMARK INTER:                  -9.275
REMARK INTRA:                  -0.244
REMARK UNBOUND:                -0.260
REMARK SMILES O=c1c(O)c(-c2ccc(O)c(O)c2)oc2cc(O)cc(O)c12
REMARK SMILES IDX 5 1 3 2 2 3 1 4 22 5 20 6 19 7 17 8 16 9 15 10 14 11 6 12
REMARK SMILES IDX 7 13 8 14 9 15 13 16 11 17 10 18 12 20 4 22 21 24 18 26
REMARK H PARENT 10 19 12 21 4 23 21 25 18 27
REMARK Flexibility Score: inf
ROOT
ATOM      1  C   UNL     1      -5.127  66.920 -21.137  1.00  0.00     0.180 A 
ATOM      2  C   UNL     1      -5.124  65.695 -20.449  1.00  0.00     0.208 A 
ATOM      3  C   UNL     1      -3.899  65.053 -20.205  1.00  0.00     0.238 A 
ATOM      4  O   UNL     1      -3.898  63.983 -19.542  1.00  0.00    -0.285 OA
ATOM      5  C   UNL     1      -2.695  65.638 -20.666  1.00  0.00     0.111 A 
ATOM      6  C   UNL     1      -1.400  65.056 -20.511  1.00  0.00     0.134 A 
ATOM      7  C   UNL     1      -0.266  65.784 -20.889  1.00  0.00     0.093 A 
ATOM      8  C   UNL     1      -0.383  67.045 -21.479  1.00  0.00     0.123 A 
ATOM      9  C   UNL     1      -1.645  67.596 -21.689  1.00  0.00     0.094 A 
ATOM     10  C   UNL     1      -2.794  66.909 -21.288  1.00  0.00     0.146 A 
ATOM     11  O   UNL     1      -3.976  67.476 -21.498  1.00  0.00    -0.452 OA
ENDROOT
BRANCH   1  12
ATOM     12  C   UNL     1      -6.380  67.644 -21.453  1.00  0.00     0.025 A 
ATOM     13  C   UNL     1      -7.286  67.154 -22.412  1.00  0.00     0.016 A 
ATOM     14  C   UNL     1      -8.451  67.867 -22.711  1.00  0.00     0.051 A 
ATOM     15  C   UNL     1      -8.721  69.081 -22.068  1.00  0.00     0.157 A 
ATOM     16  C   UNL     1      -6.646  68.873 -20.827  1.00  0.00     0.062 A 
ATOM     17  C   UNL     1      -7.816  69.587 -21.127  1.00  0.00     0.158 A 
BRANCH  15  18
ATOM     18  O   UNL     1      -9.882  69.793 -22.363  1.00  0.00    -0.504 OA
ATOM     19  H   UNL     1     -10.788  69.492 -22.025  1.00  0.00     0.293 HD
ENDBRANCH  15  18
BRANCH  17  20
ATOM     20  O   UNL     1      -8.083  70.799 -20.493  1.00  0.00    -0.504 OA
ATOM     21  H   UNL     1      -8.383  71.615 -21.014  1.00  0.00     0.293 HD
ENDBRANCH  17  20
ENDBRANCH   1  12
BRANCH   2  22
ATOM     22  O   UNL     1      -6.323  65.146 -19.985  1.00  0.00    -0.502 OA
ATOM     23  H   UNL     1      -6.467  64.898 -19.014  1.00  0.00     0.293 HD
ENDBRANCH   2  22
BRANCH   6  24
ATOM     24  O   UNL     1      -1.179  63.766 -20.019  1.00  0.00    -0.507 OA
ATOM     25  H   UNL     1      -0.280  63.406 -19.735  1.00  0.00     0.293 HD
ENDBRANCH   6  24
BRANCH   8  26
ATOM     26  O   UNL     1       0.750  67.757 -21.867  1.00  0.00    -0.508 OA
ATOM     27  H   UNL     1       0.952  68.677 -21.493  1.00  0.00     0.293 HD
ENDBRANCH   8  26
TORSDOF 6
ENDMDL
MODEL 4
REMARK VINA RESULT:    -7.616      9.228     10.783
REMARK INTER + INTRA:          -9.434
REMARK INTER:                  -9.176
REMARK INTRA:                  -0.257
REMARK UNBOUND:                -0.260
REMARK SMILES O=c1c(O)c(-c2ccc(O)c(O)c2)oc2cc(O)cc(O)c12
REMARK SMILES IDX 5 1 3 2 2 3 1 4 22 5 20 6 19 7 17 8 16 9 15 10 14 11 6 12
REMARK SMILES IDX 7 13 8 14 9 15 13 16 11 17 10 18 12 20 4 22 21 24 18 26
REMARK H PARENT 10 19 12 21 4 23 21 25 18 27
REMARK Flexibility Score: inf
ROOT
ATOM      1  C   UNL     1      -3.218  62.074 -13.544  1.00  0.00     0.180 A 
ATOM      2  C   UNL     1      -4.283  61.158 -13.496  1.00  0.00     0.208 A 
ATOM      3  C   UNL     1      -4.874  60.735 -14.698  1.00  0.00     0.238 A 
ATOM      4  O   UNL     1      -5.791  59.875 -14.652  1.00  0.00    -0.285 OA
ATOM      5  C   UNL     1      -4.401  61.246 -15.931  1.00  0.00     0.111 A 
ATOM      6  C   UNL     1      -4.950  60.919 -17.207  1.00  0.00     0.134 A 
ATOM      7  C   UNL     1      -4.320  61.379 -18.370  1.00  0.00     0.093 A 
ATOM      8  C   UNL     1      -3.199  62.211 -18.300  1.00  0.00     0.123 A 
ATOM      9  C   UNL     1      -2.691  62.584 -17.058  1.00  0.00     0.094 A 
ATOM     10  C   UNL     1      -3.277  62.110 -15.881  1.00  0.00     0.146 A 
ATOM     11  O   UNL     1      -2.754  62.482 -14.719  1.00  0.00    -0.452 OA
ENDROOT
BRANCH   1  12
ATOM     12  C   UNL     1      -2.562  62.584 -12.318  1.00  0.00     0.025 A 
ATOM     13  C   UNL     1      -2.775  63.899 -11.868  1.00  0.00     0.016 A 
ATOM     14  C   UNL     1      -2.126  64.367 -10.722  1.00  0.00     0.051 A 
ATOM     15  C   UNL     1      -1.247  63.535 -10.019  1.00  0.00     0.157 A 
ATOM     16  C   UNL     1      -1.663  61.761 -11.621  1.00  0.00     0.062 A 
ATOM     17  C   UNL     1      -1.012  62.230 -10.470  1.00  0.00     0.158 A 
BRANCH  15  18
ATOM     18  O   UNL     1      -0.599  63.998  -8.875  1.00  0.00    -0.504 OA
ATOM     19  H   UNL     1       0.072  63.425  -8.377  1.00  0.00     0.293 HD
ENDBRANCH  15  18
BRANCH  17  20
ATOM     20  O   UNL     1      -0.131  61.406  -9.772  1.00  0.00    -0.504 OA
ATOM     21  H   UNL     1      -0.411  60.929  -8.924  1.00  0.00     0.293 HD
ENDBRANCH  17  20
ENDBRANCH   1  12
BRANCH   2  22
ATOM     22  O   UNL     1      -4.721  60.651 -12.269  1.00  0.00    -0.502 OA
ATOM     23  H   UNL     1      -4.337  60.960 -11.384  1.00  0.00     0.293 HD
ENDBRANCH   2  22
BRANCH   6  24
ATOM     24  O   UNL     1      -6.119  60.172 -17.386  1.00  0.00    -0.507 OA
ATOM     25  H   UNL     1      -6.184  59.329 -17.936  1.00  0.00     0.293 HD
ENDBRANCH   6  24
BRANCH   8  26
ATOM     26  O   UNL     1      -2.587  62.677 -19.461  1.00  0.00    -0.508 OA
ATOM     27  H   UNL     1      -2.619  62.149 -20.325  1.00  0.00     0.293 HD
ENDBRANCH   8  26
TORSDOF 6
ENDMDL
MODEL 5
REMARK VINA RESULT:    -7.604      1.251      2.859
REMARK INTER + INTRA:          -9.420
REMARK INTER:                  -9.101
REMARK INTRA:                  -0.319
REMARK UNBOUND:                -0.260
REMARK SMILES O=c1c(O)c(-c2ccc(O)c(O)c2)oc2cc(O)cc(O)c12
REMARK SMILES IDX 5 1 3 2 2 3 1 4 22 5 20 6 19 7 17 8 16 9 15 10 14 11 6 12
REMARK SMILES IDX 7 13 8 14 9 15 13 16 11 17 10 18 12 20 4 22 21 24 18 26
REMARK H PARENT 10 19 12 21 4 23 21 25 18 27
REMARK Flexibility Score: inf
ROOT
ATOM      1  C   UNL     1      -2.682  67.941 -21.260  1.00  0.00     0.180 A 
ATOM      2  C   UNL     1      -3.449  67.938 -20.082  1.00  0.00     0.208 A 
ATOM      3  C   UNL     1      -4.836  68.147 -20.171  1.00  0.00     0.238 A 
ATOM      4  O   UNL     1      -5.524  68.089 -19.119  1.00  0.00    -0.285 OA
ATOM      5  C   UNL     1      -5.434  68.372 -21.434  1.00  0.00     0.111 A 
ATOM      6  C   UNL     1      -6.821  68.636 -21.638  1.00  0.00     0.134 A 
ATOM      7  C   UNL     1      -7.326  68.714 -22.942  1.00  0.00     0.093 A 
ATOM      8  C   UNL     1      -6.480  68.604 -24.048  1.00  0.00     0.123 A 
ATOM      9  C   UNL     1      -5.115  68.406 -23.859  1.00  0.00     0.094 A 
ATOM     10  C   UNL     1      -4.588  68.287 -22.570  1.00  0.00     0.146 A 
ATOM     11  O   UNL     1      -3.282  68.089 -22.435  1.00  0.00    -0.452 OA
ENDROOT
BRANCH   1  12
ATOM     12  C   UNL     1      -1.214  67.752 -21.244  1.00  0.00     0.025 A 
ATOM     13  C   UNL     1      -0.641  66.468 -21.256  1.00  0.00     0.016 A 
ATOM     14  C   UNL     1       0.748  66.313 -21.217  1.00  0.00     0.051 A 
ATOM     15  C   UNL     1       1.582  67.436 -21.152  1.00  0.00     0.157 A 
ATOM     16  C   UNL     1      -0.373  68.874 -21.159  1.00  0.00     0.062 A 
ATOM     17  C   UNL     1       1.021  68.719 -21.120  1.00  0.00     0.158 A 
BRANCH  15  18
ATOM     18  O   UNL     1       2.966  67.286 -21.115  1.00  0.00    -0.504 OA
ATOM     19  H   UNL     1       3.584  68.082 -21.006  1.00  0.00     0.293 HD
ENDBRANCH  15  18
BRANCH  17  20
ATOM     20  O   UNL     1       1.853  69.835 -21.049  1.00  0.00    -0.504 OA
ATOM     21  H   UNL     1       2.069  70.280 -20.165  1.00  0.00     0.293 HD
ENDBRANCH  17  20
ENDBRANCH   1  12
BRANCH   2  22
ATOM     22  O   UNL     1      -2.842  67.692 -18.847  1.00  0.00    -0.502 OA
ATOM     23  H   UNL     1      -2.754  66.761 -18.460  1.00  0.00     0.293 HD
ENDBRANCH   2  22
BRANCH   6  24
ATOM     24  O   UNL     1      -7.735  68.853 -20.602  1.00  0.00    -0.507 OA
ATOM     25  H   UNL     1      -7.705  69.634 -19.964  1.00  0.00     0.293 HD
ENDBRANCH   6  24
BRANCH   8  26
ATOM     26  O   UNL     1      -6.988  68.698 -25.343  1.00  0.00    -0.508 OA
ATOM     27  H   UNL     1      -6.377  68.730 -26.150  1.00  0.00     0.293 HD
ENDBRANCH   8  26
TORSDOF 6
ENDMDL
MODEL 6
REMARK VINA RESULT:    -7.556      5.029      6.180
REMARK INTER + INTRA:          -9.361
REMARK INTER:                  -9.036
REMARK INTRA:                  -0.326
REMARK UNBOUND:                -0.260
REMARK SMILES O=c1c(O)c(-c2ccc(O)c(O)c2)oc2cc(O)cc(O)c12
REMARK SMILES IDX 5 1 3 2 2 3 1 4 22 5 20 6 19 7 17 8 16 9 15 10 14 11 6 12
REMARK SMILES IDX 7 13 8 14 9 15 13 16 11 17 10 18 12 20 4 22 21 24 18 26
REMARK H PARENT 10 19 12 21 4 23 21 25 18 27
REMARK Flexibility Score: inf
ROOT
ATOM      1  C   UNL     1      -3.184  64.820 -19.470  1.00  0.00     0.180 A 
ATOM      2  C   UNL     1      -4.241  64.127 -20.084  1.00  0.00     0.208 A 
ATOM      3  C   UNL     1      -4.754  62.977 -19.462  1.00  0.00     0.238 A 
ATOM      4  O   UNL     1      -5.736  62.391 -19.989  1.00  0.00    -0.285 OA
ATOM      5  C   UNL     1      -4.193  62.527 -18.243  1.00  0.00     0.111 A 
ATOM      6  C   UNL     1      -4.606  61.352 -17.546  1.00  0.00     0.134 A 
ATOM      7  C   UNL     1      -4.071  61.074 -16.283  1.00  0.00     0.093 A 
ATOM      8  C   UNL     1      -3.088  61.893 -15.721  1.00  0.00     0.123 A 
ATOM      9  C   UNL     1      -2.635  63.009 -16.420  1.00  0.00     0.094 A 
ATOM     10  C   UNL     1      -3.177  63.332 -17.666  1.00  0.00     0.146 A 
ATOM     11  O   UNL     1      -2.724  64.411 -18.294  1.00  0.00    -0.452 OA
ENDROOT
BRANCH   1  12
ATOM     12  C   UNL     1      -2.574  66.026 -20.077  1.00  0.00     0.025 A 
ATOM     13  C   UNL     1      -1.570  65.923 -21.057  1.00  0.00     0.016 A 
ATOM     14  C   UNL     1      -0.992  67.075 -21.598  1.00  0.00     0.051 A 
ATOM     15  C   UNL     1      -1.397  68.342 -21.160  1.00  0.00     0.157 A 
ATOM     16  C   UNL     1      -2.962  67.298 -19.627  1.00  0.00     0.062 A 
ATOM     17  C   UNL     1      -2.382  68.454 -20.171  1.00  0.00     0.158 A 
BRANCH  15  18
ATOM     18  O   UNL     1      -0.824  69.492 -21.699  1.00  0.00    -0.504 OA
ATOM     19  H   UNL     1      -0.029  69.943 -21.262  1.00  0.00     0.293 HD
ENDBRANCH  15  18
BRANCH  17  20
ATOM     20  O   UNL     1      -2.779  69.716 -19.731  1.00  0.00    -0.504 OA
ATOM     21  H   UNL     1      -2.584  70.036 -18.790  1.00  0.00     0.293 HD
ENDBRANCH  17  20
ENDBRANCH   1  12
BRANCH   2  22
ATOM     22  O   UNL     1      -4.794  64.601 -21.277  1.00  0.00    -0.502 OA
ATOM     23  H   UNL     1      -4.455  64.313 -22.187  1.00  0.00     0.293 HD
ENDBRANCH   2  22
BRANCH   6  24
ATOM     24  O   UNL     1      -5.513  60.419 -18.059  1.00  0.00    -0.507 OA
ATOM     25  H   UNL     1      -5.255  59.579 -18.553  1.00  0.00     0.293 HD
ENDBRANCH   6  24
BRANCH   8  26
ATOM     26  O   UNL     1      -2.550  61.600 -14.470  1.00  0.00    -0.508 OA
ATOM     27  H   UNL     1      -2.660  60.686 -14.046  1.00  0.00     0.293 HD
ENDBRANCH   8  26
TORSDOF 6
ENDMDL
MODEL 7
REMARK VINA RESULT:    -7.500      3.089      6.794
REMARK INTER + INTRA:          -9.295
REMARK INTER:                  -8.977
REMARK INTRA:                  -0.318
REMARK UNBOUND:                -0.260
REMARK SMILES O=c1c(O)c(-c2ccc(O)c(O)c2)oc2cc(O)cc(O)c12
REMARK SMILES IDX 5 1 3 2 2 3 1 4 22 5 20 6 19 7 17 8 16 9 15 10 14 11 6 12
REMARK SMILES IDX 7 13 8 14 9 15 13 16 11 17 10 18 12 20 4 22 21 24 18 26
REMARK H PARENT 10 19 12 21 4 23 21 25 18 27
REMARK Flexibility Score: inf
ROOT
ATOM      1  C   UNL     1      -5.418  66.699 -21.188  1.00  0.00     0.180 A 
ATOM      2  C   UNL     1      -4.186  66.904 -21.833  1.00  0.00     0.208 A 
ATOM      3  C   UNL     1      -3.089  66.102 -21.477  1.00  0.00     0.238 A 
ATOM      4  O   UNL     1      -2.003  66.254 -22.095  1.00  0.00    -0.285 OA
ATOM      5  C   UNL     1      -3.235  65.117 -20.471  1.00  0.00     0.111 A 
ATOM      6  C   UNL     1      -2.181  64.276 -20.001  1.00  0.00     0.134 A 
ATOM      7  C   UNL     1      -2.468  63.248 -19.096  1.00  0.00     0.093 A 
ATOM      8  C   UNL     1      -3.760  63.073 -18.592  1.00  0.00     0.123 A 
ATOM      9  C   UNL     1      -4.783  63.926 -18.998  1.00  0.00     0.094 A 
ATOM     10  C   UNL     1      -4.534  64.938 -19.929  1.00  0.00     0.146 A 
ATOM     11  O   UNL     1      -5.540  65.723 -20.297  1.00  0.00    -0.452 OA
ENDROOT
BRANCH   1  12
ATOM     12  C   UNL     1      -6.613  67.520 -21.492  1.00  0.00     0.025 A 
ATOM     13  C   UNL     1      -7.553  67.115 -22.456  1.00  0.00     0.016 A 
ATOM     14  C   UNL     1      -8.661  67.918 -22.743  1.00  0.00     0.051 A 
ATOM     15  C   UNL     1      -8.837  69.140 -22.083  1.00  0.00     0.157 A 
ATOM     16  C   UNL     1      -6.784  68.756 -20.848  1.00  0.00     0.062 A 
ATOM     17  C   UNL     1      -7.896  69.562 -21.135  1.00  0.00     0.158 A 
BRANCH  15  18
ATOM     18  O   UNL     1      -9.941  69.942 -22.365  1.00  0.00    -0.504 OA
ATOM     19  H   UNL     1     -10.622  70.177 -21.653  1.00  0.00     0.293 HD
ENDBRANCH  15  18
BRANCH  17  20
ATOM     20  O   UNL     1      -8.070  70.782 -20.484  1.00  0.00    -0.504 OA
ATOM     21  H   UNL     1      -8.142  71.652 -20.998  1.00  0.00     0.293 HD
ENDBRANCH  17  20
ENDBRANCH   1  12
BRANCH   2  22
ATOM     22  O   UNL     1      -4.070  67.868 -22.838  1.00  0.00    -0.502 OA
ATOM     23  H   UNL     1      -4.440  68.805 -22.740  1.00  0.00     0.293 HD
ENDBRANCH   2  22
BRANCH   6  24
ATOM     24  O   UNL     1      -0.841  64.425 -20.371  1.00  0.00    -0.507 OA
ATOM     25  H   UNL     1      -0.072  64.511 -19.724  1.00  0.00     0.293 HD
ENDBRANCH   6  24
BRANCH   8  26
ATOM     26  O   UNL     1      -4.035  62.057 -17.679  1.00  0.00    -0.508 OA
ATOM     27  H   UNL     1      -3.570  62.012 -16.780  1.00  0.00     0.293 HD
ENDBRANCH   8  26
TORSDOF 6
ENDMDL
MODEL 8
REMARK VINA RESULT:    -7.463      3.511      5.260
REMARK INTER + INTRA:          -9.250
REMARK INTER:                  -8.959
REMARK INTRA:                  -0.291
REMARK UNBOUND:                -0.260
REMARK SMILES O=c1c(O)c(-c2ccc(O)c(O)c2)oc2cc(O)cc(O)c12
REMARK SMILES IDX 5 1 3 2 2 3 1 4 22 5 20 6 19 7 17 8 16 9 15 10 14 11 6 12
REMARK SMILES IDX 7 13 8 14 9 15 13 16 11 17 10 18 12 20 4 22 21 24 18 26
REMARK H PARENT 10 19 12 21 4 23 21 25 18 27
REMARK Flexibility Score: inf
ROOT
ATOM      1  C   UNL     1      -4.772  65.544 -21.288  1.00  0.00     0.180 A 
ATOM      2  C   UNL     1      -6.175  65.622 -21.328  1.00  0.00     0.208 A 
ATOM      3  C   UNL     1      -6.781  66.563 -22.177  1.00  0.00     0.238 A 
ATOM      4  O   UNL     1      -8.037  66.592 -22.249  1.00  0.00    -0.285 OA
ATOM      5  C   UNL     1      -5.976  67.424 -22.961  1.00  0.00     0.111 A 
ATOM      6  C   UNL     1      -6.482  68.443 -23.824  1.00  0.00     0.134 A 
ATOM      7  C   UNL     1      -5.600  69.148 -24.651  1.00  0.00     0.093 A 
ATOM      8  C   UNL     1      -4.223  68.918 -24.597  1.00  0.00     0.123 A 
ATOM      9  C   UNL     1      -3.714  67.968 -23.715  1.00  0.00     0.094 A 
ATOM     10  C   UNL     1      -4.573  67.222 -22.904  1.00  0.00     0.146 A 
ATOM     11  O   UNL     1      -4.046  66.320 -22.085  1.00  0.00    -0.452 OA
ENDROOT
BRANCH   1  12
ATOM     12  C   UNL     1      -4.060  64.594 -20.402  1.00  0.00     0.025 A 
ATOM     13  C   UNL     1      -3.472  65.020 -19.197  1.00  0.00     0.016 A 
ATOM     14  C   UNL     1      -2.784  64.110 -18.388  1.00  0.00     0.051 A 
ATOM     15  C   UNL     1      -2.664  62.770 -18.776  1.00  0.00     0.157 A 
ATOM     16  C   UNL     1      -3.919  63.254 -20.795  1.00  0.00     0.062 A 
ATOM     17  C   UNL     1      -3.230  62.341 -19.982  1.00  0.00     0.158 A 
BRANCH  15  18
ATOM     18  O   UNL     1      -1.981  61.861 -17.970  1.00  0.00    -0.504 OA
ATOM     19  H   UNL     1      -1.875  60.890 -18.239  1.00  0.00     0.293 HD
ENDBRANCH  15  18
BRANCH  17  20
ATOM     20  O   UNL     1      -3.103  61.008 -20.370  1.00  0.00    -0.504 OA
ATOM     21  H   UNL     1      -3.779  60.567 -20.981  1.00  0.00     0.293 HD
ENDBRANCH  17  20
ENDBRANCH   1  12
BRANCH   2  22
ATOM     22  O   UNL     1      -6.950  64.747 -20.562  1.00  0.00    -0.502 OA
ATOM     23  H   UNL     1      -7.223  63.830 -20.892  1.00  0.00     0.293 HD
ENDBRANCH   2  22
BRANCH   6  24
ATOM     24  O   UNL     1      -7.828  68.815 -23.886  1.00  0.00    -0.507 OA
ATOM     25  H   UNL     1      -8.239  69.574 -23.364  1.00  0.00     0.293 HD
ENDBRANCH   6  24
BRANCH   8  26
ATOM     26  O   UNL     1      -3.350  69.635 -25.413  1.00  0.00    -0.508 OA
ATOM     27  H   UNL     1      -3.157  69.346 -26.365  1.00  0.00     0.293 HD
ENDBRANCH   8  26
TORSDOF 6
ENDMDL
MODEL 9
REMARK VINA RESULT:    -7.417      3.621      5.396
REMARK INTER + INTRA:          -9.194
REMARK INTER:                  -9.359
REMARK INTRA:                   0.165
REMARK UNBOUND:                -0.260
REMARK SMILES O=c1c(O)c(-c2ccc(O)c(O)c2)oc2cc(O)cc(O)c12
REMARK SMILES IDX 5 1 3 2 2 3 1 4 22 5 20 6 19 7 17 8 16 9 15 10 14 11 6 12
REMARK SMILES IDX 7 13 8 14 9 15 13 16 11 17 10 18 12 20 4 22 21 24 18 26
REMARK H PARENT 10 19 12 21 4 23 21 25 18 27
REMARK Flexibility Score: inf
ROOT
ATOM      1  C   UNL     1      -3.883  65.482 -21.036  1.00  0.00     0.180 A 
ATOM      2  C   UNL     1      -2.697  65.954 -21.624  1.00  0.00     0.208 A 
ATOM      3  C   UNL     1      -2.777  66.931 -22.630  1.00  0.00     0.238 A 
ATOM      4  O   UNL     1      -1.710  67.388 -23.115  1.00  0.00    -0.285 OA
ATOM      5  C   UNL     1      -4.043  67.410 -23.046  1.00  0.00     0.111 A 
ATOM      6  C   UNL     1      -4.245  68.369 -24.084  1.00  0.00     0.134 A 
ATOM      7  C   UNL     1      -5.531  68.869 -24.322  1.00  0.00     0.093 A 
ATOM      8  C   UNL     1      -6.632  68.394 -23.604  1.00  0.00     0.123 A 
ATOM      9  C   UNL     1      -6.453  67.416 -22.630  1.00  0.00     0.094 A 
ATOM     10  C   UNL     1      -5.176  66.925 -22.344  1.00  0.00     0.146 A 
ATOM     11  O   UNL     1      -5.050  65.999 -21.400  1.00  0.00    -0.452 OA
ENDROOT
BRANCH   1  12
ATOM     12  C   UNL     1      -3.880  64.436 -19.987  1.00  0.00     0.025 A 
ATOM     13  C   UNL     1      -2.897  64.411 -18.982  1.00  0.00     0.016 A 
ATOM     14  C   UNL     1      -2.901  63.400 -18.016  1.00  0.00     0.051 A 
ATOM     15  C   UNL     1      -3.876  62.395 -18.049  1.00  0.00     0.157 A 
ATOM     16  C   UNL     1      -4.843  63.414 -20.027  1.00  0.00     0.062 A 
ATOM     17  C   UNL     1      -4.847  62.400 -19.057  1.00  0.00     0.158 A 
BRANCH  15  18
ATOM     18  O   UNL     1      -3.883  61.387 -17.087  1.00  0.00    -0.504 OA
ATOM     19  H   UNL     1      -4.393  60.523 -17.228  1.00  0.00     0.293 HD
ENDBRANCH  15  18
BRANCH  17  20
ATOM     20  O   UNL     1      -5.813  61.395 -19.092  1.00  0.00    -0.504 OA
ATOM     21  H   UNL     1      -6.685  61.515 -19.592  1.00  0.00     0.293 HD
ENDBRANCH  17  20
ENDBRANCH   1  12
BRANCH   2  22
ATOM     22  O   UNL     1      -1.457  65.482 -21.184  1.00  0.00    -0.502 OA
ATOM     23  H   UNL     1      -0.595  65.989 -21.340  1.00  0.00     0.293 HD
ENDBRANCH   2  22
BRANCH   6  24
ATOM     24  O   UNL     1      -3.228  68.839 -24.921  1.00  0.00    -0.507 OA
ATOM     25  H   UNL     1      -2.244  68.666 -24.782  1.00  0.00     0.293 HD
ENDBRANCH   6  24
BRANCH   8  26
ATOM     26  O   UNL     1      -7.911  68.886 -23.858  1.00  0.00    -0.508 OA
ATOM     27  H   UNL     1      -8.126  69.384 -24.713  1.00  0.00     0.293 HD
ENDBRANCH   8  26
TORSDOF 6
ENDMDL
