MODEL 1
REMARK VINA RESULT:    -5.465      0.000      0.000
REMARK INTER + INTRA:          -6.555
REMARK INTER:                  -6.423
REMARK INTRA:                  -0.132
REMARK UNBOUND:                -0.132
REMARK SMILES O=C([O-])C=Cc1ccc(O)c(O)c1
REMARK SMILES IDX 6 1 13 2 7 3 11 4 8 5 9 6 5 7 4 8 2 9 1 10 3 11 12 12 10 14
REMARK H PARENT 12 13 10 15
REMARK Flexibility Score: inf
ROOT
ATOM      1  C   UNL     1       8.535  15.635 -21.585  1.00  0.00    -0.022 A 
ATOM      2  C   UNL     1       8.459  16.971 -21.156  1.00  0.00     0.058 A 
ATOM      3  C   UNL     1       8.186  14.611 -20.683  1.00  0.00     0.012 A 
ATOM      4  C   UNL     1       8.068  17.282 -19.846  1.00  0.00     0.157 A 
ATOM      5  C   UNL     1       7.796  14.922 -19.377  1.00  0.00     0.051 A 
ATOM      6  C   UNL     1       7.739  16.255 -18.954  1.00  0.00     0.157 A 
ENDROOT
BRANCH   1   7
ATOM      7  C   UNL     1       8.944  15.361 -22.985  1.00  0.00     0.010 C 
ATOM      8  C   UNL     1       9.577  16.248 -23.763  1.00  0.00     0.025 C 
BRANCH   8   9
ATOM      9  C   UNL     1       9.955  15.937 -25.151  1.00  0.00     0.064 C 
ATOM     10  O   UNL     1      11.172  15.871 -25.464  1.00  0.00    -0.545 OA
ATOM     11  O   UNL     1       8.988  15.714 -26.125  1.00  0.00    -0.545 OA
ENDBRANCH   8   9
ENDBRANCH   1   7
BRANCH   4  12
ATOM     12  O   UNL     1       8.005  18.609 -19.424  1.00  0.00    -0.504 OA
ATOM     13  H   UNL     1       7.768  18.851 -18.469  1.00  0.00     0.293 HD
ENDBRANCH   4  12
BRANCH   6  14
ATOM     14  O   UNL     1       7.351  16.567 -17.652  1.00  0.00    -0.504 OA
ATOM     15  H   UNL     1       6.538  17.141 -17.464  1.00  0.00     0.293 HD
ENDBRANCH   6  14
TORSDOF 4
ENDMDL
MODEL 2
REMARK VINA RESULT:    -5.409      1.239      2.083
REMARK INTER + INTRA:          -6.489
REMARK INTER:                  -6.361
REMARK INTRA:                  -0.128
REMARK UNBOUND:                -0.132
REMARK SMILES O=C([O-])C=Cc1ccc(O)c(O)c1
REMARK SMILES IDX 6 1 13 2 7 3 11 4 8 5 9 6 5 7 4 8 2 9 1 10 3 11 12 12 10 14
REMARK H PARENT 12 13 10 15
REMARK Flexibility Score: inf
ROOT
ATOM      1  C   UNL     1       8.657  15.777 -21.747  1.00  0.00    -0.022 A 
ATOM      2  C   UNL     1       8.815  14.569 -21.046  1.00  0.00     0.058 A 
ATOM      3  C   UNL     1       8.428  16.960 -21.018  1.00  0.00     0.012 A 
ATOM      4  C   UNL     1       8.722  14.536 -19.647  1.00  0.00     0.157 A 
ATOM      5  C   UNL     1       8.336  16.926 -19.624  1.00  0.00     0.051 A 
ATOM      6  C   UNL     1       8.479  15.716 -18.935  1.00  0.00     0.157 A 
ENDROOT
BRANCH   1   7
ATOM      7  C   UNL     1       8.774  15.759 -23.226  1.00  0.00     0.010 C 
ATOM      8  C   UNL     1       9.940  15.838 -23.881  1.00  0.00     0.025 C 
BRANCH   8   9
ATOM      9  C   UNL     1      10.009  15.829 -25.352  1.00  0.00     0.064 C 
ATOM     10  O   UNL     1      11.128  15.907 -25.921  1.00  0.00    -0.545 OA
ATOM     11  O   UNL     1       8.856  15.734 -26.123  1.00  0.00    -0.545 OA
ENDBRANCH   8   9
ENDBRANCH   1   7
BRANCH   4  12
ATOM     12  O   UNL     1       8.870  13.332 -18.958  1.00  0.00    -0.504 OA
ATOM     13  H   UNL     1       9.115  12.474 -19.438  1.00  0.00     0.293 HD
ENDBRANCH   4  12
BRANCH   6  14
ATOM     14  O   UNL     1       8.387  15.679 -17.545  1.00  0.00    -0.504 OA
ATOM     15  H   UNL     1       7.578  16.047 -17.057  1.00  0.00     0.293 HD
ENDBRANCH   6  14
TORSDOF 4
ENDMDL
MODEL 3
REMARK VINA RESULT:    -5.373     10.685     14.162
REMARK INTER + INTRA:          -6.447
REMARK INTER:                  -6.319
REMARK INTRA:                  -0.128
REMARK UNBOUND:                -0.132
REMARK SMILES O=C([O-])C=Cc1ccc(O)c(O)c1
REMARK SMILES IDX 6 1 13 2 7 3 11 4 8 5 9 6 5 7 4 8 2 9 1 10 3 11 12 12 10 14
REMARK H PARENT 12 13 10 15
REMARK Flexibility Score: inf
ROOT
ATOM      1  C   UNL     1       6.826   8.431 -12.092  1.00  0.00    -0.022 A 
ATOM      2  C   UNL     1       6.595   7.140 -12.598  1.00  0.00     0.058 A 
ATOM      3  C   UNL     1       7.171   9.461 -12.989  1.00  0.00     0.012 A 
ATOM      4  C   UNL     1       6.729   6.874 -13.969  1.00  0.00     0.157 A 
ATOM      5  C   UNL     1       7.304   9.194 -14.355  1.00  0.00     0.051 A 
ATOM      6  C   UNL     1       7.087   7.902 -14.848  1.00  0.00     0.157 A 
ENDROOT
BRANCH   1   7
ATOM      7  C   UNL     1       6.661   8.662 -10.635  1.00  0.00     0.010 C 
ATOM      8  C   UNL     1       7.245   7.912  -9.692  1.00  0.00     0.025 C 
BRANCH   8   9
ATOM      9  C   UNL     1       7.044   8.171  -8.257  1.00  0.00     0.064 C 
ATOM     10  O   UNL     1       5.876   8.292  -7.805  1.00  0.00    -0.545 OA
ATOM     11  O   UNL     1       8.125   8.285  -7.390  1.00  0.00    -0.545 OA
ENDBRANCH   8   9
ENDBRANCH   1   7
BRANCH   4  12
ATOM     12  O   UNL     1       6.508   5.589 -14.463  1.00  0.00    -0.504 OA
ATOM     13  H   UNL     1       6.833   4.767 -13.967  1.00  0.00     0.293 HD
ENDBRANCH   4  12
BRANCH   6  14
ATOM     14  O   UNL     1       7.220   7.634 -16.209  1.00  0.00    -0.504 OA
ATOM     15  H   UNL     1       8.009   7.981 -16.743  1.00  0.00     0.293 HD
ENDBRANCH   6  14
TORSDOF 4
ENDMDL
MODEL 4
REMARK VINA RESULT:    -5.258     10.459     13.887
REMARK INTER + INTRA:          -6.312
REMARK INTER:                  -6.184
REMARK INTRA:                  -0.128
REMARK UNBOUND:                -0.132
REMARK SMILES O=C([O-])C=Cc1ccc(O)c(O)c1
REMARK SMILES IDX 6 1 13 2 7 3 11 4 8 5 9 6 5 7 4 8 2 9 1 10 3 11 12 12 10 14
REMARK H PARENT 12 13 10 15
REMARK Flexibility Score: inf
ROOT
ATOM      1  C   UNL     1       6.711   8.357 -11.757  1.00  0.00    -0.022 A 
ATOM      2  C   UNL     1       7.012   9.564 -12.412  1.00  0.00     0.058 A 
ATOM      3  C   UNL     1       6.674   7.167 -12.509  1.00  0.00     0.012 A 
ATOM      4  C   UNL     1       7.246   9.589 -13.794  1.00  0.00     0.157 A 
ATOM      5  C   UNL     1       6.908   7.193 -13.887  1.00  0.00     0.051 A 
ATOM      6  C   UNL     1       7.191   8.403 -14.533  1.00  0.00     0.157 A 
ENDROOT
BRANCH   1   7
ATOM      7  C   UNL     1       6.482   8.382 -10.291  1.00  0.00     0.010 C 
ATOM      8  C   UNL     1       7.453   8.225  -9.383  1.00  0.00     0.025 C 
BRANCH   8   9
ATOM      9  C   UNL     1       7.178   8.247  -7.937  1.00  0.00     0.064 C 
ATOM     10  O   UNL     1       8.137   8.221  -7.122  1.00  0.00    -0.545 OA
ATOM     11  O   UNL     1       5.875   8.296  -7.455  1.00  0.00    -0.545 OA
ENDBRANCH   8   9
ENDBRANCH   1   7
BRANCH   4  12
ATOM     12  O   UNL     1       7.533  10.791 -14.439  1.00  0.00    -0.504 OA
ATOM     13  H   UNL     1       7.606  11.663 -13.927  1.00  0.00     0.293 HD
ENDBRANCH   4  12
BRANCH   6  14
ATOM     14  O   UNL     1       7.424   8.431 -15.907  1.00  0.00    -0.504 OA
ATOM     15  H   UNL     1       7.272   9.271 -16.453  1.00  0.00     0.293 HD
ENDBRANCH   6  14
TORSDOF 4
ENDMDL
MODEL 5
REMARK VINA RESULT:    -4.862      3.127      4.065
REMARK INTER + INTRA:          -5.846
REMARK INTER:                  -5.708
REMARK INTRA:                  -0.138
REMARK UNBOUND:                -0.132
REMARK SMILES O=C([O-])C=Cc1ccc(O)c(O)c1
REMARK SMILES IDX 6 1 13 2 7 3 11 4 8 5 9 6 5 7 4 8 2 9 1 10 3 11 12 12 10 14
REMARK H PARENT 12 13 10 15
REMARK Flexibility Score: inf
ROOT
ATOM      1  C   UNL     1       8.942  13.973 -20.215  1.00  0.00    -0.022 A 
ATOM      2  C   UNL     1       9.040  12.571 -20.170  1.00  0.00     0.058 A 
ATOM      3  C   UNL     1       9.218  14.711 -19.048  1.00  0.00     0.012 A 
ATOM      4  C   UNL     1       9.382  11.916 -18.979  1.00  0.00     0.157 A 
ATOM      5  C   UNL     1       9.559  14.057 -17.861  1.00  0.00     0.051 A 
ATOM      6  C   UNL     1       9.639  12.659 -17.822  1.00  0.00     0.157 A 
ENDROOT
BRANCH   1   7
ATOM      7  C   UNL     1       8.586  14.618 -21.504  1.00  0.00     0.010 C 
ATOM      8  C   UNL     1       9.030  15.825 -21.879  1.00  0.00     0.025 C 
BRANCH   8   9
ATOM      9  C   UNL     1       8.642  16.433 -23.162  1.00  0.00     0.064 C 
ATOM     10  O   UNL     1       8.010  17.520 -23.169  1.00  0.00    -0.545 OA
ATOM     11  O   UNL     1       8.964  15.823 -24.370  1.00  0.00    -0.545 OA
ENDBRANCH   8   9
ENDBRANCH   1   7
BRANCH   4  12
ATOM     12  O   UNL     1       9.468  10.525 -18.938  1.00  0.00    -0.504 OA
ATOM     13  H   UNL     1      10.363  10.049 -18.935  1.00  0.00     0.293 HD
ENDBRANCH   4  12
BRANCH   6  14
ATOM     14  O   UNL     1       9.979  12.005 -16.639  1.00  0.00    -0.504 OA
ATOM     15  H   UNL     1      10.757  12.312 -16.068  1.00  0.00     0.293 HD
ENDBRANCH   6  14
TORSDOF 4
ENDMDL
MODEL 6
REMARK VINA RESULT:    -4.837      3.397      5.582
REMARK INTER + INTRA:          -5.817
REMARK INTER:                  -5.682
REMARK INTRA:                  -0.135
REMARK UNBOUND:                -0.132
REMARK SMILES O=C([O-])C=Cc1ccc(O)c(O)c1
REMARK SMILES IDX 6 1 13 2 7 3 11 4 8 5 9 6 5 7 4 8 2 9 1 10 3 11 12 12 10 14
REMARK H PARENT 12 13 10 15
REMARK Flexibility Score: inf
ROOT
ATOM      1  C   UNL     1       8.430  15.411 -19.293  1.00  0.00    -0.022 A 
ATOM      2  C   UNL     1       8.996  14.434 -18.456  1.00  0.00     0.058 A 
ATOM      3  C   UNL     1       8.182  15.088 -20.642  1.00  0.00     0.012 A 
ATOM      4  C   UNL     1       9.332  13.168 -18.958  1.00  0.00     0.157 A 
ATOM      5  C   UNL     1       8.517  13.826 -21.141  1.00  0.00     0.051 A 
ATOM      6  C   UNL     1       9.095  12.865 -20.303  1.00  0.00     0.157 A 
ENDROOT
BRANCH   1   7
ATOM      7  C   UNL     1       8.083  16.731 -18.711  1.00  0.00     0.010 C 
ATOM      8  C   UNL     1       8.218  17.892 -19.365  1.00  0.00     0.025 C 
BRANCH   8   9
ATOM      9  C   UNL     1       7.872  19.180 -18.743  1.00  0.00     0.064 C 
ATOM     10  O   UNL     1       6.664  19.461 -18.528  1.00  0.00    -0.545 OA
ATOM     11  O   UNL     1       8.858  20.094 -18.389  1.00  0.00    -0.545 OA
ENDBRANCH   8   9
ENDBRANCH   1   7
BRANCH   4  12
ATOM     12  O   UNL     1       9.903  12.208 -18.124  1.00  0.00    -0.504 OA
ATOM     13  H   UNL     1      10.836  12.321 -17.746  1.00  0.00     0.293 HD
ENDBRANCH   4  12
BRANCH   6  14
ATOM     14  O   UNL     1       9.430  11.607 -20.799  1.00  0.00    -0.504 OA
ATOM     15  H   UNL     1       9.418  10.783 -20.208  1.00  0.00     0.293 HD
ENDBRANCH   6  14
TORSDOF 4
ENDMDL
MODEL 7
REMARK VINA RESULT:    -4.828      9.451     12.498
REMARK INTER + INTRA:          -5.807
REMARK INTER:                  -5.676
REMARK INTRA:                  -0.131
REMARK UNBOUND:                -0.132
REMARK SMILES O=C([O-])C=Cc1ccc(O)c(O)c1
REMARK SMILES IDX 6 1 13 2 7 3 11 4 8 5 9 6 5 7 4 8 2 9 1 10 3 11 12 12 10 14
REMARK H PARENT 12 13 10 15
REMARK Flexibility Score: inf
ROOT
ATOM      1  C   UNL     1       7.929   7.624 -14.493  1.00  0.00    -0.022 A 
ATOM      2  C   UNL     1       9.220   8.178 -14.553  1.00  0.00     0.058 A 
ATOM      3  C   UNL     1       7.244   7.364 -15.696  1.00  0.00     0.012 A 
ATOM      4  C   UNL     1       9.807   8.490 -15.788  1.00  0.00     0.157 A 
ATOM      5  C   UNL     1       7.832   7.675 -16.926  1.00  0.00     0.051 A 
ATOM      6  C   UNL     1       9.111   8.242 -16.975  1.00  0.00     0.157 A 
ENDROOT
BRANCH   1   7
ATOM      7  C   UNL     1       7.357   7.302 -13.162  1.00  0.00     0.010 C 
ATOM      8  C   UNL     1       7.413   8.126 -12.108  1.00  0.00     0.025 C 
BRANCH   8   9
ATOM      9  C   UNL     1       6.841   7.760 -10.802  1.00  0.00     0.064 C 
ATOM     10  O   UNL     1       5.875   6.956 -10.751  1.00  0.00    -0.545 OA
ATOM     11  O   UNL     1       7.351   8.290  -9.622  1.00  0.00    -0.545 OA
ENDBRANCH   8   9
ENDBRANCH   1   7
BRANCH   4  12
ATOM     12  O   UNL     1      11.084   9.049 -15.840  1.00  0.00    -0.504 OA
ATOM     13  H   UNL     1      11.760   8.897 -15.100  1.00  0.00     0.293 HD
ENDBRANCH   4  12
BRANCH   6  14
ATOM     14  O   UNL     1       9.697   8.554 -18.200  1.00  0.00    -0.504 OA
ATOM     15  H   UNL     1      10.434   7.982 -18.597  1.00  0.00     0.293 HD
ENDBRANCH   6  14
TORSDOF 4
ENDMDL
MODEL 8
REMARK VINA RESULT:    -4.771      2.515      3.347
REMARK INTER + INTRA:          -5.739
REMARK INTER:                  -5.612
REMARK INTRA:                  -0.127
REMARK UNBOUND:                -0.132
REMARK SMILES O=C([O-])C=Cc1ccc(O)c(O)c1
REMARK SMILES IDX 6 1 13 2 7 3 11 4 8 5 9 6 5 7 4 8 2 9 1 10 3 11 12 12 10 14
REMARK H PARENT 12 13 10 15
REMARK Flexibility Score: inf
ROOT
ATOM      1  C   UNL     1       9.086  15.911 -19.151  1.00  0.00    -0.022 A 
ATOM      2  C   UNL     1      10.205  15.432 -18.448  1.00  0.00     0.058 A 
ATOM      3  C   UNL     1       7.825  15.877 -18.525  1.00  0.00     0.012 A 
ATOM      4  C   UNL     1      10.067  14.905 -17.156  1.00  0.00     0.157 A 
ATOM      5  C   UNL     1       7.689  15.352 -17.236  1.00  0.00     0.051 A 
ATOM      6  C   UNL     1       8.807  14.862 -16.550  1.00  0.00     0.157 A 
ENDROOT
BRANCH   1   7
ATOM      7  C   UNL     1       9.287  16.468 -20.512  1.00  0.00     0.010 C 
ATOM      8  C   UNL     1       8.807  15.902 -21.626  1.00  0.00     0.025 C 
BRANCH   8   9
ATOM      9  C   UNL     1       9.040  16.484 -22.958  1.00  0.00     0.064 C 
ATOM     10  O   UNL     1       8.235  17.337 -23.413  1.00  0.00    -0.545 OA
ATOM     11  O   UNL     1      10.138  16.106 -23.723  1.00  0.00    -0.545 OA
ENDBRANCH   8   9
ENDBRANCH   1   7
BRANCH   4  12
ATOM     12  O   UNL     1      11.180  14.422 -16.468  1.00  0.00    -0.504 OA
ATOM     13  H   UNL     1      12.108  14.794 -16.634  1.00  0.00     0.293 HD
ENDBRANCH   4  12
BRANCH   6  14
ATOM     14  O   UNL     1       8.673  14.338 -15.266  1.00  0.00    -0.504 OA
ATOM     15  H   UNL     1       9.189  13.517 -14.972  1.00  0.00     0.293 HD
ENDBRANCH   6  14
TORSDOF 4
ENDMDL
MODEL 9
REMARK VINA RESULT:    -4.758      9.823     13.181
REMARK INTER + INTRA:          -5.725
REMARK INTER:                  -5.596
REMARK INTRA:                  -0.129
REMARK UNBOUND:                -0.132
REMARK SMILES O=C([O-])C=Cc1ccc(O)c(O)c1
REMARK SMILES IDX 6 1 13 2 7 3 11 4 8 5 9 6 5 7 4 8 2 9 1 10 3 11 12 12 10 14
REMARK H PARENT 12 13 10 15
REMARK Flexibility Score: inf
ROOT
ATOM      1  C   UNL     1       7.191   7.961 -13.018  1.00  0.00    -0.022 A 
ATOM      2  C   UNL     1       7.563   9.293 -13.268  1.00  0.00     0.058 A 
ATOM      3  C   UNL     1       7.390   6.999 -14.028  1.00  0.00     0.012 A 
ATOM      4  C   UNL     1       8.100   9.666 -14.509  1.00  0.00     0.157 A 
ATOM      5  C   UNL     1       7.925   7.372 -15.265  1.00  0.00     0.051 A 
ATOM      6  C   UNL     1       8.278   8.704 -15.510  1.00  0.00     0.157 A 
ENDROOT
BRANCH   1   7
ATOM      7  C   UNL     1       6.638   7.616 -11.685  1.00  0.00     0.010 C 
ATOM      8  C   UNL     1       7.140   8.073 -10.530  1.00  0.00     0.025 C 
BRANCH   8   9
ATOM      9  C   UNL     1       6.566   7.696  -9.228  1.00  0.00     0.064 C 
ATOM     10  O   UNL     1       6.700   6.518  -8.808  1.00  0.00    -0.545 OA
ATOM     11  O   UNL     1       5.876   8.622  -8.454  1.00  0.00    -0.545 OA
ENDBRANCH   8   9
ENDBRANCH   1   7
BRANCH   4  12
ATOM     12  O   UNL     1       8.457  10.991 -14.754  1.00  0.00    -0.504 OA
ATOM     13  H   UNL     1       9.199  11.445 -14.233  1.00  0.00     0.293 HD
ENDBRANCH   4  12
BRANCH   6  14
ATOM     14  O   UNL     1       8.811   9.078 -16.742  1.00  0.00    -0.504 OA
ATOM     15  H   UNL     1       9.811   9.112 -16.899  1.00  0.00     0.293 HD
ENDBRANCH   6  14
TORSDOF 4
ENDMDL
