MODEL 1
REMARK VINA RESULT:    -5.135      0.000      0.000
REMARK INTER + INTRA:          -6.697
REMARK INTER:                  -6.336
REMARK INTRA:                  -0.361
REMARK UNBOUND:                -0.361
REMARK SMILES Oc1cc(O)c2cc(O)c(-c3cc(O)c(O)c(O)c3)[o+]c2c1.[Cl-]
REMARK SMILES IDX 10 1 20 2 21 3 22 4 2 5 3 6 4 7 6 8 7 9 8 10 11 11 12 12
REMARK SMILES IDX 13 13 19 14 15 15 17 16 14 17 16 19 18 21 9 23 1 25 5 27
REMARK H PARENT 14 18 16 20 18 22 9 24 1 26 5 28
REMARK Flexibility Score: inf
ROOT
ATOM      1  C   UNL     1      11.134  36.884  86.769  1.00  0.00     0.402 A 
ATOM      2  O   UNL     1      10.372  35.879  87.191  1.00  0.00    -0.202 OA
ATOM      3  C   UNL     1       9.079  36.009  87.467  1.00  0.00     0.368 A 
ATOM      4  C   UNL     1       8.360  34.892  87.902  1.00  0.00     0.162 A 
ATOM      5  C   UNL     1       6.999  34.999  88.196  1.00  0.00     0.128 A 
ATOM      6  C   UNL     1       6.351  36.232  88.054  1.00  0.00     0.093 A 
ATOM      7  C   UNL     1       7.048  37.365  87.620  1.00  0.00     0.136 A 
ATOM      8  C   UNL     1       8.433  37.261  87.322  1.00  0.00     0.125 A 
ATOM      9  C   UNL     1       9.214  38.346  86.894  1.00  0.00     0.078 A 
ATOM     10  C   UNL     1      10.574  38.167  86.624  1.00  0.00     0.223 A 
ENDROOT
BRANCH   1  11
ATOM     11  C   UNL     1      12.561  36.610  86.485  1.00  0.00     0.091 A 
ATOM     12  C   UNL     1      13.522  36.864  87.475  1.00  0.00     0.068 A 
ATOM     13  C   UNL     1      14.876  36.597  87.242  1.00  0.00     0.162 A 
ATOM     14  C   UNL     1      12.969  36.048  85.265  1.00  0.00     0.068 A 
ATOM     15  C   UNL     1      15.281  36.053  86.012  1.00  0.00     0.200 A 
ATOM     16  C   UNL     1      14.323  35.775  85.022  1.00  0.00     0.162 A 
BRANCH  13  17
ATOM     17  O   UNL     1      15.802  36.876  88.247  1.00  0.00    -0.504 OA
ATOM     18  H   UNL     1      15.993  37.821  88.556  1.00  0.00     0.293 HD
ENDBRANCH  13  17
BRANCH  15  19
ATOM     19  O   UNL     1      16.633  35.792  85.785  1.00  0.00    -0.502 OA
ATOM     20  H   UNL     1      17.368  36.267  86.295  1.00  0.00     0.293 HD
ENDBRANCH  15  19
BRANCH  16  21
ATOM     21  O   UNL     1      14.717  35.223  83.805  1.00  0.00    -0.504 OA
ATOM     22  H   UNL     1      15.645  35.375  83.428  1.00  0.00     0.293 HD
ENDBRANCH  16  21
ENDBRANCH   1  11
BRANCH  10  23
ATOM     23  O   UNL     1      11.362  39.255  86.247  1.00  0.00    -0.500 OA
ATOM     24  H   UNL     1      10.972  40.186  86.147  1.00  0.00     0.294 HD
ENDBRANCH  10  23
BRANCH   5  25
ATOM     25  O   UNL     1       6.301  33.875  88.628  1.00  0.00    -0.507 OA
ATOM     26  H   UNL     1       5.443  33.578  88.177  1.00  0.00     0.293 HD
ENDBRANCH   5  25
BRANCH   7  27
ATOM     27  O   UNL     1       6.329  38.558  87.501  1.00  0.00    -0.507 OA
ATOM     28  H   UNL     1       6.712  39.476  87.673  1.00  0.00     0.293 HD
ENDBRANCH   7  27
TORSDOF 7
ENDMDL
MODEL 2
REMARK VINA RESULT:    -4.981      1.362      7.141
REMARK INTER + INTRA:          -6.506
REMARK INTER:                  -6.127
REMARK INTRA:                  -0.379
REMARK UNBOUND:                -0.361
REMARK SMILES Oc1cc(O)c2cc(O)c(-c3cc(O)c(O)c(O)c3)[o+]c2c1.[Cl-]
REMARK SMILES IDX 10 1 20 2 21 3 22 4 2 5 3 6 4 7 6 8 7 9 8 10 11 11 12 12
REMARK SMILES IDX 13 13 19 14 15 15 17 16 14 17 16 19 18 21 9 23 1 25 5 27
REMARK H PARENT 14 18 16 20 18 22 9 24 1 26 5 28
REMARK Flexibility Score: inf
ROOT
ATOM      1  C   UNL     1      11.472  36.371  86.822  1.00  0.00     0.402 A 
ATOM      2  O   UNL     1      11.832  36.025  85.590  1.00  0.00    -0.202 OA
ATOM      3  C   UNL     1      13.092  36.028  85.170  1.00  0.00     0.368 A 
ATOM      4  C   UNL     1      13.372  35.645  83.855  1.00  0.00     0.162 A 
ATOM      5  C   UNL     1      14.688  35.634  83.388  1.00  0.00     0.128 A 
ATOM      6  C   UNL     1      15.732  36.009  84.241  1.00  0.00     0.093 A 
ATOM      7  C   UNL     1      15.478  36.396  85.562  1.00  0.00     0.136 A 
ATOM      8  C   UNL     1      14.142  36.410  86.040  1.00  0.00     0.125 A 
ATOM      9  C   UNL     1      13.792  36.797  87.343  1.00  0.00     0.078 A 
ATOM     10  C   UNL     1      12.451  36.789  87.741  1.00  0.00     0.223 A 
ENDROOT
BRANCH   1  11
ATOM     11  C   UNL     1      10.034  36.318  87.173  1.00  0.00     0.091 A 
ATOM     12  C   UNL     1       9.234  37.453  86.978  1.00  0.00     0.068 A 
ATOM     13  C   UNL     1       7.868  37.427  87.282  1.00  0.00     0.162 A 
ATOM     14  C   UNL     1       9.439  35.136  87.645  1.00  0.00     0.068 A 
ATOM     15  C   UNL     1       7.283  36.249  87.774  1.00  0.00     0.200 A 
ATOM     16  C   UNL     1       8.071  35.099  87.951  1.00  0.00     0.162 A 
BRANCH  13  17
ATOM     17  O   UNL     1       7.110  38.582  87.087  1.00  0.00    -0.504 OA
ATOM     18  H   UNL     1       6.393  38.872  87.740  1.00  0.00     0.293 HD
ENDBRANCH  13  17
BRANCH  15  19
ATOM     19  O   UNL     1       5.920  36.230  88.077  1.00  0.00    -0.502 OA
ATOM     20  H   UNL     1       5.433  37.048  88.421  1.00  0.00     0.293 HD
ENDBRANCH  15  19
BRANCH  16  21
ATOM     21  O   UNL     1       7.493  33.923  88.425  1.00  0.00    -0.504 OA
ATOM     22  H   UNL     1       8.039  33.220  88.910  1.00  0.00     0.293 HD
ENDBRANCH  16  21
ENDBRANCH   1  11
BRANCH  10  23
ATOM     23  O   UNL     1      12.098  37.220  89.020  1.00  0.00    -0.500 OA
ATOM     24  H   UNL     1      12.501  38.056  89.431  1.00  0.00     0.294 HD
ENDBRANCH  10  23
BRANCH   5  25
ATOM     25  O   UNL     1      14.946  35.250  82.075  1.00  0.00    -0.507 OA
ATOM     26  H   UNL     1      14.376  35.579  81.304  1.00  0.00     0.293 HD
ENDBRANCH   5  25
BRANCH   7  27
ATOM     27  O   UNL     1      16.576  36.753  86.351  1.00  0.00    -0.507 OA
ATOM     28  H   UNL     1      17.268  36.103  86.694  1.00  0.00     0.293 HD
ENDBRANCH   7  27
TORSDOF 7
ENDMDL
MODEL 3
REMARK VINA RESULT:    -4.963      1.387      7.165
REMARK INTER + INTRA:          -6.485
REMARK INTER:                  -6.117
REMARK INTRA:                  -0.368
REMARK UNBOUND:                -0.361
REMARK SMILES Oc1cc(O)c2cc(O)c(-c3cc(O)c(O)c(O)c3)[o+]c2c1.[Cl-]
REMARK SMILES IDX 10 1 20 2 21 3 22 4 2 5 3 6 4 7 6 8 7 9 8 10 11 11 12 12
REMARK SMILES IDX 13 13 19 14 15 15 17 16 14 17 16 19 18 21 9 23 1 25 5 27
REMARK H PARENT 14 18 16 20 18 22 9 24 1 26 5 28
REMARK Flexibility Score: inf
ROOT
ATOM      1  C   UNL     1      11.560  36.400  86.780  1.00  0.00     0.402 A 
ATOM      2  O   UNL     1      11.911  36.056  85.545  1.00  0.00    -0.202 OA
ATOM      3  C   UNL     1      13.170  36.047  85.120  1.00  0.00     0.368 A 
ATOM      4  C   UNL     1      13.442  35.667  83.803  1.00  0.00     0.162 A 
ATOM      5  C   UNL     1      14.755  35.645  83.331  1.00  0.00     0.128 A 
ATOM      6  C   UNL     1      15.806  36.004  84.181  1.00  0.00     0.093 A 
ATOM      7  C   UNL     1      15.562  36.388  85.505  1.00  0.00     0.136 A 
ATOM      8  C   UNL     1      14.227  36.415  85.988  1.00  0.00     0.125 A 
ATOM      9  C   UNL     1      13.886  36.799  87.295  1.00  0.00     0.078 A 
ATOM     10  C   UNL     1      12.547  36.804  87.697  1.00  0.00     0.223 A 
ENDROOT
BRANCH   1  11
ATOM     11  C   UNL     1      10.123  36.360  87.136  1.00  0.00     0.091 A 
ATOM     12  C   UNL     1       9.561  35.162  87.603  1.00  0.00     0.068 A 
ATOM     13  C   UNL     1       8.211  35.098  87.966  1.00  0.00     0.162 A 
ATOM     14  C   UNL     1       9.320  37.510  87.071  1.00  0.00     0.068 A 
ATOM     15  C   UNL     1       7.408  36.248  87.879  1.00  0.00     0.200 A 
ATOM     16  C   UNL     1       7.967  37.458  87.433  1.00  0.00     0.162 A 
BRANCH  13  17
ATOM     17  O   UNL     1       7.688  33.885  88.412  1.00  0.00    -0.504 OA
ATOM     18  H   UNL     1       7.633  33.069  87.814  1.00  0.00     0.293 HD
ENDBRANCH  13  17
BRANCH  15  19
ATOM     19  O   UNL     1       6.061  36.176  88.239  1.00  0.00    -0.502 OA
ATOM     20  H   UNL     1       5.765  36.033  89.197  1.00  0.00     0.293 HD
ENDBRANCH  15  19
BRANCH  16  21
ATOM     21  O   UNL     1       7.178  38.604  87.358  1.00  0.00    -0.504 OA
ATOM     22  H   UNL     1       7.474  39.481  87.773  1.00  0.00     0.293 HD
ENDBRANCH  16  21
ENDBRANCH   1  11
BRANCH  10  23
ATOM     23  O   UNL     1      12.203  37.233  88.980  1.00  0.00    -0.500 OA
ATOM     24  H   UNL     1      12.144  38.218  89.214  1.00  0.00     0.294 HD
ENDBRANCH  10  23
BRANCH   5  25
ATOM     25  O   UNL     1      15.004  35.263  82.015  1.00  0.00    -0.507 OA
ATOM     26  H   UNL     1      14.383  35.528  81.260  1.00  0.00     0.293 HD
ENDBRANCH   5  25
BRANCH   7  27
ATOM     27  O   UNL     1      16.666  36.730  86.292  1.00  0.00    -0.507 OA
ATOM     28  H   UNL     1      17.561  36.266  86.251  1.00  0.00     0.293 HD
ENDBRANCH   7  27
TORSDOF 7
ENDMDL
MODEL 4
REMARK VINA RESULT:    -4.737      1.124      2.637
REMARK INTER + INTRA:          -6.205
REMARK INTER:                  -5.881
REMARK INTRA:                  -0.324
REMARK UNBOUND:                -0.361
REMARK SMILES Oc1cc(O)c2cc(O)c(-c3cc(O)c(O)c(O)c3)[o+]c2c1.[Cl-]
REMARK SMILES IDX 10 1 20 2 21 3 22 4 2 5 3 6 4 7 6 8 7 9 8 10 11 11 12 12
REMARK SMILES IDX 13 13 19 14 15 15 17 16 14 17 16 19 18 21 9 23 1 25 5 27
REMARK H PARENT 14 18 16 20 18 22 9 24 1 26 5 28
REMARK Flexibility Score: inf
ROOT
ATOM      1  C   UNL     1      10.802  36.280  86.761  1.00  0.00     0.402 A 
ATOM      2  O   UNL     1      10.225  37.478  86.722  1.00  0.00    -0.202 OA
ATOM      3  C   UNL     1       8.949  37.683  87.031  1.00  0.00     0.368 A 
ATOM      4  C   UNL     1       8.433  38.980  86.963  1.00  0.00     0.162 A 
ATOM      5  C   UNL     1       7.097  39.226  87.286  1.00  0.00     0.128 A 
ATOM      6  C   UNL     1       6.271  38.168  87.682  1.00  0.00     0.093 A 
ATOM      7  C   UNL     1       6.764  36.860  87.759  1.00  0.00     0.136 A 
ATOM      8  C   UNL     1       8.121  36.606  87.428  1.00  0.00     0.125 A 
ATOM      9  C   UNL     1       8.697  35.326  87.464  1.00  0.00     0.078 A 
ATOM     10  C   UNL     1      10.042  35.153  87.120  1.00  0.00     0.223 A 
ENDROOT
BRANCH   1  11
ATOM     11  C   UNL     1      12.236  36.182  86.402  1.00  0.00     0.091 A 
ATOM     12  C   UNL     1      13.209  36.551  87.343  1.00  0.00     0.068 A 
ATOM     13  C   UNL     1      14.571  36.450  87.040  1.00  0.00     0.162 A 
ATOM     14  C   UNL     1      12.646  35.672  85.160  1.00  0.00     0.068 A 
ATOM     15  C   UNL     1      14.976  35.960  85.787  1.00  0.00     0.200 A 
ATOM     16  C   UNL     1      14.009  35.567  84.846  1.00  0.00     0.162 A 
BRANCH  13  17
ATOM     17  O   UNL     1      15.507  36.841  87.998  1.00  0.00    -0.504 OA
ATOM     18  H   UNL     1      16.197  36.199  88.370  1.00  0.00     0.293 HD
ENDBRANCH  13  17
BRANCH  15  19
ATOM     19  O   UNL     1      16.336  35.865  85.491  1.00  0.00    -0.502 OA
ATOM     20  H   UNL     1      16.866  36.648  85.130  1.00  0.00     0.293 HD
ENDBRANCH  15  19
BRANCH  16  21
ATOM     21  O   UNL     1      14.404  35.066  83.607  1.00  0.00    -0.504 OA
ATOM     22  H   UNL     1      14.584  35.678  82.820  1.00  0.00     0.293 HD
ENDBRANCH  16  21
ENDBRANCH   1  11
BRANCH  10  23
ATOM     23  O   UNL     1      10.602  33.875  87.107  1.00  0.00    -0.500 OA
ATOM     24  H   UNL     1      11.503  33.693  86.679  1.00  0.00     0.294 HD
ENDBRANCH  10  23
BRANCH   5  25
ATOM     25  O   UNL     1       6.601  40.525  87.211  1.00  0.00    -0.507 OA
ATOM     26  H   UNL     1       7.219  41.328  87.205  1.00  0.00     0.293 HD
ENDBRANCH   5  25
BRANCH   7  27
ATOM     27  O   UNL     1       5.875  35.859  88.165  1.00  0.00    -0.507 OA
ATOM     28  H   UNL     1       4.943  36.030  88.512  1.00  0.00     0.293 HD
ENDBRANCH   7  27
TORSDOF 7
ENDMDL
MODEL 5
REMARK VINA RESULT:    -4.724     12.231     13.949
REMARK INTER + INTRA:          -6.190
REMARK INTER:                  -5.821
REMARK INTRA:                  -0.369
REMARK UNBOUND:                -0.361
REMARK SMILES Oc1cc(O)c2cc(O)c(-c3cc(O)c(O)c(O)c3)[o+]c2c1.[Cl-]
REMARK SMILES IDX 10 1 20 2 21 3 22 4 2 5 3 6 4 7 6 8 7 9 8 10 11 11 12 12
REMARK SMILES IDX 13 13 19 14 15 15 17 16 14 17 16 19 18 21 9 23 1 25 5 27
REMARK H PARENT 14 18 16 20 18 22 9 24 1 26 5 28
REMARK Flexibility Score: inf
ROOT
ATOM      1  C   UNL     1      11.062  48.342  93.481  1.00  0.00     0.402 A 
ATOM      2  O   UNL     1      11.205  47.097  93.034  1.00  0.00    -0.202 OA
ATOM      3  C   UNL     1      10.585  46.633  91.954  1.00  0.00     0.368 A 
ATOM      4  C   UNL     1      10.801  45.310  91.561  1.00  0.00     0.162 A 
ATOM      5  C   UNL     1      10.166  44.798  90.428  1.00  0.00     0.128 A 
ATOM      6  C   UNL     1       9.309  45.614  89.682  1.00  0.00     0.093 A 
ATOM      7  C   UNL     1       9.076  46.943  90.054  1.00  0.00     0.136 A 
ATOM      8  C   UNL     1       9.718  47.467  91.207  1.00  0.00     0.125 A 
ATOM      9  C   UNL     1       9.534  48.782  91.663  1.00  0.00     0.078 A 
ATOM     10  C   UNL     1      10.198  49.226  92.811  1.00  0.00     0.223 A 
ENDROOT
BRANCH   1  11
ATOM     11  C   UNL     1      11.815  48.742  94.692  1.00  0.00     0.091 A 
ATOM     12  C   UNL     1      13.121  49.237  94.559  1.00  0.00     0.068 A 
ATOM     13  C   UNL     1      13.850  49.641  95.683  1.00  0.00     0.162 A 
ATOM     14  C   UNL     1      11.230  48.691  95.968  1.00  0.00     0.068 A 
ATOM     15  C   UNL     1      13.267  49.569  96.959  1.00  0.00     0.200 A 
ATOM     16  C   UNL     1      11.951  49.095  97.100  1.00  0.00     0.162 A 
BRANCH  13  17
ATOM     17  O   UNL     1      15.150  50.114  95.510  1.00  0.00    -0.504 OA
ATOM     18  H   UNL     1      15.679  50.526  96.270  1.00  0.00     0.293 HD
ENDBRANCH  13  17
BRANCH  15  19
ATOM     19  O   UNL     1      14.001  49.971  98.076  1.00  0.00    -0.502 OA
ATOM     20  H   UNL     1      14.976  49.726  98.199  1.00  0.00     0.293 HD
ENDBRANCH  15  19
BRANCH  16  21
ATOM     21  O   UNL     1      11.363  49.034  98.362  1.00  0.00    -0.504 OA
ATOM     22  H   UNL     1      10.378  49.231  98.499  1.00  0.00     0.293 HD
ENDBRANCH  16  21
ENDBRANCH   1  11
BRANCH  10  23
ATOM     23  O   UNL     1       9.976  50.517  93.292  1.00  0.00    -0.500 OA
ATOM     24  H   UNL     1       9.409  51.185  92.783  1.00  0.00     0.294 HD
ENDBRANCH  10  23
BRANCH   5  25
ATOM     25  O   UNL     1      10.395  43.476  90.053  1.00  0.00    -0.507 OA
ATOM     26  H   UNL     1      10.775  42.799  90.704  1.00  0.00     0.293 HD
ENDBRANCH   5  25
BRANCH   7  27
ATOM     27  O   UNL     1       8.209  47.694  89.255  1.00  0.00    -0.507 OA
ATOM     28  H   UNL     1       7.637  48.455  89.591  1.00  0.00     0.293 HD
ENDBRANCH   7  27
TORSDOF 7
ENDMDL
MODEL 6
REMARK VINA RESULT:    -4.709      3.084      6.917
REMARK INTER + INTRA:          -6.171
REMARK INTER:                  -5.914
REMARK INTRA:                  -0.257
REMARK UNBOUND:                -0.361
REMARK SMILES Oc1cc(O)c2cc(O)c(-c3cc(O)c(O)c(O)c3)[o+]c2c1.[Cl-]
REMARK SMILES IDX 10 1 20 2 21 3 22 4 2 5 3 6 4 7 6 8 7 9 8 10 11 11 12 12
REMARK SMILES IDX 13 13 19 14 15 15 17 16 14 17 16 19 18 21 9 23 1 25 5 27
REMARK H PARENT 14 18 16 20 18 22 9 24 1 26 5 28
REMARK Flexibility Score: inf
ROOT
ATOM      1  C   UNL     1      10.606  37.691  88.353  1.00  0.00     0.402 A 
ATOM      2  O   UNL     1      10.445  38.747  89.145  1.00  0.00    -0.202 OA
ATOM      3  C   UNL     1      11.457  39.410  89.694  1.00  0.00     0.368 A 
ATOM      4  C   UNL     1      11.187  40.511  90.511  1.00  0.00     0.162 A 
ATOM      5  C   UNL     1      12.231  41.228  91.097  1.00  0.00     0.128 A 
ATOM      6  C   UNL     1      13.556  40.843  90.865  1.00  0.00     0.093 A 
ATOM      7  C   UNL     1      13.854  39.744  90.051  1.00  0.00     0.136 A 
ATOM      8  C   UNL     1      12.795  39.011  89.455  1.00  0.00     0.125 A 
ATOM      9  C   UNL     1      12.998  37.889  88.636  1.00  0.00     0.078 A 
ATOM     10  C   UNL     1      11.903  37.214  88.086  1.00  0.00     0.223 A 
ENDROOT
BRANCH   1  11
ATOM     11  C   UNL     1       9.398  37.043  87.794  1.00  0.00     0.091 A 
ATOM     12  C   UNL     1       9.020  35.773  88.256  1.00  0.00     0.068 A 
ATOM     13  C   UNL     1       7.873  35.144  87.760  1.00  0.00     0.162 A 
ATOM     14  C   UNL     1       8.587  37.696  86.851  1.00  0.00     0.068 A 
ATOM     15  C   UNL     1       7.077  35.793  86.801  1.00  0.00     0.200 A 
ATOM     16  C   UNL     1       7.435  37.075  86.349  1.00  0.00     0.162 A 
BRANCH  13  17
ATOM     17  O   UNL     1       7.539  33.876  88.235  1.00  0.00    -0.504 OA
ATOM     18  H   UNL     1       8.055  33.047  87.967  1.00  0.00     0.293 HD
ENDBRANCH  13  17
BRANCH  15  19
ATOM     19  O   UNL     1       5.935  35.159  86.309  1.00  0.00    -0.502 OA
ATOM     20  H   UNL     1       5.857  34.858  85.346  1.00  0.00     0.293 HD
ENDBRANCH  15  19
BRANCH  16  21
ATOM     21  O   UNL     1       6.642  37.730  85.408  1.00  0.00    -0.504 OA
ATOM     22  H   UNL     1       6.593  38.741  85.366  1.00  0.00     0.293 HD
ENDBRANCH  16  21
ENDBRANCH   1  11
BRANCH  10  23
ATOM     23  O   UNL     1      12.101  36.070  87.313  1.00  0.00    -0.500 OA
ATOM     24  H   UNL     1      12.047  35.140  87.714  1.00  0.00     0.294 HD
ENDBRANCH  10  23
BRANCH   5  25
ATOM     25  O   UNL     1      11.941  42.322  91.908  1.00  0.00    -0.507 OA
ATOM     26  H   UNL     1      12.372  42.436  92.818  1.00  0.00     0.293 HD
ENDBRANCH   5  25
BRANCH   7  27
ATOM     27  O   UNL     1      15.203  39.425  89.867  1.00  0.00    -0.507 OA
ATOM     28  H   UNL     1      15.973  39.977  90.215  1.00  0.00     0.293 HD
ENDBRANCH   7  27
TORSDOF 7
ENDMDL
MODEL 7
REMARK VINA RESULT:    -4.672     11.631     13.742
REMARK INTER + INTRA:          -6.125
REMARK INTER:                  -5.754
REMARK INTRA:                  -0.371
REMARK UNBOUND:                -0.361
REMARK SMILES Oc1cc(O)c2cc(O)c(-c3cc(O)c(O)c(O)c3)[o+]c2c1.[Cl-]
REMARK SMILES IDX 10 1 20 2 21 3 22 4 2 5 3 6 4 7 6 8 7 9 8 10 11 11 12 12
REMARK SMILES IDX 13 13 19 14 15 15 17 16 14 17 16 19 18 21 9 23 1 25 5 27
REMARK H PARENT 14 18 16 20 18 22 9 24 1 26 5 28
REMARK Flexibility Score: inf
ROOT
ATOM      1  C   UNL     1      10.496  47.030  94.049  1.00  0.00     0.402 A 
ATOM      2  O   UNL     1      11.035  45.814  94.008  1.00  0.00    -0.202 OA
ATOM      3  C   UNL     1      11.144  45.101  92.892  1.00  0.00     0.368 A 
ATOM      4  C   UNL     1      11.728  43.833  92.950  1.00  0.00     0.162 A 
ATOM      5  C   UNL     1      11.860  43.064  91.792  1.00  0.00     0.128 A 
ATOM      6  C   UNL     1      11.404  43.565  90.568  1.00  0.00     0.093 A 
ATOM      7  C   UNL     1      10.816  44.833  90.483  1.00  0.00     0.136 A 
ATOM      8  C   UNL     1      10.679  45.617  91.659  1.00  0.00     0.125 A 
ATOM      9  C   UNL     1      10.090  46.891  91.671  1.00  0.00     0.078 A 
ATOM     10  C   UNL     1       9.986  47.604  92.871  1.00  0.00     0.223 A 
ENDROOT
BRANCH   1  11
ATOM     11  C   UNL     1      10.441  47.728  95.354  1.00  0.00     0.091 A 
ATOM     12  C   UNL     1       9.291  47.611  96.149  1.00  0.00     0.068 A 
ATOM     13  C   UNL     1       9.217  48.244  97.395  1.00  0.00     0.162 A 
ATOM     14  C   UNL     1      11.536  48.460  95.840  1.00  0.00     0.068 A 
ATOM     15  C   UNL     1      10.308  48.992  97.868  1.00  0.00     0.200 A 
ATOM     16  C   UNL     1      11.472  49.096  97.088  1.00  0.00     0.162 A 
BRANCH  13  17
ATOM     17  O   UNL     1       8.051  48.115  98.150  1.00  0.00    -0.504 OA
ATOM     18  H   UNL     1       8.064  48.084  99.162  1.00  0.00     0.293 HD
ENDBRANCH  13  17
BRANCH  15  19
ATOM     19  O   UNL     1      10.226  49.622  99.110  1.00  0.00    -0.502 OA
ATOM     20  H   UNL     1      10.838  49.381  99.880  1.00  0.00     0.293 HD
ENDBRANCH  15  19
BRANCH  16  21
ATOM     21  O   UNL     1      12.564  49.824  97.557  1.00  0.00    -0.504 OA
ATOM     22  H   UNL     1      12.815  50.721  97.158  1.00  0.00     0.293 HD
ENDBRANCH  16  21
ENDBRANCH   1  11
BRANCH  10  23
ATOM     23  O   UNL     1       9.356  48.849  92.893  1.00  0.00    -0.500 OA
ATOM     24  H   UNL     1       8.406  48.959  93.231  1.00  0.00     0.294 HD
ENDBRANCH  10  23
BRANCH   5  25
ATOM     25  O   UNL     1      12.444  41.802  91.870  1.00  0.00    -0.507 OA
ATOM     26  H   UNL     1      12.553  41.322  92.756  1.00  0.00     0.293 HD
ENDBRANCH   5  25
BRANCH   7  27
ATOM     27  O   UNL     1      10.389  45.262  89.223  1.00  0.00    -0.507 OA
ATOM     28  H   UNL     1      11.008  45.516  88.467  1.00  0.00     0.293 HD
ENDBRANCH   7  27
TORSDOF 7
ENDMDL
MODEL 8
REMARK VINA RESULT:    -4.584      1.648      7.030
REMARK INTER + INTRA:          -6.017
REMARK INTER:                  -5.686
REMARK INTRA:                  -0.331
REMARK UNBOUND:                -0.361
REMARK SMILES Oc1cc(O)c2cc(O)c(-c3cc(O)c(O)c(O)c3)[o+]c2c1.[Cl-]
REMARK SMILES IDX 10 1 20 2 21 3 22 4 2 5 3 6 4 7 6 8 7 9 8 10 11 11 12 12
REMARK SMILES IDX 13 13 19 14 15 15 17 16 14 17 16 19 18 21 9 23 1 25 5 27
REMARK H PARENT 14 18 16 20 18 22 9 24 1 26 5 28
REMARK Flexibility Score: inf
ROOT
ATOM      1  C   UNL     1      11.223  37.178  87.764  1.00  0.00     0.402 A 
ATOM      2  O   UNL     1      12.198  36.568  87.096  1.00  0.00    -0.202 OA
ATOM      3  C   UNL     1      13.483  36.876  87.238  1.00  0.00     0.368 A 
ATOM      4  C   UNL     1      14.437  36.176  86.494  1.00  0.00     0.162 A 
ATOM      5  C   UNL     1      15.793  36.476  86.626  1.00  0.00     0.128 A 
ATOM      6  C   UNL     1      16.201  37.483  87.508  1.00  0.00     0.093 A 
ATOM      7  C   UNL     1      15.266  38.198  88.264  1.00  0.00     0.136 A 
ATOM      8  C   UNL     1      13.885  37.898  88.131  1.00  0.00     0.125 A 
ATOM      9  C   UNL     1      12.877  38.572  88.839  1.00  0.00     0.078 A 
ATOM     10  C   UNL     1      11.536  38.222  88.652  1.00  0.00     0.223 A 
ENDROOT
BRANCH   1  11
ATOM     11  C   UNL     1       9.829  36.737  87.526  1.00  0.00     0.091 A 
ATOM     12  C   UNL     1       9.000  37.495  86.685  1.00  0.00     0.068 A 
ATOM     13  C   UNL     1       7.685  37.093  86.426  1.00  0.00     0.162 A 
ATOM     14  C   UNL     1       9.334  35.544  88.078  1.00  0.00     0.068 A 
ATOM     15  C   UNL     1       7.189  35.910  86.998  1.00  0.00     0.200 A 
ATOM     16  C   UNL     1       8.018  35.132  87.824  1.00  0.00     0.162 A 
BRANCH  13  17
ATOM     17  O   UNL     1       6.889  37.882  85.596  1.00  0.00    -0.504 OA
ATOM     18  H   UNL     1       5.877  37.864  85.644  1.00  0.00     0.293 HD
ENDBRANCH  13  17
BRANCH  15  19
ATOM     19  O   UNL     1       5.875  35.516  86.738  1.00  0.00    -0.502 OA
ATOM     20  H   UNL     1       5.110  35.742  87.361  1.00  0.00     0.293 HD
ENDBRANCH  15  19
BRANCH  16  21
ATOM     21  O   UNL     1       7.536  33.950  88.383  1.00  0.00    -0.504 OA
ATOM     22  H   UNL     1       7.943  33.050  88.155  1.00  0.00     0.293 HD
ENDBRANCH  16  21
ENDBRANCH   1  11
BRANCH  10  23
ATOM     23  O   UNL     1      10.530  38.925  89.317  1.00  0.00    -0.500 OA
ATOM     24  H   UNL     1      10.744  39.617  90.026  1.00  0.00     0.294 HD
ENDBRANCH  10  23
BRANCH   5  25
ATOM     25  O   UNL     1      16.728  35.767  85.875  1.00  0.00    -0.507 OA
ATOM     26  H   UNL     1      16.678  35.730  84.864  1.00  0.00     0.293 HD
ENDBRANCH   5  25
BRANCH   7  27
ATOM     27  O   UNL     1      15.754  39.187  89.125  1.00  0.00    -0.507 OA
ATOM     28  H   UNL     1      16.454  39.030  89.835  1.00  0.00     0.293 HD
ENDBRANCH   7  27
TORSDOF 7
ENDMDL
MODEL 9
REMARK VINA RESULT:    -2.962      0.177      1.802
REMARK INTER + INTRA:          -4.016
REMARK INTER:                  -3.639
REMARK INTRA:                  -0.376
REMARK UNBOUND:                -0.361
REMARK SMILES Oc1cc(O)c2cc(O)c(-c3cc(O)c(O)c(O)c3)[o+]c2c1.[Cl-]
REMARK SMILES IDX 10 1 20 2 21 3 22 4 2 5 3 6 4 7 6 8 7 9 8 10 11 11 12 12
REMARK SMILES IDX 13 13 19 14 15 15 17 16 14 17 16 19 18 21 9 23 1 25 5 27
REMARK H PARENT 14 18 16 20 18 22 9 24 1 26 5 28
REMARK Flexibility Score: inf
ROOT
ATOM      1  C   UNL     1      11.248  36.857  86.727  1.00  0.00     0.402 A 
ATOM      2  O   UNL     1      10.482  35.862  87.168  1.00  0.00    -0.202 OA
ATOM      3  C   UNL     1       9.178  35.988  87.388  1.00  0.00     0.368 A 
ATOM      4  C   UNL     1       8.456  34.884  87.849  1.00  0.00     0.162 A 
ATOM      5  C   UNL     1       7.084  34.987  88.085  1.00  0.00     0.128 A 
ATOM      6  C   UNL     1       6.427  36.202  87.858  1.00  0.00     0.093 A 
ATOM      7  C   UNL     1       7.127  37.322  87.396  1.00  0.00     0.136 A 
ATOM      8  C   UNL     1       8.523  37.223  87.157  1.00  0.00     0.125 A 
ATOM      9  C   UNL     1       9.308  38.296  86.707  1.00  0.00     0.078 A 
ATOM     10  C   UNL     1      10.680  38.123  86.498  1.00  0.00     0.223 A 
ENDROOT
BRANCH   1  11
ATOM     11  C   UNL     1      12.688  36.588  86.511  1.00  0.00     0.091 A 
ATOM     12  C   UNL     1      13.122  36.121  85.261  1.00  0.00     0.068 A 
ATOM     13  C   UNL     1      14.479  35.877  85.021  1.00  0.00     0.162 A 
ATOM     14  C   UNL     1      13.639  36.846  87.512  1.00  0.00     0.068 A 
ATOM     15  C   UNL     1      15.424  36.116  86.033  1.00  0.00     0.200 A 
ATOM     16  C   UNL     1      15.001  36.606  87.281  1.00  0.00     0.162 A 
BRANCH  13  17
ATOM     17  O   UNL     1      14.869  35.400  83.770  1.00  0.00    -0.504 OA
ATOM     18  H   UNL     1      14.919  34.410  83.563  1.00  0.00     0.293 HD
ENDBRANCH  13  17
BRANCH  15  19
ATOM     19  O   UNL     1      16.775  35.868  85.788  1.00  0.00    -0.502 OA
ATOM     20  H   UNL     1      17.093  35.381  84.959  1.00  0.00     0.293 HD
ENDBRANCH  15  19
BRANCH  16  21
ATOM     21  O   UNL     1      15.935  36.859  88.284  1.00  0.00    -0.504 OA
ATOM     22  H   UNL     1      15.889  37.695  88.854  1.00  0.00     0.293 HD
ENDBRANCH  16  21
ENDBRANCH   1  11
BRANCH  10  23
ATOM     23  O   UNL     1      11.469  39.202  86.099  1.00  0.00    -0.500 OA
ATOM     24  H   UNL     1      11.916  39.813  86.773  1.00  0.00     0.294 HD
ENDBRANCH  10  23
BRANCH   5  25
ATOM     25  O   UNL     1       6.382  33.875  88.544  1.00  0.00    -0.507 OA
ATOM     26  H   UNL     1       5.422  33.704  88.270  1.00  0.00     0.293 HD
ENDBRANCH   5  25
BRANCH   7  27
ATOM     27  O   UNL     1       6.399  38.498  87.192  1.00  0.00    -0.507 OA
ATOM     28  H   UNL     1       6.760  39.427  87.350  1.00  0.00     0.293 HD
ENDBRANCH   7  27
TORSDOF 7
ENDMDL
