MODEL 1
REMARK VINA RESULT:    -3.394      0.000      0.000
REMARK INTER + INTRA:          -4.609
REMARK INTER:                  -4.386
REMARK INTRA:                  -0.223
REMARK UNBOUND:                -0.223
REMARK SMILES CCCCCCC(=O)[O-]
REMARK SMILES IDX 5 1 6 2 7 3 8 4 9 5 4 6 3 7 2 8 1 9
REMARK H PARENT
REMARK Flexibility Score: inf
ROOT
ATOM      1  C   UNL     1      14.046  17.226  15.789  1.00  0.00     0.006 C 
ENDROOT
BRANCH   1   2
ATOM      2  C   UNL     1      15.336  16.398  15.848  1.00  0.00     0.053 C 
BRANCH   2   3
ATOM      3  C   UNL     1      16.547  17.234  15.564  1.00  0.00     0.041 C 
ATOM      4  O   UNL     1      17.281  17.627  16.509  1.00  0.00    -0.550 OA
ATOM      5  O   UNL     1      16.884  17.551  14.254  1.00  0.00    -0.550 OA
ENDBRANCH   2   3
ENDBRANCH   1   2
BRANCH   1   6
ATOM      6  C   UNL     1      13.305  17.244  17.134  1.00  0.00     0.000 C 
BRANCH   6   7
ATOM      7  C   UNL     1      12.959  15.822  17.591  1.00  0.00    -0.000 C 
BRANCH   7   8
ATOM      8  C   UNL     1      11.758  15.271  16.814  1.00  0.00    -0.003 C 
ATOM      9  C   UNL     1      10.557  16.205  16.921  1.00  0.00     0.004 C 
ENDBRANCH   7   8
ENDBRANCH   6   7
ENDBRANCH   1   6
TORSDOF 5
ENDMDL
MODEL 2
REMARK VINA RESULT:    -3.367      3.233      5.043
REMARK INTER + INTRA:          -4.574
REMARK INTER:                  -4.456
REMARK INTRA:                  -0.118
REMARK UNBOUND:                -0.223
REMARK SMILES CCCCCCC(=O)[O-]
REMARK SMILES IDX 5 1 6 2 7 3 8 4 9 5 4 6 3 7 2 8 1 9
REMARK H PARENT
REMARK Flexibility Score: inf
ROOT
ATOM      1  C   UNL     1      13.815  16.509  17.317  1.00  0.00     0.006 C 
ENDROOT
BRANCH   1   2
ATOM      2  C   UNL     1      12.586  15.591  17.357  1.00  0.00     0.053 C 
BRANCH   2   3
ATOM      3  C   UNL     1      11.330  16.328  17.005  1.00  0.00     0.041 C 
ATOM      4  O   UNL     1      11.248  17.570  17.201  1.00  0.00    -0.550 OA
ATOM      5  O   UNL     1      10.262  15.651  16.431  1.00  0.00    -0.550 OA
ENDBRANCH   2   3
ENDBRANCH   1   2
BRANCH   1   6
ATOM      6  C   UNL     1      14.354  16.696  15.892  1.00  0.00     0.000 C 
BRANCH   6   7
ATOM      7  C   UNL     1      15.832  16.294  15.805  1.00  0.00    -0.000 C 
BRANCH   7   8
ATOM      8  C   UNL     1      16.729  17.526  15.644  1.00  0.00    -0.003 C 
ATOM      9  C   UNL     1      16.886  17.905  14.175  1.00  0.00     0.004 C 
ENDBRANCH   7   8
ENDBRANCH   6   7
ENDBRANCH   1   6
TORSDOF 5
ENDMDL
MODEL 3
REMARK VINA RESULT:    -3.360      4.268      5.018
REMARK INTER + INTRA:          -4.564
REMARK INTER:                  -4.391
REMARK INTRA:                  -0.173
REMARK UNBOUND:                -0.223
REMARK SMILES CCCCCCC(=O)[O-]
REMARK SMILES IDX 5 1 6 2 7 3 8 4 9 5 4 6 3 7 2 8 1 9
REMARK H PARENT
REMARK Flexibility Score: inf
ROOT
ATOM      1  C   UNL     1      11.038  17.049  14.905  1.00  0.00     0.006 C 
ENDROOT
BRANCH   1   2
ATOM      2  C   UNL     1      12.344  16.694  15.629  1.00  0.00     0.053 C 
BRANCH   2   3
ATOM      3  C   UNL     1      12.103  15.787  16.797  1.00  0.00     0.041 C 
ATOM      4  O   UNL     1      11.047  15.102  16.860  1.00  0.00    -0.550 OA
ATOM      5  O   UNL     1      13.059  15.671  17.799  1.00  0.00    -0.550 OA
ENDBRANCH   2   3
ENDBRANCH   1   2
BRANCH   1   6
ATOM      6  C   UNL     1      11.239  18.145  13.849  1.00  0.00     0.000 C 
BRANCH   6   7
ATOM      7  C   UNL     1      10.187  18.039  12.738  1.00  0.00    -0.000 C 
BRANCH   7   8
ATOM      8  C   UNL     1      10.164  16.630  12.135  1.00  0.00    -0.003 C 
ATOM      9  C   UNL     1       8.745  16.216  11.757  1.00  0.00     0.004 C 
ENDBRANCH   7   8
ENDBRANCH   6   7
ENDBRANCH   1   6
TORSDOF 5
ENDMDL
MODEL 4
REMARK VINA RESULT:    -3.319      3.339      4.933
REMARK INTER + INTRA:          -4.512
REMARK INTER:                  -4.330
REMARK INTRA:                  -0.182
REMARK UNBOUND:                -0.223
REMARK SMILES CCCCCCC(=O)[O-]
REMARK SMILES IDX 5 1 6 2 7 3 8 4 9 5 4 6 3 7 2 8 1 9
REMARK H PARENT
REMARK Flexibility Score: inf
ROOT
ATOM      1  C   UNL     1      13.546  16.336  16.476  1.00  0.00     0.006 C 
ENDROOT
BRANCH   1   2
ATOM      2  C   UNL     1      12.324  15.673  17.125  1.00  0.00     0.053 C 
BRANCH   2   3
ATOM      3  C   UNL     1      11.040  16.229  16.590  1.00  0.00     0.041 C 
ATOM      4  O   UNL     1       9.959  16.033  17.207  1.00  0.00    -0.550 OA
ATOM      5  O   UNL     1      11.040  16.990  15.428  1.00  0.00    -0.550 OA
ENDBRANCH   2   3
ENDBRANCH   1   2
BRANCH   1   6
ATOM      6  C   UNL     1      14.422  17.070  17.501  1.00  0.00     0.000 C 
BRANCH   6   7
ATOM      7  C   UNL     1      15.649  17.696  16.828  1.00  0.00    -0.000 C 
BRANCH   7   8
ATOM      8  C   UNL     1      16.148  16.824  15.671  1.00  0.00    -0.003 C 
ATOM      9  C   UNL     1      16.707  17.678  14.537  1.00  0.00     0.004 C 
ENDBRANCH   7   8
ENDBRANCH   6   7
ENDBRANCH   1   6
TORSDOF 5
ENDMDL
MODEL 5
REMARK VINA RESULT:    -3.318      2.160      3.332
REMARK INTER + INTRA:          -4.510
REMARK INTER:                  -4.053
REMARK INTRA:                  -0.457
REMARK UNBOUND:                -0.223
REMARK SMILES CCCCCCC(=O)[O-]
REMARK SMILES IDX 5 1 6 2 7 3 8 4 9 5 4 6 3 7 2 8 1 9
REMARK H PARENT
REMARK Flexibility Score: inf
ROOT
ATOM      1  C   UNL     1      11.836  15.448  16.723  1.00  0.00     0.006 C 
ENDROOT
BRANCH   1   2
ATOM      2  C   UNL     1      13.027  15.640  17.672  1.00  0.00     0.053 C 
BRANCH   2   3
ATOM      3  C   UNL     1      14.034  16.599  17.115  1.00  0.00     0.041 C 
ATOM      4  O   UNL     1      14.577  16.372  16.002  1.00  0.00    -0.550 OA
ATOM      5  O   UNL     1      14.348  17.761  17.809  1.00  0.00    -0.550 OA
ENDBRANCH   2   3
ENDBRANCH   1   2
BRANCH   1   6
ATOM      6  C   UNL     1      11.103  16.766  16.437  1.00  0.00     0.000 C 
BRANCH   6   7
ATOM      7  C   UNL     1      11.142  17.105  14.942  1.00  0.00    -0.000 C 
BRANCH   7   8
ATOM      8  C   UNL     1      11.894  18.418  14.694  1.00  0.00    -0.003 C 
ATOM      9  C   UNL     1      11.777  19.355  15.893  1.00  0.00     0.004 C 
ENDBRANCH   7   8
ENDBRANCH   6   7
ENDBRANCH   1   6
TORSDOF 5
ENDMDL
MODEL 6
REMARK VINA RESULT:    -3.313      1.755      2.507
REMARK INTER + INTRA:          -4.504
REMARK INTER:                  -4.160
REMARK INTRA:                  -0.344
REMARK UNBOUND:                -0.223
REMARK SMILES CCCCCCC(=O)[O-]
REMARK SMILES IDX 5 1 6 2 7 3 8 4 9 5 4 6 3 7 2 8 1 9
REMARK H PARENT
REMARK Flexibility Score: inf
ROOT
ATOM      1  C   UNL     1      13.241  15.834  17.649  1.00  0.00     0.006 C 
ENDROOT
BRANCH   1   2
ATOM      2  C   UNL     1      13.813  17.194  17.226  1.00  0.00     0.053 C 
BRANCH   2   3
ATOM      3  C   UNL     1      14.725  17.071  16.044  1.00  0.00     0.041 C 
ATOM      4  O   UNL     1      14.808  18.010  15.208  1.00  0.00    -0.550 OA
ATOM      5  O   UNL     1      15.508  15.935  15.883  1.00  0.00    -0.550 OA
ENDBRANCH   2   3
ENDBRANCH   1   2
BRANCH   1   6
ATOM      6  C   UNL     1      11.974  15.467  16.863  1.00  0.00     0.000 C 
BRANCH   6   7
ATOM      7  C   UNL     1      11.133  16.713  16.563  1.00  0.00    -0.000 C 
BRANCH   7   8
ATOM      8  C   UNL     1      10.982  16.926  15.052  1.00  0.00    -0.003 C 
ATOM      9  C   UNL     1      11.317  18.362  14.661  1.00  0.00     0.004 C 
ENDBRANCH   7   8
ENDBRANCH   6   7
ENDBRANCH   1   6
TORSDOF 5
ENDMDL
MODEL 7
REMARK VINA RESULT:    -3.215      2.997      4.278
REMARK INTER + INTRA:          -4.377
REMARK INTER:                  -4.016
REMARK INTRA:                  -0.361
REMARK UNBOUND:                -0.223
REMARK SMILES CCCCCCC(=O)[O-]
REMARK SMILES IDX 5 1 6 2 7 3 8 4 9 5 4 6 3 7 2 8 1 9
REMARK H PARENT
REMARK Flexibility Score: inf
ROOT
ATOM      1  C   UNL     1      10.924  16.480  16.570  1.00  0.00     0.006 C 
ENDROOT
BRANCH   1   2
ATOM      2  C   UNL     1      11.044  17.006  15.134  1.00  0.00     0.053 C 
BRANCH   2   3
ATOM      3  C   UNL     1      11.464  18.444  15.100  1.00  0.00     0.041 C 
ATOM      4  O   UNL     1      11.577  19.045  13.999  1.00  0.00    -0.550 OA
ATOM      5  O   UNL     1      11.700  19.129  16.285  1.00  0.00    -0.550 OA
ENDBRANCH   2   3
ENDBRANCH   1   2
BRANCH   1   6
ATOM      6  C   UNL     1      11.877  15.307  16.841  1.00  0.00     0.000 C 
BRANCH   6   7
ATOM      7  C   UNL     1      13.073  15.754  17.691  1.00  0.00    -0.000 C 
BRANCH   7   8
ATOM      8  C   UNL     1      14.169  16.372  16.817  1.00  0.00    -0.003 C 
ATOM      9  C   UNL     1      14.721  17.648  17.445  1.00  0.00     0.004 C 
ENDBRANCH   7   8
ENDBRANCH   6   7
ENDBRANCH   1   6
TORSDOF 5
ENDMDL
MODEL 8
REMARK VINA RESULT:    -3.197      1.767      2.459
REMARK INTER + INTRA:          -4.354
REMARK INTER:                  -4.010
REMARK INTRA:                  -0.345
REMARK UNBOUND:                -0.223
REMARK SMILES CCCCCCC(=O)[O-]
REMARK SMILES IDX 5 1 6 2 7 3 8 4 9 5 4 6 3 7 2 8 1 9
REMARK H PARENT
REMARK Flexibility Score: inf
ROOT
ATOM      1  C   UNL     1      13.141  18.206  15.007  1.00  0.00     0.006 C 
ENDROOT
BRANCH   1   2
ATOM      2  C   UNL     1      14.442  18.395  15.798  1.00  0.00     0.053 C 
BRANCH   2   3
ATOM      3  C   UNL     1      14.813  17.162  16.563  1.00  0.00     0.041 C 
ATOM      4  O   UNL     1      15.213  16.135  15.953  1.00  0.00    -0.550 OA
ATOM      5  O   UNL     1      14.748  17.157  17.951  1.00  0.00    -0.550 OA
ENDBRANCH   2   3
ENDBRANCH   1   2
BRANCH   1   6
ATOM      6  C   UNL     1      11.938  17.935  15.923  1.00  0.00     0.000 C 
BRANCH   6   7
ATOM      7  C   UNL     1      11.031  16.849  15.332  1.00  0.00    -0.000 C 
BRANCH   7   8
ATOM      8  C   UNL     1      10.565  15.871  16.416  1.00  0.00    -0.003 C 
ATOM      9  C   UNL     1      11.753  15.256  17.151  1.00  0.00     0.004 C 
ENDBRANCH   7   8
ENDBRANCH   6   7
ENDBRANCH   1   6
TORSDOF 5
ENDMDL
MODEL 9
REMARK VINA RESULT:    -3.131      4.401      5.199
REMARK INTER + INTRA:          -4.268
REMARK INTER:                  -4.011
REMARK INTRA:                  -0.257
REMARK UNBOUND:                -0.223
REMARK SMILES CCCCCCC(=O)[O-]
REMARK SMILES IDX 5 1 6 2 7 3 8 4 9 5 4 6 3 7 2 8 1 9
REMARK H PARENT
REMARK Flexibility Score: inf
ROOT
ATOM      1  C   UNL     1      11.773  18.200  14.250  1.00  0.00     0.006 C 
ENDROOT
BRANCH   1   2
ATOM      2  C   UNL     1      10.710  17.439  13.447  1.00  0.00     0.053 C 
BRANCH   2   3
ATOM      3  C   UNL     1       9.969  18.342  12.508  1.00  0.00     0.041 C 
ATOM      4  O   UNL     1      10.062  18.175  11.263  1.00  0.00    -0.550 OA
ATOM      5  O   UNL     1       9.151  19.347  13.008  1.00  0.00    -0.550 OA
ENDBRANCH   2   3
ENDBRANCH   1   2
BRANCH   1   6
ATOM      6  C   UNL     1      11.812  17.763  15.722  1.00  0.00     0.000 C 
BRANCH   6   7
ATOM      7  C   UNL     1      12.600  16.458  15.887  1.00  0.00    -0.000 C 
BRANCH   7   8
ATOM      8  C   UNL     1      11.834  15.459  16.762  1.00  0.00    -0.003 C 
ATOM      9  C   UNL     1      10.355  15.821  16.846  1.00  0.00     0.004 C 
ENDBRANCH   7   8
ENDBRANCH   6   7
ENDBRANCH   1   6
TORSDOF 5
ENDMDL
