MODEL 1
REMARK VINA RESULT:    -4.430      0.000      0.000
REMARK INTER + INTRA:          -8.059
REMARK INTER:                  -7.019
REMARK INTRA:                  -1.040
REMARK UNBOUND:                -1.040
REMARK SMILES CCCCCCCCCCCC(=O)[O-]
REMARK SMILES IDX 7 1 8 2 9 3 10 4 11 5 12 6 13 7 14 8 6 9 5 10 4 11 3 12 2 13
REMARK SMILES IDX 1 14
REMARK H PARENT
REMARK Flexibility Score: inf
ROOT
ATOM      1  C   UNL     1       0.164 -21.615  -5.242  1.00  0.00     0.000 C 
ENDROOT
BRANCH   1   2
ATOM      2  C   UNL     1       0.805 -20.383  -4.578  1.00  0.00     0.000 C 
BRANCH   2   3
ATOM      3  C   UNL     1       0.552 -20.315  -3.065  1.00  0.00     0.000 C 
BRANCH   3   4
ATOM      4  C   UNL     1       1.875 -20.229  -2.290  1.00  0.00     0.006 C 
BRANCH   4   5
ATOM      5  C   UNL     1       2.816 -19.160  -2.864  1.00  0.00     0.053 C 
BRANCH   5   6
ATOM      6  C   UNL     1       2.475 -17.792  -2.360  1.00  0.00     0.041 C 
ATOM      7  O   UNL     1       1.712 -17.044  -3.025  1.00  0.00    -0.550 OA
ATOM      8  O   UNL     1       2.975 -17.355  -1.140  1.00  0.00    -0.550 OA
ENDBRANCH   5   6
ENDBRANCH   4   5
ENDBRANCH   3   4
ENDBRANCH   2   3
ENDBRANCH   1   2
BRANCH   1   9
ATOM      9  C   UNL     1       0.935 -22.196  -6.447  1.00  0.00     0.000 C 
BRANCH   9  10
ATOM     10  C   UNL     1       0.857 -21.359  -7.738  1.00  0.00    -0.000 C 
BRANCH  10  11
ATOM     11  C   UNL     1       2.237 -20.943  -8.293  1.00  0.00    -0.000 C 
BRANCH  11  12
ATOM     12  C   UNL     1       3.138 -20.263  -7.248  1.00  0.00    -0.000 C 
BRANCH  12  13
ATOM     13  C   UNL     1       4.350 -21.122  -6.864  1.00  0.00    -0.003 C 
ATOM     14  C   UNL     1       4.390 -21.376  -5.360  1.00  0.00     0.004 C 
ENDBRANCH  12  13
ENDBRANCH  11  12
ENDBRANCH  10  11
ENDBRANCH   9  10
ENDBRANCH   1   9
TORSDOF 10
ENDMDL
MODEL 2
REMARK VINA RESULT:    -4.356      2.263      4.442
REMARK INTER + INTRA:          -7.942
REMARK INTER:                  -6.901
REMARK INTRA:                  -1.041
REMARK UNBOUND:                -1.040
REMARK SMILES CCCCCCCCCCCC(=O)[O-]
REMARK SMILES IDX 7 1 8 2 9 3 10 4 11 5 12 6 13 7 14 8 6 9 5 10 4 11 3 12 2 13
REMARK SMILES IDX 1 14
REMARK H PARENT
REMARK Flexibility Score: inf
ROOT
ATOM      1  C   UNL     1       1.088 -20.951  -7.829  1.00  0.00     0.000 C 
ENDROOT
BRANCH   1   2
ATOM      2  C   UNL     1       2.556 -20.930  -8.292  1.00  0.00     0.000 C 
BRANCH   2   3
ATOM      3  C   UNL     1       3.474 -20.143  -7.345  1.00  0.00     0.000 C 
BRANCH   3   4
ATOM      4  C   UNL     1       4.593 -21.039  -6.794  1.00  0.00     0.006 C 
BRANCH   4   5
ATOM      5  C   UNL     1       4.315 -21.498  -5.356  1.00  0.00     0.053 C 
BRANCH   5   6
ATOM      6  C   UNL     1       5.481 -21.232  -4.454  1.00  0.00     0.041 C 
ATOM      7  O   UNL     1       5.292 -20.961  -3.239  1.00  0.00    -0.550 OA
ATOM      8  O   UNL     1       6.776 -21.315  -4.948  1.00  0.00    -0.550 OA
ENDBRANCH   5   6
ENDBRANCH   4   5
ENDBRANCH   3   4
ENDBRANCH   2   3
ENDBRANCH   1   2
BRANCH   1   9
ATOM      9  C   UNL     1       0.668 -22.193  -7.012  1.00  0.00     0.000 C 
BRANCH   9  10
ATOM     10  C   UNL     1       0.165 -21.896  -5.586  1.00  0.00    -0.000 C 
BRANCH  10  11
ATOM     11  C   UNL     1       0.811 -20.647  -4.947  1.00  0.00    -0.000 C 
BRANCH  11  12
ATOM     12  C   UNL     1       0.531 -20.514  -3.441  1.00  0.00    -0.000 C 
BRANCH  12  13
ATOM     13  C   UNL     1       1.789 -20.163  -2.635  1.00  0.00    -0.003 C 
ATOM     14  C   UNL     1       2.205 -18.714  -2.870  1.00  0.00     0.004 C 
ENDBRANCH  12  13
ENDBRANCH  11  12
ENDBRANCH  10  11
ENDBRANCH   9  10
ENDBRANCH   1   9
TORSDOF 10
ENDMDL
MODEL 3
REMARK VINA RESULT:    -4.318      3.180      5.114
REMARK INTER + INTRA:          -7.882
REMARK INTER:                  -6.890
REMARK INTRA:                  -0.992
REMARK UNBOUND:                -1.040
REMARK SMILES CCCCCCCCCCCC(=O)[O-]
REMARK SMILES IDX 7 1 8 2 9 3 10 4 11 5 12 6 13 7 14 8 6 9 5 10 4 11 3 12 2 13
REMARK SMILES IDX 1 14
REMARK H PARENT
REMARK Flexibility Score: inf
ROOT
ATOM      1  C   UNL     1       1.218 -22.109  -7.730  1.00  0.00     0.000 C 
ENDROOT
BRANCH   1   2
ATOM      2  C   UNL     1       1.664 -20.801  -8.408  1.00  0.00     0.000 C 
BRANCH   2   3
ATOM      3  C   UNL     1       2.969 -20.237  -7.826  1.00  0.00     0.000 C 
BRANCH   3   4
ATOM      4  C   UNL     1       3.726 -21.311  -7.032  1.00  0.00     0.006 C 
BRANCH   4   5
ATOM      5  C   UNL     1       5.027 -20.774  -6.421  1.00  0.00     0.053 C 
BRANCH   5   6
ATOM      6  C   UNL     1       6.225 -21.169  -7.230  1.00  0.00     0.041 C 
ATOM      7  O   UNL     1       6.532 -22.383  -7.355  1.00  0.00    -0.550 OA
ATOM      8  O   UNL     1       6.982 -20.197  -7.872  1.00  0.00    -0.550 OA
ENDBRANCH   5   6
ENDBRANCH   4   5
ENDBRANCH   3   4
ENDBRANCH   2   3
ENDBRANCH   1   2
BRANCH   1   9
ATOM      9  C   UNL     1       0.006 -21.984  -6.781  1.00  0.00     0.000 C 
BRANCH   9  10
ATOM     10  C   UNL     1       0.358 -21.880  -5.284  1.00  0.00    -0.000 C 
BRANCH  10  11
ATOM     11  C   UNL     1       0.788 -20.463  -4.844  1.00  0.00    -0.000 C 
BRANCH  11  12
ATOM     12  C   UNL     1       0.502 -20.168  -3.362  1.00  0.00    -0.000 C 
BRANCH  12  13
ATOM     13  C   UNL     1       1.761 -19.752  -2.590  1.00  0.00    -0.003 C 
ATOM     14  C   UNL     1       3.023 -20.054  -3.393  1.00  0.00     0.004 C 
ENDBRANCH  12  13
ENDBRANCH  11  12
ENDBRANCH  10  11
ENDBRANCH   9  10
ENDBRANCH   1   9
TORSDOF 10
ENDMDL
MODEL 4
REMARK VINA RESULT:    -4.267      1.145      2.299
REMARK INTER + INTRA:          -7.801
REMARK INTER:                  -6.462
REMARK INTRA:                  -1.338
REMARK UNBOUND:                -1.040
REMARK SMILES CCCCCCCCCCCC(=O)[O-]
REMARK SMILES IDX 7 1 8 2 9 3 10 4 11 5 12 6 13 7 14 8 6 9 5 10 4 11 3 12 2 13
REMARK SMILES IDX 1 14
REMARK H PARENT
REMARK Flexibility Score: inf
ROOT
ATOM      1  C   UNL     1       0.862 -21.579  -7.718  1.00  0.00     0.000 C 
ENDROOT
BRANCH   1   2
ATOM      2  C   UNL     1       1.001 -22.084  -6.270  1.00  0.00     0.000 C 
BRANCH   2   3
ATOM      3  C   UNL     1       0.104 -21.326  -5.280  1.00  0.00     0.000 C 
BRANCH   3   4
ATOM      4  C   UNL     1       0.929 -20.757  -4.117  1.00  0.00     0.006 C 
BRANCH   4   5
ATOM      5  C   UNL     1       0.999 -19.224  -4.149  1.00  0.00     0.053 C 
BRANCH   5   6
ATOM      6  C   UNL     1       2.242 -18.711  -3.487  1.00  0.00     0.041 C 
ATOM      7  O   UNL     1       2.430 -18.905  -2.258  1.00  0.00    -0.550 OA
ATOM      8  O   UNL     1       3.205 -18.047  -4.235  1.00  0.00    -0.550 OA
ENDBRANCH   5   6
ENDBRANCH   4   5
ENDBRANCH   3   4
ENDBRANCH   2   3
ENDBRANCH   1   2
BRANCH   1   9
ATOM      9  C   UNL     1       2.082 -20.811  -8.272  1.00  0.00     0.000 C 
BRANCH   9  10
ATOM     10  C   UNL     1       2.888 -20.021  -7.223  1.00  0.00    -0.000 C 
BRANCH  10  11
ATOM     11  C   UNL     1       4.415 -20.055  -7.460  1.00  0.00    -0.000 C 
BRANCH  11  12
ATOM     12  C   UNL     1       5.144 -21.104  -6.603  1.00  0.00    -0.000 C 
BRANCH  12  13
ATOM     13  C   UNL     1       4.401 -21.421  -5.298  1.00  0.00    -0.003 C 
ATOM     14  C   UNL     1       5.228 -21.016  -4.082  1.00  0.00     0.004 C 
ENDBRANCH  12  13
ENDBRANCH  11  12
ENDBRANCH  10  11
ENDBRANCH   9  10
ENDBRANCH   1   9
TORSDOF 10
ENDMDL
MODEL 5
REMARK VINA RESULT:    -4.220      1.852      4.060
REMARK INTER + INTRA:          -7.727
REMARK INTER:                  -6.384
REMARK INTRA:                  -1.342
REMARK UNBOUND:                -1.040
REMARK SMILES CCCCCCCCCCCC(=O)[O-]
REMARK SMILES IDX 7 1 8 2 9 3 10 4 11 5 12 6 13 7 14 8 6 9 5 10 4 11 3 12 2 13
REMARK SMILES IDX 1 14
REMARK H PARENT
REMARK Flexibility Score: inf
ROOT
ATOM      1  C   UNL     1       3.424 -20.097  -7.135  1.00  0.00     0.000 C 
ENDROOT
BRANCH   1   2
ATOM      2  C   UNL     1       2.445 -20.583  -8.219  1.00  0.00     0.000 C 
BRANCH   2   3
ATOM      3  C   UNL     1       1.248 -21.356  -7.646  1.00  0.00     0.000 C 
BRANCH   3   4
ATOM      4  C   UNL     1       1.500 -21.754  -6.184  1.00  0.00     0.006 C 
BRANCH   4   5
ATOM      5  C   UNL     1       0.300 -21.439  -5.281  1.00  0.00     0.053 C 
BRANCH   5   6
ATOM      6  C   UNL     1       0.608 -20.338  -4.312  1.00  0.00     0.041 C 
ATOM      7  O   UNL     1       0.975 -19.209  -4.733  1.00  0.00    -0.550 OA
ATOM      8  O   UNL     1       0.459 -20.550  -2.948  1.00  0.00    -0.550 OA
ENDBRANCH   5   6
ENDBRANCH   4   5
ENDBRANCH   3   4
ENDBRANCH   2   3
ENDBRANCH   1   2
BRANCH   1   9
ATOM      9  C   UNL     1       4.912 -20.074  -7.547  1.00  0.00     0.000 C 
BRANCH   9  10
ATOM     10  C   UNL     1       5.815 -21.066  -6.788  1.00  0.00    -0.000 C 
BRANCH  10  11
ATOM     11  C   UNL     1       5.113 -21.761  -5.600  1.00  0.00    -0.000 C 
BRANCH  11  12
ATOM     12  C   UNL     1       5.493 -21.169  -4.232  1.00  0.00    -0.000 C 
BRANCH  12  13
ATOM     13  C   UNL     1       4.287 -20.577  -3.490  1.00  0.00    -0.003 C 
ATOM     14  C   UNL     1       4.280 -19.053  -3.581  1.00  0.00     0.004 C 
ENDBRANCH  12  13
ENDBRANCH  11  12
ENDBRANCH  10  11
ENDBRANCH   9  10
ENDBRANCH   1   9
TORSDOF 10
ENDMDL
MODEL 6
REMARK VINA RESULT:    -4.214     10.546     12.161
REMARK INTER + INTRA:          -7.717
REMARK INTER:                  -6.379
REMARK INTRA:                  -1.338
REMARK UNBOUND:                -1.040
REMARK SMILES CCCCCCCCCCCC(=O)[O-]
REMARK SMILES IDX 7 1 8 2 9 3 10 4 11 5 12 6 13 7 14 8 6 9 5 10 4 11 3 12 2 13
REMARK SMILES IDX 1 14
REMARK H PARENT
REMARK Flexibility Score: inf
ROOT
ATOM      1  C   UNL     1      -6.763 -26.859  -1.510  1.00  0.00     0.000 C 
ENDROOT
BRANCH   1   2
ATOM      2  C   UNL     1      -8.265 -26.526  -1.530  1.00  0.00     0.000 C 
BRANCH   2   3
ATOM      3  C   UNL     1      -8.804 -26.255  -2.942  1.00  0.00     0.000 C 
BRANCH   3   4
ATOM      4  C   UNL     1      -9.245 -24.792  -3.090  1.00  0.00     0.006 C 
BRANCH   4   5
ATOM      5  C   UNL     1      -9.236 -24.044  -1.750  1.00  0.00     0.053 C 
BRANCH   5   6
ATOM      6  C   UNL     1      -8.291 -22.882  -1.769  1.00  0.00     0.041 C 
ATOM      7  O   UNL     1      -7.139 -23.011  -2.260  1.00  0.00    -0.550 OA
ATOM      8  O   UNL     1      -8.695 -21.649  -1.273  1.00  0.00    -0.550 OA
ENDBRANCH   5   6
ENDBRANCH   4   5
ENDBRANCH   3   4
ENDBRANCH   2   3
ENDBRANCH   1   2
BRANCH   1   9
ATOM      9  C   UNL     1      -5.962 -26.385  -2.743  1.00  0.00     0.000 C 
BRANCH   9  10
ATOM     10  C   UNL     1      -5.263 -27.506  -3.537  1.00  0.00    -0.000 C 
BRANCH  10  11
ATOM     11  C   UNL     1      -5.715 -28.927  -3.134  1.00  0.00    -0.000 C 
BRANCH  11  12
ATOM     12  C   UNL     1      -6.780 -29.520  -4.072  1.00  0.00    -0.000 C 
BRANCH  12  13
ATOM     13  C   UNL     1      -7.891 -30.258  -3.312  1.00  0.00    -0.003 C 
ATOM     14  C   UNL     1      -7.505 -30.478  -1.852  1.00  0.00     0.004 C 
ENDBRANCH  12  13
ENDBRANCH  11  12
ENDBRANCH  10  11
ENDBRANCH   9  10
ENDBRANCH   1   9
TORSDOF 10
ENDMDL
MODEL 7
REMARK VINA RESULT:    -4.211      1.929      3.008
REMARK INTER + INTRA:          -7.713
REMARK INTER:                  -6.637
REMARK INTRA:                  -1.076
REMARK UNBOUND:                -1.040
REMARK SMILES CCCCCCCCCCCC(=O)[O-]
REMARK SMILES IDX 7 1 8 2 9 3 10 4 11 5 12 6 13 7 14 8 6 9 5 10 4 11 3 12 2 13
REMARK SMILES IDX 1 14
REMARK H PARENT
REMARK Flexibility Score: inf
ROOT
ATOM      1  C   UNL     1       1.746 -18.753  -6.062  1.00  0.00     0.000 C 
ENDROOT
BRANCH   1   2
ATOM      2  C   UNL     1       1.518 -18.547  -4.553  1.00  0.00     0.000 C 
BRANCH   2   3
ATOM      3  C   UNL     1       1.137 -19.842  -3.820  1.00  0.00     0.000 C 
BRANCH   3   4
ATOM      4  C   UNL     1       2.101 -20.119  -2.659  1.00  0.00     0.006 C 
BRANCH   4   5
ATOM      5  C   UNL     1       3.215 -19.068  -2.564  1.00  0.00     0.053 C 
BRANCH   5   6
ATOM      6  C   UNL     1       4.544 -19.628  -2.971  1.00  0.00     0.041 C 
ATOM      7  O   UNL     1       5.319 -18.954  -3.699  1.00  0.00    -0.550 OA
ATOM      8  O   UNL     1       4.938 -20.881  -2.520  1.00  0.00    -0.550 OA
ENDBRANCH   5   6
ENDBRANCH   4   5
ENDBRANCH   3   4
ENDBRANCH   2   3
ENDBRANCH   1   2
BRANCH   1   9
ATOM      9  C   UNL     1       3.133 -19.309  -6.453  1.00  0.00     0.000 C 
BRANCH   9  10
ATOM     10  C   UNL     1       3.109 -20.667  -7.182  1.00  0.00    -0.000 C 
BRANCH  10  11
ATOM     11  C   UNL     1       2.014 -20.770  -8.267  1.00  0.00    -0.000 C 
BRANCH  11  12
ATOM     12  C   UNL     1       1.106 -22.000  -8.106  1.00  0.00    -0.000 C 
BRANCH  12  13
ATOM     13  C   UNL     1       0.525 -22.123  -6.690  1.00  0.00    -0.003 C 
ATOM     14  C   UNL     1       0.150 -23.568  -6.374  1.00  0.00     0.004 C 
ENDBRANCH  12  13
ENDBRANCH  11  12
ENDBRANCH  10  11
ENDBRANCH   9  10
ENDBRANCH   1   9
TORSDOF 10
ENDMDL
MODEL 8
REMARK VINA RESULT:    -4.209      3.548      5.668
REMARK INTER + INTRA:          -7.709
REMARK INTER:                  -6.429
REMARK INTRA:                  -1.279
REMARK UNBOUND:                -1.040
REMARK SMILES CCCCCCCCCCCC(=O)[O-]
REMARK SMILES IDX 7 1 8 2 9 3 10 4 11 5 12 6 13 7 14 8 6 9 5 10 4 11 3 12 2 13
REMARK SMILES IDX 1 14
REMARK H PARENT
REMARK Flexibility Score: inf
ROOT
ATOM      1  C   UNL     1       5.526 -21.737  -5.817  1.00  0.00     0.000 C 
ENDROOT
BRANCH   1   2
ATOM      2  C   UNL     1       4.131 -21.116  -6.012  1.00  0.00     0.000 C 
BRANCH   2   3
ATOM      3  C   UNL     1       3.652 -21.158  -7.471  1.00  0.00     0.000 C 
BRANCH   3   4
ATOM      4  C   UNL     1       2.363 -20.344  -7.650  1.00  0.00     0.006 C 
BRANCH   4   5
ATOM      5  C   UNL     1       1.195 -21.206  -8.147  1.00  0.00     0.053 C 
BRANCH   5   6
ATOM      6  C   UNL     1       0.700 -22.137  -7.083  1.00  0.00     0.041 C 
ATOM      7  O   UNL     1       0.560 -23.364  -7.330  1.00  0.00    -0.550 OA
ATOM      8  O   UNL     1       0.424 -21.656  -5.810  1.00  0.00    -0.550 OA
ENDBRANCH   5   6
ENDBRANCH   4   5
ENDBRANCH   3   4
ENDBRANCH   2   3
ENDBRANCH   1   2
BRANCH   1   9
ATOM      9  C   UNL     1       6.263 -22.134  -7.114  1.00  0.00     0.000 C 
BRANCH   9  10
ATOM     10  C   UNL     1       7.741 -21.704  -7.182  1.00  0.00    -0.000 C 
BRANCH  10  11
ATOM     11  C   UNL     1       7.941 -20.233  -7.608  1.00  0.00    -0.000 C 
BRANCH  11  12
ATOM     12  C   UNL     1       7.425 -19.930  -9.025  1.00  0.00    -0.000 C 
BRANCH  12  13
ATOM     13  C   UNL     1       6.306 -18.880  -9.033  1.00  0.00    -0.003 C 
ATOM     14  C   UNL     1       6.054 -18.334  -7.630  1.00  0.00     0.004 C 
ENDBRANCH  12  13
ENDBRANCH  11  12
ENDBRANCH  10  11
ENDBRANCH   9  10
ENDBRANCH   1   9
TORSDOF 10
ENDMDL
MODEL 9
REMARK VINA RESULT:    -4.141      2.790      4.748
REMARK INTER + INTRA:          -7.602
REMARK INTER:                  -6.386
REMARK INTRA:                  -1.216
REMARK UNBOUND:                -1.040
REMARK SMILES CCCCCCCCCCCC(=O)[O-]
REMARK SMILES IDX 7 1 8 2 9 3 10 4 11 5 12 6 13 7 14 8 6 9 5 10 4 11 3 12 2 13
REMARK SMILES IDX 1 14
REMARK H PARENT
REMARK Flexibility Score: inf
ROOT
ATOM      1  C   UNL     1       0.140 -21.327  -5.247  1.00  0.00     0.000 C 
ENDROOT
BRANCH   1   2
ATOM      2  C   UNL     1       1.366 -21.785  -6.058  1.00  0.00     0.000 C 
BRANCH   2   3
ATOM      3  C   UNL     1       1.114 -21.801  -7.573  1.00  0.00     0.000 C 
BRANCH   3   4
ATOM      4  C   UNL     1       2.012 -20.783  -8.290  1.00  0.00     0.006 C 
BRANCH   4   5
ATOM      5  C   UNL     1       2.874 -19.976  -7.309  1.00  0.00     0.053 C 
BRANCH   5   6
ATOM      6  C   UNL     1       4.334 -20.258  -7.490  1.00  0.00     0.041 C 
ATOM      7  O   UNL     1       5.066 -19.436  -8.101  1.00  0.00    -0.550 OA
ATOM      8  O   UNL     1       4.891 -21.413  -6.956  1.00  0.00    -0.550 OA
ENDBRANCH   5   6
ENDBRANCH   4   5
ENDBRANCH   3   4
ENDBRANCH   2   3
ENDBRANCH   1   2
BRANCH   1   9
ATOM      9  C   UNL     1       0.455 -20.634  -3.904  1.00  0.00     0.000 C 
BRANCH   9  10
ATOM     10  C   UNL     1       0.956 -19.181  -4.020  1.00  0.00    -0.000 C 
BRANCH  10  11
ATOM     11  C   UNL     1       2.212 -18.888  -3.169  1.00  0.00    -0.000 C 
BRANCH  11  12
ATOM     12  C   UNL     1       2.909 -20.157  -2.649  1.00  0.00    -0.000 C 
BRANCH  12  13
ATOM     13  C   UNL     1       4.242 -20.431  -3.360  1.00  0.00    -0.003 C 
ATOM     14  C   UNL     1       4.771 -19.171  -4.040  1.00  0.00     0.004 C 
ENDBRANCH  12  13
ENDBRANCH  11  12
ENDBRANCH  10  11
ENDBRANCH   9  10
ENDBRANCH   1   9
TORSDOF 10
ENDMDL
