MODEL 1
REMARK VINA RESULT:    -4.668      0.000      0.000
REMARK INTER + INTRA:          -8.141
REMARK INTER:                  -7.397
REMARK INTRA:                  -0.744
REMARK UNBOUND:                -0.744
REMARK SMILES CCCCCCCCCCCC(=O)[O-]
REMARK SMILES IDX 7 1 8 2 9 3 10 4 11 5 12 6 13 7 14 8 6 9 5 10 4 11 3 12 2 13
REMARK SMILES IDX 1 14
REMARK H PARENT
REMARK Flexibility Score: inf
ROOT
ATOM      1  C   UNL     1     -11.208 -12.761  15.828  1.00  0.00     0.000 C 
ENDROOT
BRANCH   1   2
ATOM      2  C   UNL     1     -10.018 -13.531  15.228  1.00  0.00     0.000 C 
BRANCH   2   3
ATOM      3  C   UNL     1      -9.322 -12.754  14.099  1.00  0.00     0.000 C 
BRANCH   3   4
ATOM      4  C   UNL     1      -9.343 -11.233  14.329  1.00  0.00     0.006 C 
BRANCH   4   5
ATOM      5  C   UNL     1      -8.075 -10.549  13.802  1.00  0.00     0.053 C 
BRANCH   5   6
ATOM      6  C   UNL     1      -6.851 -11.007  14.535  1.00  0.00     0.041 C 
ATOM      7  O   UNL     1      -6.810 -10.954  15.793  1.00  0.00    -0.550 OA
ATOM      8  O   UNL     1      -5.771 -11.525  13.832  1.00  0.00    -0.550 OA
ENDBRANCH   5   6
ENDBRANCH   4   5
ENDBRANCH   3   4
ENDBRANCH   2   3
ENDBRANCH   1   2
BRANCH   1   9
ATOM      9  C   UNL     1     -12.552 -13.460  15.575  1.00  0.00     0.000 C 
BRANCH   9  10
ATOM     10  C   UNL     1     -12.913 -13.526  14.084  1.00  0.00    -0.000 C 
BRANCH  10  11
ATOM     11  C   UNL     1     -13.526 -12.203  13.609  1.00  0.00    -0.000 C 
BRANCH  11  12
ATOM     12  C   UNL     1     -14.868 -12.441  12.899  1.00  0.00    -0.000 C 
BRANCH  12  13
ATOM     13  C   UNL     1     -15.891 -13.157  13.795  1.00  0.00    -0.003 C 
ATOM     14  C   UNL     1     -17.034 -13.789  13.000  1.00  0.00     0.004 C 
ENDBRANCH  12  13
ENDBRANCH  11  12
ENDBRANCH  10  11
ENDBRANCH   9  10
ENDBRANCH   1   9
TORSDOF 10
ENDMDL
MODEL 2
REMARK VINA RESULT:    -4.622      1.331      1.745
REMARK INTER + INTRA:          -8.067
REMARK INTER:                  -7.306
REMARK INTRA:                  -0.761
REMARK UNBOUND:                -0.744
REMARK SMILES CCCCCCCCCCCC(=O)[O-]
REMARK SMILES IDX 7 1 8 2 9 3 10 4 11 5 12 6 13 7 14 8 6 9 5 10 4 11 3 12 2 13
REMARK SMILES IDX 1 14
REMARK H PARENT
REMARK Flexibility Score: inf
ROOT
ATOM      1  C   UNL     1     -12.447 -13.932  14.677  1.00  0.00     0.000 C 
ENDROOT
BRANCH   1   2
ATOM      2  C   UNL     1     -10.951 -14.017  15.031  1.00  0.00     0.000 C 
BRANCH   2   3
ATOM      3  C   UNL     1     -10.479 -12.829  15.883  1.00  0.00     0.000 C 
BRANCH   3   4
ATOM      4  C   UNL     1      -8.947 -12.692  15.909  1.00  0.00     0.006 C 
BRANCH   4   5
ATOM      5  C   UNL     1      -8.440 -11.656  14.898  1.00  0.00     0.053 C 
BRANCH   5   6
ATOM      6  C   UNL     1      -7.659 -12.295  13.790  1.00  0.00     0.041 C 
ATOM      7  O   UNL     1      -6.400 -12.254  13.800  1.00  0.00    -0.550 OA
ATOM      8  O   UNL     1      -8.319 -12.965  12.769  1.00  0.00    -0.550 OA
ENDBRANCH   5   6
ENDBRANCH   4   5
ENDBRANCH   3   4
ENDBRANCH   2   3
ENDBRANCH   1   2
BRANCH   1   9
ATOM      9  C   UNL     1     -13.254 -13.131  15.710  1.00  0.00     0.000 C 
BRANCH   9  10
ATOM     10  C   UNL     1     -14.369 -12.294  15.068  1.00  0.00    -0.000 C 
BRANCH  10  11
ATOM     11  C   UNL     1     -14.179 -12.196  13.550  1.00  0.00    -0.000 C 
BRANCH  11  12
ATOM     12  C   UNL     1     -15.453 -12.625  12.806  1.00  0.00    -0.000 C 
BRANCH  12  13
ATOM     13  C   UNL     1     -16.594 -13.007  13.762  1.00  0.00    -0.003 C 
ATOM     14  C   UNL     1     -17.311 -14.291  13.344  1.00  0.00     0.004 C 
ENDBRANCH  12  13
ENDBRANCH  11  12
ENDBRANCH  10  11
ENDBRANCH   9  10
ENDBRANCH   1   9
TORSDOF 10
ENDMDL
MODEL 3
REMARK VINA RESULT:    -4.607      1.766      3.194
REMARK INTER + INTRA:          -8.044
REMARK INTER:                  -6.634
REMARK INTRA:                  -1.410
REMARK UNBOUND:                -0.744
REMARK SMILES CCCCCCCCCCCC(=O)[O-]
REMARK SMILES IDX 7 1 8 2 9 3 10 4 11 5 12 6 13 7 14 8 6 9 5 10 4 11 3 12 2 13
REMARK SMILES IDX 1 14
REMARK H PARENT
REMARK Flexibility Score: inf
ROOT
ATOM      1  C   UNL     1     -13.161 -12.177  13.793  1.00  0.00     0.000 C 
ENDROOT
BRANCH   1   2
ATOM      2  C   UNL     1     -12.677 -13.637  13.847  1.00  0.00     0.000 C 
BRANCH   2   3
ATOM      3  C   UNL     1     -11.982 -13.980  15.174  1.00  0.00     0.000 C 
BRANCH   3   4
ATOM      4  C   UNL     1     -11.441 -12.735  15.896  1.00  0.00     0.006 C 
BRANCH   4   5
ATOM      5  C   UNL     1      -9.909 -12.730  15.975  1.00  0.00     0.053 C 
BRANCH   5   6
ATOM      6  C   UNL     1      -9.288 -12.205  14.716  1.00  0.00     0.041 C 
ATOM      7  O   UNL     1      -9.795 -11.214  14.127  1.00  0.00    -0.550 OA
ATOM      8  O   UNL     1      -8.132 -12.788  14.214  1.00  0.00    -0.550 OA
ENDBRANCH   5   6
ENDBRANCH   4   5
ENDBRANCH   3   4
ENDBRANCH   2   3
ENDBRANCH   1   2
BRANCH   1   9
ATOM      9  C   UNL     1     -14.397 -11.997  12.899  1.00  0.00     0.000 C 
BRANCH   9  10
ATOM     10  C   UNL     1     -15.477 -13.055  13.163  1.00  0.00    -0.000 C 
BRANCH  10  11
ATOM     11  C   UNL     1     -16.432 -12.601  14.274  1.00  0.00    -0.000 C 
BRANCH  11  12
ATOM     12  C   UNL     1     -16.674 -13.731  15.288  1.00  0.00    -0.000 C 
BRANCH  12  13
ATOM     13  C   UNL     1     -15.596 -13.783  16.382  1.00  0.00    -0.003 C 
ATOM     14  C   UNL     1     -15.144 -12.394  16.833  1.00  0.00     0.004 C 
ENDBRANCH  12  13
ENDBRANCH  11  12
ENDBRANCH  10  11
ENDBRANCH   9  10
ENDBRANCH   1   9
TORSDOF 10
ENDMDL
MODEL 4
REMARK VINA RESULT:    -4.594      1.381      1.844
REMARK INTER + INTRA:          -8.024
REMARK INTER:                  -7.158
REMARK INTRA:                  -0.865
REMARK UNBOUND:                -0.744
REMARK SMILES CCCCCCCCCCCC(=O)[O-]
REMARK SMILES IDX 7 1 8 2 9 3 10 4 11 5 12 6 13 7 14 8 6 9 5 10 4 11 3 12 2 13
REMARK SMILES IDX 1 14
REMARK H PARENT
REMARK Flexibility Score: inf
ROOT
ATOM      1  C   UNL     1     -12.511 -13.168  15.732  1.00  0.00     0.000 C 
ENDROOT
BRANCH   1   2
ATOM      2  C   UNL     1     -11.038 -12.763  15.919  1.00  0.00     0.000 C 
BRANCH   2   3
ATOM      3  C   UNL     1     -10.079 -13.622  15.080  1.00  0.00     0.000 C 
BRANCH   3   4
ATOM      4  C   UNL     1      -9.437 -12.834  13.926  1.00  0.00     0.006 C 
BRANCH   4   5
ATOM      5  C   UNL     1      -7.998 -12.408  14.245  1.00  0.00     0.053 C 
BRANCH   5   6
ATOM      6  C   UNL     1      -7.872 -10.919  14.361  1.00  0.00     0.041 C 
ATOM      7  O   UNL     1      -8.899 -10.191  14.307  1.00  0.00    -0.550 OA
ATOM      8  O   UNL     1      -6.626 -10.339  14.563  1.00  0.00    -0.550 OA
ENDBRANCH   5   6
ENDBRANCH   4   5
ENDBRANCH   3   4
ENDBRANCH   2   3
ENDBRANCH   1   2
BRANCH   1   9
ATOM      9  C   UNL     1     -12.700 -14.209  14.617  1.00  0.00     0.000 C 
BRANCH   9  10
ATOM     10  C   UNL     1     -13.945 -13.938  13.760  1.00  0.00    -0.000 C 
BRANCH  10  11
ATOM     11  C   UNL     1     -14.453 -12.506  13.966  1.00  0.00    -0.000 C 
BRANCH  11  12
ATOM     12  C   UNL     1     -15.935 -12.501  14.374  1.00  0.00    -0.000 C 
BRANCH  12  13
ATOM     13  C   UNL     1     -16.331 -13.750  15.176  1.00  0.00    -0.003 C 
ATOM     14  C   UNL     1     -16.168 -13.561  16.684  1.00  0.00     0.004 C 
ENDBRANCH  12  13
ENDBRANCH  11  12
ENDBRANCH  10  11
ENDBRANCH   9  10
ENDBRANCH   1   9
TORSDOF 10
ENDMDL
MODEL 5
REMARK VINA RESULT:    -4.568      4.187      7.322
REMARK INTER + INTRA:          -7.983
REMARK INTER:                  -7.334
REMARK INTRA:                  -0.648
REMARK UNBOUND:                -0.744
REMARK SMILES CCCCCCCCCCCC(=O)[O-]
REMARK SMILES IDX 7 1 8 2 9 3 10 4 11 5 12 6 13 7 14 8 6 9 5 10 4 11 3 12 2 13
REMARK SMILES IDX 1 14
REMARK H PARENT
REMARK Flexibility Score: inf
ROOT
ATOM      1  C   UNL     1     -12.204 -14.233  14.917  1.00  0.00     0.000 C 
ENDROOT
BRANCH   1   2
ATOM      2  C   UNL     1     -13.073 -13.072  15.432  1.00  0.00     0.000 C 
BRANCH   2   3
ATOM      3  C   UNL     1     -13.727 -12.275  14.292  1.00  0.00     0.000 C 
BRANCH   3   4
ATOM      4  C   UNL     1     -14.727 -13.117  13.482  1.00  0.00     0.006 C 
BRANCH   4   5
ATOM      5  C   UNL     1     -16.183 -12.774  13.822  1.00  0.00     0.053 C 
BRANCH   5   6
ATOM      6  C   UNL     1     -16.784 -13.771  14.765  1.00  0.00     0.041 C 
ATOM      7  O   UNL     1     -17.491 -14.714  14.322  1.00  0.00    -0.550 OA
ATOM      8  O   UNL     1     -16.533 -13.679  16.128  1.00  0.00    -0.550 OA
ENDBRANCH   5   6
ENDBRANCH   4   5
ENDBRANCH   3   4
ENDBRANCH   2   3
ENDBRANCH   1   2
BRANCH   1   9
ATOM      9  C   UNL     1     -10.714 -13.866  14.836  1.00  0.00     0.000 C 
BRANCH   9  10
ATOM     10  C   UNL     1     -10.313 -12.795  15.860  1.00  0.00    -0.000 C 
BRANCH  10  11
ATOM     11  C   UNL     1      -8.795 -12.784  16.077  1.00  0.00    -0.000 C 
BRANCH  11  12
ATOM     12  C   UNL     1      -8.055 -12.424  14.779  1.00  0.00    -0.000 C 
BRANCH  12  13
ATOM     13  C   UNL     1      -7.675 -10.937  14.709  1.00  0.00    -0.003 C 
ATOM     14  C   UNL     1      -8.656 -10.115  13.873  1.00  0.00     0.004 C 
ENDBRANCH  12  13
ENDBRANCH  11  12
ENDBRANCH  10  11
ENDBRANCH   9  10
ENDBRANCH   1   9
TORSDOF 10
ENDMDL
MODEL 6
REMARK VINA RESULT:    -4.554      4.265      7.409
REMARK INTER + INTRA:          -7.960
REMARK INTER:                  -7.301
REMARK INTRA:                  -0.659
REMARK UNBOUND:                -0.744
REMARK SMILES CCCCCCCCCCCC(=O)[O-]
REMARK SMILES IDX 7 1 8 2 9 3 10 4 11 5 12 6 13 7 14 8 6 9 5 10 4 11 3 12 2 13
REMARK SMILES IDX 1 14
REMARK H PARENT
REMARK Flexibility Score: inf
ROOT
ATOM      1  C   UNL     1     -11.716 -13.119  15.612  1.00  0.00     0.000 C 
ENDROOT
BRANCH   1   2
ATOM      2  C   UNL     1     -13.055 -13.389  14.902  1.00  0.00     0.000 C 
BRANCH   2   3
ATOM      3  C   UNL     1     -13.431 -12.277  13.909  1.00  0.00     0.000 C 
BRANCH   3   4
ATOM      4  C   UNL     1     -14.638 -12.651  13.033  1.00  0.00     0.006 C 
BRANCH   4   5
ATOM      5  C   UNL     1     -15.051 -14.118  13.210  1.00  0.00     0.053 C 
BRANCH   5   6
ATOM      6  C   UNL     1     -16.495 -14.248  13.588  1.00  0.00     0.041 C 
ATOM      7  O   UNL     1     -16.843 -14.169  14.796  1.00  0.00    -0.550 OA
ATOM      8  O   UNL     1     -17.459 -14.420  12.603  1.00  0.00    -0.550 OA
ENDBRANCH   5   6
ENDBRANCH   4   5
ENDBRANCH   3   4
ENDBRANCH   2   3
ENDBRANCH   1   2
BRANCH   1   9
ATOM      9  C   UNL     1     -10.547 -13.891  14.982  1.00  0.00     0.000 C 
BRANCH   9  10
ATOM     10  C   UNL     1      -9.718 -13.027  14.021  1.00  0.00    -0.000 C 
BRANCH  10  11
ATOM     11  C   UNL     1      -9.568 -11.598  14.558  1.00  0.00    -0.000 C 
BRANCH  11  12
ATOM     12  C   UNL     1      -8.487 -10.829  13.781  1.00  0.00    -0.000 C 
BRANCH  12  13
ATOM     13  C   UNL     1      -7.135 -10.813  14.510  1.00  0.00    -0.003 C 
ATOM     14  C   UNL     1      -6.039 -11.553  13.742  1.00  0.00     0.004 C 
ENDBRANCH  12  13
ENDBRANCH  11  12
ENDBRANCH  10  11
ENDBRANCH   9  10
ENDBRANCH   1   9
TORSDOF 10
ENDMDL
MODEL 7
REMARK VINA RESULT:    -4.493      1.111      1.665
REMARK INTER + INTRA:          -7.863
REMARK INTER:                  -7.059
REMARK INTRA:                  -0.804
REMARK UNBOUND:                -0.744
REMARK SMILES CCCCCCCCCCCC(=O)[O-]
REMARK SMILES IDX 7 1 8 2 9 3 10 4 11 5 12 6 13 7 14 8 6 9 5 10 4 11 3 12 2 13
REMARK SMILES IDX 1 14
REMARK H PARENT
REMARK Flexibility Score: inf
ROOT
ATOM      1  C   UNL     1     -11.622 -13.160  15.638  1.00  0.00     0.000 C 
ENDROOT
BRANCH   1   2
ATOM      2  C   UNL     1     -10.084 -13.096  15.616  1.00  0.00     0.000 C 
BRANCH   2   3
ATOM      3  C   UNL     1      -9.536 -12.543  14.291  1.00  0.00     0.000 C 
BRANCH   3   4
ATOM      4  C   UNL     1      -9.374 -11.013  14.311  1.00  0.00     0.006 C 
BRANCH   4   5
ATOM      5  C   UNL     1      -8.019 -10.567  13.747  1.00  0.00     0.053 C 
BRANCH   5   6
ATOM      6  C   UNL     1      -6.876 -11.213  14.469  1.00  0.00     0.041 C 
ATOM      7  O   UNL     1      -6.004 -11.856  13.827  1.00  0.00    -0.550 OA
ATOM      8  O   UNL     1      -6.754 -11.074  15.846  1.00  0.00    -0.550 OA
ENDBRANCH   5   6
ENDBRANCH   4   5
ENDBRANCH   3   4
ENDBRANCH   2   3
ENDBRANCH   1   2
BRANCH   1   9
ATOM      9  C   UNL     1     -12.220 -13.468  14.257  1.00  0.00     0.000 C 
BRANCH   9  10
ATOM     10  C   UNL     1     -13.230 -12.405  13.801  1.00  0.00    -0.000 C 
BRANCH  10  11
ATOM     11  C   UNL     1     -14.190 -12.035  14.938  1.00  0.00    -0.000 C 
BRANCH  11  12
ATOM     12  C   UNL     1     -15.634 -12.430  14.589  1.00  0.00    -0.000 C 
BRANCH  12  13
ATOM     13  C   UNL     1     -16.082 -13.716  15.301  1.00  0.00    -0.003 C 
ATOM     14  C   UNL     1     -16.002 -13.608  16.824  1.00  0.00     0.004 C 
ENDBRANCH  12  13
ENDBRANCH  11  12
ENDBRANCH  10  11
ENDBRANCH   9  10
ENDBRANCH   1   9
TORSDOF 10
ENDMDL
MODEL 8
REMARK VINA RESULT:    -4.486      4.313      7.249
REMARK INTER + INTRA:          -7.852
REMARK INTER:                  -7.193
REMARK INTRA:                  -0.660
REMARK UNBOUND:                -0.744
REMARK SMILES CCCCCCCCCCCC(=O)[O-]
REMARK SMILES IDX 7 1 8 2 9 3 10 4 11 5 12 6 13 7 14 8 6 9 5 10 4 11 3 12 2 13
REMARK SMILES IDX 1 14
REMARK H PARENT
REMARK Flexibility Score: inf
ROOT
ATOM      1  C   UNL     1     -10.736 -14.341  14.703  1.00  0.00     0.000 C 
ENDROOT
BRANCH   1   2
ATOM      2  C   UNL     1     -12.267 -14.249  14.835  1.00  0.00     0.000 C 
BRANCH   2   3
ATOM      3  C   UNL     1     -12.823 -12.908  14.331  1.00  0.00     0.000 C 
BRANCH   3   4
ATOM      4  C   UNL     1     -13.968 -12.376  15.210  1.00  0.00     0.006 C 
BRANCH   4   5
ATOM      5  C   UNL     1     -14.342 -13.355  16.330  1.00  0.00     0.053 C 
BRANCH   5   6
ATOM      6  C   UNL     1     -15.825 -13.550  16.426  1.00  0.00     0.041 C 
ATOM      7  O   UNL     1     -16.412 -13.402  17.531  1.00  0.00    -0.550 OA
ATOM      8  O   UNL     1     -16.561 -13.860  15.291  1.00  0.00    -0.550 OA
ENDBRANCH   5   6
ENDBRANCH   4   5
ENDBRANCH   3   4
ENDBRANCH   2   3
ENDBRANCH   1   2
BRANCH   1   9
ATOM      9  C   UNL     1     -10.147 -13.200  13.859  1.00  0.00     0.000 C 
BRANCH   9  10
ATOM     10  C   UNL     1      -9.187 -12.308  14.658  1.00  0.00    -0.000 C 
BRANCH  10  11
ATOM     11  C   UNL     1      -9.321 -10.840  14.235  1.00  0.00    -0.000 C 
BRANCH  11  12
ATOM     12  C   UNL     1      -7.951 -10.244  13.876  1.00  0.00    -0.000 C 
BRANCH  12  13
ATOM     13  C   UNL     1      -6.793 -10.942  14.606  1.00  0.00    -0.003 C 
ATOM     14  C   UNL     1      -5.697 -11.422  13.653  1.00  0.00     0.004 C 
ENDBRANCH  12  13
ENDBRANCH  11  12
ENDBRANCH  10  11
ENDBRANCH   9  10
ENDBRANCH   1   9
TORSDOF 10
ENDMDL
MODEL 9
REMARK VINA RESULT:    -4.371      3.790      6.990
REMARK INTER + INTRA:          -7.670
REMARK INTER:                  -6.891
REMARK INTRA:                  -0.779
REMARK UNBOUND:                -0.744
REMARK SMILES CCCCCCCCCCCC(=O)[O-]
REMARK SMILES IDX 7 1 8 2 9 3 10 4 11 5 12 6 13 7 14 8 6 9 5 10 4 11 3 12 2 13
REMARK SMILES IDX 1 14
REMARK H PARENT
REMARK Flexibility Score: inf
ROOT
ATOM      1  C   UNL     1     -12.355 -13.008  14.363  1.00  0.00     0.000 C 
ENDROOT
BRANCH   1   2
ATOM      2  C   UNL     1     -13.303 -14.220  14.322  1.00  0.00     0.000 C 
BRANCH   2   3
ATOM      3  C   UNL     1     -14.719 -13.846  13.856  1.00  0.00     0.000 C 
BRANCH   3   4
ATOM      4  C   UNL     1     -15.413 -12.860  14.811  1.00  0.00     0.006 C 
BRANCH   4   5
ATOM      5  C   UNL     1     -16.312 -13.575  15.828  1.00  0.00     0.053 C 
BRANCH   5   6
ATOM      6  C   UNL     1     -15.867 -13.325  17.237  1.00  0.00     0.041 C 
ATOM      7  O   UNL     1     -16.719 -13.195  18.155  1.00  0.00    -0.550 OA
ATOM      8  O   UNL     1     -14.513 -13.270  17.540  1.00  0.00    -0.550 OA
ENDBRANCH   5   6
ENDBRANCH   4   5
ENDBRANCH   3   4
ENDBRANCH   2   3
ENDBRANCH   1   2
BRANCH   1   9
ATOM      9  C   UNL     1     -11.599 -12.894  15.696  1.00  0.00     0.000 C 
BRANCH   9  10
ATOM     10  C   UNL     1     -10.089 -13.123  15.541  1.00  0.00    -0.000 C 
BRANCH  10  11
ATOM     11  C   UNL     1      -9.692 -13.183  14.061  1.00  0.00    -0.000 C 
BRANCH  11  12
ATOM     12  C   UNL     1      -8.352 -12.469  13.821  1.00  0.00    -0.000 C 
BRANCH  12  13
ATOM     13  C   UNL     1      -8.222 -11.170  14.633  1.00  0.00    -0.003 C 
ATOM     14  C   UNL     1      -8.572  -9.925  13.818  1.00  0.00     0.004 C 
ENDBRANCH  12  13
ENDBRANCH  11  12
ENDBRANCH  10  11
ENDBRANCH   9  10
ENDBRANCH   1   9
TORSDOF 10
ENDMDL
