MODEL 1
REMARK VINA RESULT:     1.717      0.000      0.000
REMARK INTER + INTRA:           1.530
REMARK INTER:                   2.369
REMARK INTRA:                  -0.839
REMARK UNBOUND:                -0.839
REMARK SMILES O=C([O-])[C@H]1O[C@@H](Oc2cc3oc(-c4ccccc4)cc(=O)c3c(O)c2O)[C@@H](O)[C@H](O)[C@@H]1O
REMARK SMILES IDX 7 1 6 2 4 3 31 4 5 5 29 6 27 7 2 8 1 9 3 10 32 11 30 13
REMARK SMILES IDX 28 15 8 17 25 18 9 19 23 20 10 21 22 22 11 23 20 24 12 25
REMARK SMILES IDX 19 26 21 27 26 28 24 30 13 32 14 33 18 34 15 35 17 36 16 37
REMARK H PARENT 32 12 30 14 28 16 26 29 24 31
REMARK Flexibility Score: inf
ROOT
ATOM      1  O   UNL     1      24.351 -24.127 -26.240  1.00  0.00    -0.458 OA
ENDROOT
BRANCH   1   2
ATOM      2  C   UNL     1      24.036 -23.598 -24.948  1.00  0.00     0.339 C 
ATOM      3  C   UNL     1      25.904 -24.556 -23.813  1.00  0.00     0.199 C 
ATOM      4  C   UNL     1      25.010 -25.574 -23.059  1.00  0.00     0.180 C 
ATOM      5  O   UNL     1      25.211 -23.365 -24.179  1.00  0.00    -0.328 OA
ATOM      6  C   UNL     1      23.710 -25.843 -23.839  1.00  0.00     0.181 C 
ATOM      7  C   UNL     1      23.037 -24.509 -24.211  1.00  0.00     0.214 C 
BRANCH   3   8
ATOM      8  C   UNL     1      26.686 -25.131 -24.970  1.00  0.00     0.073 C 
ATOM      9  O   UNL     1      26.824 -26.376 -25.116  1.00  0.00    -0.547 OA
ATOM     10  O   UNL     1      27.264 -24.271 -25.895  1.00  0.00    -0.547 OA
ENDBRANCH   3   8
BRANCH   4  11
ATOM     11  O   UNL     1      24.713 -25.052 -21.786  1.00  0.00    -0.387 OA
ATOM     12  H   UNL     1      25.041 -25.706 -21.116  1.00  0.00     0.211 HD
ENDBRANCH   4  11
BRANCH   6  13
ATOM     13  O   UNL     1      22.840 -26.677 -23.112  1.00  0.00    -0.387 OA
ATOM     14  H   UNL     1      22.176 -26.105 -22.647  1.00  0.00     0.211 HD
ENDBRANCH   6  13
BRANCH   7  15
ATOM     15  O   UNL     1      21.875 -24.715 -24.977  1.00  0.00    -0.384 OA
ATOM     16  H   UNL     1      22.076 -24.458 -25.915  1.00  0.00     0.211 HD
ENDBRANCH   7  15
ENDBRANCH   1   2
BRANCH   1  17
ATOM     17  C   UNL     1      23.780 -23.710 -27.453  1.00  0.00     0.172 A 
ATOM     18  C   UNL     1      23.265 -24.683 -28.323  1.00  0.00     0.201 A 
ATOM     19  C   UNL     1      23.711 -22.358 -27.817  1.00  0.00     0.098 A 
ATOM     20  C   UNL     1      22.686 -24.320 -29.548  1.00  0.00     0.176 A 
ATOM     21  C   UNL     1      23.173 -21.978 -29.047  1.00  0.00     0.146 A 
ATOM     22  C   UNL     1      22.674 -22.951 -29.949  1.00  0.00     0.111 A 
ATOM     23  O   UNL     1      23.149 -20.686 -29.357  1.00  0.00    -0.456 OA
ATOM     24  C   UNL     1      22.232 -22.485 -31.210  1.00  0.00     0.197 A 
ATOM     25  C   UNL     1      22.685 -20.217 -30.509  1.00  0.00     0.138 A 
ATOM     26  C   UNL     1      22.222 -21.116 -31.480  1.00  0.00     0.100 A 
ATOM     27  O   UNL     1      21.875 -23.273 -32.124  1.00  0.00    -0.289 OA
BRANCH  18  28
ATOM     28  O   UNL     1      23.309 -26.035 -27.976  1.00  0.00    -0.502 OA
ATOM     29  H   UNL     1      22.751 -26.736 -28.449  1.00  0.00     0.293 HD
ENDBRANCH  18  28
BRANCH  20  30
ATOM     30  O   UNL     1      22.118 -25.350 -30.306  1.00  0.00    -0.504 OA
ATOM     31  H   UNL     1      21.276 -25.848 -30.060  1.00  0.00     0.293 HD
ENDBRANCH  20  30
BRANCH  25  32
ATOM     32  C   UNL     1      22.697 -18.751 -30.742  1.00  0.00     0.017 A 
ATOM     33  C   UNL     1      23.471 -17.879 -29.949  1.00  0.00     0.012 A 
ATOM     34  C   UNL     1      21.941 -18.211 -31.799  1.00  0.00     0.012 A 
ATOM     35  C   UNL     1      23.469 -16.504 -30.200  1.00  0.00     0.001 A 
ATOM     36  C   UNL     1      21.942 -16.835 -32.044  1.00  0.00     0.001 A 
ATOM     37  C   UNL     1      22.703 -15.981 -31.244  1.00  0.00     0.000 A 
ENDBRANCH  25  32
ENDBRANCH   1  17
TORSDOF 9
ENDMDL
