MODEL 1
REMARK VINA RESULT:    -4.411      0.000      0.000
REMARK INTER + INTRA:          -5.539
REMARK INTER:                  -5.314
REMARK INTRA:                  -0.224
REMARK UNBOUND:                -0.224
REMARK SMILES C=CCc1ccc(O)c(OC)c1
REMARK SMILES IDX 9 1 7 2 6 3 5 4 4 5 12 6 10 7 11 8 8 9 3 11 2 12 1 13
REMARK H PARENT 8 10
REMARK Flexibility Score: inf
ROOT
ATOM      1  C   UNL     1     116.009 118.968 118.233  1.00  0.00     0.160 A 
ATOM      2  C   UNL     1     117.343 119.015 118.666  1.00  0.00     0.157 A 
ATOM      3  C   UNL     1     118.298 118.161 118.098  1.00  0.00     0.050 A 
ATOM      4  C   UNL     1     117.928 117.257 117.100  1.00  0.00     0.008 A 
ATOM      5  C   UNL     1     116.598 117.191 116.664  1.00  0.00    -0.040 A 
ATOM      6  C   UNL     1     115.643 118.053 117.226  1.00  0.00     0.054 A 
ENDROOT
BRANCH   1   7
ATOM      7  O   UNL     1     115.084 119.843 118.822  1.00  0.00    -0.493 OA
ATOM      8  C   UNL     1     113.692 119.865 118.523  1.00  0.00     0.278 C 
ENDBRANCH   1   7
BRANCH   2   9
ATOM      9  O   UNL     1     117.712 119.917 119.662  1.00  0.00    -0.504 OA
ATOM     10  H   UNL     1     118.308 119.640 120.434  1.00  0.00     0.293 HD
ENDBRANCH   2   9
BRANCH   5  11
ATOM     11  C   UNL     1     116.203 116.237 115.567  1.00  0.00     0.062 C 
BRANCH  11  12
ATOM     12  C   UNL     1     116.909 116.576 114.285  1.00  0.00    -0.030 C 
ATOM     13  C   UNL     1     116.239 116.961 113.194  1.00  0.00     0.004 C 
ENDBRANCH  11  12
ENDBRANCH   5  11
TORSDOF 4
ENDMDL
MODEL 2
REMARK VINA RESULT:    -4.411      2.542      3.423
REMARK INTER + INTRA:          -5.537
REMARK INTER:                  -5.355
REMARK INTRA:                  -0.182
REMARK UNBOUND:                -0.224
REMARK SMILES C=CCc1ccc(O)c(OC)c1
REMARK SMILES IDX 9 1 7 2 6 3 5 4 4 5 12 6 10 7 11 8 8 9 3 11 2 12 1 13
REMARK H PARENT 8 10
REMARK Flexibility Score: inf
ROOT
ATOM      1  C   UNL     1     114.200 116.067 118.231  1.00  0.00     0.160 A 
ATOM      2  C   UNL     1     114.046 117.359 118.756  1.00  0.00     0.157 A 
ATOM      3  C   UNL     1     114.844 118.410 118.285  1.00  0.00     0.050 A 
ATOM      4  C   UNL     1     115.799 118.178 117.294  1.00  0.00     0.008 A 
ATOM      5  C   UNL     1     115.973 116.891 116.766  1.00  0.00    -0.040 A 
ATOM      6  C   UNL     1     115.166 115.840 117.231  1.00  0.00     0.054 A 
ENDROOT
BRANCH   1   7
ATOM      7  O   UNL     1     113.378 115.042 118.724  1.00  0.00    -0.493 OA
ATOM      8  C   UNL     1     113.312 113.729 118.178  1.00  0.00     0.278 C 
ENDBRANCH   1   7
BRANCH   2   9
ATOM      9  O   UNL     1     113.092 117.591 119.746  1.00  0.00    -0.504 OA
ATOM     10  H   UNL     1     113.091 117.068 120.614  1.00  0.00     0.293 HD
ENDBRANCH   2   9
BRANCH   5  11
ATOM     11  C   UNL     1     116.983 116.645 115.677  1.00  0.00     0.062 C 
BRANCH  11  12
ATOM     12  C   UNL     1     116.309 116.546 114.337  1.00  0.00    -0.030 C 
ATOM     13  C   UNL     1     116.915 116.945 113.214  1.00  0.00     0.004 C 
ENDBRANCH  11  12
ENDBRANCH   5  11
TORSDOF 4
ENDMDL
MODEL 3
REMARK VINA RESULT:    -4.397      2.575      3.488
REMARK INTER + INTRA:          -5.521
REMARK INTER:                  -5.312
REMARK INTRA:                  -0.209
REMARK UNBOUND:                -0.224
REMARK SMILES C=CCc1ccc(O)c(OC)c1
REMARK SMILES IDX 9 1 7 2 6 3 5 4 4 5 12 6 10 7 11 8 8 9 3 11 2 12 1 13
REMARK H PARENT 8 10
REMARK Flexibility Score: inf
ROOT
ATOM      1  C   UNL     1     119.045 117.003 118.359  1.00  0.00     0.160 A 
ATOM      2  C   UNL     1     119.073 115.650 118.726  1.00  0.00     0.157 A 
ATOM      3  C   UNL     1     118.205 114.736 118.113  1.00  0.00     0.050 A 
ATOM      4  C   UNL     1     117.305 115.168 117.137  1.00  0.00     0.008 A 
ATOM      5  C   UNL     1     117.257 116.519 116.766  1.00  0.00    -0.040 A 
ATOM      6  C   UNL     1     118.134 117.432 117.374  1.00  0.00     0.054 A 
ENDROOT
BRANCH   1   7
ATOM      7  O   UNL     1     119.934 117.886 118.992  1.00  0.00    -0.493 OA
ATOM      8  C   UNL     1     119.907 119.301 118.843  1.00  0.00     0.278 C 
ENDBRANCH   1   7
BRANCH   2   9
ATOM      9  O   UNL     1     119.971 115.219 119.701  1.00  0.00    -0.504 OA
ATOM     10  H   UNL     1     119.943 115.584 120.646  1.00  0.00     0.293 HD
ENDBRANCH   2   9
BRANCH   5  11
ATOM     11  C   UNL     1     116.308 116.981 115.693  1.00  0.00     0.062 C 
BRANCH  11  12
ATOM     12  C   UNL     1     116.641 116.342 114.375  1.00  0.00    -0.030 C 
ATOM     13  C   UNL     1     116.756 117.061 113.254  1.00  0.00     0.004 C 
ENDBRANCH  11  12
ENDBRANCH   5  11
TORSDOF 4
ENDMDL
MODEL 4
REMARK VINA RESULT:    -4.385      3.631      4.786
REMARK INTER + INTRA:          -5.507
REMARK INTER:                  -5.331
REMARK INTRA:                  -0.176
REMARK UNBOUND:                -0.224
REMARK SMILES C=CCc1ccc(O)c(OC)c1
REMARK SMILES IDX 9 1 7 2 6 3 5 4 4 5 12 6 10 7 11 8 8 9 3 11 2 12 1 13
REMARK H PARENT 8 10
REMARK Flexibility Score: inf
ROOT
ATOM      1  C   UNL     1     117.149 114.184 118.243  1.00  0.00     0.160 A 
ATOM      2  C   UNL     1     115.855 114.050 118.768  1.00  0.00     0.157 A 
ATOM      3  C   UNL     1     114.815 114.859 118.293  1.00  0.00     0.050 A 
ATOM      4  C   UNL     1     115.059 115.805 117.296  1.00  0.00     0.008 A 
ATOM      5  C   UNL     1     116.349 115.959 116.768  1.00  0.00    -0.040 A 
ATOM      6  C   UNL     1     117.389 115.141 117.238  1.00  0.00     0.054 A 
ENDROOT
BRANCH   1   7
ATOM      7  O   UNL     1     118.163 113.351 118.742  1.00  0.00    -0.493 OA
ATOM      8  C   UNL     1     119.556 113.582 118.562  1.00  0.00     0.278 C 
ENDBRANCH   1   7
BRANCH   2   9
ATOM      9  O   UNL     1     115.611 113.105 119.763  1.00  0.00    -0.504 OA
ATOM     10  H   UNL     1     114.927 113.268 120.493  1.00  0.00     0.293 HD
ENDBRANCH   2   9
BRANCH   5  11
ATOM     11  C   UNL     1     116.608 116.959 115.673  1.00  0.00     0.062 C 
BRANCH  11  12
ATOM     12  C   UNL     1     116.651 116.283 114.331  1.00  0.00    -0.030 C 
ATOM     13  C   UNL     1     116.499 116.968 113.194  1.00  0.00     0.004 C 
ENDBRANCH  11  12
ENDBRANCH   5  11
TORSDOF 4
ENDMDL
MODEL 5
REMARK VINA RESULT:    -4.383      1.689      2.579
REMARK INTER + INTRA:          -5.505
REMARK INTER:                  -5.276
REMARK INTRA:                  -0.229
REMARK UNBOUND:                -0.224
REMARK SMILES C=CCc1ccc(O)c(OC)c1
REMARK SMILES IDX 9 1 7 2 6 3 5 4 4 5 12 6 10 7 11 8 8 9 3 11 2 12 1 13
REMARK H PARENT 8 10
REMARK Flexibility Score: inf
ROOT
ATOM      1  C   UNL     1     114.920 118.405 118.388  1.00  0.00     0.160 A 
ATOM      2  C   UNL     1     114.102 117.346 118.809  1.00  0.00     0.157 A 
ATOM      3  C   UNL     1     114.227 116.082 118.216  1.00  0.00     0.050 A 
ATOM      4  C   UNL     1     115.162 115.870 117.202  1.00  0.00     0.008 A 
ATOM      5  C   UNL     1     115.980 116.920 116.763  1.00  0.00    -0.040 A 
ATOM      6  C   UNL     1     115.861 118.184 117.364  1.00  0.00     0.054 A 
ENDROOT
BRANCH   1   7
ATOM      7  O   UNL     1     114.769 119.654 119.010  1.00  0.00    -0.493 OA
ATOM      8  C   UNL     1     115.697 120.211 119.935  1.00  0.00     0.278 C 
ENDBRANCH   1   7
BRANCH   2   9
ATOM      9  O   UNL     1     113.168 117.557 119.821  1.00  0.00    -0.504 OA
ATOM     10  H   UNL     1     112.403 116.912 119.980  1.00  0.00     0.293 HD
ENDBRANCH   2   9
BRANCH   5  11
ATOM     11  C   UNL     1     117.009 116.686 115.689  1.00  0.00     0.062 C 
BRANCH  11  12
ATOM     12  C   UNL     1     116.350 116.344 114.383  1.00  0.00    -0.030 C 
ATOM     13  C   UNL     1     116.620 117.019 113.261  1.00  0.00     0.004 C 
ENDBRANCH  11  12
ENDBRANCH   5  11
TORSDOF 4
ENDMDL
MODEL 6
REMARK VINA RESULT:    -4.373      3.088      3.973
REMARK INTER + INTRA:          -5.492
REMARK INTER:                  -5.291
REMARK INTRA:                  -0.201
REMARK UNBOUND:                -0.224
REMARK SMILES C=CCc1ccc(O)c(OC)c1
REMARK SMILES IDX 9 1 7 2 6 3 5 4 4 5 12 6 10 7 11 8 8 9 3 11 2 12 1 13
REMARK H PARENT 8 10
REMARK Flexibility Score: inf
ROOT
ATOM      1  C   UNL     1     118.308 114.823 118.378  1.00  0.00     0.160 A 
ATOM      2  C   UNL     1     119.146 115.854 118.827  1.00  0.00     0.157 A 
ATOM      3  C   UNL     1     119.052 117.134 118.264  1.00  0.00     0.050 A 
ATOM      4  C   UNL     1     118.127 117.390 117.251  1.00  0.00     0.008 A 
ATOM      5  C   UNL     1     117.289 116.368 116.783  1.00  0.00    -0.040 A 
ATOM      6  C   UNL     1     117.377 115.088 117.354  1.00  0.00     0.054 A 
ENDROOT
BRANCH   1   7
ATOM      7  O   UNL     1     118.428 113.557 118.971  1.00  0.00    -0.493 OA
ATOM      8  C   UNL     1     117.505 113.015 119.909  1.00  0.00     0.278 C 
ENDBRANCH   1   7
BRANCH   2   9
ATOM      9  O   UNL     1     120.070 115.599 119.839  1.00  0.00    -0.504 OA
ATOM     10  H   UNL     1     119.990 116.032 120.752  1.00  0.00     0.293 HD
ENDBRANCH   2   9
BRANCH   5  11
ATOM     11  C   UNL     1     116.271 116.649 115.710  1.00  0.00     0.062 C 
BRANCH  11  12
ATOM     12  C   UNL     1     116.915 116.658 114.352  1.00  0.00    -0.030 C 
ATOM     13  C   UNL     1     116.226 116.361 113.246  1.00  0.00     0.004 C 
ENDBRANCH  11  12
ENDBRANCH   5  11
TORSDOF 4
ENDMDL
MODEL 7
REMARK VINA RESULT:    -4.352      1.142      2.854
REMARK INTER + INTRA:          -5.467
REMARK INTER:                  -5.267
REMARK INTRA:                  -0.200
REMARK UNBOUND:                -0.224
REMARK SMILES C=CCc1ccc(O)c(OC)c1
REMARK SMILES IDX 9 1 7 2 6 3 5 4 4 5 12 6 10 7 11 8 8 9 3 11 2 12 1 13
REMARK H PARENT 8 10
REMARK Flexibility Score: inf
ROOT
ATOM      1  C   UNL     1     118.390 118.284 118.411  1.00  0.00     0.160 A 
ATOM      2  C   UNL     1     117.350 119.121 118.841  1.00  0.00     0.157 A 
ATOM      3  C   UNL     1     116.084 119.033 118.246  1.00  0.00     0.050 A 
ATOM      4  C   UNL     1     115.851 118.115 117.221  1.00  0.00     0.008 A 
ATOM      5  C   UNL     1     116.882 117.279 116.772  1.00  0.00    -0.040 A 
ATOM      6  C   UNL     1     118.148 117.360 117.374  1.00  0.00     0.054 A 
ENDROOT
BRANCH   1   7
ATOM      7  O   UNL     1     119.642 118.398 119.034  1.00  0.00    -0.493 OA
ATOM      8  C   UNL     1     120.162 117.464 119.974  1.00  0.00     0.278 C 
ENDBRANCH   1   7
BRANCH   2   9
ATOM      9  O   UNL     1     117.582 120.038 119.865  1.00  0.00    -0.504 OA
ATOM     10  H   UNL     1     116.836 120.607 120.246  1.00  0.00     0.293 HD
ENDBRANCH   2   9
BRANCH   5  11
ATOM     11  C   UNL     1     116.625 116.268 115.686  1.00  0.00     0.062 C 
BRANCH  11  12
ATOM     12  C   UNL     1     116.568 116.934 114.340  1.00  0.00    -0.030 C 
ATOM     13  C   UNL     1     116.768 116.250 113.209  1.00  0.00     0.004 C 
ENDBRANCH  11  12
ENDBRANCH   5  11
TORSDOF 4
ENDMDL
MODEL 8
REMARK VINA RESULT:    -4.337      3.420      3.745
REMARK INTER + INTRA:          -5.449
REMARK INTER:                  -5.255
REMARK INTRA:                  -0.194
REMARK UNBOUND:                -0.224
REMARK SMILES C=CCc1ccc(O)c(OC)c1
REMARK SMILES IDX 9 1 7 2 6 3 5 4 4 5 12 6 10 7 11 8 8 9 3 11 2 12 1 13
REMARK H PARENT 8 10
REMARK Flexibility Score: inf
ROOT
ATOM      1  C   UNL     1     114.793 114.977 118.394  1.00  0.00     0.160 A 
ATOM      2  C   UNL     1     115.833 114.156 118.856  1.00  0.00     0.157 A 
ATOM      3  C   UNL     1     117.108 114.244 118.281  1.00  0.00     0.050 A 
ATOM      4  C   UNL     1     117.351 115.146 117.243  1.00  0.00     0.008 A 
ATOM      5  C   UNL     1     116.320 115.966 116.763  1.00  0.00    -0.040 A 
ATOM      6  C   UNL     1     115.045 115.884 117.346  1.00  0.00     0.054 A 
ENDROOT
BRANCH   1   7
ATOM      7  O   UNL     1     113.532 114.863 118.999  1.00  0.00    -0.493 OA
ATOM      8  C   UNL     1     113.035 115.747 119.997  1.00  0.00     0.278 C 
ENDBRANCH   1   7
BRANCH   2   9
ATOM      9  O   UNL     1     115.590 113.256 119.891  1.00  0.00    -0.504 OA
ATOM     10  H   UNL     1     116.017 113.370 120.804  1.00  0.00     0.293 HD
ENDBRANCH   2   9
BRANCH   5  11
ATOM     11  C   UNL     1     116.588 116.960 115.664  1.00  0.00     0.062 C 
BRANCH  11  12
ATOM     12  C   UNL     1     116.440 116.315 114.314  1.00  0.00    -0.030 C 
ATOM     13  C   UNL     1     116.381 117.039 113.192  1.00  0.00     0.004 C 
ENDBRANCH  11  12
ENDBRANCH   5  11
TORSDOF 4
ENDMDL
MODEL 9
REMARK VINA RESULT:    -4.179      1.396      2.443
REMARK INTER + INTRA:          -5.259
REMARK INTER:                  -5.064
REMARK INTRA:                  -0.195
REMARK UNBOUND:                -0.224
REMARK SMILES C=CCc1ccc(O)c(OC)c1
REMARK SMILES IDX 9 1 7 2 6 3 5 4 4 5 12 6 10 7 11 8 8 9 3 11 2 12 1 13
REMARK H PARENT 8 10
REMARK Flexibility Score: inf
ROOT
ATOM      1  C   UNL     1     115.970 118.301 118.231  1.00  0.00     0.160 A 
ATOM      2  C   UNL     1     114.958 117.531 118.824  1.00  0.00     0.157 A 
ATOM      3  C   UNL     1     114.563 116.319 118.242  1.00  0.00     0.050 A 
ATOM      4  C   UNL     1     115.172 115.872 117.068  1.00  0.00     0.008 A 
ATOM      5  C   UNL     1     116.177 116.634 116.457  1.00  0.00    -0.040 A 
ATOM      6  C   UNL     1     116.579 117.845 117.046  1.00  0.00     0.054 A 
ENDROOT
BRANCH   1   7
ATOM      7  O   UNL     1     116.341 119.507 118.847  1.00  0.00    -0.493 OA
ATOM      8  C   UNL     1     117.673 119.846 119.216  1.00  0.00     0.278 C 
ENDBRANCH   1   7
BRANCH   2   9
ATOM      9  O   UNL     1     114.351 117.978 119.996  1.00  0.00    -0.504 OA
ATOM     10  H   UNL     1     114.791 118.669 120.592  1.00  0.00     0.293 HD
ENDBRANCH   2   9
BRANCH   5  11
ATOM     11  C   UNL     1     116.854 116.139 115.207  1.00  0.00     0.062 C 
BRANCH  11  12
ATOM     12  C   UNL     1     116.163 116.667 113.981  1.00  0.00    -0.030 C 
ATOM     13  C   UNL     1     116.827 116.891 112.842  1.00  0.00     0.004 C 
ENDBRANCH  11  12
ENDBRANCH   5  11
TORSDOF 4
ENDMDL
