MODEL 1
REMARK VINA RESULT:    -3.002      0.000      0.000
REMARK INTER + INTRA:          -5.984
REMARK INTER:                  -5.459
REMARK INTRA:                  -0.525
REMARK UNBOUND:                -0.525
REMARK SMILES CCCCCCCCCCCCCC[C@@H](C)C(=O)[O-]
REMARK SMILES IDX 9 1 10 2 11 3 12 4 13 5 14 6 15 7 16 8 17 9 18 10 19 11 8 12
REMARK SMILES IDX 7 13 6 14 5 15 4 16 3 17 2 18 1 19
REMARK H PARENT
REMARK Flexibility Score: inf
ROOT
ATOM      1  C   UNL     1      23.945   1.311  -2.985  1.00  0.00     0.000 C 
ENDROOT
BRANCH   1   2
ATOM      2  C   UNL     1      23.720   2.783  -2.620  1.00  0.00     0.000 C 
BRANCH   2   3
ATOM      3  C   UNL     1      24.999   3.408  -2.043  1.00  0.00     0.000 C 
BRANCH   3   4
ATOM      4  C   UNL     1      25.002   4.948  -2.154  1.00  0.00     0.000 C 
BRANCH   4   5
ATOM      5  C   UNL     1      26.063   5.634  -1.273  1.00  0.00     0.001 C 
BRANCH   5   6
ATOM      6  C   UNL     1      26.431   7.071  -1.694  1.00  0.00     0.009 C 
BRANCH   6   7
ATOM      7  C   UNL     1      27.575   7.699  -0.866  1.00  0.00     0.032 C 
ATOM      8  C   UNL     1      28.621   6.638  -0.508  1.00  0.00     0.014 C 
BRANCH   7   9
ATOM      9  C   UNL     1      28.227   8.839  -1.600  1.00  0.00     0.044 C 
ATOM     10  O   UNL     1      28.285   9.985  -1.082  1.00  0.00    -0.550 OA
ATOM     11  O   UNL     1      28.779   8.627  -2.858  1.00  0.00    -0.550 OA
ENDBRANCH   7   9
ENDBRANCH   6   7
ENDBRANCH   5   6
ENDBRANCH   4   5
ENDBRANCH   3   4
ENDBRANCH   2   3
ENDBRANCH   1   2
BRANCH   1  12
ATOM     12  C   UNL     1      22.729   0.457  -2.605  1.00  0.00     0.000 C 
BRANCH  12  13
ATOM     13  C   UNL     1      23.126  -1.010  -2.407  1.00  0.00    -0.000 C 
BRANCH  13  14
ATOM     14  C   UNL     1      24.279  -1.399  -3.345  1.00  0.00    -0.000 C 
BRANCH  14  15
ATOM     15  C   UNL     1      25.418  -2.126  -2.613  1.00  0.00    -0.000 C 
BRANCH  15  16
ATOM     16  C   UNL     1      25.728  -3.507  -3.218  1.00  0.00    -0.000 C 
BRANCH  16  17
ATOM     17  C   UNL     1      27.160  -3.977  -2.889  1.00  0.00    -0.000 C 
BRANCH  17  18
ATOM     18  C   UNL     1      27.209  -5.167  -1.916  1.00  0.00    -0.003 C 
ATOM     19  C   UNL     1      27.662  -4.774  -0.512  1.00  0.00     0.004 C 
ENDBRANCH  17  18
ENDBRANCH  16  17
ENDBRANCH  15  16
ENDBRANCH  14  15
ENDBRANCH  13  14
ENDBRANCH  12  13
ENDBRANCH   1  12
TORSDOF 14
ENDMDL
MODEL 2
REMARK VINA RESULT:    -2.822      4.623     10.067
REMARK INTER + INTRA:          -5.657
REMARK INTER:                  -5.145
REMARK INTRA:                  -0.512
REMARK UNBOUND:                -0.525
REMARK SMILES CCCCCCCCCCCCCC[C@@H](C)C(=O)[O-]
REMARK SMILES IDX 9 1 10 2 11 3 12 4 13 5 14 6 15 7 16 8 17 9 18 10 19 11 8 12
REMARK SMILES IDX 7 13 6 14 5 15 4 16 3 17 2 18 1 19
REMARK H PARENT
REMARK Flexibility Score: inf
ROOT
ATOM      1  C   UNL     1      23.857   1.418  -3.033  1.00  0.00     0.000 C 
ENDROOT
BRANCH   1   2
ATOM      2  C   UNL     1      22.771   0.568  -2.363  1.00  0.00     0.000 C 
BRANCH   2   3
ATOM      3  C   UNL     1      22.833  -0.888  -2.849  1.00  0.00     0.000 C 
BRANCH   3   4
ATOM      4  C   UNL     1      24.058  -1.643  -2.287  1.00  0.00     0.000 C 
BRANCH   4   5
ATOM      5  C   UNL     1      25.064  -2.086  -3.365  1.00  0.00     0.001 C 
BRANCH   5   6
ATOM      6  C   UNL     1      26.333  -2.779  -2.828  1.00  0.00     0.009 C 
BRANCH   6   7
ATOM      7  C   UNL     1      26.210  -4.315  -2.706  1.00  0.00     0.032 C 
ATOM      8  C   UNL     1      26.158  -4.960  -4.095  1.00  0.00     0.014 C 
BRANCH   7   9
ATOM      9  C   UNL     1      27.345  -4.897  -1.909  1.00  0.00     0.044 C 
ATOM     10  O   UNL     1      28.214  -5.620  -2.465  1.00  0.00    -0.550 OA
ATOM     11  O   UNL     1      27.446  -4.630  -0.549  1.00  0.00    -0.550 OA
ENDBRANCH   7   9
ENDBRANCH   6   7
ENDBRANCH   5   6
ENDBRANCH   4   5
ENDBRANCH   3   4
ENDBRANCH   2   3
ENDBRANCH   1   2
BRANCH   1  12
ATOM     12  C   UNL     1      23.697   2.900  -2.673  1.00  0.00     0.000 C 
BRANCH  12  13
ATOM     13  C   UNL     1      24.933   3.423  -1.932  1.00  0.00    -0.000 C 
BRANCH  13  14
ATOM     14  C   UNL     1      25.063   4.946  -2.088  1.00  0.00    -0.000 C 
BRANCH  14  15
ATOM     15  C   UNL     1      26.166   5.539  -1.197  1.00  0.00    -0.000 C 
BRANCH  15  16
ATOM     16  C   UNL     1      26.468   7.012  -1.527  1.00  0.00    -0.000 C 
BRANCH  16  17
ATOM     17  C   UNL     1      27.790   7.491  -0.891  1.00  0.00    -0.000 C 
BRANCH  17  18
ATOM     18  C   UNL     1      28.641   8.367  -1.826  1.00  0.00    -0.003 C 
ATOM     19  C   UNL     1      27.811   9.114  -2.867  1.00  0.00     0.004 C 
ENDBRANCH  17  18
ENDBRANCH  16  17
ENDBRANCH  15  16
ENDBRANCH  14  15
ENDBRANCH  13  14
ENDBRANCH  12  13
ENDBRANCH   1  12
TORSDOF 14
ENDMDL
MODEL 3
REMARK VINA RESULT:    -2.743      0.717      1.444
REMARK INTER + INTRA:          -5.513
REMARK INTER:                  -5.056
REMARK INTRA:                  -0.457
REMARK UNBOUND:                -0.525
REMARK SMILES CCCCCCCCCCCCCC[C@@H](C)C(=O)[O-]
REMARK SMILES IDX 9 1 10 2 11 3 12 4 13 5 14 6 15 7 16 8 17 9 18 10 19 11 8 12
REMARK SMILES IDX 7 13 6 14 5 15 4 16 3 17 2 18 1 19
REMARK H PARENT
REMARK Flexibility Score: inf
ROOT
ATOM      1  C   UNL     1      23.723   2.608  -2.631  1.00  0.00     0.000 C 
ENDROOT
BRANCH   1   2
ATOM      2  C   UNL     1      25.041   3.196  -2.113  1.00  0.00     0.000 C 
BRANCH   2   3
ATOM      3  C   UNL     1      25.001   4.732  -2.124  1.00  0.00     0.000 C 
BRANCH   3   4
ATOM      4  C   UNL     1      26.121   5.355  -1.263  1.00  0.00     0.000 C 
BRANCH   4   5
ATOM      5  C   UNL     1      26.286   6.874  -1.461  1.00  0.00     0.001 C 
BRANCH   5   6
ATOM      6  C   UNL     1      27.679   7.431  -1.103  1.00  0.00     0.009 C 
BRANCH   6   7
ATOM      7  C   UNL     1      27.733   8.972  -0.992  1.00  0.00     0.032 C 
ATOM      8  C   UNL     1      28.627   9.392   0.180  1.00  0.00     0.014 C 
BRANCH   7   9
ATOM      9  C   UNL     1      28.226   9.599  -2.268  1.00  0.00     0.044 C 
ATOM     10  O   UNL     1      28.622  10.795  -2.282  1.00  0.00    -0.550 OA
ATOM     11  O   UNL     1      28.256   8.854  -3.440  1.00  0.00    -0.550 OA
ENDBRANCH   7   9
ENDBRANCH   6   7
ENDBRANCH   5   6
ENDBRANCH   4   5
ENDBRANCH   3   4
ENDBRANCH   2   3
ENDBRANCH   1   2
BRANCH   1  12
ATOM     12  C   UNL     1      23.895   1.137  -3.028  1.00  0.00     0.000 C 
BRANCH  12  13
ATOM     13  C   UNL     1      22.831   0.258  -2.361  1.00  0.00    -0.000 C 
BRANCH  13  14
ATOM     14  C   UNL     1      23.197  -1.230  -2.474  1.00  0.00    -0.000 C 
BRANCH  14  15
ATOM     15  C   UNL     1      24.472  -1.464  -3.298  1.00  0.00    -0.000 C 
BRANCH  15  16
ATOM     16  C   UNL     1      25.512  -2.321  -2.554  1.00  0.00    -0.000 C 
BRANCH  16  17
ATOM     17  C   UNL     1      25.918  -3.573  -3.359  1.00  0.00    -0.000 C 
BRANCH  17  18
ATOM     18  C   UNL     1      27.264  -4.176  -2.923  1.00  0.00    -0.003 C 
ATOM     19  C   UNL     1      27.330  -4.475  -1.427  1.00  0.00     0.004 C 
ENDBRANCH  17  18
ENDBRANCH  16  17
ENDBRANCH  15  16
ENDBRANCH  14  15
ENDBRANCH  13  14
ENDBRANCH  12  13
ENDBRANCH   1  12
TORSDOF 14
ENDMDL
MODEL 4
REMARK VINA RESULT:    -2.202      1.272      2.367
REMARK INTER + INTRA:          -4.530
REMARK INTER:                  -4.030
REMARK INTRA:                  -0.500
REMARK UNBOUND:                -0.525
REMARK SMILES CCCCCCCCCCCCCC[C@@H](C)C(=O)[O-]
REMARK SMILES IDX 9 1 10 2 11 3 12 4 13 5 14 6 15 7 16 8 17 9 18 10 19 11 8 12
REMARK SMILES IDX 7 13 6 14 5 15 4 16 3 17 2 18 1 19
REMARK H PARENT
REMARK Flexibility Score: inf
ROOT
ATOM      1  C   UNL     1      23.059  -0.841  -2.376  1.00  0.00     0.000 C 
ENDROOT
BRANCH   1   2
ATOM      2  C   UNL     1      22.687   0.621  -2.650  1.00  0.00     0.000 C 
BRANCH   2   3
ATOM      3  C   UNL     1      23.936   1.456  -2.969  1.00  0.00     0.000 C 
BRANCH   3   4
ATOM      4  C   UNL     1      23.774   2.936  -2.557  1.00  0.00     0.000 C 
BRANCH   4   5
ATOM      5  C   UNL     1      24.976   3.499  -1.775  1.00  0.00     0.001 C 
BRANCH   5   6
ATOM      6  C   UNL     1      25.317   4.972  -2.074  1.00  0.00     0.009 C 
BRANCH   6   7
ATOM      7  C   UNL     1      26.192   5.650  -0.995  1.00  0.00     0.032 C 
ATOM      8  C   UNL     1      27.472   4.841  -0.758  1.00  0.00     0.014 C 
BRANCH   7   9
ATOM      9  C   UNL     1      26.539   7.064  -1.375  1.00  0.00     0.044 C 
ATOM     10  O   UNL     1      26.119   7.558  -2.456  1.00  0.00    -0.550 OA
ATOM     11  O   UNL     1      27.319   7.839  -0.526  1.00  0.00    -0.550 OA
ENDBRANCH   7   9
ENDBRANCH   6   7
ENDBRANCH   5   6
ENDBRANCH   4   5
ENDBRANCH   3   4
ENDBRANCH   2   3
ENDBRANCH   1   2
BRANCH   1  12
ATOM     12  C   UNL     1      24.142  -1.324  -3.349  1.00  0.00     0.000 C 
BRANCH  12  13
ATOM     13  C   UNL     1      25.008  -2.416  -2.710  1.00  0.00    -0.000 C 
BRANCH  13  14
ATOM     14  C   UNL     1      26.112  -2.876  -3.674  1.00  0.00    -0.000 C 
BRANCH  14  15
ATOM     15  C   UNL     1      26.096  -4.395  -3.910  1.00  0.00    -0.000 C 
BRANCH  15  16
ATOM     16  C   UNL     1      27.502  -5.019  -3.859  1.00  0.00    -0.000 C 
BRANCH  16  17
ATOM     17  C   UNL     1      27.795  -5.682  -2.497  1.00  0.00    -0.000 C 
BRANCH  17  18
ATOM     18  C   UNL     1      27.045  -5.032  -1.322  1.00  0.00    -0.003 C 
ATOM     19  C   UNL     1      27.954  -4.702  -0.140  1.00  0.00     0.004 C 
ENDBRANCH  17  18
ENDBRANCH  16  17
ENDBRANCH  15  16
ENDBRANCH  14  15
ENDBRANCH  13  14
ENDBRANCH  12  13
ENDBRANCH   1  12
TORSDOF 14
ENDMDL
MODEL 5
REMARK VINA RESULT:    -1.630      2.147      4.084
REMARK INTER + INTRA:          -3.490
REMARK INTER:                  -2.855
REMARK INTRA:                  -0.635
REMARK UNBOUND:                -0.525
REMARK SMILES CCCCCCCCCCCCCC[C@@H](C)C(=O)[O-]
REMARK SMILES IDX 9 1 10 2 11 3 12 4 13 5 14 6 15 7 16 8 17 9 18 10 19 11 8 12
REMARK SMILES IDX 7 13 6 14 5 15 4 16 3 17 2 18 1 19
REMARK H PARENT
REMARK Flexibility Score: inf
ROOT
ATOM      1  C   UNL     1      24.577  -1.798  -3.412  1.00  0.00     0.000 C 
ENDROOT
BRANCH   1   2
ATOM      2  C   UNL     1      23.731  -1.314  -2.227  1.00  0.00     0.000 C 
BRANCH   2   3
ATOM      3  C   UNL     1      22.846  -0.126  -2.631  1.00  0.00     0.000 C 
BRANCH   3   4
ATOM      4  C   UNL     1      23.650   0.996  -3.323  1.00  0.00     0.000 C 
BRANCH   4   5
ATOM      5  C   UNL     1      23.482   2.379  -2.665  1.00  0.00     0.001 C 
BRANCH   5   6
ATOM      6  C   UNL     1      24.692   2.860  -1.839  1.00  0.00     0.009 C 
BRANCH   6   7
ATOM      7  C   UNL     1      25.303   4.192  -2.330  1.00  0.00     0.032 C 
ATOM      8  C   UNL     1      24.196   5.178  -2.718  1.00  0.00     0.014 C 
BRANCH   7   9
ATOM      9  C   UNL     1      26.199   4.805  -1.288  1.00  0.00     0.044 C 
ATOM     10  O   UNL     1      26.865   4.076  -0.506  1.00  0.00    -0.550 OA
ATOM     11  O   UNL     1      26.302   6.187  -1.189  1.00  0.00    -0.550 OA
ENDBRANCH   7   9
ENDBRANCH   6   7
ENDBRANCH   5   6
ENDBRANCH   4   5
ENDBRANCH   3   4
ENDBRANCH   2   3
ENDBRANCH   1   2
BRANCH   1  12
ATOM     12  C   UNL     1      25.664  -2.776  -2.949  1.00  0.00     0.000 C 
BRANCH  12  13
ATOM     13  C   UNL     1      26.188  -3.611  -4.123  1.00  0.00    -0.000 C 
BRANCH  13  14
ATOM     14  C   UNL     1      25.859  -5.099  -3.929  1.00  0.00    -0.000 C 
BRANCH  14  15
ATOM     15  C   UNL     1      27.094  -6.002  -4.075  1.00  0.00    -0.000 C 
BRANCH  15  16
ATOM     16  C   UNL     1      28.052  -5.896  -2.874  1.00  0.00    -0.000 C 
BRANCH  16  17
ATOM     17  C   UNL     1      27.303  -5.933  -1.527  1.00  0.00    -0.000 C 
BRANCH  17  18
ATOM     18  C   UNL     1      27.325  -4.594  -0.772  1.00  0.00    -0.003 C 
ATOM     19  C   UNL     1      28.374  -4.548   0.337  1.00  0.00     0.004 C 
ENDBRANCH  17  18
ENDBRANCH  16  17
ENDBRANCH  15  16
ENDBRANCH  14  15
ENDBRANCH  13  14
ENDBRANCH  12  13
ENDBRANCH   1  12
TORSDOF 14
ENDMDL
MODEL 6
REMARK VINA RESULT:    -0.874      1.560      3.125
REMARK INTER + INTRA:          -2.115
REMARK INTER:                  -2.470
REMARK INTRA:                   0.355
REMARK UNBOUND:                -0.525
REMARK SMILES CCCCCCCCCCCCCC[C@@H](C)C(=O)[O-]
REMARK SMILES IDX 9 1 10 2 11 3 12 4 13 5 14 6 15 7 16 8 17 9 18 10 19 11 8 12
REMARK SMILES IDX 7 13 6 14 5 15 4 16 3 17 2 18 1 19
REMARK H PARENT
REMARK Flexibility Score: inf
ROOT
ATOM      1  C   UNL     1      25.238   3.301  -1.541  1.00  0.00     0.000 C 
ENDROOT
BRANCH   1   2
ATOM      2  C   UNL     1      26.249   4.375  -1.122  1.00  0.00     0.000 C 
BRANCH   2   3
ATOM      3  C   UNL     1      25.758   5.776  -1.517  1.00  0.00     0.000 C 
BRANCH   3   4
ATOM      4  C   UNL     1      26.920   6.779  -1.687  1.00  0.00     0.000 C 
BRANCH   4   5
ATOM      5  C   UNL     1      26.469   8.188  -2.117  1.00  0.00     0.001 C 
BRANCH   5   6
ATOM      6  C   UNL     1      27.570   9.059  -2.754  1.00  0.00     0.009 C 
BRANCH   6   7
ATOM      7  C   UNL     1      28.689   9.480  -1.774  1.00  0.00     0.032 C 
ATOM      8  C   UNL     1      29.122  10.925  -2.046  1.00  0.00     0.014 C 
BRANCH   7   9
ATOM      9  C   UNL     1      28.252   9.333  -0.342  1.00  0.00     0.044 C 
ATOM     10  O   UNL     1      27.097   9.687   0.015  1.00  0.00    -0.550 OA
ATOM     11  O   UNL     1      29.124   8.794   0.596  1.00  0.00    -0.550 OA
ENDBRANCH   7   9
ENDBRANCH   6   7
ENDBRANCH   5   6
ENDBRANCH   4   5
ENDBRANCH   3   4
ENDBRANCH   2   3
ENDBRANCH   1   2
BRANCH   1  12
ATOM     12  C   UNL     1      24.241   3.853  -2.567  1.00  0.00     0.000 C 
BRANCH  12  13
ATOM     13  C   UNL     1      23.231   2.779  -2.988  1.00  0.00    -0.000 C 
BRANCH  13  14
ATOM     14  C   UNL     1      23.872   1.383  -2.966  1.00  0.00    -0.000 C 
BRANCH  14  15
ATOM     15  C   UNL     1      22.832   0.256  -2.881  1.00  0.00    -0.000 C 
BRANCH  15  16
ATOM     16  C   UNL     1      23.417  -1.052  -2.317  1.00  0.00    -0.000 C 
BRANCH  16  17
ATOM     17  C   UNL     1      24.514  -1.639  -3.230  1.00  0.00    -0.000 C 
BRANCH  17  18
ATOM     18  C   UNL     1      25.359  -2.731  -2.552  1.00  0.00    -0.003 C 
ATOM     19  C   UNL     1      26.243  -3.499  -3.532  1.00  0.00     0.004 C 
ENDBRANCH  17  18
ENDBRANCH  16  17
ENDBRANCH  15  16
ENDBRANCH  14  15
ENDBRANCH  13  14
ENDBRANCH  12  13
ENDBRANCH   1  12
TORSDOF 14
ENDMDL
MODEL 7
REMARK VINA RESULT:    -0.838      2.673      4.260
REMARK INTER + INTRA:          -2.049
REMARK INTER:                  -1.251
REMARK INTRA:                  -0.799
REMARK UNBOUND:                -0.525
REMARK SMILES CCCCCCCCCCCCCC[C@@H](C)C(=O)[O-]
REMARK SMILES IDX 9 1 10 2 11 3 12 4 13 5 14 6 15 7 16 8 17 9 18 10 19 11 8 12
REMARK SMILES IDX 7 13 6 14 5 15 4 16 3 17 2 18 1 19
REMARK H PARENT
REMARK Flexibility Score: inf
ROOT
ATOM      1  C   UNL     1      25.705   3.863  -1.136  1.00  0.00     0.000 C 
ENDROOT
BRANCH   1   2
ATOM      2  C   UNL     1      26.816   4.834  -0.719  1.00  0.00     0.000 C 
BRANCH   2   3
ATOM      3  C   UNL     1      26.482   6.271  -1.149  1.00  0.00     0.000 C 
BRANCH   3   4
ATOM      4  C   UNL     1      27.355   7.318  -0.423  1.00  0.00     0.000 C 
BRANCH   4   5
ATOM      5  C   UNL     1      27.377   8.695  -1.114  1.00  0.00     0.001 C 
BRANCH   5   6
ATOM      6  C   UNL     1      28.626   8.975  -1.972  1.00  0.00     0.009 C 
BRANCH   6   7
ATOM      7  C   UNL     1      28.323   9.652  -3.328  1.00  0.00     0.032 C 
ATOM      8  C   UNL     1      26.940   9.233  -3.838  1.00  0.00     0.014 C 
BRANCH   7   9
ATOM      9  C   UNL     1      28.402  11.151  -3.225  1.00  0.00     0.044 C 
ATOM     10  O   UNL     1      27.909  11.882  -4.125  1.00  0.00    -0.550 OA
ATOM     11  O   UNL     1      29.016  11.739  -2.126  1.00  0.00    -0.550 OA
ENDBRANCH   7   9
ENDBRANCH   6   7
ENDBRANCH   5   6
ENDBRANCH   4   5
ENDBRANCH   3   4
ENDBRANCH   2   3
ENDBRANCH   1   2
BRANCH   1  12
ATOM     12  C   UNL     1      24.811   4.482  -2.217  1.00  0.00     0.000 C 
BRANCH  12  13
ATOM     13  C   UNL     1      23.693   3.516  -2.628  1.00  0.00    -0.000 C 
BRANCH  13  14
ATOM     14  C   UNL     1      24.186   2.061  -2.595  1.00  0.00    -0.000 C 
BRANCH  14  15
ATOM     15  C   UNL     1      23.169   1.079  -3.198  1.00  0.00    -0.000 C 
BRANCH  15  16
ATOM     16  C   UNL     1      23.695  -0.367  -3.246  1.00  0.00    -0.000 C 
BRANCH  16  17
ATOM     17  C   UNL     1      23.148  -1.224  -2.086  1.00  0.00    -0.000 C 
BRANCH  17  18
ATOM     18  C   UNL     1      22.130  -0.485  -1.201  1.00  0.00    -0.003 C 
ATOM     19  C   UNL     1      21.390  -1.411  -0.238  1.00  0.00     0.004 C 
ENDBRANCH  17  18
ENDBRANCH  16  17
ENDBRANCH  15  16
ENDBRANCH  14  15
ENDBRANCH  13  14
ENDBRANCH  12  13
ENDBRANCH   1  12
TORSDOF 14
ENDMDL
MODEL 8
REMARK VINA RESULT:    -0.643      4.425     10.318
REMARK INTER + INTRA:          -1.695
REMARK INTER:                  -0.666
REMARK INTRA:                  -1.029
REMARK UNBOUND:                -0.525
REMARK SMILES CCCCCCCCCCCCCC[C@@H](C)C(=O)[O-]
REMARK SMILES IDX 9 1 10 2 11 3 12 4 13 5 14 6 15 7 16 8 17 9 18 10 19 11 8 12
REMARK SMILES IDX 7 13 6 14 5 15 4 16 3 17 2 18 1 19
REMARK H PARENT
REMARK Flexibility Score: inf
ROOT
ATOM      1  C   UNL     1      26.815   5.643  -0.770  1.00  0.00     0.000 C 
ENDROOT
BRANCH   1   2
ATOM      2  C   UNL     1      25.755   5.406  -1.852  1.00  0.00     0.000 C 
BRANCH   2   3
ATOM      3  C   UNL     1      25.391   3.917  -1.949  1.00  0.00     0.000 C 
BRANCH   3   4
ATOM      4  C   UNL     1      23.907   3.698  -2.318  1.00  0.00     0.000 C 
BRANCH   4   5
ATOM      5  C   UNL     1      23.659   2.452  -3.189  1.00  0.00     0.001 C 
BRANCH   5   6
ATOM      6  C   UNL     1      24.159   1.124  -2.585  1.00  0.00     0.009 C 
BRANCH   6   7
ATOM      7  C   UNL     1      23.355  -0.117  -3.035  1.00  0.00     0.032 C 
ATOM      8  C   UNL     1      24.301  -1.276  -3.366  1.00  0.00     0.014 C 
BRANCH   7   9
ATOM      9  C   UNL     1      22.365  -0.543  -1.985  1.00  0.00     0.044 C 
ATOM     10  O   UNL     1      22.627  -1.500  -1.208  1.00  0.00    -0.550 OA
ATOM     11  O   UNL     1      21.155   0.128  -1.860  1.00  0.00    -0.550 OA
ENDBRANCH   7   9
ENDBRANCH   6   7
ENDBRANCH   5   6
ENDBRANCH   4   5
ENDBRANCH   3   4
ENDBRANCH   2   3
ENDBRANCH   1   2
BRANCH   1  12
ATOM     12  C   UNL     1      27.563   6.960  -1.011  1.00  0.00     0.000 C 
BRANCH  12  13
ATOM     13  C   UNL     1      26.706   8.163  -0.600  1.00  0.00    -0.000 C 
BRANCH  13  14
ATOM     14  C   UNL     1      27.586   9.323  -0.110  1.00  0.00    -0.000 C 
BRANCH  14  15
ATOM     15  C   UNL     1      28.907   9.431  -0.886  1.00  0.00    -0.000 C 
BRANCH  15  16
ATOM     16  C   UNL     1      29.115  10.820  -1.517  1.00  0.00    -0.000 C 
BRANCH  16  17
ATOM     17  C   UNL     1      28.676  10.859  -2.995  1.00  0.00    -0.000 C 
BRANCH  17  18
ATOM     18  C   UNL     1      28.458   9.466  -3.610  1.00  0.00    -0.003 C 
ATOM     19  C   UNL     1      27.036   9.254  -4.124  1.00  0.00     0.004 C 
ENDBRANCH  17  18
ENDBRANCH  16  17
ENDBRANCH  15  16
ENDBRANCH  14  15
ENDBRANCH  13  14
ENDBRANCH  12  13
ENDBRANCH   1  12
TORSDOF 14
ENDMDL
MODEL 9
REMARK VINA RESULT:    -0.578      4.603     10.596
REMARK INTER + INTRA:          -1.576
REMARK INTER:                  -0.915
REMARK INTRA:                  -0.661
REMARK UNBOUND:                -0.525
REMARK SMILES CCCCCCCCCCCCCC[C@@H](C)C(=O)[O-]
REMARK SMILES IDX 9 1 10 2 11 3 12 4 13 5 14 6 15 7 16 8 17 9 18 10 19 11 8 12
REMARK SMILES IDX 7 13 6 14 5 15 4 16 3 17 2 18 1 19
REMARK H PARENT
REMARK Flexibility Score: inf
ROOT
ATOM      1  C   UNL     1      27.044   5.089  -1.113  1.00  0.00     0.000 C 
ENDROOT
BRANCH   1   2
ATOM      2  C   UNL     1      25.567   4.690  -1.002  1.00  0.00     0.000 C 
BRANCH   2   3
ATOM      3  C   UNL     1      24.782   5.134  -2.246  1.00  0.00     0.000 C 
BRANCH   3   4
ATOM      4  C   UNL     1      23.905   4.001  -2.821  1.00  0.00     0.000 C 
BRANCH   4   5
ATOM      5  C   UNL     1      24.269   2.601  -2.290  1.00  0.00     0.001 C 
BRANCH   5   6
ATOM      6  C   UNL     1      23.724   1.425  -3.124  1.00  0.00     0.009 C 
BRANCH   6   7
ATOM      7  C   UNL     1      22.711   0.532  -2.371  1.00  0.00     0.032 C 
ATOM      8  C   UNL     1      21.333   0.606  -3.038  1.00  0.00     0.014 C 
BRANCH   7   9
ATOM      9  C   UNL     1      23.177  -0.897  -2.307  1.00  0.00     0.044 C 
ATOM     10  O   UNL     1      22.735  -1.676  -1.421  1.00  0.00    -0.550 OA
ATOM     11  O   UNL     1      24.096  -1.369  -3.237  1.00  0.00    -0.550 OA
ENDBRANCH   7   9
ENDBRANCH   6   7
ENDBRANCH   5   6
ENDBRANCH   4   5
ENDBRANCH   3   4
ENDBRANCH   2   3
ENDBRANCH   1   2
BRANCH   1  12
ATOM     12  C   UNL     1      27.244   6.565  -0.745  1.00  0.00     0.000 C 
BRANCH  12  13
ATOM     13  C   UNL     1      28.715   6.859  -0.430  1.00  0.00    -0.000 C 
BRANCH  13  14
ATOM     14  C   UNL     1      29.069   8.315  -0.767  1.00  0.00    -0.000 C 
BRANCH  14  15
ATOM     15  C   UNL     1      28.961   8.617  -2.270  1.00  0.00    -0.000 C 
BRANCH  15  16
ATOM     16  C   UNL     1      27.988   9.770  -2.577  1.00  0.00    -0.000 C 
BRANCH  16  17
ATOM     17  C   UNL     1      28.568  10.762  -3.606  1.00  0.00    -0.000 C 
BRANCH  17  18
ATOM     18  C   UNL     1      29.024  12.094  -2.989  1.00  0.00    -0.003 C 
ATOM     19  C   UNL     1      28.645  13.307  -3.835  1.00  0.00     0.004 C 
ENDBRANCH  17  18
ENDBRANCH  16  17
ENDBRANCH  15  16
ENDBRANCH  14  15
ENDBRANCH  13  14
ENDBRANCH  12  13
ENDBRANCH   1  12
TORSDOF 14
ENDMDL
