MODEL 1
REMARK VINA RESULT:    -4.296      0.000      0.000
REMARK INTER + INTRA:          -5.843
REMARK INTER:                  -5.426
REMARK INTRA:                  -0.417
REMARK UNBOUND:                -0.417
REMARK SMILES CC(C)=CCCC(C)=CCO
REMARK SMILES IDX 7 1 9 2 8 3 6 4 5 5 4 6 1 7 2 8 3 9 10 10 11 11
REMARK H PARENT 11 12
REMARK Flexibility Score: inf
ROOT
ATOM      1  C   UNL     1      45.860  43.493  34.876  1.00  0.00    -0.075 C 
ATOM      2  C   UNL     1      45.966  44.350  33.837  1.00  0.00    -0.000 C 
ATOM      3  C   UNL     1      44.644  43.583  35.762  1.00  0.00     0.039 C 
ENDROOT
BRANCH   1   4
ATOM      4  C   UNL     1      46.884  42.410  35.153  1.00  0.00     0.034 C 
BRANCH   4   5
ATOM      5  C   UNL     1      47.869  42.860  36.237  1.00  0.00     0.032 C 
BRANCH   5   6
ATOM      6  C   UNL     1      48.203  41.728  37.179  1.00  0.00    -0.028 C 
ATOM      7  C   UNL     1      47.579  43.088  39.177  1.00  0.00     0.039 C 
ATOM      8  C   UNL     1      48.074  41.822  38.519  1.00  0.00    -0.080 C 
ATOM      9  C   UNL     1      48.435  40.631  39.367  1.00  0.00     0.039 C 
ENDBRANCH   5   6
ENDBRANCH   4   5
ENDBRANCH   1   4
BRANCH   2  10
ATOM     10  C   UNL     1      47.124  44.361  32.872  1.00  0.00     0.183 C 
BRANCH  10  11
ATOM     11  O   UNL     1      48.078  45.309  33.268  1.00  0.00    -0.392 OA
ATOM     12  H   UNL     1      48.847  45.216  32.647  1.00  0.00     0.210 HD
ENDBRANCH  10  11
ENDBRANCH   2  10
TORSDOF 5
ENDMDL
MODEL 2
REMARK VINA RESULT:    -4.223      9.740     13.068
REMARK INTER + INTRA:          -5.751
REMARK INTER:                  -5.480
REMARK INTRA:                  -0.271
REMARK UNBOUND:                -0.417
REMARK SMILES CC(C)=CCCC(C)=CCO
REMARK SMILES IDX 7 1 9 2 8 3 6 4 5 5 4 6 1 7 2 8 3 9 10 10 11 11
REMARK H PARENT 11 12
REMARK Flexibility Score: inf
ROOT
ATOM      1  C   UNL     1      46.177  37.031  48.186  1.00  0.00    -0.075 C 
ATOM      2  C   UNL     1      46.117  37.737  49.337  1.00  0.00    -0.000 C 
ATOM      3  C   UNL     1      47.425  36.239  47.893  1.00  0.00     0.039 C 
ENDROOT
BRANCH   1   4
ATOM      4  C   UNL     1      45.021  36.960  47.207  1.00  0.00     0.034 C 
BRANCH   4   5
ATOM      5  C   UNL     1      45.535  36.826  45.770  1.00  0.00     0.032 C 
BRANCH   5   6
ATOM      6  C   UNL     1      44.664  37.592  44.802  1.00  0.00    -0.028 C 
ATOM      7  C   UNL     1      46.606  38.100  43.318  1.00  0.00     0.039 C 
ATOM      8  C   UNL     1      45.143  38.175  43.684  1.00  0.00    -0.080 C 
ATOM      9  C   UNL     1      44.185  38.915  42.787  1.00  0.00     0.039 C 
ENDBRANCH   5   6
ENDBRANCH   4   5
ENDBRANCH   1   4
BRANCH   2  10
ATOM     10  C   UNL     1      44.927  38.564  49.754  1.00  0.00     0.183 C 
BRANCH  10  11
ATOM     11  O   UNL     1      45.332  39.864  50.089  1.00  0.00    -0.392 OA
ATOM     12  H   UNL     1      45.193  40.422  49.279  1.00  0.00     0.210 HD
ENDBRANCH  10  11
ENDBRANCH   2  10
TORSDOF 5
ENDMDL
MODEL 3
REMARK VINA RESULT:    -4.136      1.780      2.507
REMARK INTER + INTRA:          -5.641
REMARK INTER:                  -5.140
REMARK INTRA:                  -0.501
REMARK UNBOUND:                -0.417
REMARK SMILES CC(C)=CCCC(C)=CCO
REMARK SMILES IDX 7 1 9 2 8 3 6 4 5 5 4 6 1 7 2 8 3 9 10 10 11 11
REMARK H PARENT 11 12
REMARK Flexibility Score: inf
ROOT
ATOM      1  C   UNL     1      45.409  44.326  33.063  1.00  0.00    -0.075 C 
ATOM      2  C   UNL     1      45.161  44.167  31.744  1.00  0.00    -0.000 C 
ATOM      3  C   UNL     1      44.263  44.692  33.970  1.00  0.00     0.039 C 
ENDROOT
BRANCH   1   4
ATOM      4  C   UNL     1      46.778  44.099  33.673  1.00  0.00     0.034 C 
BRANCH   4   5
ATOM      5  C   UNL     1      46.827  42.757  34.411  1.00  0.00     0.032 C 
BRANCH   5   6
ATOM      6  C   UNL     1      47.541  42.885  35.735  1.00  0.00    -0.028 C 
ATOM      7  C   UNL     1      45.387  42.925  36.996  1.00  0.00     0.039 C 
ATOM      8  C   UNL     1      46.895  42.962  36.917  1.00  0.00    -0.080 C 
ATOM      9  C   UNL     1      47.706  43.088  38.179  1.00  0.00     0.039 C 
ENDBRANCH   5   6
ENDBRANCH   4   5
ENDBRANCH   1   4
BRANCH   2  10
ATOM     10  C   UNL     1      46.213  43.794  30.730  1.00  0.00     0.183 C 
BRANCH  10  11
ATOM     11  O   UNL     1      46.563  44.913  29.961  1.00  0.00    -0.392 OA
ATOM     12  H   UNL     1      47.431  44.699  29.526  1.00  0.00     0.210 HD
ENDBRANCH  10  11
ENDBRANCH   2  10
TORSDOF 5
ENDMDL
MODEL 4
REMARK VINA RESULT:    -4.129      2.379      3.672
REMARK INTER + INTRA:          -5.633
REMARK INTER:                  -5.335
REMARK INTRA:                  -0.297
REMARK UNBOUND:                -0.417
REMARK SMILES CC(C)=CCCC(C)=CCO
REMARK SMILES IDX 7 1 9 2 8 3 6 4 5 5 4 6 1 7 2 8 3 9 10 10 11 11
REMARK H PARENT 11 12
REMARK Flexibility Score: inf
ROOT
ATOM      1  C   UNL     1      47.275  43.806  31.591  1.00  0.00    -0.075 C 
ATOM      2  C   UNL     1      47.312  43.322  30.330  1.00  0.00    -0.000 C 
ATOM      3  C   UNL     1      48.077  45.041  31.911  1.00  0.00     0.039 C 
ENDROOT
BRANCH   1   4
ATOM      4  C   UNL     1      46.418  43.191  32.680  1.00  0.00     0.034 C 
BRANCH   4   5
ATOM      5  C   UNL     1      46.581  43.957  33.996  1.00  0.00     0.032 C 
BRANCH   5   6
ATOM      6  C   UNL     1      47.452  43.198  34.969  1.00  0.00    -0.028 C 
ATOM      7  C   UNL     1      45.634  43.126  36.678  1.00  0.00     0.039 C 
ATOM      8  C   UNL     1      47.029  42.815  36.192  1.00  0.00    -0.080 C 
ATOM      9  C   UNL     1      47.981  42.061  37.083  1.00  0.00     0.039 C 
ENDBRANCH   5   6
ENDBRANCH   4   5
ENDBRANCH   1   4
BRANCH   2  10
ATOM     10  C   UNL     1      46.552  42.102  29.875  1.00  0.00     0.183 C 
BRANCH  10  11
ATOM     11  O   UNL     1      47.311  40.945  30.103  1.00  0.00    -0.392 OA
ATOM     12  H   UNL     1      46.863  40.452  30.840  1.00  0.00     0.210 HD
ENDBRANCH  10  11
ENDBRANCH   2  10
TORSDOF 5
ENDMDL
MODEL 5
REMARK VINA RESULT:    -4.127      3.094      4.470
REMARK INTER + INTRA:          -5.630
REMARK INTER:                  -4.823
REMARK INTRA:                  -0.807
REMARK UNBOUND:                -0.417
REMARK SMILES CC(C)=CCCC(C)=CCO
REMARK SMILES IDX 7 1 9 2 8 3 6 4 5 5 4 6 1 7 2 8 3 9 10 10 11 11
REMARK H PARENT 11 12
REMARK Flexibility Score: inf
ROOT
ATOM      1  C   UNL     1      46.968  44.051  31.343  1.00  0.00    -0.075 C 
ATOM      2  C   UNL     1      47.318  42.978  30.600  1.00  0.00    -0.000 C 
ATOM      3  C   UNL     1      48.051  44.997  31.796  1.00  0.00     0.039 C 
ENDROOT
BRANCH   1   4
ATOM      4  C   UNL     1      45.528  44.371  31.692  1.00  0.00     0.034 C 
BRANCH   4   5
ATOM      5  C   UNL     1      45.308  44.298  33.207  1.00  0.00     0.032 C 
BRANCH   5   6
ATOM      6  C   UNL     1      45.276  42.866  33.688  1.00  0.00    -0.028 C 
ATOM      7  C   UNL     1      47.346  43.184  35.047  1.00  0.00     0.039 C 
ATOM      8  C   UNL     1      46.200  42.351  34.526  1.00  0.00    -0.080 C 
ATOM      9  C   UNL     1      46.074  40.909  34.943  1.00  0.00     0.039 C 
ENDBRANCH   5   6
ENDBRANCH   4   5
ENDBRANCH   1   4
BRANCH   2  10
ATOM     10  C   UNL     1      46.336  41.961  30.078  1.00  0.00     0.183 C 
BRANCH  10  11
ATOM     11  O   UNL     1      46.273  40.858  30.941  1.00  0.00    -0.392 OA
ATOM     12  H   UNL     1      45.686  40.187  30.503  1.00  0.00     0.210 HD
ENDBRANCH  10  11
ENDBRANCH   2  10
TORSDOF 5
ENDMDL
MODEL 6
REMARK VINA RESULT:    -4.113      3.589      5.267
REMARK INTER + INTRA:          -5.612
REMARK INTER:                  -4.770
REMARK INTRA:                  -0.843
REMARK UNBOUND:                -0.417
REMARK SMILES CC(C)=CCCC(C)=CCO
REMARK SMILES IDX 7 1 9 2 8 3 6 4 5 5 4 6 1 7 2 8 3 9 10 10 11 11
REMARK H PARENT 11 12
REMARK Flexibility Score: inf
ROOT
ATOM      1  C   UNL     1      46.887  43.325  30.488  1.00  0.00    -0.075 C 
ATOM      2  C   UNL     1      47.943  43.772  31.201  1.00  0.00    -0.000 C 
ATOM      3  C   UNL     1      46.929  41.921  29.943  1.00  0.00     0.039 C 
ENDROOT
BRANCH   1   4
ATOM      4  C   UNL     1      45.640  44.158  30.260  1.00  0.00     0.034 C 
BRANCH   4   5
ATOM      5  C   UNL     1      44.469  43.620  31.089  1.00  0.00     0.032 C 
BRANCH   5   6
ATOM      6  C   UNL     1      44.533  44.116  32.514  1.00  0.00    -0.028 C 
ATOM      7  C   UNL     1      45.214  41.868  33.360  1.00  0.00     0.039 C 
ATOM      8  C   UNL     1      44.871  43.326  33.554  1.00  0.00    -0.080 C 
ATOM      9  C   UNL     1      44.903  43.923  34.936  1.00  0.00     0.039 C 
ENDBRANCH   5   6
ENDBRANCH   4   5
ENDBRANCH   1   4
BRANCH   2  10
ATOM     10  C   UNL     1      48.026  45.150  31.807  1.00  0.00     0.183 C 
BRANCH  10  11
ATOM     11  O   UNL     1      47.978  45.070  33.206  1.00  0.00    -0.392 OA
ATOM     12  H   UNL     1      48.490  44.258  33.462  1.00  0.00     0.210 HD
ENDBRANCH  10  11
ENDBRANCH   2  10
TORSDOF 5
ENDMDL
MODEL 7
REMARK VINA RESULT:    -4.075      2.054      5.285
REMARK INTER + INTRA:          -5.565
REMARK INTER:                  -5.303
REMARK INTRA:                  -0.261
REMARK UNBOUND:                -0.417
REMARK SMILES CC(C)=CCCC(C)=CCO
REMARK SMILES IDX 7 1 9 2 8 3 6 4 5 5 4 6 1 7 2 8 3 9 10 10 11 11
REMARK H PARENT 11 12
REMARK Flexibility Score: inf
ROOT
ATOM      1  C   UNL     1      46.456  42.893  36.362  1.00  0.00    -0.075 C 
ATOM      2  C   UNL     1      45.257  43.311  36.823  1.00  0.00    -0.000 C 
ATOM      3  C   UNL     1      47.616  42.839  37.322  1.00  0.00     0.039 C 
ENDROOT
BRANCH   1   4
ATOM      4  C   UNL     1      46.668  42.427  34.934  1.00  0.00     0.034 C 
BRANCH   4   5
ATOM      5  C   UNL     1      47.018  43.609  34.024  1.00  0.00     0.032 C 
BRANCH   5   6
ATOM      6  C   UNL     1      46.787  43.268  32.571  1.00  0.00    -0.028 C 
ATOM      7  C   UNL     1      48.298  45.103  31.808  1.00  0.00     0.039 C 
ATOM      8  C   UNL     1      47.365  43.943  31.555  1.00  0.00    -0.080 C 
ATOM      9  C   UNL     1      47.066  43.519  30.141  1.00  0.00     0.039 C 
ENDBRANCH   5   6
ENDBRANCH   4   5
ENDBRANCH   1   4
BRANCH   2  10
ATOM     10  C   UNL     1      44.016  43.406  35.971  1.00  0.00     0.183 C 
BRANCH  10  11
ATOM     11  O   UNL     1      43.920  44.679  35.392  1.00  0.00    -0.392 OA
ATOM     12  H   UNL     1      44.694  44.771  34.778  1.00  0.00     0.210 HD
ENDBRANCH  10  11
ENDBRANCH   2  10
TORSDOF 5
ENDMDL
MODEL 8
REMARK VINA RESULT:    -3.946      4.339      5.655
REMARK INTER + INTRA:          -5.401
REMARK INTER:                  -4.560
REMARK INTRA:                  -0.841
REMARK UNBOUND:                -0.417
REMARK SMILES CC(C)=CCCC(C)=CCO
REMARK SMILES IDX 7 1 9 2 8 3 6 4 5 5 4 6 1 7 2 8 3 9 10 10 11 11
REMARK H PARENT 11 12
REMARK Flexibility Score: inf
ROOT
ATOM      1  C   UNL     1      43.487  42.917  32.482  1.00  0.00    -0.075 C 
ATOM      2  C   UNL     1      43.310  43.994  33.278  1.00  0.00    -0.000 C 
ATOM      3  C   UNL     1      42.674  42.814  31.218  1.00  0.00     0.039 C 
ENDROOT
BRANCH   1   4
ATOM      4  C   UNL     1      44.509  41.837  32.781  1.00  0.00     0.034 C 
BRANCH   4   5
ATOM      5  C   UNL     1      45.633  41.850  31.740  1.00  0.00     0.032 C 
BRANCH   5   6
ATOM      6  C   UNL     1      46.697  42.861  32.095  1.00  0.00    -0.028 C 
ATOM      7  C   UNL     1      46.136  44.279  30.118  1.00  0.00     0.039 C 
ATOM      8  C   UNL     1      46.933  43.970  31.363  1.00  0.00    -0.080 C 
ATOM      9  C   UNL     1      48.020  44.913  31.807  1.00  0.00     0.039 C 
ENDBRANCH   5   6
ENDBRANCH   4   5
ENDBRANCH   1   4
BRANCH   2  10
ATOM     10  C   UNL     1      44.063  44.222  34.564  1.00  0.00     0.183 C 
BRANCH  10  11
ATOM     11  O   UNL     1      45.173  45.047  34.336  1.00  0.00    -0.392 OA
ATOM     12  H   UNL     1      44.823  45.969  34.217  1.00  0.00     0.210 HD
ENDBRANCH  10  11
ENDBRANCH   2  10
TORSDOF 5
ENDMDL
MODEL 9
REMARK VINA RESULT:    -3.939      1.671      2.329
REMARK INTER + INTRA:          -5.392
REMARK INTER:                  -5.124
REMARK INTRA:                  -0.268
REMARK UNBOUND:                -0.417
REMARK SMILES CC(C)=CCCC(C)=CCO
REMARK SMILES IDX 7 1 9 2 8 3 6 4 5 5 4 6 1 7 2 8 3 9 10 10 11 11
REMARK H PARENT 11 12
REMARK Flexibility Score: inf
ROOT
ATOM      1  C   UNL     1      46.339  43.819  33.936  1.00  0.00    -0.075 C 
ATOM      2  C   UNL     1      45.113  44.377  34.046  1.00  0.00    -0.000 C 
ATOM      3  C   UNL     1      47.335  44.450  32.999  1.00  0.00     0.039 C 
ENDROOT
BRANCH   1   4
ATOM      4  C   UNL     1      46.769  42.618  34.757  1.00  0.00     0.034 C 
BRANCH   4   5
ATOM      5  C   UNL     1      47.694  43.047  35.902  1.00  0.00     0.032 C 
BRANCH   5   6
ATOM      6  C   UNL     1      48.087  41.869  36.760  1.00  0.00    -0.028 C 
ATOM      7  C   UNL     1      47.584  43.118  38.862  1.00  0.00     0.039 C 
ATOM      8  C   UNL     1      48.040  41.892  38.109  1.00  0.00    -0.080 C 
ATOM      9  C   UNL     1      48.455  40.659  38.868  1.00  0.00     0.039 C 
ENDBRANCH   5   6
ENDBRANCH   4   5
ENDBRANCH   1   4
BRANCH   2  10
ATOM     10  C   UNL     1      44.028  43.850  34.951  1.00  0.00     0.183 C 
BRANCH  10  11
ATOM     11  O   UNL     1      43.622  44.845  35.851  1.00  0.00    -0.392 OA
ATOM     12  H   UNL     1      42.682  44.637  36.100  1.00  0.00     0.210 HD
ENDBRANCH  10  11
ENDBRANCH   2  10
TORSDOF 5
ENDMDL
