MODEL 1
REMARK VINA RESULT:    -3.509      0.000      0.000
REMARK INTER + INTRA:          -5.435
REMARK INTER:                  -4.740
REMARK INTRA:                  -0.695
REMARK UNBOUND:                -0.695
REMARK SMILES CCCCCCC=CC(=O)[O-]
REMARK SMILES IDX 5 1 6 2 7 3 8 4 9 5 10 6 11 7 4 8 3 9 2 10 1 11
REMARK H PARENT
REMARK Flexibility Score: inf
ROOT
ATOM      1  C   UNL     1      41.970 186.454  33.808  1.00  0.00     0.004 C 
ENDROOT
BRANCH   1   2
ATOM      2  C   UNL     1      41.436 187.106  32.523  1.00  0.00     0.027 C 
BRANCH   2   3
ATOM      3  C   UNL     1      41.507 186.179  31.337  1.00  0.00    -0.025 C 
ATOM      4  C   UNL     1      40.476 185.815  30.555  1.00  0.00     0.020 C 
BRANCH   4   5
ATOM      5  C   UNL     1      39.080 186.285  30.663  1.00  0.00     0.064 C 
ATOM      6  O   UNL     1      38.684 187.201  29.895  1.00  0.00    -0.545 OA
ATOM      7  O   UNL     1      38.196 185.774  31.605  1.00  0.00    -0.545 OA
ENDBRANCH   4   5
ENDBRANCH   2   3
ENDBRANCH   1   2
BRANCH   1   8
ATOM      8  C   UNL     1      41.192 185.178  34.176  1.00  0.00     0.000 C 
BRANCH   8   9
ATOM      9  C   UNL     1      42.112 183.942  34.276  1.00  0.00    -0.000 C 
BRANCH   9  10
ATOM     10  C   UNL     1      43.593 184.254  34.005  1.00  0.00    -0.003 C 
ATOM     11  C   UNL     1      44.107 183.637  32.706  1.00  0.00     0.004 C 
ENDBRANCH   9  10
ENDBRANCH   8   9
ENDBRANCH   1   8
TORSDOF 6
ENDMDL
MODEL 2
REMARK VINA RESULT:    -3.398      1.200      1.635
REMARK INTER + INTRA:          -5.284
REMARK INTER:                  -4.715
REMARK INTRA:                  -0.569
REMARK UNBOUND:                -0.695
REMARK SMILES CCCCCCC=CC(=O)[O-]
REMARK SMILES IDX 5 1 6 2 7 3 8 4 9 5 10 6 11 7 4 8 3 9 2 10 1 11
REMARK H PARENT
REMARK Flexibility Score: inf
ROOT
ATOM      1  C   UNL     1      42.015 186.864  32.963  1.00  0.00     0.004 C 
ENDROOT
BRANCH   1   2
ATOM      2  C   UNL     1      40.648 187.565  33.001  1.00  0.00     0.027 C 
BRANCH   2   3
ATOM      3  C   UNL     1      39.503 186.587  33.038  1.00  0.00    -0.025 C 
ATOM      4  C   UNL     1      38.895 186.041  31.971  1.00  0.00     0.020 C 
BRANCH   4   5
ATOM      5  C   UNL     1      39.255 186.245  30.553  1.00  0.00     0.064 C 
ATOM      6  O   UNL     1      40.278 185.670  30.095  1.00  0.00    -0.545 OA
ATOM      7  O   UNL     1      38.523 187.075  29.713  1.00  0.00    -0.545 OA
ENDBRANCH   4   5
ENDBRANCH   2   3
ENDBRANCH   1   2
BRANCH   1   8
ATOM      8  C   UNL     1      42.324 186.124  34.277  1.00  0.00     0.000 C 
BRANCH   8   9
ATOM      9  C   UNL     1      42.630 184.629  34.047  1.00  0.00    -0.000 C 
BRANCH   9  10
ATOM     10  C   UNL     1      42.997 184.292  32.593  1.00  0.00    -0.003 C 
ATOM     11  C   UNL     1      44.389 183.679  32.453  1.00  0.00     0.004 C 
ENDBRANCH   9  10
ENDBRANCH   8   9
ENDBRANCH   1   8
TORSDOF 6
ENDMDL
MODEL 3
REMARK VINA RESULT:    -3.389      3.194      5.148
REMARK INTER + INTRA:          -5.272
REMARK INTER:                  -4.681
REMARK INTRA:                  -0.591
REMARK UNBOUND:                -0.695
REMARK SMILES CCCCCCC=CC(=O)[O-]
REMARK SMILES IDX 5 1 6 2 7 3 8 4 9 5 10 6 11 7 4 8 3 9 2 10 1 11
REMARK H PARENT
REMARK Flexibility Score: inf
ROOT
ATOM      1  C   UNL     1      41.520 186.818  32.715  1.00  0.00     0.004 C 
ENDROOT
BRANCH   1   2
ATOM      2  C   UNL     1      42.429 186.116  33.736  1.00  0.00     0.027 C 
BRANCH   2   3
ATOM      3  C   UNL     1      42.087 184.657  33.900  1.00  0.00    -0.025 C 
ATOM      4  C   UNL     1      42.893 183.620  33.618  1.00  0.00     0.020 C 
BRANCH   4   5
ATOM      5  C   UNL     1      44.289 183.695  33.140  1.00  0.00     0.064 C 
ATOM      6  O   UNL     1      44.504 183.793  31.903  1.00  0.00    -0.545 OA
ATOM      7  O   UNL     1      45.374 183.628  34.003  1.00  0.00    -0.545 OA
ENDBRANCH   4   5
ENDBRANCH   2   3
ENDBRANCH   1   2
BRANCH   1   8
ATOM      8  C   UNL     1      41.587 186.154  31.328  1.00  0.00     0.000 C 
BRANCH   8   9
ATOM      9  C   UNL     1      40.188 185.970  30.701  1.00  0.00    -0.000 C 
BRANCH   9  10
ATOM     10  C   UNL     1      39.083 185.692  31.733  1.00  0.00    -0.003 C 
ATOM     11  C   UNL     1      37.941 186.704  31.675  1.00  0.00     0.004 C 
ENDBRANCH   9  10
ENDBRANCH   8   9
ENDBRANCH   1   8
TORSDOF 6
ENDMDL
MODEL 4
REMARK VINA RESULT:    -3.276      2.648      4.242
REMARK INTER + INTRA:          -5.120
REMARK INTER:                  -4.233
REMARK INTRA:                  -0.888
REMARK UNBOUND:                -0.695
REMARK SMILES CCCCCCC=CC(=O)[O-]
REMARK SMILES IDX 5 1 6 2 7 3 8 4 9 5 10 6 11 7 4 8 3 9 2 10 1 11
REMARK H PARENT
REMARK Flexibility Score: inf
ROOT
ATOM      1  C   UNL     1      40.402 187.428  32.774  1.00  0.00     0.004 C 
ENDROOT
BRANCH   1   2
ATOM      2  C   UNL     1      41.885 187.037  32.678  1.00  0.00     0.027 C 
BRANCH   2   3
ATOM      3  C   UNL     1      42.332 186.196  33.846  1.00  0.00    -0.025 C 
ATOM      4  C   UNL     1      42.742 184.917  33.788  1.00  0.00     0.020 C 
BRANCH   4   5
ATOM      5  C   UNL     1      42.885 184.093  32.571  1.00  0.00     0.064 C 
ATOM      6  O   UNL     1      44.039 183.857  32.128  1.00  0.00    -0.545 OA
ATOM      7  O   UNL     1      41.789 183.594  31.879  1.00  0.00    -0.545 OA
ENDBRANCH   4   5
ENDBRANCH   2   3
ENDBRANCH   1   2
BRANCH   1   8
ATOM      8  C   UNL     1      39.570 186.830  31.625  1.00  0.00     0.000 C 
BRANCH   8   9
ATOM      9  C   UNL     1      38.800 185.565  32.060  1.00  0.00    -0.000 C 
BRANCH   9  10
ATOM     10  C   UNL     1      38.617 185.448  33.582  1.00  0.00    -0.003 C 
ATOM     11  C   UNL     1      39.075 184.101  34.139  1.00  0.00     0.004 C 
ENDBRANCH   9  10
ENDBRANCH   8   9
ENDBRANCH   1   8
TORSDOF 6
ENDMDL
MODEL 5
REMARK VINA RESULT:    -3.159      1.407      1.818
REMARK INTER + INTRA:          -4.961
REMARK INTER:                  -4.571
REMARK INTRA:                  -0.390
REMARK UNBOUND:                -0.695
REMARK SMILES CCCCCCC=CC(=O)[O-]
REMARK SMILES IDX 5 1 6 2 7 3 8 4 9 5 10 6 11 7 4 8 3 9 2 10 1 11
REMARK H PARENT
REMARK Flexibility Score: inf
ROOT
ATOM      1  C   UNL     1      41.464 185.848  32.815  1.00  0.00     0.004 C 
ENDROOT
BRANCH   1   2
ATOM      2  C   UNL     1      40.869 184.976  31.698  1.00  0.00     0.027 C 
BRANCH   2   3
ATOM      3  C   UNL     1      40.373 185.794  30.534  1.00  0.00    -0.025 C 
ATOM      4  C   UNL     1      39.132 186.289  30.387  1.00  0.00     0.020 C 
BRANCH   4   5
ATOM      5  C   UNL     1      38.020 186.176  31.352  1.00  0.00     0.064 C 
ATOM      6  O   UNL     1      37.111 185.331  31.138  1.00  0.00    -0.545 OA
ATOM      7  O   UNL     1      37.924 186.992  32.472  1.00  0.00    -0.545 OA
ENDBRANCH   4   5
ENDBRANCH   2   3
ENDBRANCH   1   2
BRANCH   1   8
ATOM      8  C   UNL     1      42.729 185.221  33.428  1.00  0.00     0.000 C 
BRANCH   8   9
ATOM      9  C   UNL     1      43.288 184.071  32.563  1.00  0.00    -0.000 C 
BRANCH   9  10
ATOM     10  C   UNL     1      44.551 183.419  33.148  1.00  0.00    -0.003 C 
ATOM     11  C   UNL     1      44.298 182.707  34.475  1.00  0.00     0.004 C 
ENDBRANCH   9  10
ENDBRANCH   8   9
ENDBRANCH   1   8
TORSDOF 6
ENDMDL
MODEL 6
REMARK VINA RESULT:    -3.147      3.226      4.952
REMARK INTER + INTRA:          -4.946
REMARK INTER:                  -4.328
REMARK INTRA:                  -0.618
REMARK UNBOUND:                -0.695
REMARK SMILES CCCCCCC=CC(=O)[O-]
REMARK SMILES IDX 5 1 6 2 7 3 8 4 9 5 10 6 11 7 4 8 3 9 2 10 1 11
REMARK H PARENT
REMARK Flexibility Score: inf
ROOT
ATOM      1  C   UNL     1      41.217 186.753  34.354  1.00  0.00     0.004 C 
ENDROOT
BRANCH   1   2
ATOM      2  C   UNL     1      42.431 185.825  34.190  1.00  0.00     0.027 C 
BRANCH   2   3
ATOM      3  C   UNL     1      42.029 184.393  33.945  1.00  0.00    -0.025 C 
ATOM      4  C   UNL     1      42.816 183.425  33.447  1.00  0.00     0.020 C 
BRANCH   4   5
ATOM      5  C   UNL     1      44.243 183.550  33.086  1.00  0.00     0.064 C 
ATOM      6  O   UNL     1      45.106 183.543  34.004  1.00  0.00    -0.545 OA
ATOM      7  O   UNL     1      44.666 183.706  31.773  1.00  0.00    -0.545 OA
ENDBRANCH   4   5
ENDBRANCH   2   3
ENDBRANCH   1   2
BRANCH   1   8
ATOM      8  C   UNL     1      40.684 187.252  32.999  1.00  0.00     0.000 C 
BRANCH   8   9
ATOM      9  C   UNL     1      39.247 186.761  32.721  1.00  0.00    -0.000 C 
BRANCH   9  10
ATOM     10  C   UNL     1      39.131 185.870  31.474  1.00  0.00    -0.003 C 
ATOM     11  C   UNL     1      40.424 185.802  30.664  1.00  0.00     0.004 C 
ENDBRANCH   9  10
ENDBRANCH   8   9
ENDBRANCH   1   8
TORSDOF 6
ENDMDL
MODEL 7
REMARK VINA RESULT:    -3.080      2.758      4.987
REMARK INTER + INTRA:          -4.856
REMARK INTER:                  -4.141
REMARK INTRA:                  -0.714
REMARK UNBOUND:                -0.695
REMARK SMILES CCCCCCC=CC(=O)[O-]
REMARK SMILES IDX 5 1 6 2 7 3 8 4 9 5 10 6 11 7 4 8 3 9 2 10 1 11
REMARK H PARENT
REMARK Flexibility Score: inf
ROOT
ATOM      1  C   UNL     1      40.165 185.587  31.352  1.00  0.00     0.004 C 
ENDROOT
BRANCH   1   2
ATOM      2  C   UNL     1      41.586 186.166  31.442  1.00  0.00     0.027 C 
BRANCH   2   3
ATOM      3  C   UNL     1      41.865 186.796  32.782  1.00  0.00    -0.025 C 
ATOM      4  C   UNL     1      42.297 186.156  33.882  1.00  0.00     0.020 C 
BRANCH   4   5
ATOM      5  C   UNL     1      42.634 184.722  33.991  1.00  0.00     0.064 C 
ATOM      6  O   UNL     1      43.829 184.363  33.823  1.00  0.00    -0.545 OA
ATOM      7  O   UNL     1      41.673 183.750  34.240  1.00  0.00    -0.545 OA
ENDBRANCH   4   5
ENDBRANCH   2   3
ENDBRANCH   1   2
BRANCH   1   8
ATOM      8  C   UNL     1      39.235 186.468  30.499  1.00  0.00     0.000 C 
BRANCH   8   9
ATOM      9  C   UNL     1      38.511 187.540  31.343  1.00  0.00    -0.000 C 
BRANCH   9  10
ATOM     10  C   UNL     1      38.103 187.050  32.741  1.00  0.00    -0.003 C 
ATOM     11  C   UNL     1      38.494 188.019  33.854  1.00  0.00     0.004 C 
ENDBRANCH   9  10
ENDBRANCH   8   9
ENDBRANCH   1   8
TORSDOF 6
ENDMDL
MODEL 8
REMARK VINA RESULT:    -3.056     21.383     22.746
REMARK INTER + INTRA:          -4.823
REMARK INTER:                  -4.216
REMARK INTRA:                  -0.607
REMARK UNBOUND:                -0.695
REMARK SMILES CCCCCCC=CC(=O)[O-]
REMARK SMILES IDX 5 1 6 2 7 3 8 4 9 5 10 6 11 7 4 8 3 9 2 10 1 11
REMARK H PARENT
REMARK Flexibility Score: inf
ROOT
ATOM      1  C   UNL     1      34.082 169.095  17.097  1.00  0.00     0.004 C 
ENDROOT
BRANCH   1   2
ATOM      2  C   UNL     1      33.475 169.176  18.506  1.00  0.00     0.027 C 
BRANCH   2   3
ATOM      3  C   UNL     1      32.690 170.445  18.721  1.00  0.00    -0.025 C 
ATOM      4  C   UNL     1      32.010 170.776  19.831  1.00  0.00     0.020 C 
BRANCH   4   5
ATOM      5  C   UNL     1      31.935 169.995  21.083  1.00  0.00     0.064 C 
ATOM      6  O   UNL     1      30.851 169.428  21.382  1.00  0.00    -0.545 OA
ATOM      7  O   UNL     1      33.007 169.889  21.958  1.00  0.00    -0.545 OA
ENDBRANCH   4   5
ENDBRANCH   2   3
ENDBRANCH   1   2
BRANCH   1   8
ATOM      8  C   UNL     1      35.197 170.135  16.887  1.00  0.00     0.000 C 
BRANCH   8   9
ATOM      9  C   UNL     1      34.871 171.116  15.740  1.00  0.00    -0.000 C 
BRANCH   9  10
ATOM     10  C   UNL     1      33.534 170.823  15.040  1.00  0.00    -0.003 C 
ATOM     11  C   UNL     1      32.493 171.919  15.255  1.00  0.00     0.004 C 
ENDBRANCH   9  10
ENDBRANCH   8   9
ENDBRANCH   1   8
TORSDOF 6
ENDMDL
MODEL 9
REMARK VINA RESULT:    -3.047     22.094     23.314
REMARK INTER + INTRA:          -4.811
REMARK INTER:                  -4.055
REMARK INTRA:                  -0.756
REMARK UNBOUND:                -0.695
REMARK SMILES CCCCCCC=CC(=O)[O-]
REMARK SMILES IDX 5 1 6 2 7 3 8 4 9 5 10 6 11 7 4 8 3 9 2 10 1 11
REMARK H PARENT
REMARK Flexibility Score: inf
ROOT
ATOM      1  C   UNL     1      32.065 169.758  15.227  1.00  0.00     0.004 C 
ENDROOT
BRANCH   1   2
ATOM      2  C   UNL     1      31.403 169.660  16.611  1.00  0.00     0.027 C 
BRANCH   2   3
ATOM      3  C   UNL     1      31.419 170.974  17.349  1.00  0.00    -0.025 C 
ATOM      4  C   UNL     1      31.694 171.144  18.653  1.00  0.00     0.020 C 
BRANCH   4   5
ATOM      5  C   UNL     1      32.085 170.094  19.615  1.00  0.00     0.064 C 
ATOM      6  O   UNL     1      31.183 169.464  20.229  1.00  0.00    -0.545 OA
ATOM      7  O   UNL     1      33.413 169.796  19.891  1.00  0.00    -0.545 OA
ENDBRANCH   4   5
ENDBRANCH   2   3
ENDBRANCH   1   2
BRANCH   1   8
ATOM      8  C   UNL     1      32.735 171.125  15.002  1.00  0.00     0.000 C 
BRANCH   8   9
ATOM      9  C   UNL     1      34.275 171.024  14.978  1.00  0.00    -0.000 C 
BRANCH   9  10
ATOM     10  C   UNL     1      34.914 171.030  16.376  1.00  0.00    -0.003 C 
ATOM     11  C   UNL     1      35.274 169.633  16.877  1.00  0.00     0.004 C 
ENDBRANCH   9  10
ENDBRANCH   8   9
ENDBRANCH   1   8
TORSDOF 6
ENDMDL
