MODEL 1
REMARK VINA RESULT:    -7.204      0.000      0.000
REMARK INTER + INTRA:          -7.855
REMARK INTER:                  -7.625
REMARK INTRA:                  -0.230
REMARK UNBOUND:                -0.230
REMARK SMILES O=c1cc(-c2ccccc2)oc2ccccc12
REMARK SMILES IDX 4 1 3 2 2 3 1 4 17 5 16 6 15 7 14 8 13 9 12 10 11 11 5 12
REMARK SMILES IDX 8 13 7 14 9 15 6 16 10 17
REMARK H PARENT
REMARK Flexibility Score: inf
ROOT
ATOM      1  C   UNL     1     -31.349 -12.889   3.023  1.00  0.00     0.138 A 
ATOM      2  C   UNL     1     -30.134 -13.143   2.353  1.00  0.00     0.100 A 
ATOM      3  C   UNL     1     -29.397 -12.076   1.836  1.00  0.00     0.193 A 
ATOM      4  O   UNL     1     -28.310 -12.303   1.239  1.00  0.00    -0.289 OA
ATOM      5  C   UNL     1     -29.875 -10.767   1.991  1.00  0.00     0.065 A 
ATOM      6  C   UNL     1     -29.182  -9.648   1.495  1.00  0.00     0.016 A 
ATOM      7  C   UNL     1     -29.706  -8.364   1.676  1.00  0.00     0.001 A 
ATOM      8  C   UNL     1     -30.916  -8.187   2.350  1.00  0.00     0.004 A 
ATOM      9  C   UNL     1     -31.613  -9.293   2.846  1.00  0.00     0.048 A 
ATOM     10  C   UNL     1     -31.098 -10.583   2.670  1.00  0.00     0.138 A 
ATOM     11  O   UNL     1     -31.767 -11.628   3.146  1.00  0.00    -0.456 OA
ENDROOT
BRANCH   1  12
ATOM     12  C   UNL     1     -32.200 -13.973   3.606  1.00  0.00     0.017 A 
ATOM     13  C   UNL     1     -33.734 -16.038   4.767  1.00  0.00     0.000 A 
ATOM     14  C   UNL     1     -32.448 -15.776   5.236  1.00  0.00     0.001 A 
ATOM     15  C   UNL     1     -34.262 -15.279   3.723  1.00  0.00     0.001 A 
ATOM     16  C   UNL     1     -31.687 -14.753   4.663  1.00  0.00     0.012 A 
ATOM     17  C   UNL     1     -33.507 -14.254   3.143  1.00  0.00     0.012 A 
ENDBRANCH   1  12
TORSDOF 1
ENDMDL
MODEL 2
REMARK VINA RESULT:    -7.040      1.902      6.524
REMARK INTER + INTRA:          -7.682
REMARK INTER:                  -7.450
REMARK INTRA:                  -0.232
REMARK UNBOUND:                -0.230
REMARK SMILES O=c1cc(-c2ccccc2)oc2ccccc12
REMARK SMILES IDX 4 1 3 2 2 3 1 4 17 5 16 6 15 7 14 8 13 9 12 10 11 11 5 12
REMARK SMILES IDX 8 13 7 14 9 15 6 16 10 17
REMARK H PARENT
REMARK Flexibility Score: inf
ROOT
ATOM      1  C   UNL     1     -29.557  -9.930   1.258  1.00  0.00     0.138 A 
ATOM      2  C   UNL     1     -28.650 -10.791   1.911  1.00  0.00     0.100 A 
ATOM      3  C   UNL     1     -29.118 -11.967   2.498  1.00  0.00     0.193 A 
ATOM      4  O   UNL     1     -28.307 -12.737   3.081  1.00  0.00    -0.289 OA
ATOM      5  C   UNL     1     -30.484 -12.277   2.430  1.00  0.00     0.065 A 
ATOM      6  C   UNL     1     -31.021 -13.446   3.000  1.00  0.00     0.016 A 
ATOM      7  C   UNL     1     -32.392 -13.705   2.904  1.00  0.00     0.001 A 
ATOM      8  C   UNL     1     -33.232 -12.807   2.242  1.00  0.00     0.004 A 
ATOM      9  C   UNL     1     -32.708 -11.643   1.672  1.00  0.00     0.048 A 
ATOM     10  C   UNL     1     -31.337 -11.373   1.763  1.00  0.00     0.138 A 
ATOM     11  O   UNL     1     -30.848 -10.264   1.218  1.00  0.00    -0.456 OA
ENDROOT
BRANCH   1  12
ATOM     12  C   UNL     1     -29.140  -8.651   0.603  1.00  0.00     0.017 A 
ATOM     13  C   UNL     1     -28.409  -6.190  -0.569  1.00  0.00     0.000 A 
ATOM     14  C   UNL     1     -29.295  -6.215   0.506  1.00  0.00     0.001 A 
ATOM     15  C   UNL     1     -27.884  -7.383  -1.066  1.00  0.00     0.001 A 
ATOM     16  C   UNL     1     -29.658  -7.432   1.088  1.00  0.00     0.012 A 
ATOM     17  C   UNL     1     -28.242  -8.606  -0.489  1.00  0.00     0.012 A 
ENDBRANCH   1  12
TORSDOF 1
ENDMDL
MODEL 3
REMARK VINA RESULT:    -7.018      4.345      7.824
REMARK INTER + INTRA:          -7.658
REMARK INTER:                  -7.394
REMARK INTRA:                  -0.264
REMARK UNBOUND:                -0.230
REMARK SMILES O=c1cc(-c2ccccc2)oc2ccccc12
REMARK SMILES IDX 4 1 3 2 2 3 1 4 17 5 16 6 15 7 14 8 13 9 12 10 11 11 5 12
REMARK SMILES IDX 8 13 7 14 9 15 6 16 10 17
REMARK H PARENT
REMARK Flexibility Score: inf
ROOT
ATOM      1  C   UNL     1     -27.724  -8.772  -0.586  1.00  0.00     0.138 A 
ATOM      2  C   UNL     1     -26.756  -9.387  -1.407  1.00  0.00     0.100 A 
ATOM      3  C   UNL     1     -26.308 -10.672  -1.098  1.00  0.00     0.193 A 
ATOM      4  O   UNL     1     -25.443 -11.222  -1.833  1.00  0.00    -0.289 OA
ATOM      5  C   UNL     1     -26.827 -11.334   0.023  1.00  0.00     0.065 A 
ATOM      6  C   UNL     1     -26.419 -12.630   0.390  1.00  0.00     0.016 A 
ATOM      7  C   UNL     1     -26.969 -13.243   1.520  1.00  0.00     0.001 A 
ATOM      8  C   UNL     1     -27.925 -12.573   2.288  1.00  0.00     0.004 A 
ATOM      9  C   UNL     1     -28.337 -11.286   1.932  1.00  0.00     0.048 A 
ATOM     10  C   UNL     1     -27.792 -10.662   0.803  1.00  0.00     0.138 A 
ATOM     11  O   UNL     1     -28.190  -9.438   0.472  1.00  0.00    -0.456 OA
ENDROOT
BRANCH   1  12
ATOM     12  C   UNL     1     -28.258  -7.399  -0.844  1.00  0.00     0.017 A 
ATOM     13  C   UNL     1     -29.306  -4.808  -1.243  1.00  0.00     0.000 A 
ATOM     14  C   UNL     1     -29.550  -5.483  -0.048  1.00  0.00     0.001 A 
ATOM     15  C   UNL     1     -28.544  -5.415  -2.241  1.00  0.00     0.001 A 
ATOM     16  C   UNL     1     -29.032  -6.766   0.151  1.00  0.00     0.012 A 
ATOM     17  C   UNL     1     -28.022  -6.698  -2.050  1.00  0.00     0.012 A 
ENDBRANCH   1  12
TORSDOF 1
ENDMDL
MODEL 4
REMARK VINA RESULT:    -6.964      4.619      7.558
REMARK INTER + INTRA:          -7.601
REMARK INTER:                  -7.373
REMARK INTRA:                  -0.228
REMARK UNBOUND:                -0.230
REMARK SMILES O=c1cc(-c2ccccc2)oc2ccccc12
REMARK SMILES IDX 4 1 3 2 2 3 1 4 17 5 16 6 15 7 14 8 13 9 12 10 11 11 5 12
REMARK SMILES IDX 8 13 7 14 9 15 6 16 10 17
REMARK H PARENT
REMARK Flexibility Score: inf
ROOT
ATOM      1  C   UNL     1     -26.740 -11.782   0.652  1.00  0.00     0.138 A 
ATOM      2  C   UNL     1     -25.589 -11.963   1.448  1.00  0.00     0.100 A 
ATOM      3  C   UNL     1     -25.261 -13.241   1.902  1.00  0.00     0.193 A 
ATOM      4  O   UNL     1     -24.232 -13.403   2.612  1.00  0.00    -0.289 OA
ATOM      5  C   UNL     1     -26.079 -14.328   1.560  1.00  0.00     0.065 A 
ATOM      6  C   UNL     1     -25.805 -15.640   1.984  1.00  0.00     0.016 A 
ATOM      7  C   UNL     1     -26.656 -16.687   1.615  1.00  0.00     0.001 A 
ATOM      8  C   UNL     1     -27.779 -16.434   0.824  1.00  0.00     0.004 A 
ATOM      9  C   UNL     1     -28.060 -15.132   0.398  1.00  0.00     0.048 A 
ATOM     10  C   UNL     1     -27.215 -14.077   0.762  1.00  0.00     0.138 A 
ATOM     11  O   UNL     1     -27.490 -12.844   0.352  1.00  0.00    -0.456 OA
ENDROOT
BRANCH   1  12
ATOM     12  C   UNL     1     -27.165 -10.448   0.125  1.00  0.00     0.017 A 
ATOM     13  C   UNL     1     -27.888  -7.931  -0.929  1.00  0.00     0.000 A 
ATOM     14  C   UNL     1     -26.744  -8.579  -1.392  1.00  0.00     0.001 A 
ATOM     15  C   UNL     1     -28.675  -8.529   0.055  1.00  0.00     0.001 A 
ATOM     16  C   UNL     1     -26.384  -9.825  -0.871  1.00  0.00     0.012 A 
ATOM     17  C   UNL     1     -28.322  -9.775   0.582  1.00  0.00     0.012 A 
ENDBRANCH   1  12
TORSDOF 1
ENDMDL
MODEL 5
REMARK VINA RESULT:    -6.911      2.681      5.393
REMARK INTER + INTRA:          -7.545
REMARK INTER:                  -7.310
REMARK INTRA:                  -0.234
REMARK UNBOUND:                -0.230
REMARK SMILES O=c1cc(-c2ccccc2)oc2ccccc12
REMARK SMILES IDX 4 1 3 2 2 3 1 4 17 5 16 6 15 7 14 8 13 9 12 10 11 11 5 12
REMARK SMILES IDX 8 13 7 14 9 15 6 16 10 17
REMARK H PARENT
REMARK Flexibility Score: inf
ROOT
ATOM      1  C   UNL     1     -31.323 -13.404   3.288  1.00  0.00     0.138 A 
ATOM      2  C   UNL     1     -31.756 -14.273   4.312  1.00  0.00     0.100 A 
ATOM      3  C   UNL     1     -30.889 -15.255   4.794  1.00  0.00     0.193 A 
ATOM      4  O   UNL     1     -31.276 -16.031   5.709  1.00  0.00    -0.289 OA
ATOM      5  C   UNL     1     -29.599 -15.363   4.254  1.00  0.00     0.065 A 
ATOM      6  C   UNL     1     -28.677 -16.329   4.695  1.00  0.00     0.016 A 
ATOM      7  C   UNL     1     -27.403 -16.393   4.121  1.00  0.00     0.001 A 
ATOM      8  C   UNL     1     -27.042 -15.499   3.110  1.00  0.00     0.004 A 
ATOM      9  C   UNL     1     -27.952 -14.536   2.665  1.00  0.00     0.048 A 
ATOM     10  C   UNL     1     -29.229 -14.463   3.233  1.00  0.00     0.138 A 
ATOM     11  O   UNL     1     -30.088 -13.544   2.804  1.00  0.00    -0.456 OA
ENDROOT
BRANCH   1  12
ATOM     12  C   UNL     1     -32.187 -12.326   2.714  1.00  0.00     0.017 A 
ATOM     13  C   UNL     1     -33.752 -10.227   1.659  1.00  0.00     0.000 A 
ATOM     14  C   UNL     1     -32.531  -9.948   2.271  1.00  0.00     0.001 A 
ATOM     15  C   UNL     1     -34.199 -11.545   1.568  1.00  0.00     0.001 A 
ATOM     16  C   UNL     1     -31.755 -10.986   2.795  1.00  0.00     0.012 A 
ATOM     17  C   UNL     1     -33.428 -12.590   2.089  1.00  0.00     0.012 A 
ENDBRANCH   1  12
TORSDOF 1
ENDMDL
MODEL 6
REMARK VINA RESULT:    -6.893      1.848      6.378
REMARK INTER + INTRA:          -7.526
REMARK INTER:                  -7.274
REMARK INTRA:                  -0.252
REMARK UNBOUND:                -0.230
REMARK SMILES O=c1cc(-c2ccccc2)oc2ccccc12
REMARK SMILES IDX 4 1 3 2 2 3 1 4 17 5 16 6 15 7 14 8 13 9 12 10 11 11 5 12
REMARK SMILES IDX 8 13 7 14 9 15 6 16 10 17
REMARK H PARENT
REMARK Flexibility Score: inf
ROOT
ATOM      1  C   UNL     1     -32.055 -13.628   3.495  1.00  0.00     0.138 A 
ATOM      2  C   UNL     1     -31.394 -14.386   4.485  1.00  0.00     0.100 A 
ATOM      3  C   UNL     1     -32.077 -15.416   5.134  1.00  0.00     0.193 A 
ATOM      4  O   UNL     1     -31.486 -16.094   6.017  1.00  0.00    -0.289 OA
ATOM      5  C   UNL     1     -33.411 -15.683   4.792  1.00  0.00     0.065 A 
ATOM      6  C   UNL     1     -34.156 -16.705   5.407  1.00  0.00     0.016 A 
ATOM      7  C   UNL     1     -35.484 -16.927   5.029  1.00  0.00     0.001 A 
ATOM      8  C   UNL     1     -36.075 -16.137   4.040  1.00  0.00     0.004 A 
ATOM      9  C   UNL     1     -35.342 -15.118   3.423  1.00  0.00     0.048 A 
ATOM     10  C   UNL     1     -34.012 -14.887   3.795  1.00  0.00     0.138 A 
ATOM     11  O   UNL     1     -33.324 -13.916   3.203  1.00  0.00    -0.456 OA
ENDROOT
BRANCH   1  12
ATOM     12  C   UNL     1     -31.397 -12.509   2.753  1.00  0.00     0.017 A 
ATOM     13  C   UNL     1     -30.241 -10.348   1.351  1.00  0.00     0.000 A 
ATOM     14  C   UNL     1     -31.586 -10.304   1.715  1.00  0.00     0.001 A 
ATOM     15  C   UNL     1     -29.468 -11.460   1.680  1.00  0.00     0.001 A 
ATOM     16  C   UNL     1     -32.160 -11.373   2.409  1.00  0.00     0.012 A 
ATOM     17  C   UNL     1     -30.034 -12.534   2.375  1.00  0.00     0.012 A 
ENDBRANCH   1  12
TORSDOF 1
ENDMDL
MODEL 7
REMARK VINA RESULT:    -6.884      4.786      8.157
REMARK INTER + INTRA:          -7.517
REMARK INTER:                  -7.255
REMARK INTRA:                  -0.262
REMARK UNBOUND:                -0.230
REMARK SMILES O=c1cc(-c2ccccc2)oc2ccccc12
REMARK SMILES IDX 4 1 3 2 2 3 1 4 17 5 16 6 15 7 14 8 13 9 12 10 11 11 5 12
REMARK SMILES IDX 8 13 7 14 9 15 6 16 10 17
REMARK H PARENT
REMARK Flexibility Score: inf
ROOT
ATOM      1  C   UNL     1     -28.624  -7.809  -0.021  1.00  0.00     0.138 A 
ATOM      2  C   UNL     1     -29.308  -8.519   0.988  1.00  0.00     0.100 A 
ATOM      3  C   UNL     1     -28.930  -9.830   1.284  1.00  0.00     0.193 A 
ATOM      4  O   UNL     1     -29.542 -10.463   2.187  1.00  0.00    -0.289 OA
ATOM      5  C   UNL     1     -27.875 -10.422   0.576  1.00  0.00     0.065 A 
ATOM      6  C   UNL     1     -27.444 -11.737   0.826  1.00  0.00     0.016 A 
ATOM      7  C   UNL     1     -26.387 -12.279   0.088  1.00  0.00     0.001 A 
ATOM      8  C   UNL     1     -25.754 -11.517  -0.897  1.00  0.00     0.004 A 
ATOM      9  C   UNL     1     -26.175 -10.209  -1.153  1.00  0.00     0.048 A 
ATOM     10  C   UNL     1     -27.233  -9.657  -0.420  1.00  0.00     0.138 A 
ATOM     11  O   UNL     1     -27.626  -8.412  -0.670  1.00  0.00    -0.456 OA
ENDROOT
BRANCH   1  12
ATOM     12  C   UNL     1     -28.964  -6.403  -0.403  1.00  0.00     0.017 A 
ATOM     13  C   UNL     1     -29.653  -3.741  -1.038  1.00  0.00     0.000 A 
ATOM     14  C   UNL     1     -30.058  -4.296   0.174  1.00  0.00     0.001 A 
ATOM     15  C   UNL     1     -28.906  -4.502  -1.936  1.00  0.00     0.001 A 
ATOM     16  C   UNL     1     -29.718  -5.615   0.491  1.00  0.00     0.012 A 
ATOM     17  C   UNL     1     -28.562  -5.822  -1.628  1.00  0.00     0.012 A 
ENDBRANCH   1  12
TORSDOF 1
ENDMDL
MODEL 8
REMARK VINA RESULT:    -6.828      3.348      5.040
REMARK INTER + INTRA:          -7.457
REMARK INTER:                  -7.231
REMARK INTRA:                  -0.227
REMARK UNBOUND:                -0.230
REMARK SMILES O=c1cc(-c2ccccc2)oc2ccccc12
REMARK SMILES IDX 4 1 3 2 2 3 1 4 17 5 16 6 15 7 14 8 13 9 12 10 11 11 5 12
REMARK SMILES IDX 8 13 7 14 9 15 6 16 10 17
REMARK H PARENT
REMARK Flexibility Score: inf
ROOT
ATOM      1  C   UNL     1     -29.194 -10.398   2.153  1.00  0.00     0.138 A 
ATOM      2  C   UNL     1     -28.441 -10.696   3.309  1.00  0.00     0.100 A 
ATOM      3  C   UNL     1     -27.069 -10.928   3.195  1.00  0.00     0.193 A 
ATOM      4  O   UNL     1     -26.397 -11.194   4.228  1.00  0.00    -0.289 OA
ATOM      5  C   UNL     1     -26.459 -10.861   1.934  1.00  0.00     0.065 A 
ATOM      6  C   UNL     1     -25.082 -11.084   1.751  1.00  0.00     0.016 A 
ATOM      7  C   UNL     1     -24.525 -11.005   0.470  1.00  0.00     0.001 A 
ATOM      8  C   UNL     1     -25.333 -10.704  -0.630  1.00  0.00     0.004 A 
ATOM      9  C   UNL     1     -26.702 -10.481  -0.457  1.00  0.00     0.048 A 
ATOM     10  C   UNL     1     -27.269 -10.558   0.820  1.00  0.00     0.138 A 
ATOM     11  O   UNL     1     -28.572 -10.345   0.974  1.00  0.00    -0.456 OA
ENDROOT
BRANCH   1  12
ATOM     12  C   UNL     1     -30.666 -10.136   2.185  1.00  0.00     0.017 A 
ATOM     13  C   UNL     1     -33.459  -9.727   2.201  1.00  0.00     0.000 A 
ATOM     14  C   UNL     1     -32.926 -10.883   1.632  1.00  0.00     0.001 A 
ATOM     15  C   UNL     1     -32.611  -8.774   2.762  1.00  0.00     0.001 A 
ATOM     16  C   UNL     1     -31.543 -11.087   1.623  1.00  0.00     0.012 A 
ATOM     17  C   UNL     1     -31.226  -8.970   2.758  1.00  0.00     0.012 A 
ENDBRANCH   1  12
TORSDOF 1
ENDMDL
MODEL 9
REMARK VINA RESULT:    -6.818      2.949      3.966
REMARK INTER + INTRA:          -7.446
REMARK INTER:                  -7.182
REMARK INTRA:                  -0.265
REMARK UNBOUND:                -0.230
REMARK SMILES O=c1cc(-c2ccccc2)oc2ccccc12
REMARK SMILES IDX 4 1 3 2 2 3 1 4 17 5 16 6 15 7 14 8 13 9 12 10 11 11 5 12
REMARK SMILES IDX 8 13 7 14 9 15 6 16 10 17
REMARK H PARENT
REMARK Flexibility Score: inf
ROOT
ATOM      1  C   UNL     1     -31.126 -15.022   4.611  1.00  0.00     0.138 A 
ATOM      2  C   UNL     1     -30.256 -15.409   5.652  1.00  0.00     0.100 A 
ATOM      3  C   UNL     1     -28.906 -15.060   5.586  1.00  0.00     0.193 A 
ATOM      4  O   UNL     1     -28.129 -15.405   6.517  1.00  0.00    -0.289 OA
ATOM      5  C   UNL     1     -28.434 -14.328   4.487  1.00  0.00     0.065 A 
ATOM      6  C   UNL     1     -27.087 -13.944   4.359  1.00  0.00     0.016 A 
ATOM      7  C   UNL     1     -26.670 -13.216   3.241  1.00  0.00     0.001 A 
ATOM      8  C   UNL     1     -27.588 -12.866   2.247  1.00  0.00     0.004 A 
ATOM      9  C   UNL     1     -28.929 -13.244   2.365  1.00  0.00     0.048 A 
ATOM     10  C   UNL     1     -29.357 -13.973   3.480  1.00  0.00     0.138 A 
ATOM     11  O   UNL     1     -30.633 -14.328   3.583  1.00  0.00    -0.456 OA
ENDROOT
BRANCH   1  12
ATOM     12  C   UNL     1     -32.584 -15.355   4.602  1.00  0.00     0.017 A 
ATOM     13  C   UNL     1     -35.322 -16.041   4.661  1.00  0.00     0.000 A 
ATOM     14  C   UNL     1     -34.446 -16.582   5.601  1.00  0.00     0.001 A 
ATOM     15  C   UNL     1     -34.843 -15.160   3.691  1.00  0.00     0.001 A 
ATOM     16  C   UNL     1     -33.090 -16.244   5.573  1.00  0.00     0.012 A 
ATOM     17  C   UNL     1     -33.488 -14.816   3.656  1.00  0.00     0.012 A 
ENDBRANCH   1  12
TORSDOF 1
ENDMDL
