MODEL 1
REMARK VINA RESULT:    -2.136      0.000      0.000
REMARK INTER + INTRA:          -2.136
REMARK INTER:                  -2.136
REMARK INTRA:                   0.000
REMARK UNBOUND:                 0.000
REMARK SMILES CC(=O)[O-]
REMARK SMILES IDX 1 1 2 2 3 3 4 4
REMARK H PARENT
REMARK Flexibility Score: inf
ROOT
ATOM      1  C   UNL     1      79.579  12.455   8.050  1.00  0.00     0.063 C 
ATOM      2  C   UNL     1      79.126  12.142   9.435  1.00  0.00     0.038 C 
ATOM      3  O   UNL     1      79.394  11.024   9.949  1.00  0.00    -0.550 OA
ATOM      4  O   UNL     1      78.453  13.100  10.181  1.00  0.00    -0.550 OA
ENDROOT
TORSDOF 0
ENDMDL
MODEL 2
REMARK VINA RESULT:    -2.037     11.085     11.156
REMARK INTER + INTRA:          -2.037
REMARK INTER:                  -2.037
REMARK INTRA:                   0.000
REMARK UNBOUND:                 0.000
REMARK SMILES CC(=O)[O-]
REMARK SMILES IDX 1 1 2 2 3 3 4 4
REMARK H PARENT
REMARK Flexibility Score: inf
ROOT
ATOM      1  C   UNL     1      75.340  11.872  19.858  1.00  0.00     0.063 C 
ATOM      2  C   UNL     1      76.756  11.572  20.216  1.00  0.00     0.038 C 
ATOM      3  O   UNL     1      77.107  10.389  20.465  1.00  0.00    -0.550 OA
ATOM      4  O   UNL     1      77.703  12.587  20.224  1.00  0.00    -0.550 OA
ENDROOT
TORSDOF 0
ENDMDL
MODEL 3
REMARK VINA RESULT:    -2.023     10.231     10.671
REMARK INTER + INTRA:          -2.023
REMARK INTER:                  -2.023
REMARK INTRA:                   0.000
REMARK UNBOUND:                 0.000
REMARK SMILES CC(=O)[O-]
REMARK SMILES IDX 1 1 2 2 3 3 4 4
REMARK H PARENT
REMARK Flexibility Score: inf
ROOT
ATOM      1  C   UNL     1      74.868  11.988  19.604  1.00  0.00     0.063 C 
ATOM      2  C   UNL     1      74.448  13.115  18.722  1.00  0.00     0.038 C 
ATOM      3  O   UNL     1      73.230  13.280  18.447  1.00  0.00    -0.550 OA
ATOM      4  O   UNL     1      75.391  14.014  18.244  1.00  0.00    -0.550 OA
ENDROOT
TORSDOF 0
ENDMDL
MODEL 4
REMARK VINA RESULT:    -2.009     10.299     10.872
REMARK INTER + INTRA:          -2.009
REMARK INTER:                  -2.009
REMARK INTRA:                   0.000
REMARK UNBOUND:                 0.000
REMARK SMILES CC(=O)[O-]
REMARK SMILES IDX 1 1 2 2 3 3 4 4
REMARK H PARENT
REMARK Flexibility Score: inf
ROOT
ATOM      1  C   UNL     1      76.395  11.666  20.435  1.00  0.00     0.063 C 
ATOM      2  C   UNL     1      75.344  11.851  19.394  1.00  0.00     0.038 C 
ATOM      3  O   UNL     1      74.136  11.962  19.729  1.00  0.00    -0.550 OA
ATOM      4  O   UNL     1      75.700  11.955  18.056  1.00  0.00    -0.550 OA
ENDROOT
TORSDOF 0
ENDMDL
MODEL 5
REMARK VINA RESULT:    -2.007     11.052     11.168
REMARK INTER + INTRA:          -2.007
REMARK INTER:                  -2.007
REMARK INTRA:                   0.000
REMARK UNBOUND:                 0.000
REMARK SMILES CC(=O)[O-]
REMARK SMILES IDX 1 1 2 2 3 3 4 4
REMARK H PARENT
REMARK Flexibility Score: inf
ROOT
ATOM      1  C   UNL     1      77.800  12.558  19.968  1.00  0.00     0.063 C 
ATOM      2  C   UNL     1      76.788  11.504  20.263  1.00  0.00     0.038 C 
ATOM      3  O   UNL     1      77.155  10.318  20.473  1.00  0.00    -0.550 OA
ATOM      4  O   UNL     1      75.444  11.836  20.360  1.00  0.00    -0.550 OA
ENDROOT
TORSDOF 0
ENDMDL
MODEL 6
REMARK VINA RESULT:    -1.990      8.287      8.819
REMARK INTER + INTRA:          -1.990
REMARK INTER:                  -1.990
REMARK INTRA:                   0.000
REMARK UNBOUND:                 0.000
REMARK SMILES CC(=O)[O-]
REMARK SMILES IDX 1 1 2 2 3 3 4 4
REMARK H PARENT
REMARK Flexibility Score: inf
ROOT
ATOM      1  C   UNL     1      76.518  18.122  14.925  1.00  0.00     0.063 C 
ATOM      2  C   UNL     1      75.396  17.290  15.445  1.00  0.00     0.038 C 
ATOM      3  O   UNL     1      75.041  16.252  14.827  1.00  0.00    -0.550 OA
ATOM      4  O   UNL     1      74.773  17.628  16.639  1.00  0.00    -0.550 OA
ENDROOT
TORSDOF 0
ENDMDL
MODEL 7
REMARK VINA RESULT:    -1.980     10.057     10.581
REMARK INTER + INTRA:          -1.980
REMARK INTER:                  -1.980
REMARK INTRA:                   0.000
REMARK UNBOUND:                 0.000
REMARK SMILES CC(=O)[O-]
REMARK SMILES IDX 1 1 2 2 3 3 4 4
REMARK H PARENT
REMARK Flexibility Score: inf
ROOT
ATOM      1  C   UNL     1      73.704  13.135  18.599  1.00  0.00     0.063 C 
ATOM      2  C   UNL     1      74.885  12.298  18.955  1.00  0.00     0.038 C 
ATOM      3  O   UNL     1      75.065  11.937  20.148  1.00  0.00    -0.550 OA
ATOM      4  O   UNL     1      75.760  11.870  17.966  1.00  0.00    -0.550 OA
ENDROOT
TORSDOF 0
ENDMDL
MODEL 8
REMARK VINA RESULT:    -1.960      1.344      1.789
REMARK INTER + INTRA:          -1.960
REMARK INTER:                  -1.960
REMARK INTRA:                   0.000
REMARK UNBOUND:                 0.000
REMARK SMILES CC(=O)[O-]
REMARK SMILES IDX 1 1 2 2 3 3 4 4
REMARK H PARENT
REMARK Flexibility Score: inf
ROOT
ATOM      1  C   UNL     1      78.450  13.119  10.681  1.00  0.00     0.063 C 
ATOM      2  C   UNL     1      78.952  12.158   9.657  1.00  0.00     0.038 C 
ATOM      3  O   UNL     1      79.378  11.026  10.009  1.00  0.00    -0.550 OA
ATOM      4  O   UNL     1      78.902  12.487   8.309  1.00  0.00    -0.550 OA
ENDROOT
TORSDOF 0
ENDMDL
MODEL 9
REMARK VINA RESULT:    -1.914      7.580      8.168
REMARK INTER + INTRA:          -1.914
REMARK INTER:                  -1.914
REMARK INTRA:                   0.000
REMARK UNBOUND:                 0.000
REMARK SMILES CC(=O)[O-]
REMARK SMILES IDX 1 1 2 2 3 3 4 4
REMARK H PARENT
REMARK Flexibility Score: inf
ROOT
ATOM      1  C   UNL     1      74.747  16.778  15.162  1.00  0.00     0.063 C 
ATOM      2  C   UNL     1      75.137  15.397  15.565  1.00  0.00     0.038 C 
ATOM      3  O   UNL     1      75.582  14.591  14.707  1.00  0.00    -0.550 OA
ATOM      4  O   UNL     1      75.061  15.013  16.897  1.00  0.00    -0.550 OA
ENDROOT
TORSDOF 0
ENDMDL
