MODEL 1
REMARK VINA RESULT:    -3.627      0.000      0.000
REMARK INTER + INTRA:          -5.351
REMARK INTER:                  -4.899
REMARK INTRA:                  -0.451
REMARK UNBOUND:                -0.451
REMARK SMILES CCCCCCCC(=O)[O-]
REMARK SMILES IDX 5 1 6 2 7 3 8 4 9 5 10 6 4 7 3 8 2 9 1 10
REMARK H PARENT
REMARK Flexibility Score: inf
ROOT
ATOM      1  C   UNL     1       9.338 -26.564 -27.882  1.00  0.00     0.000 C 
ENDROOT
BRANCH   1   2
ATOM      2  C   UNL     1       8.233 -27.594 -28.145  1.00  0.00     0.006 C 
BRANCH   2   3
ATOM      3  C   UNL     1       8.573 -28.468 -29.356  1.00  0.00     0.053 C 
BRANCH   3   4
ATOM      4  C   UNL     1       8.876 -29.868 -28.923  1.00  0.00     0.041 C 
ATOM      5  O   UNL     1       9.794 -30.090 -28.090  1.00  0.00    -0.550 OA
ATOM      6  O   UNL     1       8.110 -30.925 -29.401  1.00  0.00    -0.550 OA
ENDBRANCH   3   4
ENDBRANCH   2   3
ENDBRANCH   1   2
BRANCH   1   7
ATOM      7  C   UNL     1      10.207 -26.358 -29.127  1.00  0.00     0.000 C 
BRANCH   7   8
ATOM      8  C   UNL     1       9.856 -25.043 -29.833  1.00  0.00    -0.000 C 
BRANCH   8   9
ATOM      9  C   UNL     1      10.007 -25.176 -31.352  1.00  0.00    -0.003 C 
ATOM     10  C   UNL     1      10.882 -26.372 -31.717  1.00  0.00     0.004 C 
ENDBRANCH   8   9
ENDBRANCH   7   8
ENDBRANCH   1   7
TORSDOF 6
ENDMDL
MODEL 2
REMARK VINA RESULT:    -3.626      3.321      4.798
REMARK INTER + INTRA:          -5.349
REMARK INTER:                  -4.950
REMARK INTRA:                  -0.399
REMARK UNBOUND:                -0.451
REMARK SMILES CCCCCCCC(=O)[O-]
REMARK SMILES IDX 5 1 6 2 7 3 8 4 9 5 10 6 4 7 3 8 2 9 1 10
REMARK H PARENT
REMARK Flexibility Score: inf
ROOT
ATOM      1  C   UNL     1       9.623 -26.016 -29.505  1.00  0.00     0.000 C 
ENDROOT
BRANCH   1   2
ATOM      2  C   UNL     1      10.918 -26.590 -30.091  1.00  0.00     0.006 C 
BRANCH   2   3
ATOM      3  C   UNL     1      10.909 -26.516 -31.621  1.00  0.00     0.053 C 
BRANCH   3   4
ATOM      4  C   UNL     1      10.828 -25.093 -32.077  1.00  0.00     0.041 C 
ATOM      5  O   UNL     1      11.749 -24.282 -31.792  1.00  0.00    -0.550 OA
ATOM      6  O   UNL     1       9.759 -24.673 -32.860  1.00  0.00    -0.550 OA
ENDBRANCH   3   4
ENDBRANCH   2   3
ENDBRANCH   1   2
BRANCH   1   7
ATOM      7  C   UNL     1       9.381 -26.542 -28.086  1.00  0.00     0.000 C 
BRANCH   7   8
ATOM      8  C   UNL     1       8.252 -27.578 -28.067  1.00  0.00    -0.000 C 
BRANCH   8   9
ATOM      9  C   UNL     1       8.780 -28.976 -28.408  1.00  0.00    -0.003 C 
ATOM     10  C   UNL     1       8.216 -29.470 -29.737  1.00  0.00     0.004 C 
ENDBRANCH   8   9
ENDBRANCH   7   8
ENDBRANCH   1   7
TORSDOF 6
ENDMDL
MODEL 3
REMARK VINA RESULT:    -3.608      1.247      1.864
REMARK INTER + INTRA:          -5.325
REMARK INTER:                  -4.880
REMARK INTRA:                  -0.445
REMARK UNBOUND:                -0.451
REMARK SMILES CCCCCCCC(=O)[O-]
REMARK SMILES IDX 5 1 6 2 7 3 8 4 9 5 10 6 4 7 3 8 2 9 1 10
REMARK H PARENT
REMARK Flexibility Score: inf
ROOT
ATOM      1  C   UNL     1      11.047 -27.529 -29.535  1.00  0.00     0.000 C 
ENDROOT
BRANCH   1   2
ATOM      2  C   UNL     1       9.964 -28.228 -28.706  1.00  0.00     0.006 C 
BRANCH   2   3
ATOM      3  C   UNL     1       8.651 -28.329 -29.489  1.00  0.00     0.053 C 
BRANCH   3   4
ATOM      4  C   UNL     1       8.223 -29.758 -29.612  1.00  0.00     0.041 C 
ATOM      5  O   UNL     1       8.829 -30.659 -28.974  1.00  0.00    -0.550 OA
ATOM      6  O   UNL     1       7.122 -30.089 -30.393  1.00  0.00    -0.550 OA
ENDBRANCH   3   4
ENDBRANCH   2   3
ENDBRANCH   1   2
BRANCH   1   7
ATOM      7  C   UNL     1      10.580 -27.309 -30.978  1.00  0.00     0.000 C 
BRANCH   7   8
ATOM      8  C   UNL     1      11.081 -25.967 -31.522  1.00  0.00    -0.000 C 
BRANCH   8   9
ATOM      9  C   UNL     1      10.825 -24.836 -30.520  1.00  0.00    -0.003 C 
ATOM     10  C   UNL     1       9.413 -24.278 -30.667  1.00  0.00     0.004 C 
ENDBRANCH   8   9
ENDBRANCH   7   8
ENDBRANCH   1   7
TORSDOF 6
ENDMDL
MODEL 4
REMARK VINA RESULT:    -3.606      3.535      5.361
REMARK INTER + INTRA:          -5.322
REMARK INTER:                  -5.029
REMARK INTRA:                  -0.292
REMARK UNBOUND:                -0.451
REMARK SMILES CCCCCCCC(=O)[O-]
REMARK SMILES IDX 5 1 6 2 7 3 8 4 9 5 10 6 4 7 3 8 2 9 1 10
REMARK H PARENT
REMARK Flexibility Score: inf
ROOT
ATOM      1  C   UNL     1      10.731 -27.324 -30.302  1.00  0.00     0.000 C 
ENDROOT
BRANCH   1   2
ATOM      2  C   UNL     1      10.906 -26.733 -31.706  1.00  0.00     0.006 C 
BRANCH   2   3
ATOM      3  C   UNL     1      10.381 -25.296 -31.767  1.00  0.00     0.053 C 
BRANCH   3   4
ATOM      4  C   UNL     1      11.515 -24.321 -31.738  1.00  0.00     0.041 C 
ATOM      5  O   UNL     1      11.913 -23.779 -32.803  1.00  0.00    -0.550 OA
ATOM      6  O   UNL     1      12.100 -23.971 -30.527  1.00  0.00    -0.550 OA
ENDBRANCH   3   4
ENDBRANCH   2   3
ENDBRANCH   1   2
BRANCH   1   7
ATOM      7  C   UNL     1       9.482 -26.757 -29.618  1.00  0.00     0.000 C 
BRANCH   7   8
ATOM      8  C   UNL     1       8.655 -27.873 -28.969  1.00  0.00    -0.000 C 
BRANCH   8   9
ATOM      9  C   UNL     1       8.086 -27.422 -27.619  1.00  0.00    -0.003 C 
ATOM     10  C   UNL     1       9.169 -26.790 -26.748  1.00  0.00     0.004 C 
ENDBRANCH   8   9
ENDBRANCH   7   8
ENDBRANCH   1   7
TORSDOF 6
ENDMDL
MODEL 5
REMARK VINA RESULT:    -3.576      2.825      4.569
REMARK INTER + INTRA:          -5.281
REMARK INTER:                  -4.994
REMARK INTRA:                  -0.288
REMARK UNBOUND:                -0.451
REMARK SMILES CCCCCCCC(=O)[O-]
REMARK SMILES IDX 5 1 6 2 7 3 8 4 9 5 10 6 4 7 3 8 2 9 1 10
REMARK H PARENT
REMARK Flexibility Score: inf
ROOT
ATOM      1  C   UNL     1       9.125 -26.648 -28.294  1.00  0.00     0.000 C 
ENDROOT
BRANCH   1   2
ATOM      2  C   UNL     1      10.413 -26.739 -29.121  1.00  0.00     0.006 C 
BRANCH   2   3
ATOM      3  C   UNL     1      10.653 -25.449 -29.910  1.00  0.00     0.053 C 
BRANCH   3   4
ATOM      4  C   UNL     1      11.061 -25.761 -31.315  1.00  0.00     0.041 C 
ATOM      5  O   UNL     1      11.483 -24.847 -32.071  1.00  0.00    -0.550 OA
ATOM      6  O   UNL     1      11.025 -27.072 -31.775  1.00  0.00    -0.550 OA
ENDBRANCH   3   4
ENDBRANCH   2   3
ENDBRANCH   1   2
BRANCH   1   7
ATOM      7  C   UNL     1       8.280 -27.917 -28.448  1.00  0.00     0.000 C 
BRANCH   7   8
ATOM      8  C   UNL     1       8.764 -28.761 -29.632  1.00  0.00    -0.000 C 
BRANCH   8   9
ATOM      9  C   UNL     1       8.186 -30.179 -29.570  1.00  0.00    -0.003 C 
ATOM     10  C   UNL     1       6.943 -30.307 -30.446  1.00  0.00     0.004 C 
ENDBRANCH   8   9
ENDBRANCH   7   8
ENDBRANCH   1   7
TORSDOF 6
ENDMDL
MODEL 6
REMARK VINA RESULT:    -3.548      2.180      3.131
REMARK INTER + INTRA:          -5.243
REMARK INTER:                  -4.740
REMARK INTRA:                  -0.503
REMARK UNBOUND:                -0.451
REMARK SMILES CCCCCCCC(=O)[O-]
REMARK SMILES IDX 5 1 6 2 7 3 8 4 9 5 10 6 4 7 3 8 2 9 1 10
REMARK H PARENT
REMARK Flexibility Score: inf
ROOT
ATOM      1  C   UNL     1       9.385 -28.156 -29.524  1.00  0.00     0.000 C 
ENDROOT
BRANCH   1   2
ATOM      2  C   UNL     1       8.590 -27.522 -28.376  1.00  0.00     0.006 C 
BRANCH   2   3
ATOM      3  C   UNL     1       9.376 -26.378 -27.729  1.00  0.00     0.053 C 
BRANCH   3   4
ATOM      4  C   UNL     1       9.718 -26.711 -26.311  1.00  0.00     0.041 C 
ATOM      5  O   UNL     1      10.536 -27.634 -26.057  1.00  0.00    -0.550 OA
ATOM      6  O   UNL     1       9.172 -25.970 -25.271  1.00  0.00    -0.550 OA
ENDBRANCH   3   4
ENDBRANCH   2   3
ENDBRANCH   1   2
BRANCH   1   7
ATOM      7  C   UNL     1      10.658 -27.356 -29.820  1.00  0.00     0.000 C 
BRANCH   7   8
ATOM      8  C   UNL     1      10.752 -27.001 -31.308  1.00  0.00    -0.000 C 
BRANCH   8   9
ATOM      9  C   UNL     1      10.921 -25.490 -31.504  1.00  0.00    -0.003 C 
ATOM     10  C   UNL     1       9.663 -24.736 -31.082  1.00  0.00     0.004 C 
ENDBRANCH   8   9
ENDBRANCH   7   8
ENDBRANCH   1   7
TORSDOF 6
ENDMDL
MODEL 7
REMARK VINA RESULT:    -3.469      2.864      4.468
REMARK INTER + INTRA:          -5.137
REMARK INTER:                  -4.667
REMARK INTRA:                  -0.470
REMARK UNBOUND:                -0.451
REMARK SMILES CCCCCCCC(=O)[O-]
REMARK SMILES IDX 5 1 6 2 7 3 8 4 9 5 10 6 4 7 3 8 2 9 1 10
REMARK H PARENT
REMARK Flexibility Score: inf
ROOT
ATOM      1  C   UNL     1       8.590 -28.008 -29.068  1.00  0.00     0.000 C 
ENDROOT
BRANCH   1   2
ATOM      2  C   UNL     1      10.084 -28.032 -29.411  1.00  0.00     0.006 C 
BRANCH   2   3
ATOM      3  C   UNL     1      10.388 -27.134 -30.613  1.00  0.00     0.053 C 
BRANCH   3   4
ATOM      4  C   UNL     1      10.558 -25.712 -30.177  1.00  0.00     0.041 C 
ATOM      5  O   UNL     1      11.636 -25.337 -29.647  1.00  0.00    -0.550 OA
ATOM      6  O   UNL     1       9.543 -24.790 -30.402  1.00  0.00    -0.550 OA
ENDBRANCH   3   4
ENDBRANCH   2   3
ENDBRANCH   1   2
BRANCH   1   7
ATOM      7  C   UNL     1       8.345 -27.318 -27.722  1.00  0.00     0.000 C 
BRANCH   7   8
ATOM      8  C   UNL     1       9.622 -27.292 -26.875  1.00  0.00    -0.000 C 
BRANCH   8   9
ATOM      9  C   UNL     1       9.950 -25.866 -26.417  1.00  0.00    -0.003 C 
ATOM     10  C   UNL     1       9.494 -25.630 -24.980  1.00  0.00     0.004 C 
ENDBRANCH   8   9
ENDBRANCH   7   8
ENDBRANCH   1   7
TORSDOF 6
ENDMDL
MODEL 8
REMARK VINA RESULT:    -3.462      1.705      2.727
REMARK INTER + INTRA:          -5.127
REMARK INTER:                  -4.676
REMARK INTRA:                  -0.451
REMARK UNBOUND:                -0.451
REMARK SMILES CCCCCCCC(=O)[O-]
REMARK SMILES IDX 5 1 6 2 7 3 8 4 9 5 10 6 4 7 3 8 2 9 1 10
REMARK H PARENT
REMARK Flexibility Score: inf
ROOT
ATOM      1  C   UNL     1      10.524 -27.010 -31.260  1.00  0.00     0.000 C 
ENDROOT
BRANCH   1   2
ATOM      2  C   UNL     1      10.661 -27.145 -29.739  1.00  0.00     0.006 C 
BRANCH   2   3
ATOM      3  C   UNL     1       9.452 -26.536 -29.022  1.00  0.00     0.053 C 
BRANCH   3   4
ATOM      4  C   UNL     1       8.576 -27.612 -28.463  1.00  0.00     0.041 C 
ATOM      5  O   UNL     1       7.950 -27.424 -27.387  1.00  0.00    -0.550 OA
ATOM      6  O   UNL     1       8.410 -28.805 -29.157  1.00  0.00    -0.550 OA
ENDBRANCH   3   4
ENDBRANCH   2   3
ENDBRANCH   1   2
BRANCH   1   7
ATOM      7  C   UNL     1      11.208 -25.735 -31.764  1.00  0.00     0.000 C 
BRANCH   7   8
ATOM      8  C   UNL     1      10.190 -24.609 -31.974  1.00  0.00    -0.000 C 
BRANCH   8   9
ATOM      9  C   UNL     1      10.441 -23.450 -31.003  1.00  0.00    -0.003 C 
ATOM     10  C   UNL     1      11.798 -23.589 -30.318  1.00  0.00     0.004 C 
ENDBRANCH   8   9
ENDBRANCH   7   8
ENDBRANCH   1   7
TORSDOF 6
ENDMDL
MODEL 9
REMARK VINA RESULT:    -3.445      1.213      1.618
REMARK INTER + INTRA:          -5.104
REMARK INTER:                  -4.819
REMARK INTRA:                  -0.285
REMARK UNBOUND:                -0.451
REMARK SMILES CCCCCCCC(=O)[O-]
REMARK SMILES IDX 5 1 6 2 7 3 8 4 9 5 10 6 4 7 3 8 2 9 1 10
REMARK H PARENT
REMARK Flexibility Score: inf
ROOT
ATOM      1  C   UNL     1      10.395 -26.767 -30.253  1.00  0.00     0.000 C 
ENDROOT
BRANCH   1   2
ATOM      2  C   UNL     1       9.999 -27.866 -29.261  1.00  0.00     0.006 C 
BRANCH   2   3
ATOM      3  C   UNL     1       8.500 -28.169 -29.344  1.00  0.00     0.053 C 
BRANCH   3   4
ATOM      4  C   UNL     1       8.269 -29.640 -29.486  1.00  0.00     0.041 C 
ATOM      5  O   UNL     1       9.002 -30.459 -28.873  1.00  0.00    -0.550 OA
ATOM      6  O   UNL     1       7.211 -30.106 -30.257  1.00  0.00    -0.550 OA
ENDBRANCH   3   4
ENDBRANCH   2   3
ENDBRANCH   1   2
BRANCH   1   7
ATOM      7  C   UNL     1      10.112 -25.376 -29.676  1.00  0.00     0.000 C 
BRANCH   7   8
ATOM      8  C   UNL     1       9.452 -24.469 -30.721  1.00  0.00    -0.000 C 
BRANCH   8   9
ATOM      9  C   UNL     1       9.982 -24.773 -32.127  1.00  0.00    -0.003 C 
ATOM     10  C   UNL     1      11.104 -23.814 -32.513  1.00  0.00     0.004 C 
ENDBRANCH   8   9
ENDBRANCH   7   8
ENDBRANCH   1   7
TORSDOF 6
ENDMDL
