MODEL 1
REMARK VINA RESULT:    -4.793      0.000      0.000
REMARK INTER + INTRA:          -5.241
REMARK INTER:                  -5.213
REMARK INTRA:                  -0.028
REMARK UNBOUND:                -0.028
REMARK SMILES O=C([O-])c1ccc(O)cc1
REMARK SMILES IDX 4 1 5 2 10 3 6 4 9 5 7 6 2 7 1 8 3 9 8 10
REMARK H PARENT 8 11
REMARK Flexibility Score: inf
ROOT
ATOM      1  C   UNL     1     -32.987  14.252  53.613  1.00  0.00    -0.003 A 
ATOM      2  C   UNL     1     -34.212  14.926  53.466  1.00  0.00     0.014 A 
ATOM      3  C   UNL     1     -31.946  14.523  52.705  1.00  0.00     0.014 A 
ATOM      4  C   UNL     1     -34.392  15.852  52.432  1.00  0.00     0.047 A 
ATOM      5  C   UNL     1     -32.129  15.449  51.673  1.00  0.00     0.047 A 
ATOM      6  C   UNL     1     -33.350  16.116  51.534  1.00  0.00     0.115 A 
ENDROOT
BRANCH   1   7
ATOM      7  C   UNL     1     -32.800  13.273  54.706  1.00  0.00     0.071 C 
ATOM      8  O   UNL     1     -31.993  13.508  55.645  1.00  0.00    -0.545 OA
ATOM      9  O   UNL     1     -33.512  12.080  54.713  1.00  0.00    -0.545 OA
ENDBRANCH   1   7
BRANCH   6  10
ATOM     10  O   UNL     1     -33.517  17.036  50.502  1.00  0.00    -0.508 OA
ATOM     11  H   UNL     1     -33.549  16.743  49.531  1.00  0.00     0.293 HD
ENDBRANCH   6  10
TORSDOF 2
ENDMDL
MODEL 2
REMARK VINA RESULT:    -4.784      2.124      3.200
REMARK INTER + INTRA:          -5.231
REMARK INTER:                  -5.195
REMARK INTRA:                  -0.036
REMARK UNBOUND:                -0.028
REMARK SMILES O=C([O-])c1ccc(O)cc1
REMARK SMILES IDX 4 1 5 2 10 3 6 4 9 5 7 6 2 7 1 8 3 9 8 10
REMARK H PARENT 8 11
REMARK Flexibility Score: inf
ROOT
ATOM      1  C   UNL     1     -34.864  15.413  52.147  1.00  0.00    -0.003 A 
ATOM      2  C   UNL     1     -33.760  16.052  51.555  1.00  0.00     0.014 A 
ATOM      3  C   UNL     1     -36.111  15.463  51.495  1.00  0.00     0.014 A 
ATOM      4  C   UNL     1     -33.900  16.726  50.338  1.00  0.00     0.047 A 
ATOM      5  C   UNL     1     -36.247  16.138  50.278  1.00  0.00     0.047 A 
ATOM      6  C   UNL     1     -35.144  16.770  49.695  1.00  0.00     0.115 A 
ENDROOT
BRANCH   1   7
ATOM      7  C   UNL     1     -34.714  14.701  53.435  1.00  0.00     0.071 C 
ATOM      8  O   UNL     1     -35.693  14.101  53.953  1.00  0.00    -0.545 OA
ATOM      9  O   UNL     1     -33.490  14.685  54.092  1.00  0.00    -0.545 OA
ENDBRANCH   1   7
BRANCH   6  10
ATOM     10  O   UNL     1     -35.295  17.438  48.483  1.00  0.00    -0.508 OA
ATOM     11  H   UNL     1     -36.062  18.082  48.325  1.00  0.00     0.293 HD
ENDBRANCH   6  10
TORSDOF 2
ENDMDL
MODEL 3
REMARK VINA RESULT:    -4.544      2.198      3.173
REMARK INTER + INTRA:          -4.971
REMARK INTER:                  -4.939
REMARK INTRA:                  -0.032
REMARK UNBOUND:                -0.028
REMARK SMILES O=C([O-])c1ccc(O)cc1
REMARK SMILES IDX 4 1 5 2 10 3 6 4 9 5 7 6 2 7 1 8 3 9 8 10
REMARK H PARENT 8 11
REMARK Flexibility Score: inf
ROOT
ATOM      1  C   UNL     1     -33.297  15.605  51.632  1.00  0.00    -0.003 A 
ATOM      2  C   UNL     1     -34.476  15.256  52.314  1.00  0.00     0.014 A 
ATOM      3  C   UNL     1     -33.395  16.299  50.411  1.00  0.00     0.014 A 
ATOM      4  C   UNL     1     -35.726  15.594  51.786  1.00  0.00     0.047 A 
ATOM      5  C   UNL     1     -34.646  16.635  49.887  1.00  0.00     0.047 A 
ATOM      6  C   UNL     1     -35.814  16.286  50.570  1.00  0.00     0.115 A 
ENDROOT
BRANCH   1   7
ATOM      7  C   UNL     1     -31.975  15.245  52.192  1.00  0.00     0.071 C 
ATOM      8  O   UNL     1     -31.795  14.123  52.736  1.00  0.00    -0.545 OA
ATOM      9  O   UNL     1     -30.915  16.140  52.126  1.00  0.00    -0.545 OA
ENDBRANCH   1   7
BRANCH   6  10
ATOM     10  O   UNL     1     -37.054  16.628  50.035  1.00  0.00    -0.508 OA
ATOM     11  H   UNL     1     -37.880  16.704  50.618  1.00  0.00     0.293 HD
ENDBRANCH   6  10
TORSDOF 2
ENDMDL
MODEL 4
REMARK VINA RESULT:    -4.543     10.007     12.321
REMARK INTER + INTRA:          -4.970
REMARK INTER:                  -4.939
REMARK INTRA:                  -0.031
REMARK UNBOUND:                -0.028
REMARK SMILES O=C([O-])c1ccc(O)cc1
REMARK SMILES IDX 4 1 5 2 10 3 6 4 9 5 7 6 2 7 1 8 3 9 8 10
REMARK H PARENT 8 11
REMARK Flexibility Score: inf
ROOT
ATOM      1  C   UNL     1     -28.269   6.414  58.741  1.00  0.00    -0.003 A 
ATOM      2  C   UNL     1     -27.990   6.035  60.067  1.00  0.00     0.014 A 
ATOM      3  C   UNL     1     -28.951   5.512  57.903  1.00  0.00     0.014 A 
ATOM      4  C   UNL     1     -28.386   4.781  60.543  1.00  0.00     0.047 A 
ATOM      5  C   UNL     1     -29.345   4.259  58.384  1.00  0.00     0.047 A 
ATOM      6  C   UNL     1     -29.066   3.890  59.703  1.00  0.00     0.115 A 
ENDROOT
BRANCH   1   7
ATOM      7  C   UNL     1     -27.848   7.740  58.239  1.00  0.00     0.071 C 
ATOM      8  O   UNL     1     -26.687   8.172  58.467  1.00  0.00    -0.545 OA
ATOM      9  O   UNL     1     -28.729   8.528  57.508  1.00  0.00    -0.545 OA
ENDBRANCH   1   7
BRANCH   6  10
ATOM     10  O   UNL     1     -29.464   2.639  60.167  1.00  0.00    -0.508 OA
ATOM     11  H   UNL     1     -30.383   2.264  59.957  1.00  0.00     0.293 HD
ENDBRANCH   6  10
TORSDOF 2
ENDMDL
MODEL 5
REMARK VINA RESULT:    -4.526      1.628      4.612
REMARK INTER + INTRA:          -4.951
REMARK INTER:                  -4.915
REMARK INTRA:                  -0.036
REMARK UNBOUND:                -0.028
REMARK SMILES O=C([O-])c1ccc(O)cc1
REMARK SMILES IDX 4 1 5 2 10 3 6 4 9 5 7 6 2 7 1 8 3 9 8 10
REMARK H PARENT 8 11
REMARK Flexibility Score: inf
ROOT
ATOM      1  C   UNL     1     -34.477  15.815  51.329  1.00  0.00    -0.003 A 
ATOM      2  C   UNL     1     -33.127  15.666  50.965  1.00  0.00     0.014 A 
ATOM      3  C   UNL     1     -34.902  15.337  52.583  1.00  0.00     0.014 A 
ATOM      4  C   UNL     1     -32.222  15.053  51.836  1.00  0.00     0.047 A 
ATOM      5  C   UNL     1     -33.993  14.725  53.452  1.00  0.00     0.047 A 
ATOM      6  C   UNL     1     -32.653  14.582  53.083  1.00  0.00     0.115 A 
ENDROOT
BRANCH   1   7
ATOM      7  C   UNL     1     -35.434  16.463  50.404  1.00  0.00     0.071 C 
ATOM      8  O   UNL     1     -35.024  17.048  49.367  1.00  0.00    -0.545 OA
ATOM      9  O   UNL     1     -36.798  16.434  50.667  1.00  0.00    -0.545 OA
ENDBRANCH   1   7
BRANCH   6  10
ATOM     10  O   UNL     1     -31.760  13.970  53.959  1.00  0.00    -0.508 OA
ATOM     11  H   UNL     1     -30.986  13.409  53.621  1.00  0.00     0.293 HD
ENDBRANCH   6  10
TORSDOF 2
ENDMDL
MODEL 6
REMARK VINA RESULT:    -4.456      6.363      7.082
REMARK INTER + INTRA:          -4.875
REMARK INTER:                  -4.847
REMARK INTRA:                  -0.028
REMARK UNBOUND:                -0.028
REMARK SMILES O=C([O-])c1ccc(O)cc1
REMARK SMILES IDX 4 1 5 2 10 3 6 4 9 5 7 6 2 7 1 8 3 9 8 10
REMARK H PARENT 8 11
REMARK Flexibility Score: inf
ROOT
ATOM      1  C   UNL     1     -26.017  14.830  54.544  1.00  0.00    -0.003 A 
ATOM      2  C   UNL     1     -26.522  14.664  53.242  1.00  0.00     0.014 A 
ATOM      3  C   UNL     1     -26.210  16.061  55.198  1.00  0.00     0.014 A 
ATOM      4  C   UNL     1     -27.205  15.707  52.608  1.00  0.00     0.047 A 
ATOM      5  C   UNL     1     -26.893  17.102  54.561  1.00  0.00     0.047 A 
ATOM      6  C   UNL     1     -27.394  16.929  53.268  1.00  0.00     0.115 A 
ENDROOT
BRANCH   1   7
ATOM      7  C   UNL     1     -25.294  13.725  55.211  1.00  0.00     0.071 C 
ATOM      8  O   UNL     1     -25.786  13.156  56.222  1.00  0.00    -0.545 OA
ATOM      9  O   UNL     1     -24.061  13.299  54.732  1.00  0.00    -0.545 OA
ENDBRANCH   1   7
BRANCH   6  10
ATOM     10  O   UNL     1     -28.072  17.974  52.647  1.00  0.00    -0.508 OA
ATOM     11  H   UNL     1     -27.720  18.404  51.798  1.00  0.00     0.293 HD
ENDBRANCH   6  10
TORSDOF 2
ENDMDL
MODEL 7
REMARK VINA RESULT:    -4.434      2.249      3.225
REMARK INTER + INTRA:          -4.851
REMARK INTER:                  -4.819
REMARK INTRA:                  -0.031
REMARK UNBOUND:                -0.028
REMARK SMILES O=C([O-])c1ccc(O)cc1
REMARK SMILES IDX 4 1 5 2 10 3 6 4 9 5 7 6 2 7 1 8 3 9 8 10
REMARK H PARENT 8 11
REMARK Flexibility Score: inf
ROOT
ATOM      1  C   UNL     1     -32.398  15.467  52.120  1.00  0.00    -0.003 A 
ATOM      2  C   UNL     1     -32.839  15.835  50.837  1.00  0.00     0.014 A 
ATOM      3  C   UNL     1     -33.352  15.140  53.102  1.00  0.00     0.014 A 
ATOM      4  C   UNL     1     -34.205  15.875  50.542  1.00  0.00     0.047 A 
ATOM      5  C   UNL     1     -34.718  15.182  52.803  1.00  0.00     0.047 A 
ATOM      6  C   UNL     1     -35.149  15.548  51.525  1.00  0.00     0.115 A 
ENDROOT
BRANCH   1   7
ATOM      7  C   UNL     1     -30.951  15.425  52.430  1.00  0.00     0.071 C 
ATOM      8  O   UNL     1     -30.465  14.468  53.089  1.00  0.00    -0.545 OA
ATOM      9  O   UNL     1     -30.109  16.442  51.997  1.00  0.00    -0.545 OA
ENDBRANCH   1   7
BRANCH   6  10
ATOM     10  O   UNL     1     -36.512  15.584  51.242  1.00  0.00    -0.508 OA
ATOM     11  H   UNL     1     -37.090  16.368  51.525  1.00  0.00     0.293 HD
ENDBRANCH   6  10
TORSDOF 2
ENDMDL
MODEL 8
REMARK VINA RESULT:    -4.355      6.228      6.714
REMARK INTER + INTRA:          -4.765
REMARK INTER:                  -4.729
REMARK INTRA:                  -0.036
REMARK UNBOUND:                -0.028
REMARK SMILES O=C([O-])c1ccc(O)cc1
REMARK SMILES IDX 4 1 5 2 10 3 6 4 9 5 7 6 2 7 1 8 3 9 8 10
REMARK H PARENT 8 11
REMARK Flexibility Score: inf
ROOT
ATOM      1  C   UNL     1     -26.675  13.653  52.162  1.00  0.00    -0.003 A 
ATOM      2  C   UNL     1     -27.258  14.362  51.096  1.00  0.00     0.014 A 
ATOM      3  C   UNL     1     -26.507  14.301  53.400  1.00  0.00     0.014 A 
ATOM      4  C   UNL     1     -27.664  15.689  51.266  1.00  0.00     0.047 A 
ATOM      5  C   UNL     1     -26.915  15.628  53.566  1.00  0.00     0.047 A 
ATOM      6  C   UNL     1     -27.495  16.326  52.502  1.00  0.00     0.115 A 
ENDROOT
BRANCH   1   7
ATOM      7  C   UNL     1     -26.244  12.249  51.980  1.00  0.00     0.071 C 
ATOM      8  O   UNL     1     -26.595  11.600  50.959  1.00  0.00    -0.545 OA
ATOM      9  O   UNL     1     -25.447  11.628  52.932  1.00  0.00    -0.545 OA
ENDBRANCH   1   7
BRANCH   6  10
ATOM     10  O   UNL     1     -27.896  17.647  52.683  1.00  0.00    -0.508 OA
ATOM     11  H   UNL     1     -27.940  18.298  51.906  1.00  0.00     0.293 HD
ENDBRANCH   6  10
TORSDOF 2
ENDMDL
MODEL 9
REMARK VINA RESULT:    -4.336      1.689      2.106
REMARK INTER + INTRA:          -4.745
REMARK INTER:                  -4.709
REMARK INTRA:                  -0.035
REMARK UNBOUND:                -0.028
REMARK SMILES O=C([O-])c1ccc(O)cc1
REMARK SMILES IDX 4 1 5 2 10 3 6 4 9 5 7 6 2 7 1 8 3 9 8 10
REMARK H PARENT 8 11
REMARK Flexibility Score: inf
ROOT
ATOM      1  C   UNL     1     -31.842  13.775  53.517  1.00  0.00    -0.003 A 
ATOM      2  C   UNL     1     -32.651  14.622  52.740  1.00  0.00     0.014 A 
ATOM      3  C   UNL     1     -30.450  13.982  53.529  1.00  0.00     0.014 A 
ATOM      4  C   UNL     1     -32.079  15.656  51.990  1.00  0.00     0.047 A 
ATOM      5  C   UNL     1     -29.882  15.016  52.778  1.00  0.00     0.047 A 
ATOM      6  C   UNL     1     -30.692  15.856  52.008  1.00  0.00     0.115 A 
ENDROOT
BRANCH   1   7
ATOM      7  C   UNL     1     -32.449  12.682  54.308  1.00  0.00     0.071 C 
ATOM      8  O   UNL     1     -31.732  11.762  54.785  1.00  0.00    -0.545 OA
ATOM      9  O   UNL     1     -33.819  12.655  54.538  1.00  0.00    -0.545 OA
ENDBRANCH   1   7
BRANCH   6  10
ATOM     10  O   UNL     1     -30.112  16.881  51.266  1.00  0.00    -0.508 OA
ATOM     11  H   UNL     1     -29.425  16.690  50.546  1.00  0.00     0.293 HD
ENDBRANCH   6  10
TORSDOF 2
ENDMDL
