MODEL 1
REMARK VINA RESULT:    -4.835      0.000      0.000
REMARK INTER + INTRA:         -10.837
REMARK INTER:                  -8.510
REMARK INTRA:                  -2.327
REMARK UNBOUND:                -2.327
REMARK SMILES CCCCCCCCCCCCCCC(=O)[O-]
REMARK SMILES IDX 9 1 10 2 11 3 12 4 13 5 14 6 15 7 16 8 17 9 8 10 7 11 6 12
REMARK SMILES IDX 5 13 4 14 3 15 2 16 1 17
REMARK H PARENT
REMARK Flexibility Score: inf
ROOT
ATOM      1  C   UNL     1       1.611  54.827  20.644  1.00  0.00     0.000 C 
ENDROOT
BRANCH   1   2
ATOM      2  C   UNL     1       2.530  53.766  20.008  1.00  0.00     0.000 C 
BRANCH   2   3
ATOM      3  C   UNL     1       1.802  52.577  19.350  1.00  0.00     0.000 C 
BRANCH   3   4
ATOM      4  C   UNL     1       1.766  52.605  17.812  1.00  0.00     0.000 C 
BRANCH   4   5
ATOM      5  C   UNL     1       0.336  52.661  17.249  1.00  0.00     0.006 C 
BRANCH   5   6
ATOM      6  C   UNL     1      -0.679  51.987  18.181  1.00  0.00     0.053 C 
BRANCH   6   7
ATOM      7  C   UNL     1      -2.087  52.194  17.711  1.00  0.00     0.041 C 
ATOM      8  O   UNL     1      -2.498  53.350  17.429  1.00  0.00    -0.550 OA
ATOM      9  O   UNL     1      -2.936  51.105  17.560  1.00  0.00    -0.550 OA
ENDBRANCH   6   7
ENDBRANCH   5   6
ENDBRANCH   4   5
ENDBRANCH   3   4
ENDBRANCH   2   3
ENDBRANCH   1   2
BRANCH   1  10
ATOM     10  C   UNL     1       0.150  54.382  20.844  1.00  0.00     0.000 C 
BRANCH  10  11
ATOM     11  C   UNL     1      -0.840  55.194  19.991  1.00  0.00    -0.000 C 
BRANCH  11  12
ATOM     12  C   UNL     1      -0.153  56.308  19.185  1.00  0.00    -0.000 C 
BRANCH  12  13
ATOM     13  C   UNL     1      -0.292  56.108  17.665  1.00  0.00    -0.000 C 
BRANCH  13  14
ATOM     14  C   UNL     1       0.807  56.833  16.871  1.00  0.00    -0.000 C 
BRANCH  14  15
ATOM     15  C   UNL     1       2.190  56.184  17.051  1.00  0.00    -0.000 C 
BRANCH  15  16
ATOM     16  C   UNL     1       2.603  55.333  15.838  1.00  0.00    -0.003 C 
ATOM     17  C   UNL     1       4.107  55.070  15.784  1.00  0.00     0.004 C 
ENDBRANCH  15  16
ENDBRANCH  14  15
ENDBRANCH  13  14
ENDBRANCH  12  13
ENDBRANCH  11  12
ENDBRANCH  10  11
ENDBRANCH   1  10
TORSDOF 13
ENDMDL
MODEL 2
REMARK VINA RESULT:    -4.777      2.581      4.002
REMARK INTER + INTRA:         -10.734
REMARK INTER:                  -8.652
REMARK INTRA:                  -2.082
REMARK UNBOUND:                -2.327
REMARK SMILES CCCCCCCCCCCCCCC(=O)[O-]
REMARK SMILES IDX 9 1 10 2 11 3 12 4 13 5 14 6 15 7 16 8 17 9 8 10 7 11 6 12
REMARK SMILES IDX 5 13 4 14 3 15 2 16 1 17
REMARK H PARENT
REMARK Flexibility Score: inf
ROOT
ATOM      1  C   UNL     1       2.243  54.866  20.683  1.00  0.00     0.000 C 
ENDROOT
BRANCH   1   2
ATOM      2  C   UNL     1       0.710  54.711  20.711  1.00  0.00     0.000 C 
BRANCH   2   3
ATOM      3  C   UNL     1      -0.067  55.731  19.854  1.00  0.00     0.000 C 
BRANCH   3   4
ATOM      4  C   UNL     1      -1.344  55.185  19.190  1.00  0.00     0.000 C 
BRANCH   4   5
ATOM      5  C   UNL     1      -1.904  56.125  18.109  1.00  0.00     0.006 C 
BRANCH   5   6
ATOM      6  C   UNL     1      -3.414  56.349  18.261  1.00  0.00     0.053 C 
BRANCH   6   7
ATOM      7  C   UNL     1      -3.851  57.637  17.634  1.00  0.00     0.041 C 
ATOM      8  O   UNL     1      -4.900  58.210  18.027  1.00  0.00    -0.550 OA
ATOM      9  O   UNL     1      -3.084  58.217  16.632  1.00  0.00    -0.550 OA
ENDBRANCH   6   7
ENDBRANCH   5   6
ENDBRANCH   4   5
ENDBRANCH   3   4
ENDBRANCH   2   3
ENDBRANCH   1   2
BRANCH   1  10
ATOM     10  C   UNL     1       3.002  53.678  20.064  1.00  0.00     0.000 C 
BRANCH  10  11
ATOM     11  C   UNL     1       2.124  52.843  19.115  1.00  0.00    -0.000 C 
BRANCH  11  12
ATOM     12  C   UNL     1       2.466  53.074  17.634  1.00  0.00    -0.000 C 
BRANCH  12  13
ATOM     13  C   UNL     1       1.401  53.916  16.908  1.00  0.00    -0.000 C 
BRANCH  13  14
ATOM     14  C   UNL     1       1.806  55.394  16.777  1.00  0.00    -0.000 C 
BRANCH  14  15
ATOM     15  C   UNL     1       3.323  55.577  16.601  1.00  0.00    -0.000 C 
BRANCH  15  16
ATOM     16  C   UNL     1       3.924  56.535  17.643  1.00  0.00    -0.003 C 
ATOM     17  C   UNL     1       2.880  57.454  18.276  1.00  0.00     0.004 C 
ENDBRANCH  15  16
ENDBRANCH  14  15
ENDBRANCH  13  14
ENDBRANCH  12  13
ENDBRANCH  11  12
ENDBRANCH  10  11
ENDBRANCH   1  10
TORSDOF 13
ENDMDL
MODEL 3
REMARK VINA RESULT:    -4.742      2.746      5.161
REMARK INTER + INTRA:         -10.672
REMARK INTER:                  -8.214
REMARK INTRA:                  -2.458
REMARK UNBOUND:                -2.327
REMARK SMILES CCCCCCCCCCCCCCC(=O)[O-]
REMARK SMILES IDX 9 1 10 2 11 3 12 4 13 5 14 6 15 7 16 8 17 9 8 10 7 11 6 12
REMARK SMILES IDX 5 13 4 14 3 15 2 16 1 17
REMARK H PARENT
REMARK Flexibility Score: inf
ROOT
ATOM      1  C   UNL     1      -0.864  55.171  20.095  1.00  0.00     0.000 C 
ENDROOT
BRANCH   1   2
ATOM      2  C   UNL     1      -0.267  56.340  19.287  1.00  0.00     0.000 C 
BRANCH   2   3
ATOM      3  C   UNL     1      -0.416  56.221  17.756  1.00  0.00     0.000 C 
BRANCH   3   4
ATOM      4  C   UNL     1       0.729  56.849  16.941  1.00  0.00     0.000 C 
BRANCH   4   5
ATOM      5  C   UNL     1       2.120  56.479  17.482  1.00  0.00     0.006 C 
BRANCH   5   6
ATOM      6  C   UNL     1       2.978  55.761  16.432  1.00  0.00     0.053 C 
BRANCH   6   7
ATOM      7  C   UNL     1       4.390  55.579  16.898  1.00  0.00     0.041 C 
ATOM      8  O   UNL     1       5.326  56.220  16.354  1.00  0.00    -0.550 OA
ATOM      9  O   UNL     1       4.667  54.719  17.953  1.00  0.00    -0.550 OA
ENDBRANCH   6   7
ENDBRANCH   5   6
ENDBRANCH   4   5
ENDBRANCH   3   4
ENDBRANCH   2   3
ENDBRANCH   1   2
BRANCH   1  10
ATOM     10  C   UNL     1       0.146  54.407  20.970  1.00  0.00     0.000 C 
BRANCH  10  11
ATOM     11  C   UNL     1       1.606  54.682  20.568  1.00  0.00    -0.000 C 
BRANCH  11  12
ATOM     12  C   UNL     1       2.364  53.404  20.175  1.00  0.00    -0.000 C 
BRANCH  12  13
ATOM     13  C   UNL     1       1.525  52.473  19.282  1.00  0.00    -0.000 C 
BRANCH  13  14
ATOM     14  C   UNL     1       1.704  52.774  17.784  1.00  0.00    -0.000 C 
BRANCH  14  15
ATOM     15  C   UNL     1       0.364  52.841  17.031  1.00  0.00    -0.000 C 
BRANCH  15  16
ATOM     16  C   UNL     1      -0.781  52.170  17.807  1.00  0.00    -0.003 C 
ATOM     17  C   UNL     1      -2.128  52.858  17.587  1.00  0.00     0.004 C 
ENDBRANCH  15  16
ENDBRANCH  14  15
ENDBRANCH  13  14
ENDBRANCH  12  13
ENDBRANCH  11  12
ENDBRANCH  10  11
ENDBRANCH   1  10
TORSDOF 13
ENDMDL
MODEL 4
REMARK VINA RESULT:    -4.694      2.098      3.365
REMARK INTER + INTRA:         -10.588
REMARK INTER:                  -8.336
REMARK INTRA:                  -2.252
REMARK UNBOUND:                -2.327
REMARK SMILES CCCCCCCCCCCCCCC(=O)[O-]
REMARK SMILES IDX 9 1 10 2 11 3 12 4 13 5 14 6 15 7 16 8 17 9 8 10 7 11 6 12
REMARK SMILES IDX 5 13 4 14 3 15 2 16 1 17
REMARK H PARENT
REMARK Flexibility Score: inf
ROOT
ATOM      1  C   UNL     1       1.823  54.961  20.637  1.00  0.00     0.000 C 
ENDROOT
BRANCH   1   2
ATOM      2  C   UNL     1       0.316  55.092  20.343  1.00  0.00     0.000 C 
BRANCH   2   3
ATOM      3  C   UNL     1      -0.530  53.850  20.689  1.00  0.00     0.000 C 
BRANCH   3   4
ATOM      4  C   UNL     1      -1.313  53.247  19.509  1.00  0.00     0.000 C 
BRANCH   4   5
ATOM      5  C   UNL     1      -1.273  54.132  18.252  1.00  0.00     0.006 C 
BRANCH   5   6
ATOM      6  C   UNL     1      -2.661  54.665  17.874  1.00  0.00     0.053 C 
BRANCH   6   7
ATOM      7  C   UNL     1      -2.762  56.145  18.076  1.00  0.00     0.041 C 
ATOM      8  O   UNL     1      -2.290  56.937  17.219  1.00  0.00    -0.550 OA
ATOM      9  O   UNL     1      -3.402  56.651  19.200  1.00  0.00    -0.550 OA
ENDBRANCH   6   7
ENDBRANCH   5   6
ENDBRANCH   4   5
ENDBRANCH   3   4
ENDBRANCH   2   3
ENDBRANCH   1   2
BRANCH   1  10
ATOM     10  C   UNL     1       2.461  53.641  20.168  1.00  0.00     0.000 C 
BRANCH  10  11
ATOM     11  C   UNL     1       3.060  53.741  18.754  1.00  0.00    -0.000 C 
BRANCH  11  12
ATOM     12  C   UNL     1       2.069  53.317  17.659  1.00  0.00    -0.000 C 
BRANCH  12  13
ATOM     13  C   UNL     1       2.302  54.062  16.332  1.00  0.00    -0.000 C 
BRANCH  13  14
ATOM     14  C   UNL     1       2.494  55.575  16.531  1.00  0.00    -0.000 C 
BRANCH  14  15
ATOM     15  C   UNL     1       1.186  56.292  16.907  1.00  0.00    -0.000 C 
BRANCH  15  16
ATOM     16  C   UNL     1       1.419  57.493  17.838  1.00  0.00    -0.003 C 
ATOM     17  C   UNL     1       2.852  57.565  18.364  1.00  0.00     0.004 C 
ENDBRANCH  15  16
ENDBRANCH  14  15
ENDBRANCH  13  14
ENDBRANCH  12  13
ENDBRANCH  11  12
ENDBRANCH  10  11
ENDBRANCH   1  10
TORSDOF 13
ENDMDL
MODEL 5
REMARK VINA RESULT:    -4.662      3.011      5.247
REMARK INTER + INTRA:         -10.532
REMARK INTER:                  -8.311
REMARK INTRA:                  -2.221
REMARK UNBOUND:                -2.327
REMARK SMILES CCCCCCCCCCCCCCC(=O)[O-]
REMARK SMILES IDX 9 1 10 2 11 3 12 4 13 5 14 6 15 7 16 8 17 9 8 10 7 11 6 12
REMARK SMILES IDX 5 13 4 14 3 15 2 16 1 17
REMARK H PARENT
REMARK Flexibility Score: inf
ROOT
ATOM      1  C   UNL     1       1.902  55.539  20.384  1.00  0.00     0.000 C 
ENDROOT
BRANCH   1   2
ATOM      2  C   UNL     1       1.990  56.368  19.087  1.00  0.00     0.000 C 
BRANCH   2   3
ATOM      3  C   UNL     1       0.787  56.222  18.133  1.00  0.00     0.000 C 
BRANCH   3   4
ATOM      4  C   UNL     1       1.152  55.958  16.661  1.00  0.00     0.000 C 
BRANCH   4   5
ATOM      5  C   UNL     1       2.187  54.832  16.496  1.00  0.00     0.006 C 
BRANCH   5   6
ATOM      6  C   UNL     1       3.442  55.303  15.751  1.00  0.00     0.053 C 
BRANCH   6   7
ATOM      7  C   UNL     1       4.599  55.501  16.682  1.00  0.00     0.041 C 
ATOM      8  O   UNL     1       5.391  56.465  16.513  1.00  0.00    -0.550 OA
ATOM      9  O   UNL     1       4.786  54.636  17.751  1.00  0.00    -0.550 OA
ENDBRANCH   6   7
ENDBRANCH   5   6
ENDBRANCH   4   5
ENDBRANCH   3   4
ENDBRANCH   2   3
ENDBRANCH   1   2
BRANCH   1  10
ATOM     10  C   UNL     1       1.180  54.187  20.239  1.00  0.00     0.000 C 
BRANCH  10  11
ATOM     11  C   UNL     1       2.114  53.065  19.753  1.00  0.00    -0.000 C 
BRANCH  11  12
ATOM     12  C   UNL     1       1.409  52.071  18.817  1.00  0.00    -0.000 C 
BRANCH  12  13
ATOM     13  C   UNL     1      -0.116  52.277  18.778  1.00  0.00    -0.000 C 
BRANCH  13  14
ATOM     14  C   UNL     1      -0.635  52.579  17.362  1.00  0.00    -0.000 C 
BRANCH  14  15
ATOM     15  C   UNL     1      -2.087  53.085  17.360  1.00  0.00    -0.000 C 
BRANCH  15  16
ATOM     16  C   UNL     1      -2.334  54.169  18.421  1.00  0.00    -0.003 C 
ATOM     17  C   UNL     1      -2.962  55.435  17.840  1.00  0.00     0.004 C 
ENDBRANCH  15  16
ENDBRANCH  14  15
ENDBRANCH  13  14
ENDBRANCH  12  13
ENDBRANCH  11  12
ENDBRANCH  10  11
ENDBRANCH   1  10
TORSDOF 13
ENDMDL
MODEL 6
REMARK VINA RESULT:    -4.649      2.159      3.713
REMARK INTER + INTRA:         -10.509
REMARK INTER:                  -8.065
REMARK INTRA:                  -2.443
REMARK UNBOUND:                -2.327
REMARK SMILES CCCCCCCCCCCCCCC(=O)[O-]
REMARK SMILES IDX 9 1 10 2 11 3 12 4 13 5 14 6 15 7 16 8 17 9 8 10 7 11 6 12
REMARK SMILES IDX 5 13 4 14 3 15 2 16 1 17
REMARK H PARENT
REMARK Flexibility Score: inf
ROOT
ATOM      1  C   UNL     1       0.526  52.327  18.847  1.00  0.00     0.000 C 
ENDROOT
BRANCH   1   2
ATOM      2  C   UNL     1      -0.217  52.632  17.531  1.00  0.00     0.000 C 
BRANCH   2   3
ATOM      3  C   UNL     1      -1.282  53.743  17.622  1.00  0.00     0.000 C 
BRANCH   3   4
ATOM      4  C   UNL     1      -2.167  53.695  18.880  1.00  0.00     0.000 C 
BRANCH   4   5
ATOM      5  C   UNL     1      -2.596  55.091  19.361  1.00  0.00     0.006 C 
BRANCH   5   6
ATOM      6  C   UNL     1      -2.408  56.161  18.278  1.00  0.00     0.053 C 
BRANCH   6   7
ATOM      7  C   UNL     1      -3.634  57.005  18.111  1.00  0.00     0.041 C 
ATOM      8  O   UNL     1      -3.668  57.910  17.237  1.00  0.00    -0.550 OA
ATOM      9  O   UNL     1      -4.750  56.774  18.905  1.00  0.00    -0.550 OA
ENDBRANCH   6   7
ENDBRANCH   5   6
ENDBRANCH   4   5
ENDBRANCH   3   4
ENDBRANCH   2   3
ENDBRANCH   1   2
BRANCH   1  10
ATOM     10  C   UNL     1       2.043  52.590  18.809  1.00  0.00     0.000 C 
BRANCH  10  11
ATOM     11  C   UNL     1       2.476  53.704  19.778  1.00  0.00    -0.000 C 
BRANCH  11  12
ATOM     12  C   UNL     1       1.287  54.355  20.503  1.00  0.00    -0.000 C 
BRANCH  12  13
ATOM     13  C   UNL     1       0.960  55.757  19.959  1.00  0.00    -0.000 C 
BRANCH  13  14
ATOM     14  C   UNL     1       2.033  56.279  18.989  1.00  0.00    -0.000 C 
BRANCH  14  15
ATOM     15  C   UNL     1       1.429  56.985  17.764  1.00  0.00    -0.000 C 
BRANCH  15  16
ATOM     16  C   UNL     1       1.216  56.029  16.579  1.00  0.00    -0.003 C 
ATOM     17  C   UNL     1       2.486  55.273  16.192  1.00  0.00     0.004 C 
ENDBRANCH  15  16
ENDBRANCH  14  15
ENDBRANCH  13  14
ENDBRANCH  12  13
ENDBRANCH  11  12
ENDBRANCH  10  11
ENDBRANCH   1  10
TORSDOF 13
ENDMDL
MODEL 7
REMARK VINA RESULT:    -4.615      4.601      6.630
REMARK INTER + INTRA:         -10.449
REMARK INTER:                  -8.733
REMARK INTRA:                  -1.716
REMARK UNBOUND:                -2.327
REMARK SMILES CCCCCCCCCCCCCCC(=O)[O-]
REMARK SMILES IDX 9 1 10 2 11 3 12 4 13 5 14 6 15 7 16 8 17 9 8 10 7 11 6 12
REMARK SMILES IDX 5 13 4 14 3 15 2 16 1 17
REMARK H PARENT
REMARK Flexibility Score: inf
ROOT
ATOM      1  C   UNL     1       3.152  53.434  17.644  1.00  0.00     0.000 C 
ENDROOT
BRANCH   1   2
ATOM      2  C   UNL     1       2.954  54.495  16.543  1.00  0.00     0.000 C 
BRANCH   2   3
ATOM      3  C   UNL     1       4.177  55.395  16.272  1.00  0.00     0.000 C 
BRANCH   3   4
ATOM      4  C   UNL     1       5.132  55.572  17.466  1.00  0.00     0.000 C 
BRANCH   4   5
ATOM      5  C   UNL     1       5.854  56.930  17.455  1.00  0.00     0.006 C 
BRANCH   5   6
ATOM      6  C   UNL     1       7.257  56.845  18.071  1.00  0.00     0.053 C 
BRANCH   6   7
ATOM      7  C   UNL     1       7.868  58.200  18.250  1.00  0.00     0.041 C 
ATOM      8  O   UNL     1       8.755  58.607  17.455  1.00  0.00    -0.550 OA
ATOM      9  O   UNL     1       7.439  59.025  19.281  1.00  0.00    -0.550 OA
ENDBRANCH   6   7
ENDBRANCH   5   6
ENDBRANCH   4   5
ENDBRANCH   3   4
ENDBRANCH   2   3
ENDBRANCH   1   2
BRANCH   1  10
ATOM     10  C   UNL     1       2.118  53.484  18.783  1.00  0.00     0.000 C 
BRANCH  10  11
ATOM     11  C   UNL     1       2.660  54.173  20.047  1.00  0.00    -0.000 C 
BRANCH  11  12
ATOM     12  C   UNL     1       1.626  55.099  20.708  1.00  0.00    -0.000 C 
BRANCH  12  13
ATOM     13  C   UNL     1       0.205  54.883  20.157  1.00  0.00    -0.000 C 
BRANCH  13  14
ATOM     14  C   UNL     1      -0.334  56.117  19.415  1.00  0.00    -0.000 C 
BRANCH  14  15
ATOM     15  C   UNL     1      -0.328  55.936  17.887  1.00  0.00    -0.000 C 
BRANCH  15  16
ATOM     16  C   UNL     1       0.402  57.079  17.162  1.00  0.00    -0.003 C 
ATOM     17  C   UNL     1       1.609  57.599  17.942  1.00  0.00     0.004 C 
ENDBRANCH  15  16
ENDBRANCH  14  15
ENDBRANCH  13  14
ENDBRANCH  12  13
ENDBRANCH  11  12
ENDBRANCH  10  11
ENDBRANCH   1  10
TORSDOF 13
ENDMDL
MODEL 8
REMARK VINA RESULT:    -4.607      2.911      4.899
REMARK INTER + INTRA:         -10.434
REMARK INTER:                  -8.365
REMARK INTRA:                  -2.069
REMARK UNBOUND:                -2.327
REMARK SMILES CCCCCCCCCCCCCCC(=O)[O-]
REMARK SMILES IDX 9 1 10 2 11 3 12 4 13 5 14 6 15 7 16 8 17 9 8 10 7 11 6 12
REMARK SMILES IDX 5 13 4 14 3 15 2 16 1 17
REMARK H PARENT
REMARK Flexibility Score: inf
ROOT
ATOM      1  C   UNL     1       1.691  52.603  19.468  1.00  0.00     0.000 C 
ENDROOT
BRANCH   1   2
ATOM      2  C   UNL     1       2.049  52.384  17.985  1.00  0.00     0.000 C 
BRANCH   2   3
ATOM      3  C   UNL     1       1.308  53.300  16.990  1.00  0.00     0.000 C 
BRANCH   3   4
ATOM      4  C   UNL     1       2.207  54.280  16.215  1.00  0.00     0.000 C 
BRANCH   4   5
ATOM      5  C   UNL     1       2.046  55.736  16.683  1.00  0.00     0.006 C 
BRANCH   5   6
ATOM      6  C   UNL     1       3.193  56.179  17.602  1.00  0.00     0.053 C 
BRANCH   6   7
ATOM      7  C   UNL     1       2.865  57.447  18.328  1.00  0.00     0.041 C 
ATOM      8  O   UNL     1       3.650  57.899  19.203  1.00  0.00    -0.550 OA
ATOM      9  O   UNL     1       1.704  58.144  18.020  1.00  0.00    -0.550 OA
ENDBRANCH   6   7
ENDBRANCH   5   6
ENDBRANCH   4   5
ENDBRANCH   3   4
ENDBRANCH   2   3
ENDBRANCH   1   2
BRANCH   1  10
ATOM     10  C   UNL     1       2.599  53.600  20.212  1.00  0.00     0.000 C 
BRANCH  10  11
ATOM     11  C   UNL     1       1.844  54.859  20.674  1.00  0.00    -0.000 C 
BRANCH  11  12
ATOM     12  C   UNL     1       0.318  54.692  20.610  1.00  0.00    -0.000 C 
BRANCH  12  13
ATOM     13  C   UNL     1      -0.367  55.827  19.828  1.00  0.00    -0.000 C 
BRANCH  13  14
ATOM     14  C   UNL     1      -1.168  55.312  18.621  1.00  0.00    -0.000 C 
BRANCH  14  15
ATOM     15  C   UNL     1      -1.403  56.400  17.560  1.00  0.00    -0.000 C 
BRANCH  15  16
ATOM     16  C   UNL     1      -2.848  56.927  17.566  1.00  0.00    -0.003 C 
ATOM     17  C   UNL     1      -3.761  56.139  18.505  1.00  0.00     0.004 C 
ENDBRANCH  15  16
ENDBRANCH  14  15
ENDBRANCH  13  14
ENDBRANCH  12  13
ENDBRANCH  11  12
ENDBRANCH  10  11
ENDBRANCH   1  10
TORSDOF 13
ENDMDL
MODEL 9
REMARK VINA RESULT:    -4.520      1.600      2.993
REMARK INTER + INTRA:         -10.281
REMARK INTER:                  -8.080
REMARK INTRA:                  -2.201
REMARK UNBOUND:                -2.327
REMARK SMILES CCCCCCCCCCCCCCC(=O)[O-]
REMARK SMILES IDX 9 1 10 2 11 3 12 4 13 5 14 6 15 7 16 8 17 9 8 10 7 11 6 12
REMARK SMILES IDX 5 13 4 14 3 15 2 16 1 17
REMARK H PARENT
REMARK Flexibility Score: inf
ROOT
ATOM      1  C   UNL     1       0.799  54.750  20.630  1.00  0.00     0.000 C 
ENDROOT
BRANCH   1   2
ATOM      2  C   UNL     1      -0.392  53.982  20.023  1.00  0.00     0.000 C 
BRANCH   2   3
ATOM      3  C   UNL     1      -1.183  54.747  18.943  1.00  0.00     0.000 C 
BRANCH   3   4
ATOM      4  C   UNL     1      -2.293  53.935  18.252  1.00  0.00     0.000 C 
BRANCH   4   5
ATOM      5  C   UNL     1      -1.747  52.744  17.445  1.00  0.00     0.006 C 
BRANCH   5   6
ATOM      6  C   UNL     1      -2.550  51.460  17.693  1.00  0.00     0.053 C 
BRANCH   6   7
ATOM      7  C   UNL     1      -1.813  50.508  18.585  1.00  0.00     0.041 C 
ATOM      8  O   UNL     1      -1.182  49.537  18.093  1.00  0.00    -0.550 OA
ATOM      9  O   UNL     1      -1.803  50.710  19.959  1.00  0.00    -0.550 OA
ENDBRANCH   6   7
ENDBRANCH   5   6
ENDBRANCH   4   5
ENDBRANCH   3   4
ENDBRANCH   2   3
ENDBRANCH   1   2
BRANCH   1  10
ATOM     10  C   UNL     1       2.186  54.232  20.206  1.00  0.00     0.000 C 
BRANCH  10  11
ATOM     11  C   UNL     1       2.103  53.029  19.250  1.00  0.00    -0.000 C 
BRANCH  11  12
ATOM     12  C   UNL     1       2.769  53.303  17.893  1.00  0.00    -0.000 C 
BRANCH  12  13
ATOM     13  C   UNL     1       1.796  53.921  16.873  1.00  0.00    -0.000 C 
BRANCH  13  14
ATOM     14  C   UNL     1       2.188  55.355  16.476  1.00  0.00    -0.000 C 
BRANCH  14  15
ATOM     15  C   UNL     1       1.094  56.381  16.816  1.00  0.00    -0.000 C 
BRANCH  15  16
ATOM     16  C   UNL     1       1.513  57.336  17.945  1.00  0.00    -0.003 C 
ATOM     17  C   UNL     1       3.003  57.244  18.276  1.00  0.00     0.004 C 
ENDBRANCH  15  16
ENDBRANCH  14  15
ENDBRANCH  13  14
ENDBRANCH  12  13
ENDBRANCH  11  12
ENDBRANCH  10  11
ENDBRANCH   1  10
TORSDOF 13
ENDMDL
