MODEL 1
REMARK VINA RESULT:    -4.542      0.000      0.000
REMARK INTER + INTRA:         -10.512
REMARK INTER:                  -7.994
REMARK INTRA:                  -2.519
REMARK UNBOUND:                -2.519
REMARK SMILES CCCCCCC=CCCCCCCCC(=O)[O-]
REMARK SMILES IDX 10 1 11 2 12 3 13 4 14 5 15 6 16 7 17 8 18 9 9 10 8 11 7 12
REMARK SMILES IDX 6 13 5 14 4 15 3 16 2 17 1 18
REMARK H PARENT
REMARK Flexibility Score: inf
ROOT
ATOM      1  C   UNL     1      21.357  -3.878  24.099  1.00  0.00     0.004 C 
ENDROOT
BRANCH   1   2
ATOM      2  C   UNL     1      21.260  -2.429  23.598  1.00  0.00     0.000 C 
BRANCH   2   3
ATOM      3  C   UNL     1      21.933  -2.276  22.227  1.00  0.00     0.000 C 
BRANCH   3   4
ATOM      4  C   UNL     1      22.641  -3.559  21.757  1.00  0.00     0.000 C 
BRANCH   4   5
ATOM      5  C   UNL     1      22.078  -4.180  20.462  1.00  0.00     0.006 C 
BRANCH   5   6
ATOM      6  C   UNL     1      21.094  -3.280  19.698  1.00  0.00     0.053 C 
BRANCH   6   7
ATOM      7  C   UNL     1      21.644  -2.843  18.376  1.00  0.00     0.041 C 
ATOM      8  O   UNL     1      20.866  -2.487  17.452  1.00  0.00    -0.550 OA
ATOM      9  O   UNL     1      23.018  -2.797  18.174  1.00  0.00    -0.550 OA
ENDBRANCH   6   7
ENDBRANCH   5   6
ENDBRANCH   4   5
ENDBRANCH   3   4
ENDBRANCH   2   3
ENDBRANCH   1   2
BRANCH   1  10
ATOM     10  C   UNL     1      19.975  -4.533  24.248  1.00  0.00     0.027 C 
BRANCH  10  11
ATOM     11  C   UNL     1      19.597  -5.337  23.028  1.00  0.00    -0.031 C 
ATOM     12  C   UNL     1      18.739  -4.924  22.076  1.00  0.00    -0.031 C 
BRANCH  12  13
ATOM     13  C   UNL     1      18.098  -3.560  22.034  1.00  0.00     0.027 C 
BRANCH  13  14
ATOM     14  C   UNL     1      16.575  -3.673  22.159  1.00  0.00     0.004 C 
BRANCH  14  15
ATOM     15  C   UNL     1      16.071  -2.934  23.407  1.00  0.00     0.000 C 
BRANCH  15  16
ATOM     16  C   UNL     1      16.459  -3.644  24.714  1.00  0.00    -0.000 C 
BRANCH  16  17
ATOM     17  C   UNL     1      17.104  -2.694  25.733  1.00  0.00    -0.003 C 
ATOM     18  C   UNL     1      17.735  -1.490  25.039  1.00  0.00     0.004 C 
ENDBRANCH  16  17
ENDBRANCH  15  16
ENDBRANCH  14  15
ENDBRANCH  13  14
ENDBRANCH  12  13
ENDBRANCH  10  11
ENDBRANCH   1  10
TORSDOF 13
ENDMDL
MODEL 2
REMARK VINA RESULT:    -4.304      3.194      5.583
REMARK INTER + INTRA:         -10.094
REMARK INTER:                  -7.389
REMARK INTRA:                  -2.705
REMARK UNBOUND:                -2.519
REMARK SMILES CCCCCCC=CCCCCCCCC(=O)[O-]
REMARK SMILES IDX 10 1 11 2 12 3 13 4 14 5 15 6 16 7 17 8 18 9 9 10 8 11 7 12
REMARK SMILES IDX 6 13 5 14 4 15 3 16 2 17 1 18
REMARK H PARENT
REMARK Flexibility Score: inf
ROOT
ATOM      1  C   UNL     1      20.642  -1.932  20.906  1.00  0.00     0.004 C 
ENDROOT
BRANCH   1   2
ATOM      2  C   UNL     1      19.460  -1.408  21.734  1.00  0.00     0.000 C 
BRANCH   2   3
ATOM      3  C   UNL     1      19.944  -0.487  22.862  1.00  0.00     0.000 C 
BRANCH   3   4
ATOM      4  C   UNL     1      19.224  -0.742  24.198  1.00  0.00     0.000 C 
BRANCH   4   5
ATOM      5  C   UNL     1      17.712  -1.023  24.082  1.00  0.00     0.006 C 
BRANCH   5   6
ATOM      6  C   UNL     1      17.127  -1.858  25.232  1.00  0.00     0.053 C 
BRANCH   6   7
ATOM      7  C   UNL     1      16.290  -2.994  24.731  1.00  0.00     0.041 C 
ATOM      8  O   UNL     1      16.134  -4.025  25.436  1.00  0.00    -0.550 OA
ATOM      9  O   UNL     1      15.654  -2.900  23.499  1.00  0.00    -0.550 OA
ENDBRANCH   6   7
ENDBRANCH   5   6
ENDBRANCH   4   5
ENDBRANCH   3   4
ENDBRANCH   2   3
ENDBRANCH   1   2
BRANCH   1  10
ATOM     10  C   UNL     1      21.872  -2.233  21.776  1.00  0.00     0.027 C 
BRANCH  10  11
ATOM     11  C   UNL     1      22.144  -3.715  21.873  1.00  0.00    -0.031 C 
ATOM     12  C   UNL     1      21.914  -4.465  22.966  1.00  0.00    -0.031 C 
BRANCH  12  13
ATOM     13  C   UNL     1      21.261  -3.962  24.229  1.00  0.00     0.027 C 
BRANCH  13  14
ATOM     14  C   UNL     1      19.777  -4.342  24.259  1.00  0.00     0.004 C 
BRANCH  14  15
ATOM     15  C   UNL     1      19.436  -5.313  23.120  1.00  0.00     0.000 C 
BRANCH  15  16
ATOM     16  C   UNL     1      18.358  -4.762  22.173  1.00  0.00    -0.000 C 
BRANCH  16  17
ATOM     17  C   UNL     1      18.651  -5.074  20.699  1.00  0.00    -0.003 C 
ATOM     18  C   UNL     1      19.519  -6.322  20.563  1.00  0.00     0.004 C 
ENDBRANCH  16  17
ENDBRANCH  15  16
ENDBRANCH  14  15
ENDBRANCH  13  14
ENDBRANCH  12  13
ENDBRANCH  10  11
ENDBRANCH   1  10
TORSDOF 13
ENDMDL
MODEL 3
REMARK VINA RESULT:    -4.291     13.009     15.263
REMARK INTER + INTRA:         -10.070
REMARK INTER:                  -8.376
REMARK INTRA:                  -1.695
REMARK UNBOUND:                -2.519
REMARK SMILES CCCCCCC=CCCCCCCCC(=O)[O-]
REMARK SMILES IDX 10 1 11 2 12 3 13 4 14 5 15 6 16 7 17 8 18 9 9 10 8 11 7 12
REMARK SMILES IDX 6 13 5 14 4 15 3 16 2 17 1 18
REMARK H PARENT
REMARK Flexibility Score: inf
ROOT
ATOM      1  C   UNL     1       8.460  -0.733  18.211  1.00  0.00     0.004 C 
ENDROOT
BRANCH   1   2
ATOM      2  C   UNL     1       7.051  -0.219  18.538  1.00  0.00     0.000 C 
BRANCH   2   3
ATOM      3  C   UNL     1       6.985   1.311  18.431  1.00  0.00     0.000 C 
BRANCH   3   4
ATOM      4  C   UNL     1       8.373   1.965  18.308  1.00  0.00     0.000 C 
BRANCH   4   5
ATOM      5  C   UNL     1       8.477   3.391  18.887  1.00  0.00     0.006 C 
BRANCH   5   6
ATOM      6  C   UNL     1       8.283   3.478  20.409  1.00  0.00     0.053 C 
BRANCH   6   7
ATOM      7  C   UNL     1       8.347   4.889  20.903  1.00  0.00     0.041 C 
ATOM      8  O   UNL     1       8.856   5.146  22.026  1.00  0.00    -0.550 OA
ATOM      9  O   UNL     1       7.874   5.927  20.109  1.00  0.00    -0.550 OA
ENDBRANCH   6   7
ENDBRANCH   5   6
ENDBRANCH   4   5
ENDBRANCH   3   4
ENDBRANCH   2   3
ENDBRANCH   1   2
BRANCH   1  10
ATOM     10  C   UNL     1       8.460  -1.714  17.028  1.00  0.00     0.027 C 
BRANCH  10  11
ATOM     11  C   UNL     1       8.541  -0.998  15.702  1.00  0.00    -0.031 C 
ATOM     12  C   UNL     1       7.509  -0.843  14.851  1.00  0.00    -0.031 C 
BRANCH  12  13
ATOM     13  C   UNL     1       6.093  -1.278  15.136  1.00  0.00     0.027 C 
BRANCH  13  14
ATOM     14  C   UNL     1       5.101  -0.489  14.274  1.00  0.00     0.004 C 
BRANCH  14  15
ATOM     15  C   UNL     1       5.240   1.021  14.521  1.00  0.00     0.000 C 
BRANCH  15  16
ATOM     16  C   UNL     1       4.661   1.455  15.876  1.00  0.00    -0.000 C 
BRANCH  16  17
ATOM     17  C   UNL     1       3.178   1.087  16.030  1.00  0.00    -0.003 C 
ATOM     18  C   UNL     1       2.932   0.331  17.334  1.00  0.00     0.004 C 
ENDBRANCH  16  17
ENDBRANCH  15  16
ENDBRANCH  14  15
ENDBRANCH  13  14
ENDBRANCH  12  13
ENDBRANCH  10  11
ENDBRANCH   1  10
TORSDOF 13
ENDMDL
MODEL 4
REMARK VINA RESULT:    -4.242     13.885     16.186
REMARK INTER + INTRA:          -9.985
REMARK INTER:                  -7.693
REMARK INTRA:                  -2.292
REMARK UNBOUND:                -2.519
REMARK SMILES CCCCCCC=CCCCCCCCC(=O)[O-]
REMARK SMILES IDX 10 1 11 2 12 3 13 4 14 5 15 6 16 7 17 8 18 9 9 10 8 11 7 12
REMARK SMILES IDX 6 13 5 14 4 15 3 16 2 17 1 18
REMARK H PARENT
REMARK Flexibility Score: inf
ROOT
ATOM      1  C   UNL     1      13.862   2.215   6.793  1.00  0.00     0.004 C 
ENDROOT
BRANCH   1   2
ATOM      2  C   UNL     1      12.770   1.819   7.797  1.00  0.00     0.000 C 
BRANCH   2   3
ATOM      3  C   UNL     1      12.903   0.344   8.200  1.00  0.00     0.000 C 
BRANCH   3   4
ATOM      4  C   UNL     1      14.241  -0.280   7.763  1.00  0.00     0.000 C 
BRANCH   4   5
ATOM      5  C   UNL     1      14.817  -1.335   8.730  1.00  0.00     0.006 C 
BRANCH   5   6
ATOM      6  C   UNL     1      15.977  -2.162   8.154  1.00  0.00     0.053 C 
BRANCH   6   7
ATOM      7  C   UNL     1      15.572  -3.574   7.868  1.00  0.00     0.041 C 
ATOM      8  O   UNL     1      16.299  -4.531   8.245  1.00  0.00    -0.550 OA
ATOM      9  O   UNL     1      14.374  -3.837   7.214  1.00  0.00    -0.550 OA
ENDBRANCH   6   7
ENDBRANCH   5   6
ENDBRANCH   4   5
ENDBRANCH   3   4
ENDBRANCH   2   3
ENDBRANCH   1   2
BRANCH   1  10
ATOM     10  C   UNL     1      14.427   3.616   7.073  1.00  0.00     0.027 C 
BRANCH  10  11
ATOM     11  C   UNL     1      13.418   4.700   6.778  1.00  0.00    -0.031 C 
ATOM     12  C   UNL     1      12.883   5.520   7.701  1.00  0.00    -0.031 C 
BRANCH  12  13
ATOM     13  C   UNL     1      13.280   5.545   9.156  1.00  0.00     0.027 C 
BRANCH  13  14
ATOM     14  C   UNL     1      12.190   4.908  10.025  1.00  0.00     0.004 C 
BRANCH  14  15
ATOM     15  C   UNL     1      12.779   3.818  10.932  1.00  0.00     0.000 C 
BRANCH  15  16
ATOM     16  C   UNL     1      14.293   3.642  10.740  1.00  0.00    -0.000 C 
BRANCH  16  17
ATOM     17  C   UNL     1      14.747   2.188  10.929  1.00  0.00    -0.003 C 
ATOM     18  C   UNL     1      16.007   1.895  10.117  1.00  0.00     0.004 C 
ENDBRANCH  16  17
ENDBRANCH  15  16
ENDBRANCH  14  15
ENDBRANCH  13  14
ENDBRANCH  12  13
ENDBRANCH  10  11
ENDBRANCH   1  10
TORSDOF 13
ENDMDL
MODEL 5
REMARK VINA RESULT:    -4.226     12.651     15.440
REMARK INTER + INTRA:          -9.956
REMARK INTER:                  -7.930
REMARK INTRA:                  -2.025
REMARK UNBOUND:                -2.519
REMARK SMILES CCCCCCC=CCCCCCCCC(=O)[O-]
REMARK SMILES IDX 10 1 11 2 12 3 13 4 14 5 15 6 16 7 17 8 18 9 9 10 8 11 7 12
REMARK SMILES IDX 6 13 5 14 4 15 3 16 2 17 1 18
REMARK H PARENT
REMARK Flexibility Score: inf
ROOT
ATOM      1  C   UNL     1       6.109   2.120  14.284  1.00  0.00     0.004 C 
ENDROOT
BRANCH   1   2
ATOM      2  C   UNL     1       7.359   3.011  14.296  1.00  0.00     0.000 C 
BRANCH   2   3
ATOM      3  C   UNL     1       7.929   3.138  15.716  1.00  0.00     0.000 C 
BRANCH   3   4
ATOM      4  C   UNL     1       7.852   4.573  16.269  1.00  0.00     0.000 C 
BRANCH   4   5
ATOM      5  C   UNL     1       7.007   4.736  17.549  1.00  0.00     0.006 C 
BRANCH   5   6
ATOM      6  C   UNL     1       7.436   5.902  18.452  1.00  0.00     0.053 C 
BRANCH   6   7
ATOM      7  C   UNL     1       7.812   5.439  19.825  1.00  0.00     0.041 C 
ATOM      8  O   UNL     1       7.422   6.077  20.839  1.00  0.00    -0.550 OA
ATOM      9  O   UNL     1       8.566   4.283  19.988  1.00  0.00    -0.550 OA
ENDBRANCH   6   7
ENDBRANCH   5   6
ENDBRANCH   4   5
ENDBRANCH   3   4
ENDBRANCH   2   3
ENDBRANCH   1   2
BRANCH   1  10
ATOM     10  C   UNL     1       6.358   0.761  14.955  1.00  0.00     0.027 C 
BRANCH  10  11
ATOM     11  C   UNL     1       5.176   0.317  15.783  1.00  0.00    -0.031 C 
ATOM     12  C   UNL     1       5.075   0.471  17.116  1.00  0.00    -0.031 C 
BRANCH  12  13
ATOM     13  C   UNL     1       6.082   1.196  17.973  1.00  0.00     0.027 C 
BRANCH  13  14
ATOM     14  C   UNL     1       7.049   0.204  18.629  1.00  0.00     0.004 C 
BRANCH  14  15
ATOM     15  C   UNL     1       8.506   0.558  18.297  1.00  0.00     0.000 C 
BRANCH  15  16
ATOM     16  C   UNL     1       9.240  -0.578  17.568  1.00  0.00    -0.000 C 
BRANCH  16  17
ATOM     17  C   UNL     1       8.460  -1.900  17.597  1.00  0.00    -0.003 C 
ATOM     18  C   UNL     1       8.070  -2.339  16.188  1.00  0.00     0.004 C 
ENDBRANCH  16  17
ENDBRANCH  15  16
ENDBRANCH  14  15
ENDBRANCH  13  14
ENDBRANCH  12  13
ENDBRANCH  10  11
ENDBRANCH   1  10
TORSDOF 13
ENDMDL
MODEL 6
REMARK VINA RESULT:    -4.204     12.556     15.325
REMARK INTER + INTRA:          -9.918
REMARK INTER:                  -7.641
REMARK INTRA:                  -2.277
REMARK UNBOUND:                -2.519
REMARK SMILES CCCCCCC=CCCCCCCCC(=O)[O-]
REMARK SMILES IDX 10 1 11 2 12 3 13 4 14 5 15 6 16 7 17 8 18 9 9 10 8 11 7 12
REMARK SMILES IDX 6 13 5 14 4 15 3 16 2 17 1 18
REMARK H PARENT
REMARK Flexibility Score: inf
ROOT
ATOM      1  C   UNL     1       5.873   1.898  17.334  1.00  0.00     0.004 C 
ENDROOT
BRANCH   1   2
ATOM      2  C   UNL     1       6.343   0.459  17.586  1.00  0.00     0.000 C 
BRANCH   2   3
ATOM      3  C   UNL     1       7.695   0.441  18.314  1.00  0.00     0.000 C 
BRANCH   3   4
ATOM      4  C   UNL     1       8.366  -0.943  18.302  1.00  0.00     0.000 C 
BRANCH   4   5
ATOM      5  C   UNL     1       8.867  -1.415  16.921  1.00  0.00     0.006 C 
BRANCH   5   6
ATOM      6  C   UNL     1       8.281  -2.758  16.455  1.00  0.00     0.053 C 
BRANCH   6   7
ATOM      7  C   UNL     1       9.139  -3.915  16.861  1.00  0.00     0.041 C 
ATOM      8  O   UNL     1      10.103  -4.276  16.135  1.00  0.00    -0.550 OA
ATOM      9  O   UNL     1       8.896  -4.576  18.059  1.00  0.00    -0.550 OA
ENDBRANCH   6   7
ENDBRANCH   5   6
ENDBRANCH   4   5
ENDBRANCH   3   4
ENDBRANCH   2   3
ENDBRANCH   1   2
BRANCH   1  10
ATOM     10  C   UNL     1       4.634   1.953  16.428  1.00  0.00     0.027 C 
BRANCH  10  11
ATOM     11  C   UNL     1       3.611   0.910  16.807  1.00  0.00    -0.031 C 
ATOM     12  C   UNL     1       3.124  -0.025  15.969  1.00  0.00    -0.031 C 
BRANCH  12  13
ATOM     13  C   UNL     1       3.596  -0.233  14.552  1.00  0.00     0.027 C 
BRANCH  13  14
ATOM     14  C   UNL     1       4.780  -1.206  14.513  1.00  0.00     0.004 C 
BRANCH  14  15
ATOM     15  C   UNL     1       5.766  -0.826  13.398  1.00  0.00     0.000 C 
BRANCH  15  16
ATOM     16  C   UNL     1       7.118  -0.343  13.944  1.00  0.00    -0.000 C 
BRANCH  16  17
ATOM     17  C   UNL     1       7.312   1.172  13.786  1.00  0.00    -0.003 C 
ATOM     18  C   UNL     1       8.445   1.677  14.675  1.00  0.00     0.004 C 
ENDBRANCH  16  17
ENDBRANCH  15  16
ENDBRANCH  14  15
ENDBRANCH  13  14
ENDBRANCH  12  13
ENDBRANCH  10  11
ENDBRANCH   1  10
TORSDOF 13
ENDMDL
MODEL 7
REMARK VINA RESULT:    -4.174     12.977     15.865
REMARK INTER + INTRA:          -9.864
REMARK INTER:                  -8.100
REMARK INTRA:                  -1.764
REMARK UNBOUND:                -2.519
REMARK SMILES CCCCCCC=CCCCCCCCC(=O)[O-]
REMARK SMILES IDX 10 1 11 2 12 3 13 4 14 5 15 6 16 7 17 8 18 9 9 10 8 11 7 12
REMARK SMILES IDX 6 13 5 14 4 15 3 16 2 17 1 18
REMARK H PARENT
REMARK Flexibility Score: inf
ROOT
ATOM      1  C   UNL     1       5.247   1.213  17.501  1.00  0.00     0.004 C 
ENDROOT
BRANCH   1   2
ATOM      2  C   UNL     1       5.828   2.511  16.922  1.00  0.00     0.000 C 
BRANCH   2   3
ATOM      3  C   UNL     1       6.884   3.108  17.862  1.00  0.00     0.000 C 
BRANCH   3   4
ATOM      4  C   UNL     1       6.691   2.685  19.329  1.00  0.00     0.000 C 
BRANCH   4   5
ATOM      5  C   UNL     1       7.821   3.113  20.287  1.00  0.00     0.006 C 
BRANCH   5   6
ATOM      6  C   UNL     1       8.272   4.573  20.131  1.00  0.00     0.053 C 
BRANCH   6   7
ATOM      7  C   UNL     1       8.102   5.352  21.398  1.00  0.00     0.041 C 
ATOM      8  O   UNL     1       8.869   5.147  22.376  1.00  0.00    -0.550 OA
ATOM      9  O   UNL     1       7.118   6.328  21.489  1.00  0.00    -0.550 OA
ENDBRANCH   6   7
ENDBRANCH   5   6
ENDBRANCH   4   5
ENDBRANCH   3   4
ENDBRANCH   2   3
ENDBRANCH   1   2
BRANCH   1  10
ATOM     10  C   UNL     1       4.010   0.734  16.725  1.00  0.00     0.027 C 
BRANCH  10  11
ATOM     11  C   UNL     1       3.941   1.341  15.345  1.00  0.00    -0.031 C 
ATOM     12  C   UNL     1       4.284   0.703  14.210  1.00  0.00    -0.031 C 
BRANCH  12  13
ATOM     13  C   UNL     1       4.699  -0.745  14.134  1.00  0.00     0.027 C 
BRANCH  13  14
ATOM     14  C   UNL     1       6.226  -0.870  14.113  1.00  0.00     0.004 C 
BRANCH  14  15
ATOM     15  C   UNL     1       6.744  -1.490  15.419  1.00  0.00     0.000 C 
BRANCH  15  16
ATOM     16  C   UNL     1       7.981  -0.764  15.971  1.00  0.00    -0.000 C 
BRANCH  16  17
ATOM     17  C   UNL     1       8.509  -1.398  17.265  1.00  0.00    -0.003 C 
ATOM     18  C   UNL     1       8.661  -0.353  18.367  1.00  0.00     0.004 C 
ENDBRANCH  16  17
ENDBRANCH  15  16
ENDBRANCH  14  15
ENDBRANCH  13  14
ENDBRANCH  12  13
ENDBRANCH  10  11
ENDBRANCH   1  10
TORSDOF 13
ENDMDL
MODEL 8
REMARK VINA RESULT:    -4.156      2.099      3.023
REMARK INTER + INTRA:          -9.833
REMARK INTER:                  -7.792
REMARK INTRA:                  -2.040
REMARK UNBOUND:                -2.519
REMARK SMILES CCCCCCC=CCCCCCCCC(=O)[O-]
REMARK SMILES IDX 10 1 11 2 12 3 13 4 14 5 15 6 16 7 17 8 18 9 9 10 8 11 7 12
REMARK SMILES IDX 6 13 5 14 4 15 3 16 2 17 1 18
REMARK H PARENT
REMARK Flexibility Score: inf
ROOT
ATOM      1  C   UNL     1      21.842  -2.298  21.728  1.00  0.00     0.004 C 
ENDROOT
BRANCH   1   2
ATOM      2  C   UNL     1      22.507  -1.486  22.849  1.00  0.00     0.000 C 
BRANCH   2   3
ATOM      3  C   UNL     1      21.510  -0.509  23.486  1.00  0.00     0.000 C 
BRANCH   3   4
ATOM      4  C   UNL     1      20.042  -0.889  23.219  1.00  0.00     0.000 C 
BRANCH   4   5
ATOM      5  C   UNL     1      19.290   0.046  22.250  1.00  0.00     0.006 C 
BRANCH   5   6
ATOM      6  C   UNL     1      18.527  -0.677  21.129  1.00  0.00     0.053 C 
BRANCH   6   7
ATOM      7  C   UNL     1      19.004  -0.268  19.770  1.00  0.00     0.041 C 
ATOM      8  O   UNL     1      18.768   0.890  19.337  1.00  0.00    -0.550 OA
ATOM      9  O   UNL     1      19.740  -1.156  18.995  1.00  0.00    -0.550 OA
ENDBRANCH   6   7
ENDBRANCH   5   6
ENDBRANCH   4   5
ENDBRANCH   3   4
ENDBRANCH   2   3
ENDBRANCH   1   2
BRANCH   1  10
ATOM     10  C   UNL     1      22.020  -3.811  21.924  1.00  0.00     0.027 C 
BRANCH  10  11
ATOM     11  C   UNL     1      21.650  -4.246  23.322  1.00  0.00    -0.031 C 
ATOM     12  C   UNL     1      20.433  -4.689  23.689  1.00  0.00    -0.031 C 
BRANCH  12  13
ATOM     13  C   UNL     1      19.281  -4.909  22.741  1.00  0.00     0.027 C 
BRANCH  13  14
ATOM     14  C   UNL     1      17.986  -4.326  23.319  1.00  0.00     0.004 C 
BRANCH  14  15
ATOM     15  C   UNL     1      18.236  -3.693  24.695  1.00  0.00     0.000 C 
BRANCH  15  16
ATOM     16  C   UNL     1      16.950  -3.155  25.342  1.00  0.00    -0.000 C 
BRANCH  16  17
ATOM     17  C   UNL     1      17.141  -1.767  25.971  1.00  0.00    -0.003 C 
ATOM     18  C   UNL     1      16.753  -0.662  24.993  1.00  0.00     0.004 C 
ENDBRANCH  16  17
ENDBRANCH  15  16
ENDBRANCH  14  15
ENDBRANCH  13  14
ENDBRANCH  12  13
ENDBRANCH  10  11
ENDBRANCH   1  10
TORSDOF 13
ENDMDL
MODEL 9
REMARK VINA RESULT:    -4.148      1.404      2.365
REMARK INTER + INTRA:          -9.819
REMARK INTER:                  -7.425
REMARK INTRA:                  -2.394
REMARK UNBOUND:                -2.519
REMARK SMILES CCCCCCC=CCCCCCCCC(=O)[O-]
REMARK SMILES IDX 10 1 11 2 12 3 13 4 14 5 15 6 16 7 17 8 18 9 9 10 8 11 7 12
REMARK SMILES IDX 6 13 5 14 4 15 3 16 2 17 1 18
REMARK H PARENT
REMARK Flexibility Score: inf
ROOT
ATOM      1  C   UNL     1      21.035  -2.574  23.403  1.00  0.00     0.004 C 
ENDROOT
BRANCH   1   2
ATOM      2  C   UNL     1      21.501  -2.096  22.019  1.00  0.00     0.000 C 
BRANCH   2   3
ATOM      3  C   UNL     1      22.735  -2.880  21.554  1.00  0.00     0.000 C 
BRANCH   3   4
ATOM      4  C   UNL     1      22.622  -3.373  20.100  1.00  0.00     0.000 C 
BRANCH   4   5
ATOM      5  C   UNL     1      21.515  -2.697  19.265  1.00  0.00     0.006 C 
BRANCH   5   6
ATOM      6  C   UNL     1      21.560  -3.022  17.764  1.00  0.00     0.053 C 
BRANCH   6   7
ATOM      7  C   UNL     1      21.336  -4.478  17.497  1.00  0.00     0.041 C 
ATOM      8  O   UNL     1      20.242  -5.018  17.808  1.00  0.00    -0.550 OA
ATOM      9  O   UNL     1      22.323  -5.232  16.875  1.00  0.00    -0.550 OA
ENDBRANCH   6   7
ENDBRANCH   5   6
ENDBRANCH   4   5
ENDBRANCH   3   4
ENDBRANCH   2   3
ENDBRANCH   1   2
BRANCH   1  10
ATOM     10  C   UNL     1      21.437  -4.031  23.679  1.00  0.00     0.027 C 
BRANCH  10  11
ATOM     11  C   UNL     1      20.240  -4.895  23.993  1.00  0.00    -0.031 C 
ATOM     12  C   UNL     1      19.449  -5.473  23.069  1.00  0.00    -0.031 C 
BRANCH  12  13
ATOM     13  C   UNL     1      19.693  -5.423  21.581  1.00  0.00     0.027 C 
BRANCH  13  14
ATOM     14  C   UNL     1      18.419  -5.008  20.837  1.00  0.00     0.004 C 
BRANCH  14  15
ATOM     15  C   UNL     1      18.417  -3.499  20.553  1.00  0.00     0.000 C 
BRANCH  15  16
ATOM     16  C   UNL     1      17.695  -2.691  21.643  1.00  0.00    -0.000 C 
BRANCH  16  17
ATOM     17  C   UNL     1      16.489  -3.438  22.229  1.00  0.00    -0.003 C 
ATOM     18  C   UNL     1      16.098  -2.867  23.590  1.00  0.00     0.004 C 
ENDBRANCH  16  17
ENDBRANCH  15  16
ENDBRANCH  14  15
ENDBRANCH  13  14
ENDBRANCH  12  13
ENDBRANCH  10  11
ENDBRANCH   1  10
TORSDOF 13
ENDMDL
